AV-unprocessed.smi:3085|AV-procd|sdf|11750|dock3
  -GOLD-   2272017143D 1   1.00000     0.00000
 Structure written by MMmdl.
 28 29  0  0  0  0  0  0  0  0  2 V2000
  153.1231  143.1477  162.0646 C   0  0  0  0  0  0  0  0  0  0  0  0
  153.7988  141.9744  161.3466 C   0  0  0  0  0  0  0  0  0  0  0  0
  153.1177  141.6180  160.0663 C   0  0  0  0  0  0  0  0  0  0  0  0
  152.1695  142.3388  159.4769 N   0  0  0  0  0  0  0  0  0  0  0  0
  151.9093  141.5557  158.3863 C   0  0  0  0  0  0  0  0  0  0  0  0
  150.8454  141.9038  157.3913 C   0  0  2  0  0  0  0  0  0  0  0  0
  149.4874  142.1805  158.0637 C   0  0  0  0  0  0  0  0  0  0  0  0
  148.4595  142.4287  157.0344 N   0  3  0  0  0  0  0  0  0  0  0  0
  148.3883  141.3191  156.0630 C   0  0  0  0  0  0  0  0  0  0  0  0
  149.7787  141.0538  155.4577 C   0  0  0  0  0  0  0  0  0  0  0  0
  150.7180  140.7992  156.4976 O   0  0  0  0  0  0  0  0  0  0  0  0
  152.6065  140.4217  158.3052 N   0  0  0  0  0  0  0  0  0  0  0  0
  153.3899  140.4932  159.4019 N   0  0  0  0  0  0  0  0  0  0  0  0
  154.0586  139.7779  159.6511 H   0  0  0  0  0  0  0  0  0  0  0  0
  153.6413  143.3857  162.9936 H   0  0  0  0  0  0  0  0  0  0  0  0
  152.0870  142.9133  162.3112 H   0  0  0  0  0  0  0  0  0  0  0  0
  153.1256  144.0438  161.4430 H   0  0  0  0  0  0  0  0  0  0  0  0
  154.8391  142.2210  161.1317 H   0  0  0  0  0  0  0  0  0  0  0  0
  153.8150  141.0997  161.9982 H   0  0  0  0  0  0  0  0  0  0  0  0
  151.1712  142.7820  156.8303 H   0  0  0  0  0  0  0  0  0  0  0  0
  149.1824  141.3286  158.6733 H   0  0  0  0  0  0  0  0  0  0  0  0
  149.5531  143.0443  158.7257 H   0  0  0  0  0  0  0  0  0  0  0  0
  147.5598  142.5469  157.4783 H   0  0  0  0  0  0  0  0  0  0  0  0
  148.0197  140.4243  156.5666 H   0  0  0  0  0  0  0  0  0  0  0  0
  147.6699  141.5678  155.2816 H   0  0  0  0  0  0  0  0  0  0  0  0
  149.7414  140.1894  154.7944 H   0  0  0  0  0  0  0  0  0  0  0  0
  150.1085  141.9022  154.8557 H   0  0  0  0  0  0  0  0  0  0  0  0
  148.6968  143.2768  156.5394 H   0  0  0  0  0  0  0  0  0  0  0  0
  1  2  1  0  0  0  0
  1 15  1  0  0  0  0
  1 16  1  0  0  0  0
  1 17  1  0  0  0  0
  2  3  1  0  0  0  0
  2 18  1  0  0  0  0
  2 19  1  0  0  0  0
  3 13  1  0  0  0  0
  3  4  2  0  0  0  0
  4  5  1  0  0  0  0
  5  6  1  0  0  0  0
  5 12  2  0  0  0  0
  6 11  1  0  0  0  0
  6  7  1  0  0  0  0
  6 20  1  0  0  0  0
  7  8  1  0  0  0  0
  7 21  1  0  0  0  0
  7 22  1  0  0  0  0
  8  9  1  0  0  0  0
  8 23  1  0  0  0  0
  8 28  1  0  0  0  0
  9 10  1  0  0  0  0
  9 24  1  0  0  0  0
  9 25  1  0  0  0  0
 10 11  1  0  0  0  0
 10 26  1  0  0  0  0
 10 27  1  0  0  0  0
 12 13  1  0  0  0  0
 13 14  1  0  0  0  0
M  CHG  1   8   1
M  END
> <s_m_source_file>
AV-unprocessed.smi

> <i_m_source_file_index>
3085

> <i_lp_mmshare_version>
43012

> <i_f3d_flags>
0

> <s_epik_input>
W0NIM11bQ0gyXWMxbmMobltuSF0xKVtDQEBIXTJbQ0gyXVtOSF1bQ0gyXVtDSDJdTzI=

> <s_epik_cmdline>
J2VwaWtfcHl0aG9uJywgJy1waCcsICc3LjAnLCAnLXRuJywgJzgnLCAnLW1hJywgJzIwMCcsICctbWV0YWxfYmluZGluZycsICctaW1hZScsICc8aW5maWxlLm1hZT4nLCAnLW9tYWUnLCAnPG91dGZpbGUubWFlPic=

> <r_lp_tautomer_probability>
0.948284

> <r_epik_Ionization_Penalty>
0.107151

> <r_epik_Ionization_Penalty_Charging>
0.100865

> <r_epik_Ionization_Penalty_Neutral>
0.00628602

> <r_epik_State_Penalty>
0.429695

> <r_epik_Charging_Adjusted_Penalty>
0.530559

> <i_epik_Tot_Q>
1

> <i_epik_Tot_abs_Q>
1

> <r_epik_Metal_State_Penalty>
0.651827

> <b_epik_Metal_Only>
0

> <s_lp_Force_Field>
OPLS_2005

> <r_lp_Energy>
10.1089

> <b_lp_Chiralities_Consistent>
1

> <s_lp_Variant>
AV-unprocessed.smi:3085-1

> <Gold.Version>
5.8.1

> <Gold.Id.Protein>
6NUR|6NUR_protein|mol2

> <Gold.PLP.Fitness>
32.1284

> <Gold.PLP.PLP>
-25.0169

> <Gold.PLP.part.hbond>
-2.0000

> <Gold.PLP.part.metal>
0.0000

> <Gold.PLP.part.buried>
-2.8759

> <Gold.PLP.part.nonpolar>
-19.2930

> <Gold.PLP.part.repulsive>
0.1164

> <Gold.PLP.ligand.clash>
0.0000

> <Gold.PLP.ligand.torsion>
0.1906

> <Gold.PLP.Chemscore.Hbond>
2.4913

> <Gold.PLP.Chemscore.CHOScore>
0.0000

> <Gold.PLP.Chemscore.Metal>
0.0000

> <Gold.Chemscore.Hbonds>
donor molecule, donor type, donor heavy atom, donor atom, acceptor molecule, acceptor atom, score
      L1  H     8    28       P1  8028  2.00
      P1  H  7997  8008       L1    12  0.06

> <Gold.PLP.Chemscore.Internal.Correction>
0.0188

> <Gold.Rescore>
     Score         DG    S(hbond)    S(metal)    S(lipo)     H(rot)  DE(clash)    DE(int)     intcor
     10.83     -10.93       0.99        0.00      46.76       1.30       0.01       0.08       ----

> <Gold.Chemscore.Fitness>
10.8348

> <Gold.Chemscore.DG>
-10.9284

> <Gold.Chemscore.ZeroCoef>
-5.4800

> <Gold.Chemscore.Hbond>
0.9904

> <Gold.Chemscore.Metal>
0.0000

> <Gold.Chemscore.Lipo>
46.7639

> <Gold.Chemscore.Internal_Hbond>
0.0000

> <Gold.Chemscore.DEClash>
0.0149

> <Gold.Chemscore.DEInternal>
0.0788

> <Gold.Chemscore.Rot>
1.3011

> <Gold.Chemscore.Internal.Correction>
   9.000000E+99

> <Gold.Chemscore.Hbonds>
donor molecule, donor type, donor heavy atom, donor atom, acceptor molecule, acceptor atom, score
      L1  H     8    28       P1  8028  0.82
      P1  H  7997  8008       L1    12  0.01

> <Gold.Chemscore.Hbond.Weighted>
-3.3079

> <Gold.Chemscore.Metal.Weighted>
-0.0000

> <Gold.Chemscore.Lipo.Weighted>
-5.4714

> <Gold.Chemscore.Internal_Hbond.Weighted>
0.0000

> <Gold.Chemscore.DEClash.Weighted>
0.0149

> <Gold.Chemscore.DEInternal.Weighted>
0.0788

> <Gold.Chemscore.Rot.Weighted>
3.3308

> <Gold.Chemscore.Internal.Correction.Weighted>
   9.000000E+99

> <Gold.Protein.RotatedTorsions>
[ 6907 6896 6895 6894 ] final  -32.99 input  -60.11 | X-H torsion
[ 7974 7965 7964 7962 ] final  -61.00 input  175.53 | X-H torsion
[ 8008 7997 7996 7995 ] final  -70.95 input   59.86 | X-H torsion
[ 10167 10162 10161 10158 ] final -164.84 input  -65.29 | X-H torsion
[ 10718 10713 10712 10709 ] final  145.88 input   66.30 | X-H torsion
[ 10763 10752 10751 10750 ] final  -96.27 input  -60.55 | X-H torsion
[ 11005 11000 10999 10996 ] final   10.02 input  -57.11 | X-H torsion

> <Gold.Protein.ActiveResidues>
 VAL166  LYS551  ARG553  GLY616  TRP617  ASP618  TYR619  PRO620  LYS621  CYS622 
 ASP623  PHE694  ASN695  SER759  ASP760  ASP761  ALA762  ILE779  LEU786  VAL792 
 PHE793  MET794  SER795  GLU796  ALA797  LYS798  CYS799  TRP800  GLU811  SER814 

> <Gold.Protein.RotatedAtoms>
  151.0715  134.9801  159.8310 H   0  0  0  0  0  0  0  0  0  0  0  0  # atno 6907 bound_to 6896
  152.5409  134.2293  159.8829 H   0  0  0  0  0  0  0  0  0  0  0  0  # atno 6908 bound_to 6896
  151.2318  133.4402  159.2637 H   0  0  0  0  0  0  0  0  0  0  0  0  # atno 6909 bound_to 6896
  145.8087  140.8612  143.0193 H   0  0  0  0  0  0  0  0  0  0  0  0  # atno 7974 bound_to 7965
  154.5050  140.0825  156.7876 H   0  0  0  0  0  0  0  0  0  0  0  0  # atno 8008 bound_to 7997
  155.3914  140.3432  155.4233 H   0  0  0  0  0  0  0  0  0  0  0  0  # atno 8009 bound_to 7997
  156.1504  140.1557  156.8766 H   0  0  0  0  0  0  0  0  0  0  0  0  # atno 8010 bound_to 7997
  139.6222  144.0601  152.1943 H   0  0  0  0  0  0  0  0  0  0  0  0  # atno 10167 bound_to 10162
  157.3400  131.0934  151.1091 H   0  0  0  0  0  0  0  0  0  0  0  0  # atno 10718 bound_to 10713
  154.7224  135.5090  153.8833 H   0  0  0  0  0  0  0  0  0  0  0  0  # atno 10763 bound_to 10752
  153.0874  135.6649  153.9929 H   0  0  0  0  0  0  0  0  0  0  0  0  # atno 10764 bound_to 10752
  153.9749  135.3034  155.3404 H   0  0  0  0  0  0  0  0  0  0  0  0  # atno 10765 bound_to 10752
  140.5192  134.0576  155.7840 H   0  0  0  0  0  0  0  0  0  0  0  0  # atno 11005 bound_to 11000
  144.6760  140.0364  143.7481 LP  0  0  0  0  0  0  0  0  0  0  0  0  # atno 17320 bound_to 7965
  145.9800  139.2934  143.1047 LP  0  0  0  0  0  0  0  0  0  0  0  0  # atno 17321 bound_to 7965
  140.0246  144.6127  150.7538 LP  0  0  0  0  0  0  0  0  0  0  0  0  # atno 17342 bound_to 10162
  140.7389  143.2784  151.3671 LP  0  0  0  0  0  0  0  0  0  0  0  0  # atno 17343 bound_to 10162
  157.2306  130.6523  149.5848 LP  0  0  0  0  0  0  0  0  0  0  0  0  # atno 17370 bound_to 10713
  155.9706  130.4600  150.6056 LP  0  0  0  0  0  0  0  0  0  0  0  0  # atno 17371 bound_to 10713
  141.1344  133.9247  157.2467 LP  0  0  0  0  0  0  0  0  0  0  0  0  # atno 17394 bound_to 11000
  139.9615  135.0153  156.9275 LP  0  0  0  0  0  0  0  0  0  0  0  0  # atno 17395 bound_to 11000

$$$$
