#       Name:                AV-unprocessed.smi:2597
#       Creating user name   scv26
#       Creation time:       Fri Mar 27 14:18:37 2020


#       File generated by GOLD software.
#

@<TRIPOS>MOLECULE
AV-unprocessed.smi:2597
    35    36     1
SMALL
NO_CHARGES


@<TRIPOS>ATOM
      1 ****        -0.7054   0.0423  -2.3441 N.4            1 S1                 1.0000
      2 ****        -1.1162  -0.6390  -1.1019 C.3            1 S1                 0.0000
      3 ****        -2.6533  -0.6980  -1.0155 C.3            1 S1                 0.0000
      4 ****        -3.1204  -1.3762   0.2820 C.3            1 S1                 0.0000
      5 ****        -2.5349  -0.6742   1.5160 C.3            1 S1                 0.0000
      6 ****        -1.0015  -0.6174   1.4449 C.3            1 S1                 0.0000
      7 ****        -0.5191   0.0619   0.1462 C.3            1 S1                 0.0000
      8 ****         0.9370   0.1215   0.1127 N.pl3          1 S1                 0.0000
      9 ****         1.7478   1.2204   0.3089 C.2            1 S1                 0.0000
     10 ****         3.0108   0.7111   0.1984 C.2            1 S1                 0.0000
     11 ****         4.3302   1.4105   0.3177 C.3            1 S1                 0.0000
     12 ****         4.4343   1.8534   1.6535 O.3            1 S1                 0.0000
     13 ****         2.9194  -0.6564  -0.0547 N.2            1 S1                 0.0000
     14 ****         1.6716  -1.0011  -0.0897 N.2            1 S1                 0.0000
     15 ****        -0.7412  -1.6620  -1.1572 H              1 S1                 0.0000
     16 ****        -0.8782   1.0927   0.1586 H              1 S1                 0.0000
     17 ****        -1.0503   0.9916  -2.3400 H              1 S1                 0.0000
     18 ****        -1.0843  -0.4500  -3.1405 H              1 S1                 0.0000
     19 ****        -3.0665   0.3106  -1.0627 H              1 S1                 0.0000
     20 ****        -3.0564  -1.2374  -1.8735 H              1 S1                 0.0000
     21 ****        -4.2096  -1.3700   0.3341 H              1 S1                 0.0000
     22 ****        -2.8171  -2.4240   0.2785 H              1 S1                 0.0000
     23 ****        -2.9361   0.3375   1.5877 H              1 S1                 0.0000
     24 ****        -2.8454  -1.1951   2.4223 H              1 S1                 0.0000
     25 ****        -0.6152  -0.0809   2.3125 H              1 S1                 0.0000
     26 ****        -0.6019  -1.6306   1.5077 H              1 S1                 0.0000
     27 ****         1.3788   2.2158   0.5074 H              1 S1                 0.0000
     28 ****         5.1628   0.7450   0.0876 H              1 S1                 0.0000
     29 ****         4.3882   2.2644  -0.3572 H              1 S1                 0.0000
     30 ****         5.2685   2.2836   1.7631 H              1 S1                 0.0000
     31 ****         0.3032   0.0515  -2.4036 H              1 S1                 0.0000
     32 ****         4.3742   1.0712   2.2738 LP             1 S1                 0.0000
     33 ****         3.6947   2.4957   1.8544 LP             1 S1                 0.0000
     34 ****         3.6947  -1.2738  -0.1881 LP             1 S1                 0.0000
     35 ****         1.3155  -1.9237  -0.2383 LP             1 S1                 0.0000
@<TRIPOS>BOND
    1    1    2 1     
    2    1   17 1     
    3    1   18 1     
    4    1   31 1     
    5    2   15 1     
    6    2    7 1     
    7    2    3 1     
    8    3    4 1     
    9    3   19 1     
   10    3   20 1     
   11    4    5 1     
   12    4   21 1     
   13    4   22 1     
   14    5    6 1     
   15    5   23 1     
   16    5   24 1     
   17    6    7 1     
   18    6   25 1     
   19    6   26 1     
   20    7   16 1     
   21    7    8 1     
   22    8   14 1     
   23    8    9 1     
   24    9   10 2     
   25    9   27 1     
   26   10   11 1     
   27   10   13 1     
   28   11   12 1     
   29   11   28 1     
   30   11   29 1     
   31   12   30 1     
   32   13   14 2     
   33   12   32 1     
   34   12   33 1     
   35   13   34 1     
   36   14   35 1     
@<TRIPOS>SUBSTRUCTURE
      1 S1             1
@<TRIPOS>SET
LONE_PAIRS      STATIC     ATOMS    <user>   **** ""
4 32 33 34 35
DONOR_HYDROGENS      STATIC     ATOMS    <user>   **** ""
4 17 18 31 30
ATOM$BLUE        STATIC     ATOMS    COLORGROUP SYSTEM
4 32 33 34 35
ATOM$RED        STATIC     ATOMS    COLORGROUP SYSTEM
4 17 18 31 30
