AV-unprocessed.smi:268|AV-procd|sdf|2041|dock2
  -GOLD-   2262021253D 1   1.00000     0.00000
 Structure written by MMmdl.
 50 53  0  0  0  0  0  0  0  0  1 V2000
  143.8757  135.0957  163.0151 C   0  0  0  0  0  0  0  0  0  0  0  0
  144.7741  134.2946  162.0636 C   0  0  0  0  0  0  0  0  0  0  0  0
  145.8131  133.6054  162.7463 O   0  0  0  0  0  0  0  0  0  0  0  0
  147.0624  133.5971  162.0703 C   0  0  2  0  0  0  0  0  0  0  0  0
  147.5693  134.9820  161.6417 C   0  0  0  0  0  0  0  0  0  0  0  0
  147.9729  134.3422  160.3018 C   0  0  2  0  0  0  0  0  0  0  0  0
  147.6914  135.1741  159.1293 N   0  0  0  0  0  0  0  0  0  0  0  0
  147.3773  134.4863  157.8809 C   0  0  0  0  0  0  0  0  0  0  0  0
  148.4290  136.3010  158.9463 C   0  0  0  0  0  0  0  0  0  0  0  0
  149.6966  136.3731  159.4351 N   0  0  0  0  0  0  0  0  0  0  0  0
  150.4318  137.4731  159.2496 C   0  0  0  0  0  0  0  0  0  0  0  0
  150.1025  138.5989  158.6141 N   0  0  0  0  0  0  0  0  0  0  0  0
  148.8333  138.5339  158.1198 C   0  0  0  0  0  0  0  0  0  0  0  0
  147.9380  137.4333  158.2363 C   0  0  0  0  0  0  0  0  0  0  0  0
  146.7343  137.7370  157.6109 N   0  0  0  0  0  0  0  0  0  0  0  0
  146.9089  138.9454  157.1501 C   0  0  0  0  0  0  0  0  0  0  0  0
  148.1379  139.5045  157.4192 N   0  0  0  0  0  0  0  0  0  0  0  0
  148.5990  140.8294  157.0334 C   0  0  0  0  0  0  0  0  0  0  0  0
  149.3941  140.8524  155.7145 C   0  0  0  0  0  0  0  0  0  0  0  0
  148.4978  141.4436  154.6068 C   0  0  0  0  0  0  0  0  0  0  0  0
  149.1135  141.4073  153.3347 O   0  0  0  0  0  0  0  0  0  0  0  0
  150.8104  141.4348  155.8264 C   0  0  0  0  0  0  0  0  0  0  0  0
  151.4064  140.2583  155.2367 O   0  0  0  0  0  0  0  0  0  0  0  0
  150.1460  139.5625  155.3558 C   0  0  0  0  0  0  0  0  0  0  0  0
  146.8910  133.2873  160.5773 C   0  0  0  0  0  0  0  0  0  0  0  0
  143.1665  135.7035  162.4531 H   0  0  0  0  0  0  0  0  0  0  0  0
  144.4663  135.7657  163.6400 H   0  0  0  0  0  0  0  0  0  0  0  0
  143.2968  134.4445  163.6687 H   0  0  0  0  0  0  0  0  0  0  0  0
  144.1850  133.6053  161.4567 H   0  0  0  0  0  0  0  0  0  0  0  0
  145.2488  134.9864  161.3676 H   0  0  0  0  0  0  0  0  0  0  0  0
  147.8303  132.9703  162.5290 H   0  0  0  0  0  0  0  0  0  0  0  0
  146.7678  135.7182  161.5514 H   0  0  0  0  0  0  0  0  0  0  0  0
  148.4044  135.3638  162.2293 H   0  0  0  0  0  0  0  0  0  0  0  0
  148.9782  133.9177  160.3273 H   0  0  0  0  0  0  0  0  0  0  0  0
  146.4080  134.8156  157.5059 H   0  0  0  0  0  0  0  0  0  0  0  0
  147.3292  133.4068  158.0259 H   0  0  0  0  0  0  0  0  0  0  0  0
  148.1270  134.6797  157.1117 H   0  0  0  0  0  0  0  0  0  0  0  0
  151.4261  137.4470  159.6706 H   0  0  0  0  0  0  0  0  0  0  0  0
  146.1381  139.4651  156.6004 H   0  0  0  0  0  0  0  0  0  0  0  0
  147.7344  141.4911  156.9687 H   0  0  0  0  0  0  0  0  0  0  0  0
  149.2050  141.2185  157.8525 H   0  0  0  0  0  0  0  0  0  0  0  0
  147.5600  140.8944  154.5234 H   0  0  0  0  0  0  0  0  0  0  0  0
  148.2399  142.4798  154.8283 H   0  0  0  0  0  0  0  0  0  0  0  0
  148.6393  140.7992  152.7884 H   0  0  0  0  0  0  0  0  0  0  0  0
  150.9779  142.3337  155.2322 H   0  0  0  0  0  0  0  0  0  0  0  0
  151.1478  141.5855  156.8530 H   0  0  0  0  0  0  0  0  0  0  0  0
  150.1726  138.8238  156.1574 H   0  0  0  0  0  0  0  0  0  0  0  0
  149.8286  139.1052  154.4182 H   0  0  0  0  0  0  0  0  0  0  0  0
  147.1622  132.2712  160.2901 H   0  0  0  0  0  0  0  0  0  0  0  0
  145.9057  133.5643  160.1965 H   0  0  0  0  0  0  0  0  0  0  0  0
  1  2  1  0  0  0  0
  1 26  1  0  0  0  0
  1 27  1  0  0  0  0
  1 28  1  0  0  0  0
  2  3  1  0  0  0  0
  2 29  1  0  0  0  0
  2 30  1  0  0  0  0
  3  4  1  0  0  0  0
  4 25  1  0  0  0  0
  4  5  1  0  0  0  0
  4 31  1  0  0  0  0
  5  6  1  0  0  0  0
  5 32  1  0  0  0  0
  5 33  1  0  0  0  0
  6  7  1  0  0  0  0
  6 25  1  0  0  0  0
  6 34  1  0  0  0  0
  7  8  1  0  0  0  0
  7  9  1  0  0  0  0
  8 35  1  0  0  0  0
  8 36  1  0  0  0  0
  8 37  1  0  0  0  0
  9 14  1  0  0  0  0
  9 10  2  0  0  0  0
 10 11  1  0  0  0  0
 11 12  2  0  0  0  0
 11 38  1  0  0  0  0
 12 13  1  0  0  0  0
 13 17  1  0  0  0  0
 13 14  2  0  0  0  0
 14 15  1  0  0  0  0
 15 16  2  0  0  0  0
 16 17  1  0  0  0  0
 16 39  1  0  0  0  0
 17 18  1  0  0  0  0
 18 19  1  0  0  0  0
 18 40  1  0  0  0  0
 18 41  1  0  0  0  0
 19 24  1  0  0  0  0
 19 20  1  0  0  0  0
 19 22  1  0  0  0  0
 20 21  1  0  0  0  0
 20 42  1  0  0  0  0
 20 43  1  0  0  0  0
 21 44  1  0  0  0  0
 22 23  1  0  0  0  0
 22 45  1  0  0  0  0
 22 46  1  0  0  0  0
 23 24  1  0  0  0  0
 24 47  1  0  0  0  0
 24 48  1  0  0  0  0
 25 49  1  0  0  0  0
 25 50  1  0  0  0  0
M  END
> <s_m_source_file>
AV-unprocessed.smi

> <i_m_source_file_index>
268

> <i_lp_mmshare_version>
43012

> <i_f3d_flags>
0

> <s_epik_input>
W0NIM11bQ0gyXU9bQ0BASF0xW0NIMl1bQ0BIXShbQ0gyXTEpTihbQ0gzXSljKG5bY0hdbjIpYyhjMjMpbltjSF1uM1tDSDJdQzQoW0NIMl1bT0hdKVtDSDJdT1tDSDJdNA==

> <s_epik_cmdline>
J2VwaWtfcHl0aG9uJywgJy1waCcsICc3LjAnLCAnLXRuJywgJzgnLCAnLW1hJywgJzIwMCcsICctbWV0YWxfYmluZGluZycsICctaW1hZScsICc8aW5maWxlLm1hZT4nLCAnLW9tYWUnLCAnPG91dGZpbGUubWFlPic=

> <r_lp_tautomer_probability>
1

> <r_epik_Ionization_Penalty>
0.00205824

> <r_epik_Ionization_Penalty_Charging>
0

> <r_epik_Ionization_Penalty_Neutral>
0.00205824

> <r_epik_State_Penalty>
0.00125218

> <r_epik_Charging_Adjusted_Penalty>
0.00125218

> <i_epik_Tot_Q>
0

> <i_epik_Tot_abs_Q>
0

> <r_epik_Metal_State_Penalty>
-0

> <b_epik_Metal_Only>
0

> <s_lp_Force_Field>
OPLS_2005

> <r_lp_Energy>
41.5967

> <b_lp_Chiralities_Consistent>
1

> <s_lp_Variant>
AV-unprocessed.smi:268-2

> <Gold.Version>
5.8.1

> <Gold.Id.Protein>
6NUR|6NUR_protein|mol2

> <Gold.PLP.Fitness>
43.5245

> <Gold.PLP.PLP>
-36.5762

> <Gold.PLP.part.hbond>
-5.6653

> <Gold.PLP.part.metal>
0.0000

> <Gold.PLP.part.buried>
-6.3864

> <Gold.PLP.part.nonpolar>
-24.9012

> <Gold.PLP.part.repulsive>
0.0711

> <Gold.PLP.ligand.clash>
0.0000

> <Gold.PLP.ligand.torsion>
2.3562

> <Gold.PLP.Chemscore.Hbond>
3.3200

> <Gold.PLP.Chemscore.CHOScore>
0.0000

> <Gold.PLP.Chemscore.Metal>
0.0000

> <Gold.Chemscore.Hbonds>
donor molecule, donor type, donor heavy atom, donor atom, acceptor molecule, acceptor atom, score
      L1  H    21    44       P1  7957  0.35
      P1  H  6896  6908       L1    10  1.00
      P1  H  7989  7998       L1    23  0.94
      P1  H  8011  8017       L1    21  0.96

> <Gold.PLP.Chemscore.Internal.Correction>
1.7008

> <Gold.Rescore>
     Score         DG    S(hbond)    S(metal)    S(lipo)     H(rot)  DE(clash)    DE(int)     intcor
     11.15     -13.84       2.46        0.00      70.36       3.15       0.25       2.44       ----

> <Gold.Chemscore.Fitness>
11.1495

> <Gold.Chemscore.DG>
-13.8418

> <Gold.Chemscore.ZeroCoef>
-5.4800

> <Gold.Chemscore.Hbond>
2.4564

> <Gold.Chemscore.Metal>
0.0000

> <Gold.Chemscore.Lipo>
70.3608

> <Gold.Chemscore.Internal_Hbond>
0.0000

> <Gold.Chemscore.DEClash>
0.2487

> <Gold.Chemscore.DEInternal>
2.4435

> <Gold.Chemscore.Rot>
3.1542

> <Gold.Chemscore.Internal.Correction>
   9.000000E+99

> <Gold.Chemscore.Hbonds>
donor molecule, donor type, donor heavy atom, donor atom, acceptor molecule, acceptor atom, score
      L1  H    21    44       P1  7957  0.33
      P1  H  6896  6908       L1    10  0.55
      P1  H  7989  7998       L1    23  0.16
      P1  H  8011  8017       L1    21  0.45

> <Gold.Chemscore.Hbond.Weighted>
-8.2043

> <Gold.Chemscore.Metal.Weighted>
-0.0000

> <Gold.Chemscore.Lipo.Weighted>
-8.2322

> <Gold.Chemscore.Internal_Hbond.Weighted>
0.0000

> <Gold.Chemscore.DEClash.Weighted>
0.2487

> <Gold.Chemscore.DEInternal.Weighted>
2.4435

> <Gold.Chemscore.Rot.Weighted>
8.0748

> <Gold.Chemscore.Internal.Correction.Weighted>
   9.000000E+99

> <Gold.Protein.RotatedTorsions>
[ 6907 6896 6895 6894 ] final -159.72 input  -60.11 | X-H torsion
[ 7974 7965 7964 7962 ] final   42.29 input  175.53 | X-H torsion
[ 8008 7997 7996 7995 ] final    0.48 input   59.86 | X-H torsion
[ 10167 10162 10161 10158 ] final  -57.27 input  -65.29 | X-H torsion
[ 10718 10713 10712 10709 ] final  174.78 input   66.30 | X-H torsion
[ 10763 10752 10751 10750 ] final -122.89 input  -60.55 | X-H torsion
[ 11005 11000 10999 10996 ] final  -10.72 input  -57.11 | X-H torsion

> <Gold.Protein.ActiveResidues>
 VAL166  LYS551  ARG553  GLY616  TRP617  ASP618  TYR619  PRO620  LYS621  CYS622 
 ASP623  PHE694  ASN695  SER759  ASP760  ASP761  ALA762  ILE779  LEU786  VAL792 
 PHE793  MET794  SER795  GLU796  ALA797  LYS798  CYS799  TRP800  GLU811  SER814 

> <Gold.Protein.RotatedAtoms>
  151.3379  133.3974  159.2668 H   0  0  0  0  0  0  0  0  0  0  0  0  # atno 6907 bound_to 6896
  150.9902  134.9239  159.7905 H   0  0  0  0  0  0  0  0  0  0  0  0  # atno 6908 bound_to 6896
  152.5245  134.3344  159.9247 H   0  0  0  0  0  0  0  0  0  0  0  0  # atno 6909 bound_to 6896
  146.0752  139.5317  142.9572 H   0  0  0  0  0  0  0  0  0  0  0  0  # atno 7974 bound_to 7965
  154.6685  140.2606  155.7032 H   0  0  0  0  0  0  0  0  0  0  0  0  # atno 8008 bound_to 7997
  156.2649  140.2834  156.1107 H   0  0  0  0  0  0  0  0  0  0  0  0  # atno 8009 bound_to 7997
  155.1203  140.0377  157.2738 H   0  0  0  0  0  0  0  0  0  0  0  0  # atno 8010 bound_to 7997
  140.6268  143.2442  151.5343 H   0  0  0  0  0  0  0  0  0  0  0  0  # atno 10167 bound_to 10162
  156.9445  131.0011  151.2961 H   0  0  0  0  0  0  0  0  0  0  0  0  # atno 10718 bound_to 10713
  154.8698  135.4117  154.2854 H   0  0  0  0  0  0  0  0  0  0  0  0  # atno 10763 bound_to 10752
  153.3740  135.7009  153.6622 H   0  0  0  0  0  0  0  0  0  0  0  0  # atno 10764 bound_to 10752
  153.5472  135.3636  155.2715 H   0  0  0  0  0  0  0  0  0  0  0  0  # atno 10765 bound_to 10752
  140.7477  133.8618  155.9019 H   0  0  0  0  0  0  0  0  0  0  0  0  # atno 11005 bound_to 11000
  145.6319  141.0302  143.1859 LP  0  0  0  0  0  0  0  0  0  0  0  0  # atno 17320 bound_to 7965
  144.7257  139.7884  143.7366 LP  0  0  0  0  0  0  0  0  0  0  0  0  # atno 17321 bound_to 7965
  139.5487  144.2452  152.1491 LP  0  0  0  0  0  0  0  0  0  0  0  0  # atno 17342 bound_to 10162
  140.1685  144.4958  150.6592 LP  0  0  0  0  0  0  0  0  0  0  0  0  # atno 17343 bound_to 10162
  157.5763  130.8345  149.8460 LP  0  0  0  0  0  0  0  0  0  0  0  0  # atno 17370 bound_to 10713
  156.0390  130.3744  150.1485 LP  0  0  0  0  0  0  0  0  0  0  0  0  # atno 17371 bound_to 10713
  140.9779  134.1444  157.4520 LP  0  0  0  0  0  0  0  0  0  0  0  0  # atno 17394 bound_to 11000
  139.8793  135.0001  156.5990 LP  0  0  0  0  0  0  0  0  0  0  0  0  # atno 17395 bound_to 11000

$$$$
