#       Name:                AV-unprocessed.smi:1945
#       Creating user name   scv26
#       Creation time:       Fri Mar 27 10:00:59 2020


#       File generated by GOLD software.
#

@<TRIPOS>MOLECULE
AV-unprocessed.smi:1945
    52    53     1
SMALL
NO_CHARGES


@<TRIPOS>ATOM
      1 ****        -4.5446   3.2558   2.0806 C.3            1 S1                 0.0000
      2 ****        -4.0405   1.8463   1.9850 C.2            1 S1                 0.0000
      3 ****        -2.6977   1.3844   2.1031 C.2            1 S1                 0.0000
      4 ****        -2.8268   0.0330   1.9310 C.2            1 S1                 0.0000
      5 ****        -1.8602  -0.9235   1.9423 N.am           1 S1                 0.0000
      6 ****        -0.5287  -0.7718   2.0481 C.2            1 S1                 0.0000
      7 ****         0.0582   0.3009   2.1920 O.2            1 S1                 0.0000
      8 ****         0.0996  -1.9537   1.9672 N.am           1 S1                 0.0000
      9 ****         1.5475  -2.1367   1.9710 C.3            1 S1                 0.0000
     10 ****         2.1240  -2.0389   0.5513 C.3            1 S1                 0.0000
     11 ****         2.0291  -0.6946   0.1046 O.3            1 S1                 0.0000
     12 ****         2.3756  -0.4926  -1.2582 C.3            1 S1                 0.0000
     13 ****         1.1453  -0.7903  -2.1421 C.3            1 S1                 0.0000
     14 ****         1.4084  -0.4455  -3.6151 C.3            1 S1                 0.0000
     15 ****         1.8489   1.0168  -3.7677 C.3            1 S1                 0.0000
     16 ****         3.0795   1.3150  -2.8981 C.3            1 S1                 0.0000
     17 ****         2.8273   0.9771  -1.4149 C.3            1 S1                 0.0000
     18 ****         4.0732   1.2844  -0.5686 C.3            1 S1                 0.0000
     19 ****        -4.1583  -0.2642   1.7324 N.pl3          1 S1                 0.0000
     20 ****        -4.8086  -1.5401   1.5031 C.3            1 S1                 0.0000
     21 ****        -4.9034   0.8612   1.7641 N.2            1 S1                 0.0000
     22 ****        -3.7301   3.9530   2.2774 H              1 S1                 0.0000
     23 ****        -5.2714   3.3593   2.8864 H              1 S1                 0.0000
     24 ****        -5.0274   3.5634   1.1528 H              1 S1                 0.0000
     25 ****        -1.8056   1.9650   2.2830 H              1 S1                 0.0000
     26 ****        -2.1911  -1.8697   1.8253 H              1 S1                 0.0000
     27 ****        -0.4621  -2.7851   1.8568 H              1 S1                 0.0000
     28 ****         2.0339  -1.4214   2.6365 H              1 S1                 0.0000
     29 ****         1.7537  -3.1264   2.3787 H              1 S1                 0.0000
     30 ****         3.1722  -2.3403   0.5540 H              1 S1                 0.0000
     31 ****         1.5929  -2.7216  -0.1124 H              1 S1                 0.0000
     32 ****         3.2038  -1.1460  -1.5399 H              1 S1                 0.0000
     33 ****         0.8602  -1.8391  -2.0662 H              1 S1                 0.0000
     34 ****         0.2916  -0.2141  -1.7826 H              1 S1                 0.0000
     35 ****         2.1798  -1.1054  -4.0137 H              1 S1                 0.0000
     36 ****         0.5096  -0.6266  -4.2052 H              1 S1                 0.0000
     37 ****         2.0708   1.2313  -4.8134 H              1 S1                 0.0000
     38 ****         1.0298   1.6782  -3.4828 H              1 S1                 0.0000
     39 ****         3.9310   0.7412  -3.2670 H              1 S1                 0.0000
     40 ****         3.3496   2.3666  -3.0001 H              1 S1                 0.0000
     41 ****         2.0196   1.6188  -1.0591 H              1 S1                 0.0000
     42 ****         4.9202   0.6682  -0.8718 H              1 S1                 0.0000
     43 ****         3.8902   1.1003   0.4904 H              1 S1                 0.0000
     44 ****         4.3679   2.3292  -0.6708 H              1 S1                 0.0000
     45 ****        -4.1158  -2.3629   1.6794 H              1 S1                 0.0000
     46 ****        -5.1630  -1.5901   0.4732 H              1 S1                 0.0000
     47 ****        -5.6583  -1.6482   2.1780 H              1 S1                 0.0000
     48 ****        -0.4625   1.1534   2.2388 LP             1 S1                 0.0000
     49 ****         1.0556   0.3197   2.2621 LP             1 S1                 0.0000
     50 ****         2.6395  -0.1365   0.6666 LP             1 S1                 0.0000
     51 ****         1.0855  -0.3899   0.2339 LP             1 S1                 0.0000
     52 ****        -5.8936   0.9369   1.6464 LP             1 S1                 0.0000
@<TRIPOS>BOND
    1    1    2 1     
    2    1   22 1     
    3    1   23 1     
    4    1   24 1     
    5    2   21 2     
    6    2    3 1     
    7    3    4 2     
    8    3   25 1     
    9    4    5 1     
   10    4   19 1     
   11    5    6 am    
   12    5   26 1     
   13    6    7 2     
   14    6    8 am    
   15    8    9 1     
   16    8   27 1     
   17    9   10 1     
   18    9   28 1     
   19    9   29 1     
   20   10   11 1     
   21   10   30 1     
   22   10   31 1     
   23   11   12 1     
   24   12   17 1     
   25   12   13 1     
   26   12   32 1     
   27   13   14 1     
   28   13   33 1     
   29   13   34 1     
   30   14   15 1     
   31   14   35 1     
   32   14   36 1     
   33   15   16 1     
   34   15   37 1     
   35   15   38 1     
   36   16   17 1     
   37   16   39 1     
   38   16   40 1     
   39   17   18 1     
   40   17   41 1     
   41   18   42 1     
   42   18   43 1     
   43   18   44 1     
   44   19   20 1     
   45   19   21 1     
   46   20   45 1     
   47   20   46 1     
   48   20   47 1     
   49    7   48 1     
   50    7   49 1     
   51   11   50 1     
   52   11   51 1     
   53   21   52 1     
@<TRIPOS>SUBSTRUCTURE
      1 S1             1
@<TRIPOS>SET
LONE_PAIRS      STATIC     ATOMS    <user>   **** ""
5 48 49 50 51 52
DONOR_HYDROGENS      STATIC     ATOMS    <user>   **** ""
2 26 27
ATOM$BLUE        STATIC     ATOMS    COLORGROUP SYSTEM
5 48 49 50 51 52
ATOM$RED        STATIC     ATOMS    COLORGROUP SYSTEM
2 26 27
