AV-unprocessed.smi:26|AV-procd|sdf|183|dock7
  -GOLD-   2262015443D 1   1.00000     0.00000
 Structure written by MMmdl.
 58 61  0  0  0  0  0  0  0  0  1 V2000
  146.5085  137.5840  158.8871 C   0  0  0  0  0  0  0  0  0  0  0  0
  147.1007  136.2178  159.0270 C   0  0  0  0  0  0  0  0  0  0  0  0
  147.6744  135.4377  158.0687 C   0  0  0  0  0  0  0  0  0  0  0  0
  148.1006  134.2226  158.6681 C   0  0  0  0  0  0  0  0  0  0  0  0
  148.7658  133.0644  158.0164 C   0  0  0  0  0  0  0  0  0  0  0  0
  148.6912  131.9117  158.4447 O   0  0  0  0  0  0  0  0  0  0  0  0
  149.5650  133.3859  156.7394 C   0  0  0  0  0  0  0  0  0  0  0  0
  149.2884  132.4672  155.6412 N   0  0  0  0  0  0  0  0  0  0  0  0
  150.1026  131.3131  155.5243 C   0  0  0  0  0  0  0  0  0  0  0  0
  151.0164  131.0720  156.3153 O   0  0  0  0  0  0  0  0  0  0  0  0
  149.7570  130.4398  154.4090 C   0  0  0  0  0  0  0  0  0  0  0  0
  150.4576  129.3111  154.2062 F   0  0  0  0  0  0  0  0  0  0  0  0
  148.7397  130.7438  153.5749 C   0  0  0  0  0  0  0  0  0  0  0  0
  147.9664  131.8836  153.7029 N   0  0  0  0  0  0  0  0  0  0  0  0
  146.8143  132.0952  152.7444 C   0  0  2  0  0  0  0  0  0  0  0  0
  146.5636  130.9086  151.8014 C   0  0  0  0  0  0  0  0  0  0  0  0
  146.1212  131.6231  150.5428 C   0  0  0  0  0  0  0  0  0  0  0  0
  146.9719  132.8881  150.5801 C   0  0  0  0  0  0  0  0  0  0  0  0
  147.0710  133.2251  151.9613 O   0  0  0  0  0  0  0  0  0  0  0  0
  148.2077  132.7720  154.7778 C   0  0  0  0  0  0  0  0  0  0  0  0
  147.4984  133.7625  154.9615 O   0  0  0  0  0  0  0  0  0  0  0  0
  147.7844  134.2907  160.0063 C   0  0  0  0  0  0  0  0  0  0  0  0
  148.0281  133.2838  161.0973 C   0  0  0  0  0  0  0  0  0  0  0  0
  147.1401  135.5167  160.2304 N   0  0  0  0  0  0  0  0  0  0  0  0
  146.6018  136.0260  161.5016 C   0  0  2  0  0  0  0  0  0  0  0  0
  147.6823  136.0425  162.6014 C   0  0  0  0  0  0  0  0  0  0  0  0
  145.2645  135.3763  161.8706 C   0  0  0  0  0  0  0  0  0  0  0  0
  144.1201  136.1953  162.0014 C   0  0  0  0  0  0  0  0  0  0  0  0
  142.8742  135.6388  162.3485 C   0  0  0  0  0  0  0  0  0  0  0  0
  142.7604  134.2548  162.5749 C   0  0  0  0  0  0  0  0  0  0  0  0
  143.8944  133.4300  162.4548 C   0  0  0  0  0  0  0  0  0  0  0  0
  145.1409  133.9866  162.1078 C   0  0  0  0  0  0  0  0  0  0  0  0
  146.6636  137.9722  157.8802 H   0  0  0  0  0  0  0  0  0  0  0  0
  146.9671  138.2844  159.5849 H   0  0  0  0  0  0  0  0  0  0  0  0
  145.4343  137.5639  159.0715 H   0  0  0  0  0  0  0  0  0  0  0  0
  147.7749  135.7185  157.0306 H   0  0  0  0  0  0  0  0  0  0  0  0
  149.3538  134.3988  156.3929 H   0  0  0  0  0  0  0  0  0  0  0  0
  150.6383  133.3667  156.9341 H   0  0  0  0  0  0  0  0  0  0  0  0
  148.5274  130.0564  152.7689 H   0  0  0  0  0  0  0  0  0  0  0  0
  145.9420  132.3080  153.3636 H   0  0  0  0  0  0  0  0  0  0  0  0
  147.4736  130.3389  151.6186 H   0  0  0  0  0  0  0  0  0  0  0  0
  145.8080  130.2377  152.2100 H   0  0  0  0  0  0  0  0  0  0  0  0
  146.2724  131.0329  149.6387 H   0  0  0  0  0  0  0  0  0  0  0  0
  145.0637  131.8812  150.6112 H   0  0  0  0  0  0  0  0  0  0  0  0
  147.9676  132.6919  150.1820 H   0  0  0  0  0  0  0  0  0  0  0  0
  146.5348  133.7034  150.0033 H   0  0  0  0  0  0  0  0  0  0  0  0
  147.3590  132.4306  160.9864 H   0  0  0  0  0  0  0  0  0  0  0  0
  147.8880  133.6839  162.0962 H   0  0  0  0  0  0  0  0  0  0  0  0
  149.0528  132.9148  161.0613 H   0  0  0  0  0  0  0  0  0  0  0  0
  146.3290  137.0697  161.3568 H   0  0  0  0  0  0  0  0  0  0  0  0
  147.3244  136.5535  163.4956 H   0  0  0  0  0  0  0  0  0  0  0  0
  148.5681  136.5789  162.2600 H   0  0  0  0  0  0  0  0  0  0  0  0
  148.0035  135.0441  162.8942 H   0  0  0  0  0  0  0  0  0  0  0  0
  144.1959  137.2598  161.8328 H   0  0  0  0  0  0  0  0  0  0  0  0
  142.0062  136.2750  162.4418 H   0  0  0  0  0  0  0  0  0  0  0  0
  141.8053  133.8267  162.8415 H   0  0  0  0  0  0  0  0  0  0  0  0
  143.8090  132.3678  162.6304 H   0  0  0  0  0  0  0  0  0  0  0  0
  145.9917  133.3280  162.0231 H   0  0  0  0  0  0  0  0  0  0  0  0
  1  2  1  0  0  0  0
  1 33  1  0  0  0  0
  1 34  1  0  0  0  0
  1 35  1  0  0  0  0
  2 24  1  0  0  0  0
  2  3  2  0  0  0  0
  3  4  1  0  0  0  0
  3 36  1  0  0  0  0
  4  5  1  0  0  0  0
  4 22  2  0  0  0  0
  5  6  2  0  0  0  0
  5  7  1  0  0  0  0
  7  8  1  0  0  0  0
  7 37  1  0  0  0  0
  7 38  1  0  0  0  0
  8 20  1  0  0  0  0
  8  9  1  0  0  0  0
  9 10  2  0  0  0  0
  9 11  1  0  0  0  0
 11 12  1  0  0  0  0
 11 13  2  0  0  0  0
 13 14  1  0  0  0  0
 13 39  1  0  0  0  0
 14 15  1  0  0  0  0
 14 20  1  0  0  0  0
 15 19  1  0  0  0  0
 15 16  1  0  0  0  0
 15 40  1  0  0  0  0
 16 17  1  0  0  0  0
 16 41  1  0  0  0  0
 16 42  1  0  0  0  0
 17 18  1  0  0  0  0
 17 43  1  0  0  0  0
 17 44  1  0  0  0  0
 18 19  1  0  0  0  0
 18 45  1  0  0  0  0
 18 46  1  0  0  0  0
 20 21  2  0  0  0  0
 22 23  1  0  0  0  0
 22 24  1  0  0  0  0
 23 47  1  0  0  0  0
 23 48  1  0  0  0  0
 23 49  1  0  0  0  0
 24 25  1  0  0  0  0
 25 26  1  0  0  0  0
 25 27  1  0  0  0  0
 25 50  1  0  0  0  0
 26 51  1  0  0  0  0
 26 52  1  0  0  0  0
 26 53  1  0  0  0  0
 27 32  1  0  0  0  0
 27 28  2  0  0  0  0
 28 29  1  0  0  0  0
 28 54  1  0  0  0  0
 29 30  2  0  0  0  0
 29 55  1  0  0  0  0
 30 31  1  0  0  0  0
 30 56  1  0  0  0  0
 31 32  2  0  0  0  0
 31 57  1  0  0  0  0
 32 58  1  0  0  0  0
M  END
> <s_m_source_file>
AV-unprocessed.smi

> <i_m_source_file_index>
26

> <i_lp_mmshare_version>
43012

> <i_f3d_flags>
0

> <s_epik_input>
W2NIXTFbY0hdW2NIXVtjSF1bY0hdYzFbQ0BASF0oW0NIM10pbjJjKFtDSDNdKWMoW2NIXWMyW0NIM10pQyg9TylbQ0gyXW4zYyg9TyljKEYpW2NIXW4oYzM9TylbQ0BASF00W0NIMl1bQ0gyXVtDSDJdTzQ=

> <s_epik_cmdline>
J2VwaWtfcHl0aG9uJywgJy1waCcsICc3LjAnLCAnLXRuJywgJzgnLCAnLW1hJywgJzIwMCcsICctbWV0YWxfYmluZGluZycsICctaW1hZScsICc8aW5maWxlLm1hZT4nLCAnLW9tYWUnLCAnPG91dGZpbGUubWFlPic=

> <r_lp_tautomer_probability>
1

> <r_epik_Ionization_Penalty>
5.02402e-09

> <r_epik_Ionization_Penalty_Charging>
5.01743e-09

> <r_epik_Ionization_Penalty_Neutral>
6.58831e-12

> <r_epik_State_Penalty>
-0

> <r_epik_Charging_Adjusted_Penalty>
5.01743e-09

> <i_epik_Tot_Q>
0

> <i_epik_Tot_abs_Q>
0

> <r_epik_Metal_State_Penalty>
-0

> <b_epik_Metal_Only>
0

> <s_epik_Chemistry_Notes>
This compound contains an acetal/aminal-like group ( X-CH(R)-Y where X, Y are N, S, or O) that may be acid/base labile, releasing an aldehyde.

> <s_lp_Force_Field>
OPLS_2005

> <r_lp_Energy>
45.9461

> <b_lp_Chiralities_Consistent>
1

> <s_lp_Variant>
AV-unprocessed.smi:26-1

> <Gold.Version>
5.8.1

> <Gold.Id.Protein>
6NUR|6NUR_protein|mol2

> <Gold.PLP.Fitness>
44.9769

> <Gold.PLP.PLP>
-44.6932

> <Gold.PLP.part.hbond>
0.0000

> <Gold.PLP.part.metal>
0.0000

> <Gold.PLP.part.buried>
-3.6963

> <Gold.PLP.part.nonpolar>
-40.5322

> <Gold.PLP.part.repulsive>
0.2027

> <Gold.PLP.ligand.clash>
0.0000

> <Gold.PLP.ligand.torsion>
1.2409

> <Gold.PLP.Chemscore.Hbond>
0.0000

> <Gold.PLP.Chemscore.CHOScore>
0.8112

> <Gold.PLP.Chemscore.Metal>
0.0000

> <Gold.Chemscore.Hbonds>
donor molecule, donor type, donor heavy atom, donor atom, acceptor molecule, acceptor atom, score
      L1  C    13    39       P1 10747  0.60

> <Gold.PLP.Chemscore.Internal.Correction>
0.3319

> <Gold.Rescore>
     Score         DG    S(hbond)    S(metal)    S(lipo)     H(rot)  DE(clash)    DE(int)     intcor
     11.05     -13.83       0.00        0.00     111.57       1.84       0.14       2.64       ----

> <Gold.Chemscore.Fitness>
11.0531

> <Gold.Chemscore.DG>
-13.8336

> <Gold.Chemscore.ZeroCoef>
-5.4800

> <Gold.Chemscore.Hbond>
0.0000

> <Gold.Chemscore.Metal>
0.0000

> <Gold.Chemscore.Lipo>
111.5691

> <Gold.Chemscore.Internal_Hbond>
0.0000

> <Gold.Chemscore.DEClash>
0.1448

> <Gold.Chemscore.DEInternal>
2.6356

> <Gold.Chemscore.Rot>
1.8359

> <Gold.Chemscore.Internal.Correction>
   9.000000E+99

> <Gold.Chemscore.Hbond.Weighted>
-0.0000

> <Gold.Chemscore.Metal.Weighted>
-0.0000

> <Gold.Chemscore.Lipo.Weighted>
-13.0536

> <Gold.Chemscore.Internal_Hbond.Weighted>
0.0000

> <Gold.Chemscore.DEClash.Weighted>
0.1448

> <Gold.Chemscore.DEInternal.Weighted>
2.6356

> <Gold.Chemscore.Rot.Weighted>
4.7000

> <Gold.Chemscore.Internal.Correction.Weighted>
   9.000000E+99

> <Gold.Protein.RotatedTorsions>
[ 6907 6896 6895 6894 ] final   98.67 input  -60.11 | X-H torsion
[ 7974 7965 7964 7962 ] final -107.63 input  175.53 | X-H torsion
[ 8008 7997 7996 7995 ] final   40.41 input   59.86 | X-H torsion
[ 10167 10162 10161 10158 ] final   69.63 input  -65.29 | X-H torsion
[ 10718 10713 10712 10709 ] final  123.02 input   66.30 | X-H torsion
[ 10763 10752 10751 10750 ] final  135.99 input  -60.55 | X-H torsion
[ 11005 11000 10999 10996 ] final  124.44 input  -57.11 | X-H torsion

> <Gold.Protein.ActiveResidues>
 VAL166  LYS551  ARG553  GLY616  TRP617  ASP618  TYR619  PRO620  LYS621  CYS622 
 ASP623  PHE694  ASN695  SER759  ASP760  ASP761  ALA762  ILE779  LEU786  VAL792 
 PHE793  MET794  SER795  GLU796  ALA797  LYS798  CYS799  TRP800  GLU811  SER814 

> <Gold.Protein.RotatedAtoms>
  152.5405  134.0545  159.8124 H   0  0  0  0  0  0  0  0  0  0  0  0  # atno 6907 bound_to 6896
  151.0682  133.5480  159.2636 H   0  0  0  0  0  0  0  0  0  0  0  0  # atno 6908 bound_to 6896
  151.2354  135.0578  159.9058 H   0  0  0  0  0  0  0  0  0  0  0  0  # atno 6909 bound_to 6896
  145.2029  140.9064  143.3359 H   0  0  0  0  0  0  0  0  0  0  0  0  # atno 7974 bound_to 7965
  155.2526  140.3353  155.4280 H   0  0  0  0  0  0  0  0  0  0  0  0  # atno 8008 bound_to 7997
  156.2209  140.1808  156.7523 H   0  0  0  0  0  0  0  0  0  0  0  0  # atno 8009 bound_to 7997
  154.5824  140.0651  156.9107 H   0  0  0  0  0  0  0  0  0  0  0  0  # atno 8010 bound_to 7997
  140.0657  144.5195  150.7263 H   0  0  0  0  0  0  0  0  0  0  0  0  # atno 10167 bound_to 10162
  157.5697  131.1084  150.8389 H   0  0  0  0  0  0  0  0  0  0  0  0  # atno 10718 bound_to 10713
  153.8491  135.3081  155.3431 H   0  0  0  0  0  0  0  0  0  0  0  0  # atno 10763 bound_to 10752
  154.7899  135.4788  154.0032 H   0  0  0  0  0  0  0  0  0  0  0  0  # atno 10764 bound_to 10752
  153.1529  135.6846  153.8948 H   0  0  0  0  0  0  0  0  0  0  0  0  # atno 10765 bound_to 10752
  139.9359  134.9639  156.8409 H   0  0  0  0  0  0  0  0  0  0  0  0  # atno 11005 bound_to 11000
  144.9930  139.3671  143.6205 LP  0  0  0  0  0  0  0  0  0  0  0  0  # atno 17320 bound_to 7965
  146.3414  139.9121  142.8779 LP  0  0  0  0  0  0  0  0  0  0  0  0  # atno 17321 bound_to 7965
  140.7150  143.2537  151.4462 LP  0  0  0  0  0  0  0  0  0  0  0  0  # atno 17342 bound_to 10162
  139.5867  144.1590  152.2037 LP  0  0  0  0  0  0  0  0  0  0  0  0  # atno 17343 bound_to 10162
  156.8864  130.5197  149.5288 LP  0  0  0  0  0  0  0  0  0  0  0  0  # atno 17370 bound_to 10713
  156.0743  130.5769  150.9444 LP  0  0  0  0  0  0  0  0  0  0  0  0  # atno 17371 bound_to 10713
  140.6078  134.0111  155.7564 LP  0  0  0  0  0  0  0  0  0  0  0  0  # atno 17394 bound_to 11000
  141.0972  133.9825  157.3141 LP  0  0  0  0  0  0  0  0  0  0  0  0  # atno 17395 bound_to 11000

$$$$
