AV-unprocessed.smi:1385|AV-procd|sdf|5631|dock4
  -GOLD-   22720 5243D 1   1.00000     0.00000
 Structure written by MMmdl.
 37 38  0  0  0  0  0  0  0  0  2 V2000
  155.4656  138.9965  162.9796 C   0  0  0  0  0  0  0  0  0  0  0  0
  154.5672  138.6914  161.8302 C   0  0  0  0  0  0  0  0  0  0  0  0
  154.3494  139.5541  160.8347 N   0  0  0  0  0  0  0  0  0  0  0  0
  153.4770  139.0451  159.8836 N   0  0  0  0  0  0  0  0  0  0  0  0
  153.0385  137.8127  160.1782 C   0  0  0  0  0  0  0  0  0  0  0  0
  152.1873  137.1408  159.3856 N   0  5  0  0  0  0  0  0  0  0  0  0
  151.4783  137.8022  158.4428 C   0  0  0  0  0  0  0  0  0  0  0  0
  150.2492  137.8601  158.3603 O   0  0  0  0  0  0  0  0  0  0  0  0
  152.2409  138.4360  157.5404 N   0  0  0  0  0  0  0  0  0  0  0  0
  151.7567  139.2354  156.4184 C   0  0  0  0  0  0  0  0  0  0  0  0
  151.0120  140.4727  156.9375 C   0  0  0  0  0  0  0  0  0  0  0  0
  150.3926  141.2709  155.7772 C   0  0  0  0  0  0  0  0  0  0  0  0
  149.4663  140.4329  155.0081 N   0  0  0  0  0  0  0  0  0  0  0  0
  148.7954  141.2625  153.9818 C   0  0  0  0  0  0  0  0  0  0  0  0
  147.4911  140.6659  153.4402 C   0  0  0  0  0  0  0  0  0  0  0  0
  146.4156  141.4572  153.4283 N   0  0  0  0  0  0  0  0  0  0  0  0
  147.4588  139.5070  153.0321 O   0  0  0  0  0  0  0  0  0  0  0  0
  150.1804  139.2854  154.4283 C   0  0  0  0  0  0  0  0  0  0  0  0
  150.8031  138.4160  155.5344 C   0  0  0  0  0  0  0  0  0  0  0  0
  153.7059  137.1694  161.6783 S   0  0  0  0  0  0  0  0  0  0  0  0
  154.9421  139.6179  163.7062 H   0  0  0  0  0  0  0  0  0  0  0  0
  156.3531  139.5285  162.6356 H   0  0  0  0  0  0  0  0  0  0  0  0
  155.7801  138.0745  163.4686 H   0  0  0  0  0  0  0  0  0  0  0  0
  153.2418  138.3624  157.6483 H   0  0  0  0  0  0  0  0  0  0  0  0
  152.6042  139.5720  155.8181 H   0  0  0  0  0  0  0  0  0  0  0  0
  150.2254  140.1728  157.6321 H   0  0  0  0  0  0  0  0  0  0  0  0
  151.6952  141.1099  157.5001 H   0  0  0  0  0  0  0  0  0  0  0  0
  149.8604  142.1301  156.1876 H   0  0  0  0  0  0  0  0  0  0  0  0
  151.1774  141.6645  155.1286 H   0  0  0  0  0  0  0  0  0  0  0  0
  148.5455  142.2347  154.4094 H   0  0  0  0  0  0  0  0  0  0  0  0
  149.4838  141.4569  153.1568 H   0  0  0  0  0  0  0  0  0  0  0  0
  145.5339  141.1061  153.0837 H   0  0  0  0  0  0  0  0  0  0  0  0
  146.4887  142.4050  153.7684 H   0  0  0  0  0  0  0  0  0  0  0  0
  149.5037  138.6565  153.8501 H   0  0  0  0  0  0  0  0  0  0  0  0
  150.9541  139.6322  153.7413 H   0  0  0  0  0  0  0  0  0  0  0  0
  151.3362  137.5777  155.0843 H   0  0  0  0  0  0  0  0  0  0  0  0
  150.0087  137.9835  156.1450 H   0  0  0  0  0  0  0  0  0  0  0  0
  1  2  1  0  0  0  0
  1 21  1  0  0  0  0
  1 22  1  0  0  0  0
  1 23  1  0  0  0  0
  2 20  1  0  0  0  0
  2  3  2  0  0  0  0
  3  4  1  0  0  0  0
  4  5  2  0  0  0  0
  5  6  1  0  0  0  0
  5 20  1  0  0  0  0
  6  7  1  0  0  0  0
  7  8  2  0  0  0  0
  7  9  1  0  0  0  0
  9 10  1  0  0  0  0
  9 24  1  0  0  0  0
 10 19  1  0  0  0  0
 10 11  1  0  0  0  0
 10 25  1  0  0  0  0
 11 12  1  0  0  0  0
 11 26  1  0  0  0  0
 11 27  1  0  0  0  0
 12 13  1  0  0  0  0
 12 28  1  0  0  0  0
 12 29  1  0  0  0  0
 13 14  1  0  0  0  0
 13 18  1  0  0  0  0
 14 15  1  0  0  0  0
 14 30  1  0  0  0  0
 14 31  1  0  0  0  0
 15 16  1  0  0  0  0
 15 17  2  0  0  0  0
 16 32  1  0  0  0  0
 16 33  1  0  0  0  0
 18 19  1  0  0  0  0
 18 34  1  0  0  0  0
 18 35  1  0  0  0  0
 19 36  1  0  0  0  0
 19 37  1  0  0  0  0
M  CHG  1   6  -1
M  END
> <s_m_source_file>
AV-unprocessed.smi

> <i_m_source_file_index>
1385

> <i_lp_mmshare_version>
43012

> <i_f3d_flags>
0

> <s_epik_input>
W0NIM11jMW5uYyhzMSlbTkhdQyg9TylbTkhdW0NIXTJbQ0gyXVtDSDJdTihbQ0gyXVtDSDJdMilbQ0gyXUMoPU8pW05IMl0=

> <s_epik_cmdline>
J2VwaWtfcHl0aG9uJywgJy1waCcsICc3LjAnLCAnLXRuJywgJzgnLCAnLW1hJywgJzIwMCcsICctbWV0YWxfYmluZGluZycsICctaW1hZScsICc8aW5maWxlLm1hZT4nLCAnLW9tYWUnLCAnPG91dGZpbGUubWFlPic=

> <r_lp_tautomer_probability>
1

> <r_epik_Ionization_Penalty>
3.72698

> <r_epik_Ionization_Penalty_Charging>
3.38897

> <r_epik_Ionization_Penalty_Neutral>
0.338006

> <r_epik_State_Penalty>
3.53372

> <r_epik_Charging_Adjusted_Penalty>
6.92269

> <i_epik_Tot_Q>
-1

> <i_epik_Tot_abs_Q>
1

> <r_epik_Metal_State_Penalty>
0.657042

> <b_epik_Metal_Only>
1

> <s_lp_Force_Field>
OPLS_2005

> <r_lp_Energy>
7.29134

> <b_lp_Chiralities_Consistent>
1

> <s_lp_Variant>
AV-unprocessed.smi:1385-4

> <Gold.Version>
5.8.1

> <Gold.Id.Protein>
6NUR|6NUR_protein|mol2

> <Gold.PLP.Fitness>
35.3959

> <Gold.PLP.PLP>
-28.0744

> <Gold.PLP.part.hbond>
-2.0000

> <Gold.PLP.part.metal>
0.0000

> <Gold.PLP.part.buried>
-5.0744

> <Gold.PLP.part.nonpolar>
-22.9763

> <Gold.PLP.part.repulsive>
1.4308

> <Gold.PLP.ligand.clash>
0.0000

> <Gold.PLP.ligand.torsion>
0.8818

> <Gold.PLP.Chemscore.Hbond>
3.0000

> <Gold.PLP.Chemscore.CHOScore>
0.0000

> <Gold.PLP.Chemscore.Metal>
0.0000

> <Gold.Chemscore.Hbonds>
donor molecule, donor type, donor heavy atom, donor atom, acceptor molecule, acceptor atom, score
      L1  H    16    32       P1 10175  0.99
      P1  H  6896  6909       L1     6  1.50

> <Gold.PLP.Chemscore.Internal.Correction>
0.0852

> <Gold.Rescore>
     Score         DG    S(hbond)    S(metal)    S(lipo)     H(rot)  DE(clash)    DE(int)     intcor
     10.68     -12.91       1.89        0.00      53.77       2.02       0.02       2.20       ----

> <Gold.Chemscore.Fitness>
10.6822

> <Gold.Chemscore.DG>
-12.9059

> <Gold.Chemscore.ZeroCoef>
-5.4800

> <Gold.Chemscore.Hbond>
1.8850

> <Gold.Chemscore.Metal>
0.0000

> <Gold.Chemscore.Lipo>
53.7747

> <Gold.Chemscore.Internal_Hbond>
0.0000

> <Gold.Chemscore.DEClash>
0.0234

> <Gold.Chemscore.DEInternal>
2.2002

> <Gold.Chemscore.Rot>
2.0163

> <Gold.Chemscore.Internal.Correction>
   9.000000E+99

> <Gold.Chemscore.Hbonds>
donor molecule, donor type, donor heavy atom, donor atom, acceptor molecule, acceptor atom, score
      L1  H    16    32       P1 10175  0.24
      P1  H  6896  6909       L1     6  0.68

> <Gold.Chemscore.Hbond.Weighted>
-6.2959

> <Gold.Chemscore.Metal.Weighted>
-0.0000

> <Gold.Chemscore.Lipo.Weighted>
-6.2916

> <Gold.Chemscore.Internal_Hbond.Weighted>
0.0000

> <Gold.Chemscore.DEClash.Weighted>
0.0234

> <Gold.Chemscore.DEInternal.Weighted>
2.2002

> <Gold.Chemscore.Rot.Weighted>
5.1617

> <Gold.Chemscore.Internal.Correction.Weighted>
   9.000000E+99

> <Gold.Protein.RotatedTorsions>
[ 6907 6896 6895 6894 ] final  128.30 input  -60.11 | X-H torsion
[ 7974 7965 7964 7962 ] final  -35.85 input  175.53 | X-H torsion
[ 8008 7997 7996 7995 ] final   23.93 input   59.86 | X-H torsion
[ 10167 10162 10161 10158 ] final  -70.15 input  -65.29 | X-H torsion
[ 10718 10713 10712 10709 ] final   -8.10 input   66.30 | X-H torsion
[ 10763 10752 10751 10750 ] final   89.11 input  -60.55 | X-H torsion
[ 11005 11000 10999 10996 ] final   -6.14 input  -57.11 | X-H torsion

> <Gold.Protein.ActiveResidues>
 VAL166  LYS551  ARG553  GLY616  TRP617  ASP618  TYR619  PRO620  LYS621  CYS622 
 ASP623  PHE694  ASN695  SER759  ASP760  ASP761  ALA762  ILE779  LEU786  VAL792 
 PHE793  MET794  SER795  GLU796  ALA797  LYS798  CYS799  TRP800  GLU811  SER814 

> <Gold.Protein.RotatedAtoms>
  152.3732  133.6446  159.6102 H   0  0  0  0  0  0  0  0  0  0  0  0  # atno 6907 bound_to 6896
  150.7684  133.9236  159.3414 H   0  0  0  0  0  0  0  0  0  0  0  0  # atno 6908 bound_to 6896
  151.7055  135.0923  160.0310 H   0  0  0  0  0  0  0  0  0  0  0  0  # atno 6909 bound_to 6896
  146.0712  140.6208  142.8952 H   0  0  0  0  0  0  0  0  0  0  0  0  # atno 7974 bound_to 7965
  154.9885  140.3111  155.4916 H   0  0  0  0  0  0  0  0  0  0  0  0  # atno 8008 bound_to 7997
  156.2943  140.2253  156.4929 H   0  0  0  0  0  0  0  0  0  0  0  0  # atno 8009 bound_to 7997
  154.7725  140.0451  157.1050 H   0  0  0  0  0  0  0  0  0  0  0  0  # atno 8010 bound_to 7997
  140.5375  143.2317  151.7150 H   0  0  0  0  0  0  0  0  0  0  0  0  # atno 10167 bound_to 10162
  156.7076  130.5112  149.5900 H   0  0  0  0  0  0  0  0  0  0  0  0  # atno 10718 bound_to 10713
  153.1837  135.4482  155.0061 H   0  0  0  0  0  0  0  0  0  0  0  0  # atno 10763 bound_to 10752
  154.8047  135.3269  154.7465 H   0  0  0  0  0  0  0  0  0  0  0  0  # atno 10764 bound_to 10752
  153.7926  135.6969  153.4924 H   0  0  0  0  0  0  0  0  0  0  0  0  # atno 10765 bound_to 10752
  140.6987  133.9008  155.8668 H   0  0  0  0  0  0  0  0  0  0  0  0  # atno 11005 bound_to 11000
  144.7232  140.4443  143.6992 LP  0  0  0  0  0  0  0  0  0  0  0  0  # atno 17320 bound_to 7965
  145.6389  139.1547  143.2927 LP  0  0  0  0  0  0  0  0  0  0  0  0  # atno 17321 bound_to 7965
  139.4976  144.4020  152.0171 LP  0  0  0  0  0  0  0  0  0  0  0  0  # atno 17342 bound_to 10162
  140.3126  144.3520  150.6030 LP  0  0  0  0  0  0  0  0  0  0  0  0  # atno 17343 bound_to 10162
  156.1684  130.6421  151.0807 LP  0  0  0  0  0  0  0  0  0  0  0  0  # atno 17370 bound_to 10713
  157.6949  131.0797  150.6999 LP  0  0  0  0  0  0  0  0  0  0  0  0  # atno 17371 bound_to 10713
  141.0181  134.0927  157.4150 LP  0  0  0  0  0  0  0  0  0  0  0  0  # atno 17394 bound_to 11000
  139.8903  135.0111  156.6726 LP  0  0  0  0  0  0  0  0  0  0  0  0  # atno 17395 bound_to 11000

$$$$
