AV-unprocessed.smi:2198|AV-procd|sdf|8920|dock3
  -GOLD-   2272012133D 1   1.00000     0.00000
 Structure written by MMmdl.
 42 43  0  0  0  0  0  0  0  0  2 V2000
  147.8138  136.1255  161.0356 C   0  0  0  0  0  0  0  0  0  0  0  0
  148.4149  136.8413  159.8450 C   0  0  0  0  0  0  0  0  0  0  0  0
  147.7826  137.8212  159.3213 N   0  0  0  0  0  0  0  0  0  0  0  0
  148.3317  138.4841  158.2105 C   0  0  0  0  0  0  0  0  0  0  0  0
  147.5089  139.6301  157.6484 C   0  0  0  0  0  0  0  0  0  0  0  0
  149.5294  138.1018  157.6814 C   0  0  0  0  0  0  0  0  0  0  0  0
  150.1628  138.7806  156.4663 C   0  0  0  0  0  0  0  0  0  0  0  0
  151.2508  139.8182  156.7543 C   0  0  0  0  0  0  0  0  0  0  0  0
  152.3549  139.7419  156.2144 O   0  0  0  0  0  0  0  0  0  0  0  0
  150.9228  140.7842  157.6258 N   0  0  0  0  0  0  0  0  0  0  0  0
  151.8116  141.8520  158.0731 C   0  0  1  0  0  0  0  0  0  0  0  0
  151.2661  143.2125  157.6032 C   0  0  0  0  0  0  0  0  0  0  0  0
  152.1484  144.3671  158.1022 C   0  0  0  0  0  0  0  0  0  0  0  0
  152.2952  144.3352  159.6315 C   0  0  0  0  0  0  0  0  0  0  0  0
  152.8438  142.9806  160.1190 C   0  0  1  0  0  0  0  0  0  0  0  0
  152.9806  142.9488  161.6478 C   0  0  0  0  0  0  0  0  0  0  0  0
  151.9610  141.8251  159.6089 C   0  0  0  0  0  0  0  0  0  0  0  0
  150.2326  136.9766  158.3230 C   0  0  0  0  0  0  0  0  0  0  0  0
  151.3272  136.6065  157.9000 O   0  0  0  0  0  0  0  0  0  0  0  0
  149.6290  136.3784  159.3896 N   0  5  0  0  0  0  0  0  0  0  0  0
  146.9830  136.6935  161.4566 H   0  0  0  0  0  0  0  0  0  0  0  0
  148.5622  135.9884  161.8168 H   0  0  0  0  0  0  0  0  0  0  0  0
  147.4428  135.1454  160.7353 H   0  0  0  0  0  0  0  0  0  0  0  0
  147.1397  139.3805  156.6536 H   0  0  0  0  0  0  0  0  0  0  0  0
  148.1065  140.5394  157.5812 H   0  0  0  0  0  0  0  0  0  0  0  0
  146.6482  139.8452  158.2827 H   0  0  0  0  0  0  0  0  0  0  0  0
  150.5667  138.0358  155.7796 H   0  0  0  0  0  0  0  0  0  0  0  0
  149.3726  139.2764  155.9023 H   0  0  0  0  0  0  0  0  0  0  0  0
  149.9924  140.7707  158.0176 H   0  0  0  0  0  0  0  0  0  0  0  0
  152.7942  141.7077  157.6195 H   0  0  0  0  0  0  0  0  0  0  0  0
  151.2093  143.2381  156.5142 H   0  0  0  0  0  0  0  0  0  0  0  0
  150.2478  143.3510  157.9699 H   0  0  0  0  0  0  0  0  0  0  0  0
  153.1335  144.3008  157.6386 H   0  0  0  0  0  0  0  0  0  0  0  0
  151.7234  145.3215  157.7901 H   0  0  0  0  0  0  0  0  0  0  0  0
  152.9553  145.1423  159.9514 H   0  0  0  0  0  0  0  0  0  0  0  0
  151.3261  144.5285  160.0931 H   0  0  0  0  0  0  0  0  0  0  0  0
  153.8415  142.8508  159.6972 H   0  0  0  0  0  0  0  0  0  0  0  0
  152.0142  143.0814  162.1350 H   0  0  0  0  0  0  0  0  0  0  0  0
  153.6421  143.7413  161.9991 H   0  0  0  0  0  0  0  0  0  0  0  0
  153.3964  141.9992  161.9856 H   0  0  0  0  0  0  0  0  0  0  0  0
  150.9758  141.8855  160.0739 H   0  0  0  0  0  0  0  0  0  0  0  0
  152.3901  140.8724  159.9225 H   0  0  0  0  0  0  0  0  0  0  0  0
  1  2  1  0  0  0  0
  1 21  1  0  0  0  0
  1 22  1  0  0  0  0
  1 23  1  0  0  0  0
  2 20  1  0  0  0  0
  2  3  2  0  0  0  0
  3  4  1  0  0  0  0
  4  5  1  0  0  0  0
  4  6  2  0  0  0  0
  5 24  1  0  0  0  0
  5 25  1  0  0  0  0
  5 26  1  0  0  0  0
  6  7  1  0  0  0  0
  6 18  1  0  0  0  0
  7  8  1  0  0  0  0
  7 27  1  0  0  0  0
  7 28  1  0  0  0  0
  8  9  2  0  0  0  0
  8 10  1  0  0  0  0
 10 11  1  0  0  0  0
 10 29  1  0  0  0  0
 11 17  1  0  0  0  0
 11 12  1  0  0  0  0
 11 30  1  0  0  0  0
 12 13  1  0  0  0  0
 12 31  1  0  0  0  0
 12 32  1  0  0  0  0
 13 14  1  0  0  0  0
 13 33  1  0  0  0  0
 13 34  1  0  0  0  0
 14 15  1  0  0  0  0
 14 35  1  0  0  0  0
 14 36  1  0  0  0  0
 15 16  1  0  0  0  0
 15 17  1  0  0  0  0
 15 37  1  0  0  0  0
 16 38  1  0  0  0  0
 16 39  1  0  0  0  0
 16 40  1  0  0  0  0
 17 41  1  0  0  0  0
 17 42  1  0  0  0  0
 18 19  2  0  0  0  0
 18 20  1  0  0  0  0
M  CHG  1  20  -1
M  END
> <s_m_source_file>
AV-unprocessed.smi

> <i_m_source_file_index>
2198

> <i_lp_mmshare_version>
43012

> <i_f3d_flags>
0

> <s_epik_input>
W0NIM11jMW5jKFtDSDNdKWMoYyg9TylbbkhdMSlbQ0gyXUMoPU8pW05IXVtDQEBIXTJbQ0gyXVtDSDJdW0NIMl1bQ0BASF0oW0NIM10pW0NIMl0y

> <s_epik_cmdline>
J2VwaWtfcHl0aG9uJywgJy1waCcsICc3LjAnLCAnLXRuJywgJzgnLCAnLW1hJywgJzIwMCcsICctbWV0YWxfYmluZGluZycsICctaW1hZScsICc8aW5maWxlLm1hZT4nLCAnLW9tYWUnLCAnPG91dGZpbGUubWFlPic=

> <r_lp_tautomer_probability>
0.839158

> <r_epik_Ionization_Penalty>
6.67193

> <r_epik_Ionization_Penalty_Charging>
7.66837e-08

> <r_epik_Ionization_Penalty_Neutral>
6.67193

> <r_epik_State_Penalty>
4.51643

> <r_epik_Charging_Adjusted_Penalty>
4.51643

> <i_epik_Tot_Q>
-1

> <i_epik_Tot_abs_Q>
1

> <r_epik_Metal_State_Penalty>
0.851582

> <b_epik_Metal_Only>
1

> <s_lp_Force_Field>
OPLS_2005

> <r_lp_Energy>
13.5939

> <b_lp_Chiralities_Consistent>
1

> <s_lp_Variant>
AV-unprocessed.smi:2198-10

> <Gold.Version>
5.8.1

> <Gold.Id.Protein>
6NUR|6NUR_protein|mol2

> <Gold.PLP.Fitness>
47.8714

> <Gold.PLP.PLP>
-38.7412

> <Gold.PLP.part.hbond>
-3.6894

> <Gold.PLP.part.metal>
0.0000

> <Gold.PLP.part.buried>
-5.8210

> <Gold.PLP.part.nonpolar>
-29.4758

> <Gold.PLP.part.repulsive>
0.0513

> <Gold.PLP.ligand.clash>
0.0000

> <Gold.PLP.ligand.torsion>
0.3665

> <Gold.PLP.Chemscore.Hbond>
3.2865

> <Gold.PLP.Chemscore.CHOScore>
0.0000

> <Gold.PLP.Chemscore.Metal>
0.0000

> <Gold.Chemscore.Hbonds>
donor molecule, donor type, donor heavy atom, donor atom, acceptor molecule, acceptor atom, score
      P1  H  6896  6908       L1    20  2.00
      P1  H  6934  6947       L1     3  0.45
      P1  H  7997  8009       L1     9  1.00

> <Gold.PLP.Chemscore.Internal.Correction>
0.0037

> <Gold.Rescore>
     Score         DG    S(hbond)    S(metal)    S(lipo)     H(rot)  DE(clash)    DE(int)     intcor
     18.84     -19.18       1.96        0.00      92.80       1.45       0.01       0.32       ----

> <Gold.Chemscore.Fitness>
18.8395

> <Gold.Chemscore.DG>
-19.1775

> <Gold.Chemscore.ZeroCoef>
-5.4800

> <Gold.Chemscore.Hbond>
1.9579

> <Gold.Chemscore.Metal>
0.0000

> <Gold.Chemscore.Lipo>
92.7974

> <Gold.Chemscore.Internal_Hbond>
0.0000

> <Gold.Chemscore.DEClash>
0.0141

> <Gold.Chemscore.DEInternal>
0.3238

> <Gold.Chemscore.Rot>
1.4450

> <Gold.Chemscore.Internal.Correction>
   9.000000E+99

> <Gold.Chemscore.Hbonds>
donor molecule, donor type, donor heavy atom, donor atom, acceptor molecule, acceptor atom, score
      P1  H  6896  6908       L1    20  0.32
      P1  H  6934  6947       L1     3  0.24
      P1  H  7997  8009       L1     9  0.93

> <Gold.Chemscore.Hbond.Weighted>
-6.5394

> <Gold.Chemscore.Metal.Weighted>
-0.0000

> <Gold.Chemscore.Lipo.Weighted>
-10.8573

> <Gold.Chemscore.Internal_Hbond.Weighted>
0.0000

> <Gold.Chemscore.DEClash.Weighted>
0.0141

> <Gold.Chemscore.DEInternal.Weighted>
0.3238

> <Gold.Chemscore.Rot.Weighted>
3.6992

> <Gold.Chemscore.Internal.Correction.Weighted>
   9.000000E+99

> <Gold.Protein.RotatedTorsions>
[ 6907 6896 6895 6894 ] final  175.87 input  -60.11 | X-H torsion
[ 7974 7965 7964 7962 ] final  -14.93 input  175.53 | X-H torsion
[ 8008 7997 7996 7995 ] final -169.89 input   59.86 | X-H torsion
[ 10167 10162 10161 10158 ] final   75.94 input  -65.29 | X-H torsion
[ 10718 10713 10712 10709 ] final -177.32 input   66.30 | X-H torsion
[ 10763 10752 10751 10750 ] final -150.33 input  -60.55 | X-H torsion
[ 11005 11000 10999 10996 ] final  -82.21 input  -57.11 | X-H torsion

> <Gold.Protein.ActiveResidues>
 VAL166  LYS551  ARG553  GLY616  TRP617  ASP618  TYR619  PRO620  LYS621  CYS622 
 ASP623  PHE694  ASN695  SER759  ASP760  ASP761  ALA762  ILE779  LEU786  VAL792 
 PHE793  MET794  SER795  GLU796  ALA797  LYS798  CYS799  TRP800  GLU811  SER814 

> <Gold.Protein.RotatedAtoms>
  151.7293  133.3317  159.3335 H   0  0  0  0  0  0  0  0  0  0  0  0  # atno 6907 bound_to 6896
  150.7619  134.6378  159.6230 H   0  0  0  0  0  0  0  0  0  0  0  0  # atno 6908 bound_to 6896
  152.3602  134.6885  160.0261 H   0  0  0  0  0  0  0  0  0  0  0  0  # atno 6909 bound_to 6896
  146.2053  140.3420  142.8409 H   0  0  0  0  0  0  0  0  0  0  0  0  # atno 7974 bound_to 7965
  155.9111  140.1057  157.1279 H   0  0  0  0  0  0  0  0  0  0  0  0  # atno 8008 bound_to 7997
  154.4039  140.1274  156.4623 H   0  0  0  0  0  0  0  0  0  0  0  0  # atno 8009 bound_to 7997
  155.7309  140.3468  155.5061 H   0  0  0  0  0  0  0  0  0  0  0  0  # atno 8010 bound_to 7997
  139.9976  144.5710  150.7764 H   0  0  0  0  0  0  0  0  0  0  0  0  # atno 10167 bound_to 10162
  156.8278  130.9642  151.3108 H   0  0  0  0  0  0  0  0  0  0  0  0  # atno 10718 bound_to 10713
  154.8125  135.3287  154.7267 H   0  0  0  0  0  0  0  0  0  0  0  0  # atno 10763 bound_to 10752
  153.7913  135.6911  153.4875 H   0  0  0  0  0  0  0  0  0  0  0  0  # atno 10764 bound_to 10752
  153.1914  135.4549  155.0101 H   0  0  0  0  0  0  0  0  0  0  0  0  # atno 10765 bound_to 10752
  141.1664  133.7234  156.8538 H   0  0  0  0  0  0  0  0  0  0  0  0  # atno 11005 bound_to 11000
  144.8779  140.7361  143.6005 LP  0  0  0  0  0  0  0  0  0  0  0  0  # atno 17320 bound_to 7965
  145.3340  139.1751  143.4522 LP  0  0  0  0  0  0  0  0  0  0  0  0  # atno 17321 bound_to 7965
  140.7431  143.2841  151.3513 LP  0  0  0  0  0  0  0  0  0  0  0  0  # atno 17342 bound_to 10162
  139.6295  144.0749  152.2463 LP  0  0  0  0  0  0  0  0  0  0  0  0  # atno 17343 bound_to 10162
  157.6423  130.8815  149.9471 LP  0  0  0  0  0  0  0  0  0  0  0  0  # atno 17370 bound_to 10713
  156.0951  130.3660  150.0321 LP  0  0  0  0  0  0  0  0  0  0  0  0  # atno 17371 bound_to 10713
  140.1897  134.8975  157.3045 LP  0  0  0  0  0  0  0  0  0  0  0  0  # atno 17394 bound_to 11000
  140.2304  134.3916  155.7524 LP  0  0  0  0  0  0  0  0  0  0  0  0  # atno 17395 bound_to 11000

$$$$
