AV-unprocessed.smi:832|AV-procd|sdf|3879|dock3
  -GOLD-   22720 1333D 1   1.00000     0.00000
 Structure written by MMmdl.
 42 43  0  0  0  0  0  0  0  0  2 V2000
  153.4702  141.9703  160.7034 C   0  0  0  0  0  0  0  0  0  0  0  0
  152.7144  142.5512  159.5577 C   0  0  0  0  0  0  0  0  0  0  0  0
  151.8809  142.0068  158.6213 C   0  0  0  0  0  0  0  0  0  0  0  0
  151.5124  143.1281  157.8312 C   0  0  0  0  0  0  0  0  0  0  0  0
  150.6367  142.9840  156.7248 N   0  0  0  0  0  0  0  0  0  0  0  0
  150.3664  141.8615  156.0369 C   0  0  0  0  0  0  0  0  0  0  0  0
  150.8587  140.7556  156.2622 O   0  0  0  0  0  0  0  0  0  0  0  0
  149.4759  142.0889  155.0600 N   0  0  0  0  0  0  0  0  0  0  0  0
  148.9856  141.0908  154.1139 C   0  0  0  0  0  0  0  0  0  0  0  0
  147.4517  140.9459  154.1574 C   0  0  1  0  0  0  0  0  0  0  0  0
  146.9299  140.3523  155.4641 C   0  0  0  0  0  0  0  0  0  0  0  0
  145.4824  140.8501  155.5732 C   0  0  0  0  0  0  0  0  0  0  0  0
  145.3179  141.9397  154.5783 N   0  3  1  0  0  0  0  0  0  0  0  0
  144.5146  143.1068  155.0402 C   0  0  0  0  0  0  0  0  0  0  0  0
  143.0285  142.7308  155.1941 C   0  0  0  0  0  0  0  0  0  0  0  0
  144.6454  144.3061  154.0814 C   0  0  0  0  0  0  0  0  0  0  0  0
  146.6698  142.2574  154.0706 C   0  0  0  0  0  0  0  0  0  0  0  0
  152.0709  144.2545  158.2470 N   0  0  0  0  0  0  0  0  0  0  0  0
  152.8427  143.8908  159.3567 O   0  0  0  0  0  0  0  0  0  0  0  0
  153.5353  140.8856  160.6171 H   0  0  0  0  0  0  0  0  0  0  0  0
  152.9798  142.2061  161.6479 H   0  0  0  0  0  0  0  0  0  0  0  0
  154.4849  142.3674  160.7400 H   0  0  0  0  0  0  0  0  0  0  0  0
  151.5849  140.9731  158.5213 H   0  0  0  0  0  0  0  0  0  0  0  0
  150.1659  143.8256  156.4271 H   0  0  0  0  0  0  0  0  0  0  0  0
  149.1256  143.0292  154.9477 H   0  0  0  0  0  0  0  0  0  0  0  0
  149.2904  141.4081  153.1165 H   0  0  0  0  0  0  0  0  0  0  0  0
  149.4698  140.1278  154.2867 H   0  0  0  0  0  0  0  0  0  0  0  0
  147.1306  140.2992  153.3388 H   0  0  0  0  0  0  0  0  0  0  0  0
  147.0013  139.2643  155.4860 H   0  0  0  0  0  0  0  0  0  0  0  0
  147.5080  140.7371  156.3057 H   0  0  0  0  0  0  0  0  0  0  0  0
  144.7721  140.0543  155.3469 H   0  0  0  0  0  0  0  0  0  0  0  0
  145.2866  141.1909  156.5911 H   0  0  0  0  0  0  0  0  0  0  0  0
  144.8936  143.4140  156.0162 H   0  0  0  0  0  0  0  0  0  0  0  0
  142.4402  143.5908  155.5156 H   0  0  0  0  0  0  0  0  0  0  0  0
  142.8764  141.9485  155.9375 H   0  0  0  0  0  0  0  0  0  0  0  0
  142.6093  142.3795  154.2506 H   0  0  0  0  0  0  0  0  0  0  0  0
  144.0100  145.1326  154.4012 H   0  0  0  0  0  0  0  0  0  0  0  0
  144.3505  144.0382  153.0663 H   0  0  0  0  0  0  0  0  0  0  0  0
  145.6647  144.6911  154.0443 H   0  0  0  0  0  0  0  0  0  0  0  0
  147.1320  143.0117  154.7100 H   0  0  0  0  0  0  0  0  0  0  0  0
  146.6335  142.6470  153.0527 H   0  0  0  0  0  0  0  0  0  0  0  0
  144.8226  141.5306  153.7989 H   0  0  0  0  0  0  0  0  0  0  0  0
  1  2  1  0  0  0  0
  1 20  1  0  0  0  0
  1 21  1  0  0  0  0
  1 22  1  0  0  0  0
  2 19  1  0  0  0  0
  2  3  2  0  0  0  0
  3  4  1  0  0  0  0
  3 23  1  0  0  0  0
  4  5  1  0  0  0  0
  4 18  2  0  0  0  0
  5  6  1  0  0  0  0
  5 24  1  0  0  0  0
  6  7  2  0  0  0  0
  6  8  1  0  0  0  0
  8  9  1  0  0  0  0
  8 25  1  0  0  0  0
  9 10  1  0  0  0  0
  9 26  1  0  0  0  0
  9 27  1  0  0  0  0
 10 17  1  0  0  0  0
 10 11  1  0  0  0  0
 10 28  1  0  0  0  0
 11 12  1  0  0  0  0
 11 29  1  0  0  0  0
 11 30  1  0  0  0  0
 12 13  1  0  0  0  0
 12 31  1  0  0  0  0
 12 32  1  0  0  0  0
 13 14  1  0  0  0  0
 13 17  1  0  0  0  0
 13 42  1  0  0  0  0
 14 15  1  0  0  0  0
 14 16  1  0  0  0  0
 14 33  1  0  0  0  0
 15 34  1  0  0  0  0
 15 35  1  0  0  0  0
 15 36  1  0  0  0  0
 16 37  1  0  0  0  0
 16 38  1  0  0  0  0
 16 39  1  0  0  0  0
 17 40  1  0  0  0  0
 17 41  1  0  0  0  0
 18 19  1  0  0  0  0
M  CHG  1  13   1
M  END
> <s_m_source_file>
AV-unprocessed.smi

> <i_m_source_file_index>
832

> <i_lp_mmshare_version>
43012

> <i_f3d_flags>
0

> <s_epik_input>
W0NIM11jMVtjSF1jKG5vMSlbTkhdQyg9TylbTkhdW0NIMl1bQ0BASF0yW0NIMl1bQ0gyXU4oW0NIMl0yKVtDSF0oW0NIM10pW0NIM10=

> <s_epik_cmdline>
J2VwaWtfcHl0aG9uJywgJy1waCcsICc3LjAnLCAnLXRuJywgJzgnLCAnLW1hJywgJzIwMCcsICctbWV0YWxfYmluZGluZycsICctaW1hZScsICc8aW5maWxlLm1hZT4nLCAnLW9tYWUnLCAnPG91dGZpbGUubWFlPic=

> <r_lp_tautomer_probability>
1

> <r_epik_Ionization_Penalty>
0.000242791

> <r_epik_Ionization_Penalty_Charging>
0.000220876

> <r_epik_Ionization_Penalty_Neutral>
2.19143e-05

> <r_epik_State_Penalty>
-0

> <r_epik_Charging_Adjusted_Penalty>
0.000220876

> <i_epik_Tot_Q>
1

> <i_epik_Tot_abs_Q>
1

> <r_epik_Metal_State_Penalty>
-0

> <b_epik_Metal_Only>
0

> <s_lp_Force_Field>
OPLS_2005

> <r_lp_Energy>
26.1652

> <b_lp_Chiralities_Consistent>
1

> <s_lp_Variant>
AV-unprocessed.smi:832-4

> <Gold.Version>
5.8.1

> <Gold.Id.Protein>
6NUR|6NUR_protein|mol2

> <Gold.PLP.Fitness>
46.4288

> <Gold.PLP.PLP>
-35.0640

> <Gold.PLP.part.hbond>
-2.9992

> <Gold.PLP.part.metal>
0.0000

> <Gold.PLP.part.buried>
-5.4742

> <Gold.PLP.part.nonpolar>
-26.8413

> <Gold.PLP.part.repulsive>
0.3616

> <Gold.PLP.ligand.clash>
0.0000

> <Gold.PLP.ligand.torsion>
0.3323

> <Gold.PLP.Chemscore.Hbond>
4.0000

> <Gold.PLP.Chemscore.CHOScore>
0.0000

> <Gold.PLP.Chemscore.Metal>
0.0000

> <Gold.Chemscore.Hbonds>
donor molecule, donor type, donor heavy atom, donor atom, acceptor molecule, acceptor atom, score
      L1  H     5    24       P1  8028  1.00
      L1  H     8    25       P1  8028  0.99
      L1  H    13    42       P1 10175  1.70

> <Gold.PLP.Chemscore.Internal.Correction>
0.0294

> <Gold.Rescore>
     Score         DG    S(hbond)    S(metal)    S(lipo)     H(rot)  DE(clash)    DE(int)     intcor
     16.76     -18.54       2.74        0.00      66.66       1.51       0.15       1.63       ----

> <Gold.Chemscore.Fitness>
16.7590

> <Gold.Chemscore.DG>
-18.5422

> <Gold.Chemscore.ZeroCoef>
-5.4800

> <Gold.Chemscore.Hbond>
2.7365

> <Gold.Chemscore.Metal>
0.0000

> <Gold.Chemscore.Lipo>
66.6645

> <Gold.Chemscore.Internal_Hbond>
0.0000

> <Gold.Chemscore.DEClash>
0.1539

> <Gold.Chemscore.DEInternal>
1.6293

> <Gold.Chemscore.Rot>
1.5146

> <Gold.Chemscore.Internal.Correction>
   9.000000E+99

> <Gold.Chemscore.Hbonds>
donor molecule, donor type, donor heavy atom, donor atom, acceptor molecule, acceptor atom, score
      L1  H     5    24       P1  8028  0.99
      L1  H     8    25       P1  8028  0.94
      L1  H    13    42       P1 10175  0.14

> <Gold.Chemscore.Hbond.Weighted>
-9.1398

> <Gold.Chemscore.Metal.Weighted>
-0.0000

> <Gold.Chemscore.Lipo.Weighted>
-7.7997

> <Gold.Chemscore.Internal_Hbond.Weighted>
0.0000

> <Gold.Chemscore.DEClash.Weighted>
0.1539

> <Gold.Chemscore.DEInternal.Weighted>
1.6293

> <Gold.Chemscore.Rot.Weighted>
3.8774

> <Gold.Chemscore.Internal.Correction.Weighted>
   9.000000E+99

> <Gold.Protein.RotatedTorsions>
[ 6907 6896 6895 6894 ] final  118.97 input  -60.11 | X-H torsion
[ 7974 7965 7964 7962 ] final -122.62 input  175.53 | X-H torsion
[ 8008 7997 7996 7995 ] final   27.38 input   59.86 | X-H torsion
[ 10167 10162 10161 10158 ] final   80.81 input  -65.29 | X-H torsion
[ 10718 10713 10712 10709 ] final  158.25 input   66.30 | X-H torsion
[ 10763 10752 10751 10750 ] final  137.01 input  -60.55 | X-H torsion
[ 11005 11000 10999 10996 ] final  -60.79 input  -57.11 | X-H torsion

> <Gold.Protein.ActiveResidues>
 VAL166  LYS551  ARG553  GLY616  TRP617  ASP618  TYR619  PRO620  LYS621  CYS622 
 ASP623  PHE694  ASN695  SER759  ASP760  ASP761  ALA762  ILE779  LEU786  VAL792 
 PHE793  MET794  SER795  GLU796  ALA797  LYS798  CYS799  TRP800  GLU811  SER814 

> <Gold.Protein.RotatedAtoms>
  152.4505  133.7620  159.6751 H   0  0  0  0  0  0  0  0  0  0  0  0  # atno 6907 bound_to 6896
  150.8416  133.7917  159.3065 H   0  0  0  0  0  0  0  0  0  0  0  0  # atno 6908 bound_to 6896
  151.5540  135.1069  160.0008 H   0  0  0  0  0  0  0  0  0  0  0  0  # atno 6909 bound_to 6896
  145.0274  140.8039  143.4344 H   0  0  0  0  0  0  0  0  0  0  0  0  # atno 7974 bound_to 7965
  155.0420  140.3170  155.4721 H   0  0  0  0  0  0  0  0  0  0  0  0  # atno 8008 bound_to 7997
  156.2853  140.2161  156.5487 H   0  0  0  0  0  0  0  0  0  0  0  0  # atno 8009 bound_to 7997
  154.7282  140.0483  157.0690 H   0  0  0  0  0  0  0  0  0  0  0  0  # atno 8010 bound_to 7997
  139.9459  144.6059  150.8207 H   0  0  0  0  0  0  0  0  0  0  0  0  # atno 10167 bound_to 10162
  157.1804  131.0631  151.2135 H   0  0  0  0  0  0  0  0  0  0  0  0  # atno 10718 bound_to 10713
  153.8660  135.3061  155.3440 H   0  0  0  0  0  0  0  0  0  0  0  0  # atno 10763 bound_to 10752
  154.7827  135.4826  153.9883 H   0  0  0  0  0  0  0  0  0  0  0  0  # atno 10764 bound_to 10752
  153.1434  135.6828  153.9087 H   0  0  0  0  0  0  0  0  0  0  0  0  # atno 10765 bound_to 10752
  141.1300  133.6625  156.5276 H   0  0  0  0  0  0  0  0  0  0  0  0  # atno 11005 bound_to 11000
  145.1815  139.2349  143.5290 LP  0  0  0  0  0  0  0  0  0  0  0  0  # atno 17320 bound_to 7965
  146.3494  140.1590  142.8591 LP  0  0  0  0  0  0  0  0  0  0  0  0  # atno 17321 bound_to 7965
  140.7597  143.3135  151.2787 LP  0  0  0  0  0  0  0  0  0  0  0  0  # atno 17342 bound_to 10162
  139.6667  144.0092  152.2727 LP  0  0  0  0  0  0  0  0  0  0  0  0  # atno 17343 bound_to 10162
  157.3958  130.7306  149.6730 LP  0  0  0  0  0  0  0  0  0  0  0  0  # atno 17370 bound_to 10713
  155.9725  130.4134  150.4080 LP  0  0  0  0  0  0  0  0  0  0  0  0  # atno 17371 bound_to 10713
  140.4242  134.7160  157.4906 LP  0  0  0  0  0  0  0  0  0  0  0  0  # atno 17394 bound_to 11000
  140.0339  134.6366  155.9070 LP  0  0  0  0  0  0  0  0  0  0  0  0  # atno 17395 bound_to 11000

$$$$
