AV-unprocessed.smi:2702|AV-procd|sdf|10432|dock3
  -GOLD-   2272014473D 1   1.00000     0.00000
 Structure written by MMmdl.
 47 48  0  0  0  0  0  0  0  0  1 V2000
  149.2114  132.8136  154.3437 C   0  0  0  0  0  0  0  0  0  0  0  0
  149.2826  133.9995  155.1151 O   0  0  0  0  0  0  0  0  0  0  0  0
  150.5906  134.5466  155.1536 C   0  0  0  0  0  0  0  0  0  0  0  0
  150.5429  136.0619  155.1218 C   0  0  0  0  0  0  0  0  0  0  0  0
  149.4039  136.7495  155.3717 C   0  0  0  0  0  0  0  0  0  0  0  0
  149.3932  138.2123  155.3439 C   0  0  0  0  0  0  0  0  0  0  0  0
  148.3778  138.8723  155.5660 O   0  0  0  0  0  0  0  0  0  0  0  0
  150.5961  138.7906  155.0543 N   0  0  0  0  0  0  0  0  0  0  0  0
  150.7539  140.2557  154.9981 C   0  0  0  0  0  0  0  0  0  0  0  0
  150.4231  140.9637  156.3210 C   0  0  0  0  0  0  0  0  0  0  0  0
  149.3717  140.7347  156.9207 O   0  0  0  0  0  0  0  0  0  0  0  0
  151.3471  141.8300  156.7629 N   0  0  0  0  0  0  0  0  0  0  0  0
  151.2641  142.6031  158.0011 C   0  0  2  0  0  0  0  0  0  0  0  0
  151.4808  144.0944  157.6808 C   0  0  0  0  0  0  0  0  0  0  0  0
  151.4494  144.9476  158.9522 C   0  0  0  0  0  0  0  0  0  0  0  0
  152.4937  144.4540  159.9591 C   0  0  0  0  0  0  0  0  0  0  0  0
  152.2868  142.9692  160.3193 C   0  0  2  0  0  0  0  0  0  0  0  0
  153.3388  142.5406  161.3590 C   0  0  0  0  0  0  0  0  0  0  0  0
  152.2881  142.0785  159.0442 C   0  0  1  0  0  0  0  0  0  0  0  0
  152.0276  140.5924  159.3760 C   0  0  0  0  0  0  0  0  0  0  0  0
  151.7545  138.0266  154.8095 C   0  0  0  0  0  0  0  0  0  0  0  0
  151.7367  136.7321  154.8361 N   0  0  0  0  0  0  0  0  0  0  0  0
  148.1880  132.4386  154.3435 H   0  0  0  0  0  0  0  0  0  0  0  0
  149.8549  132.0355  154.7566 H   0  0  0  0  0  0  0  0  0  0  0  0
  149.5029  132.9976  153.3088 H   0  0  0  0  0  0  0  0  0  0  0  0
  151.1025  134.2355  156.0655 H   0  0  0  0  0  0  0  0  0  0  0  0
  151.1723  134.1737  154.3090 H   0  0  0  0  0  0  0  0  0  0  0  0
  148.4894  136.2208  155.5972 H   0  0  0  0  0  0  0  0  0  0  0  0
  151.7711  140.5241  154.7048 H   0  0  0  0  0  0  0  0  0  0  0  0
  150.1193  140.6755  154.2156 H   0  0  0  0  0  0  0  0  0  0  0  0
  152.1787  141.9580  156.2048 H   0  0  0  0  0  0  0  0  0  0  0  0
  150.2667  142.4871  158.4307 H   0  0  0  0  0  0  0  0  0  0  0  0
  152.4383  144.2309  157.1760 H   0  0  0  0  0  0  0  0  0  0  0  0
  150.7140  144.4457  156.9892 H   0  0  0  0  0  0  0  0  0  0  0  0
  151.6361  145.9926  158.7037 H   0  0  0  0  0  0  0  0  0  0  0  0
  150.4556  144.9070  159.4001 H   0  0  0  0  0  0  0  0  0  0  0  0
  153.4934  144.5991  159.5470 H   0  0  0  0  0  0  0  0  0  0  0  0
  152.4410  145.0676  160.8592 H   0  0  0  0  0  0  0  0  0  0  0  0
  151.3071  142.8808  160.7917 H   0  0  0  0  0  0  0  0  0  0  0  0
  154.3381  142.5098  160.9237 H   0  0  0  0  0  0  0  0  0  0  0  0
  153.1220  141.5578  161.7762 H   0  0  0  0  0  0  0  0  0  0  0  0
  153.3653  143.2364  162.1981 H   0  0  0  0  0  0  0  0  0  0  0  0
  153.2812  142.1434  158.5965 H   0  0  0  0  0  0  0  0  0  0  0  0
  151.0627  140.4613  159.8667 H   0  0  0  0  0  0  0  0  0  0  0  0
  152.7947  140.1815  160.0310 H   0  0  0  0  0  0  0  0  0  0  0  0
  152.0289  139.9693  158.4818 H   0  0  0  0  0  0  0  0  0  0  0  0
  152.6591  138.6007  154.6021 H   0  0  0  0  0  0  0  0  0  0  0  0
  1  2  1  0  0  0  0
  1 23  1  0  0  0  0
  1 24  1  0  0  0  0
  1 25  1  0  0  0  0
  2  3  1  0  0  0  0
  3  4  1  0  0  0  0
  3 26  1  0  0  0  0
  3 27  1  0  0  0  0
  4 22  1  0  0  0  0
  4  5  2  0  0  0  0
  5  6  1  0  0  0  0
  5 28  1  0  0  0  0
  6  7  2  0  0  0  0
  6  8  1  0  0  0  0
  8  9  1  0  0  0  0
  8 21  1  0  0  0  0
  9 10  1  0  0  0  0
  9 29  1  0  0  0  0
  9 30  1  0  0  0  0
 10 11  2  0  0  0  0
 10 12  1  0  0  0  0
 12 13  1  0  0  0  0
 12 31  1  0  0  0  0
 13 19  1  0  0  0  0
 13 14  1  0  0  0  0
 13 32  1  0  0  0  0
 14 15  1  0  0  0  0
 14 33  1  0  0  0  0
 14 34  1  0  0  0  0
 15 16  1  0  0  0  0
 15 35  1  0  0  0  0
 15 36  1  0  0  0  0
 16 17  1  0  0  0  0
 16 37  1  0  0  0  0
 16 38  1  0  0  0  0
 17 18  1  0  0  0  0
 17 19  1  0  0  0  0
 17 39  1  0  0  0  0
 18 40  1  0  0  0  0
 18 41  1  0  0  0  0
 18 42  1  0  0  0  0
 19 20  1  0  0  0  0
 19 43  1  0  0  0  0
 20 44  1  0  0  0  0
 20 45  1  0  0  0  0
 20 46  1  0  0  0  0
 21 22  2  0  0  0  0
 21 47  1  0  0  0  0
M  END
> <s_m_source_file>
AV-unprocessed.smi

> <i_m_source_file_index>
2702

> <i_lp_mmshare_version>
43012

> <i_f3d_flags>
0

> <s_epik_input>
W0NIM11PW0NIMl1jMVtjSF1jKD1PKW4oW2NIXW4xKVtDSDJdQyg9TylbTkhdW0NAQEhdMltDSDJdW0NIMl1bQ0gyXVtDQEBIXShbQ0gzXSlbQ0BIXTJbQ0gzXQ==

> <s_epik_cmdline>
J2VwaWtfcHl0aG9uJywgJy1waCcsICc3LjAnLCAnLXRuJywgJzgnLCAnLW1hJywgJzIwMCcsICctbWV0YWxfYmluZGluZycsICctaW1hZScsICc8aW5maWxlLm1hZT4nLCAnLW9tYWUnLCAnPG91dGZpbGUubWFlPic=

> <r_lp_tautomer_probability>
1

> <r_epik_Ionization_Penalty>
1.22164e-06

> <r_epik_Ionization_Penalty_Charging>
3.17988e-07

> <r_epik_Ionization_Penalty_Neutral>
9.03656e-07

> <r_epik_State_Penalty>
-0

> <r_epik_Charging_Adjusted_Penalty>
3.17988e-07

> <i_epik_Tot_Q>
0

> <i_epik_Tot_abs_Q>
0

> <r_epik_Metal_State_Penalty>
-0

> <b_epik_Metal_Only>
0

> <s_lp_Force_Field>
OPLS_2005

> <r_lp_Energy>
18.2474

> <b_lp_Chiralities_Consistent>
1

> <s_lp_Variant>
AV-unprocessed.smi:2702-3

> <Gold.Version>
5.8.1

> <Gold.Id.Protein>
6NUR|6NUR_protein|mol2

> <Gold.PLP.Fitness>
44.7103

> <Gold.PLP.PLP>
-42.9289

> <Gold.PLP.part.hbond>
-1.0000

> <Gold.PLP.part.metal>
0.0000

> <Gold.PLP.part.buried>
-2.7009

> <Gold.PLP.part.nonpolar>
-39.9898

> <Gold.PLP.part.repulsive>
0.4393

> <Gold.PLP.ligand.clash>
0.0000

> <Gold.PLP.ligand.torsion>
0.6195

> <Gold.PLP.Chemscore.Hbond>
1.0000

> <Gold.PLP.Chemscore.CHOScore>
0.0000

> <Gold.PLP.Chemscore.Metal>
0.0000

> <Gold.Chemscore.Hbonds>
donor molecule, donor type, donor heavy atom, donor atom, acceptor molecule, acceptor atom, score
      P1  H 10752 10765       L1    22  1.00

> <Gold.PLP.Chemscore.Internal.Correction>
0.0204

> <Gold.Rescore>
     Score         DG    S(hbond)    S(metal)    S(lipo)     H(rot)  DE(clash)    DE(int)     intcor
     14.52     -16.36       0.92        0.00     108.83       1.93       0.06       1.78       ----

> <Gold.Chemscore.Fitness>
14.5192

> <Gold.Chemscore.DG>
-16.3569

> <Gold.Chemscore.ZeroCoef>
-5.4800

> <Gold.Chemscore.Hbond>
0.9224

> <Gold.Chemscore.Metal>
0.0000

> <Gold.Chemscore.Lipo>
108.8280

> <Gold.Chemscore.Internal_Hbond>
0.0000

> <Gold.Chemscore.DEClash>
0.0612

> <Gold.Chemscore.DEInternal>
1.7764

> <Gold.Chemscore.Rot>
1.9284

> <Gold.Chemscore.Internal.Correction>
   9.000000E+99

> <Gold.Chemscore.Hbonds>
donor molecule, donor type, donor heavy atom, donor atom, acceptor molecule, acceptor atom, score
      P1  H 10752 10765       L1    22  0.74

> <Gold.Chemscore.Hbond.Weighted>
-3.0808

> <Gold.Chemscore.Metal.Weighted>
-0.0000

> <Gold.Chemscore.Lipo.Weighted>
-12.7329

> <Gold.Chemscore.Internal_Hbond.Weighted>
0.0000

> <Gold.Chemscore.DEClash.Weighted>
0.0612

> <Gold.Chemscore.DEInternal.Weighted>
1.7764

> <Gold.Chemscore.Rot.Weighted>
4.9368

> <Gold.Chemscore.Internal.Correction.Weighted>
   9.000000E+99

> <Gold.Protein.RotatedTorsions>
[ 6907 6896 6895 6894 ] final -107.26 input  -60.11 | X-H torsion
[ 7974 7965 7964 7962 ] final  122.28 input  175.53 | X-H torsion
[ 8008 7997 7996 7995 ] final -132.86 input   59.86 | X-H torsion
[ 10167 10162 10161 10158 ] final  154.05 input  -65.29 | X-H torsion
[ 10718 10713 10712 10709 ] final  118.25 input   66.30 | X-H torsion
[ 10763 10752 10751 10750 ] final  175.52 input  -60.55 | X-H torsion
[ 11005 11000 10999 10996 ] final  113.46 input  -57.11 | X-H torsion

> <Gold.Protein.ActiveResidues>
 VAL166  LYS551  ARG553  GLY616  TRP617  ASP618  TYR619  PRO620  LYS621  CYS622 
 ASP623  PHE694  ASN695  SER759  ASP760  ASP761  ALA762  ILE779  LEU786  VAL792 
 PHE793  MET794  SER795  GLU796  ALA797  LYS798  CYS799  TRP800  GLU811  SER814 

> <Gold.Protein.RotatedAtoms>
  150.7434  133.9853  159.3589 H   0  0  0  0  0  0  0  0  0  0  0  0  # atno 6907 bound_to 6896
  151.7796  135.0763  160.0381 H   0  0  0  0  0  0  0  0  0  0  0  0  # atno 6908 bound_to 6896
  152.3283  133.5892  159.5828 H   0  0  0  0  0  0  0  0  0  0  0  0  # atno 6909 bound_to 6896
  145.1094  139.3463  143.4771 H   0  0  0  0  0  0  0  0  0  0  0  0  # atno 7974 bound_to 7965
  155.3359  140.0469  157.3044 H   0  0  0  0  0  0  0  0  0  0  0  0  # atno 8008 bound_to 7997
  154.5303  140.2255  155.8781 H   0  0  0  0  0  0  0  0  0  0  0  0  # atno 8009 bound_to 7997
  156.1782  140.3080  155.9104 H   0  0  0  0  0  0  0  0  0  0  0  0  # atno 8010 bound_to 7997
  139.4824  144.5220  151.7861 H   0  0  0  0  0  0  0  0  0  0  0  0  # atno 10167 bound_to 10162
  157.6043  131.1046  150.7730 H   0  0  0  0  0  0  0  0  0  0  0  0  # atno 10718 bound_to 10713
  154.4688  135.2770  155.1658 H   0  0  0  0  0  0  0  0  0  0  0  0  # atno 10763 bound_to 10752
  154.3416  135.6169  153.5602 H   0  0  0  0  0  0  0  0  0  0  0  0  # atno 10764 bound_to 10752
  152.9862  135.5790  154.5065 H   0  0  0  0  0  0  0  0  0  0  0  0  # atno 10765 bound_to 10752
  139.8954  134.9550  156.6743 H   0  0  0  0  0  0  0  0  0  0  0  0  # atno 11005 bound_to 11000
  146.3527  140.1006  142.8608 LP  0  0  0  0  0  0  0  0  0  0  0  0  # atno 17320 bound_to 7965
  145.0864  140.9255  143.4795 LP  0  0  0  0  0  0  0  0  0  0  0  0  # atno 17321 bound_to 7965
  140.4735  144.1552  150.5921 LP  0  0  0  0  0  0  0  0  0  0  0  0  # atno 17342 bound_to 10162
  140.4356  143.2549  151.9539 LP  0  0  0  0  0  0  0  0  0  0  0  0  # atno 17343 bound_to 10162
  156.8121  130.4956  149.5354 LP  0  0  0  0  0  0  0  0  0  0  0  0  # atno 17370 bound_to 10713
  156.1124  130.6050  151.0068 LP  0  0  0  0  0  0  0  0  0  0  0  0  # atno 17371 bound_to 10713
  140.7349  133.9027  155.8237 LP  0  0  0  0  0  0  0  0  0  0  0  0  # atno 17394 bound_to 11000
  141.0124  134.1002  157.4207 LP  0  0  0  0  0  0  0  0  0  0  0  0  # atno 17395 bound_to 11000

$$$$
