AV-unprocessed.smi:1699|AV-procd|sdf|6816|dock1
  -GOLD-   22720 7593D 1   1.00000     0.00000
 Structure written by MMmdl.
 37 38  0  0  0  0  0  0  0  0  1 V2000
  147.5132  133.1057  152.3406 C   0  0  0  0  0  0  0  0  0  0  0  0
  146.2937  133.1868  151.4368 C   0  0  0  0  0  0  0  0  0  0  0  0
  145.7770  132.0033  150.8674 C   0  0  0  0  0  0  0  0  0  0  0  0
  144.6482  132.0793  150.0337 C   0  0  0  0  0  0  0  0  0  0  0  0
  144.0799  133.3439  149.8036 C   0  0  0  0  0  0  0  0  0  0  0  0
  144.5670  134.4795  150.3435 N   0  0  0  0  0  0  0  0  0  0  0  0
  145.6560  134.4239  151.1511 C   0  0  0  0  0  0  0  0  0  0  0  0
  146.2279  135.5822  151.7495 N   0  0  0  0  0  0  0  0  0  0  0  0
  145.6007  136.6169  152.3366 C   0  0  0  0  0  0  0  0  0  0  0  0
  144.3827  136.7216  152.4843 O   0  0  0  0  0  0  0  0  0  0  0  0
  146.4800  137.5353  152.7625 N   0  0  0  0  0  0  0  0  0  0  0  0
  146.1410  138.7771  153.4533 C   0  0  1  0  0  0  0  0  0  0  0  0
  145.7682  138.4615  154.9117 C   0  0  0  0  0  0  0  0  0  0  0  0
  147.3281  139.7534  153.3489 C   0  0  2  0  0  0  0  0  0  0  0  0
  148.5815  139.3232  154.1130 C   0  0  0  0  0  0  0  0  0  0  0  0
  149.2907  140.6349  154.4132 C   0  0  0  0  0  0  0  0  0  0  0  0
  148.2289  141.7045  154.1444 C   0  0  0  0  0  0  0  0  0  0  0  0
  147.0143  140.9879  153.9762 O   0  0  0  0  0  0  0  0  0  0  0  0
  147.8520  132.0760  152.4598 H   0  0  0  0  0  0  0  0  0  0  0  0
  147.2812  133.4981  153.3311 H   0  0  0  0  0  0  0  0  0  0  0  0
  148.3374  133.6840  151.9222 H   0  0  0  0  0  0  0  0  0  0  0  0
  146.2379  131.0467  151.0651 H   0  0  0  0  0  0  0  0  0  0  0  0
  144.2289  131.1921  149.5828 H   0  0  0  0  0  0  0  0  0  0  0  0
  143.2119  133.4476  149.1693 H   0  0  0  0  0  0  0  0  0  0  0  0
  147.2357  135.6253  151.7289 H   0  0  0  0  0  0  0  0  0  0  0  0
  147.4609  137.3674  152.5937 H   0  0  0  0  0  0  0  0  0  0  0  0
  145.2793  139.2397  152.9685 H   0  0  0  0  0  0  0  0  0  0  0  0
  145.4641  139.3603  155.4481 H   0  0  0  0  0  0  0  0  0  0  0  0
  146.6084  138.0209  155.4495 H   0  0  0  0  0  0  0  0  0  0  0  0
  144.9357  137.7586  154.9617 H   0  0  0  0  0  0  0  0  0  0  0  0
  147.5783  139.9434  152.3030 H   0  0  0  0  0  0  0  0  0  0  0  0
  148.3044  138.8376  155.0498 H   0  0  0  0  0  0  0  0  0  0  0  0
  149.2019  138.6286  153.5459 H   0  0  0  0  0  0  0  0  0  0  0  0
  149.6371  140.6610  155.4469 H   0  0  0  0  0  0  0  0  0  0  0  0
  150.1557  140.7801  153.7652 H   0  0  0  0  0  0  0  0  0  0  0  0
  148.1478  142.4283  154.9556 H   0  0  0  0  0  0  0  0  0  0  0  0
  148.4552  142.2467  153.2252 H   0  0  0  0  0  0  0  0  0  0  0  0
  1  2  1  0  0  0  0
  1 19  1  0  0  0  0
  1 20  1  0  0  0  0
  1 21  1  0  0  0  0
  2  7  1  0  0  0  0
  2  3  2  0  0  0  0
  3  4  1  0  0  0  0
  3 22  1  0  0  0  0
  4  5  2  0  0  0  0
  4 23  1  0  0  0  0
  5  6  1  0  0  0  0
  5 24  1  0  0  0  0
  6  7  2  0  0  0  0
  7  8  1  0  0  0  0
  8  9  1  0  0  0  0
  8 25  1  0  0  0  0
  9 10  2  0  0  0  0
  9 11  1  0  0  0  0
 11 12  1  0  0  0  0
 11 26  1  0  0  0  0
 12 13  1  0  0  0  0
 12 14  1  0  0  0  0
 12 27  1  0  0  0  0
 13 28  1  0  0  0  0
 13 29  1  0  0  0  0
 13 30  1  0  0  0  0
 14 18  1  0  0  0  0
 14 15  1  0  0  0  0
 14 31  1  0  0  0  0
 15 16  1  0  0  0  0
 15 32  1  0  0  0  0
 15 33  1  0  0  0  0
 16 17  1  0  0  0  0
 16 34  1  0  0  0  0
 16 35  1  0  0  0  0
 17 18  1  0  0  0  0
 17 36  1  0  0  0  0
 17 37  1  0  0  0  0
M  END
> <s_m_source_file>
AV-unprocessed.smi

> <i_m_source_file_index>
1699

> <i_lp_mmshare_version>
43012

> <i_f3d_flags>
0

> <s_epik_input>
W0NIM11jMVtjSF1bY0hdW2NIXW5jMVtOSF1DKD1PKVtOSF1bQ0BIXShbQ0gzXSlbQ0BASF0yW0NIMl1bQ0gyXVtDSDJdTzI=

> <s_epik_cmdline>
J2VwaWtfcHl0aG9uJywgJy1waCcsICc3LjAnLCAnLXRuJywgJzgnLCAnLW1hJywgJzIwMCcsICctbWV0YWxfYmluZGluZycsICctaW1hZScsICc8aW5maWxlLm1hZT4nLCAnLW9tYWUnLCAnPG91dGZpbGUubWFlPic=

> <r_lp_tautomer_probability>
1

> <r_epik_Ionization_Penalty>
5.52788e-05

> <r_epik_Ionization_Penalty_Charging>
0

> <r_epik_Ionization_Penalty_Neutral>
5.52788e-05

> <r_epik_State_Penalty>
-0

> <r_epik_Charging_Adjusted_Penalty>
0

> <i_epik_Tot_Q>
0

> <i_epik_Tot_abs_Q>
0

> <r_epik_Metal_State_Penalty>
-0

> <b_epik_Metal_Only>
0

> <s_lp_Force_Field>
OPLS_2005

> <r_lp_Energy>
21.1958

> <b_lp_Chiralities_Consistent>
1

> <s_lp_Variant>
AV-unprocessed.smi:1699-2

> <Gold.Version>
5.8.1

> <Gold.Id.Protein>
6NUR|6NUR_protein|mol2

> <Gold.PLP.Fitness>
39.2054

> <Gold.PLP.PLP>
-31.3915

> <Gold.PLP.part.hbond>
-2.0000

> <Gold.PLP.part.metal>
0.0000

> <Gold.PLP.part.buried>
-2.7553

> <Gold.PLP.part.nonpolar>
-26.9901

> <Gold.PLP.part.repulsive>
0.7072

> <Gold.PLP.ligand.clash>
0.0000

> <Gold.PLP.ligand.torsion>
0.6045

> <Gold.PLP.Chemscore.Hbond>
2.0000

> <Gold.PLP.Chemscore.CHOScore>
1.0000

> <Gold.PLP.Chemscore.Metal>
0.0000

> <Gold.Chemscore.Hbonds>
donor molecule, donor type, donor heavy atom, donor atom, acceptor molecule, acceptor atom, score
      L1  H     8    25       P1  7948  1.00
      L1  H    11    26       P1  7948  1.00
      L1  C     5    24       P1 10186  1.00

> <Gold.PLP.Chemscore.Internal.Correction>
0.0230

> <Gold.Rescore>
     Score         DG    S(hbond)    S(metal)    S(lipo)     H(rot)  DE(clash)    DE(int)     intcor
     17.25     -17.84       1.97        0.00      76.20       1.22       0.04       0.56       ----

> <Gold.Chemscore.Fitness>
17.2480

> <Gold.Chemscore.DG>
-17.8424

> <Gold.Chemscore.ZeroCoef>
-5.4800

> <Gold.Chemscore.Hbond>
1.9671

> <Gold.Chemscore.Metal>
0.0000

> <Gold.Chemscore.Lipo>
76.2017

> <Gold.Chemscore.Internal_Hbond>
0.0000

> <Gold.Chemscore.DEClash>
0.0361

> <Gold.Chemscore.DEInternal>
0.5584

> <Gold.Chemscore.Rot>
1.2200

> <Gold.Chemscore.Internal.Correction>
   9.000000E+99

> <Gold.Chemscore.Hbonds>
donor molecule, donor type, donor heavy atom, donor atom, acceptor molecule, acceptor atom, score
      L1  H     8    25       P1  7948  1.00
      L1  H    11    26       P1  7948  0.92

> <Gold.Chemscore.Hbond.Weighted>
-6.5700

> <Gold.Chemscore.Metal.Weighted>
-0.0000

> <Gold.Chemscore.Lipo.Weighted>
-8.9156

> <Gold.Chemscore.Internal_Hbond.Weighted>
0.0000

> <Gold.Chemscore.DEClash.Weighted>
0.0361

> <Gold.Chemscore.DEInternal.Weighted>
0.5584

> <Gold.Chemscore.Rot.Weighted>
3.1232

> <Gold.Chemscore.Internal.Correction.Weighted>
   9.000000E+99

> <Gold.Protein.RotatedTorsions>
[ 6907 6896 6895 6894 ] final   -9.81 input  -60.11 | X-H torsion
[ 7974 7965 7964 7962 ] final -173.95 input  175.53 | X-H torsion
[ 8008 7997 7996 7995 ] final -130.08 input   59.86 | X-H torsion
[ 10167 10162 10161 10158 ] final  -26.39 input  -65.29 | X-H torsion
[ 10718 10713 10712 10709 ] final  -45.72 input   66.30 | X-H torsion
[ 10763 10752 10751 10750 ] final   28.17 input  -60.55 | X-H torsion
[ 11005 11000 10999 10996 ] final   -7.65 input  -57.11 | X-H torsion

> <Gold.Protein.ActiveResidues>
 VAL166  LYS551  ARG553  GLY616  TRP617  ASP618  TYR619  PRO620  LYS621  CYS622 
 ASP623  PHE694  ASN695  SER759  ASP760  ASP761  ALA762  ILE779  LEU786  VAL792 
 PHE793  MET794  SER795  GLU796  ALA797  LYS798  CYS799  TRP800  GLU811  SER814 

> <Gold.Protein.RotatedAtoms>
  151.4119  135.0986  159.9587 H   0  0  0  0  0  0  0  0  0  0  0  0  # atno 6907 bound_to 6896
  152.5017  133.8790  159.7347 H   0  0  0  0  0  0  0  0  0  0  0  0  # atno 6908 bound_to 6896
  150.9286  133.6736  159.2844 H   0  0  0  0  0  0  0  0  0  0  0  0  # atno 6909 bound_to 6896
  144.7134  140.1545  143.6381 H   0  0  0  0  0  0  0  0  0  0  0  0  # atno 7974 bound_to 7965
  155.2898  140.0448  157.3022 H   0  0  0  0  0  0  0  0  0  0  0  0  # atno 8008 bound_to 7997
  154.5548  140.2328  155.8395 H   0  0  0  0  0  0  0  0  0  0  0  0  # atno 8009 bound_to 7997
  156.1998  140.3029  155.9509 H   0  0  0  0  0  0  0  0  0  0  0  0  # atno 8010 bound_to 7997
  140.7283  143.4182  151.0994 H   0  0  0  0  0  0  0  0  0  0  0  0  # atno 10167 bound_to 10162
  156.2255  130.4169  149.8940 H   0  0  0  0  0  0  0  0  0  0  0  0  # atno 10718 bound_to 10713
  153.0509  135.6520  154.0696 H   0  0  0  0  0  0  0  0  0  0  0  0  # atno 10763 bound_to 10752
  154.0385  135.2905  155.3360 H   0  0  0  0  0  0  0  0  0  0  0  0  # atno 10764 bound_to 10752
  154.6797  135.5325  153.8312 H   0  0  0  0  0  0  0  0  0  0  0  0  # atno 10765 bound_to 10752
  140.7150  133.8876  155.8778 H   0  0  0  0  0  0  0  0  0  0  0  0  # atno 11005 bound_to 11000
  145.9086  139.2473  143.1451 LP  0  0  0  0  0  0  0  0  0  0  0  0  # atno 17320 bound_to 7965
  145.9739  140.8738  143.0148 LP  0  0  0  0  0  0  0  0  0  0  0  0  # atno 17321 bound_to 7965
  139.7824  143.8335  152.3140 LP  0  0  0  0  0  0  0  0  0  0  0  0  # atno 17342 bound_to 10162
  139.8291  144.7262  150.9473 LP  0  0  0  0  0  0  0  0  0  0  0  0  # atno 17343 bound_to 10162
  156.6572  130.8767  151.3541 LP  0  0  0  0  0  0  0  0  0  0  0  0  # atno 17370 bound_to 10713
  157.7108  130.9438  150.1083 LP  0  0  0  0  0  0  0  0  0  0  0  0  # atno 17371 bound_to 10713
  141.0052  134.1096  157.4277 LP  0  0  0  0  0  0  0  0  0  0  0  0  # atno 17394 bound_to 11000
  139.8862  135.0079  156.6483 LP  0  0  0  0  0  0  0  0  0  0  0  0  # atno 17395 bound_to 11000

$$$$
