AV-unprocessed.smi:21|AV-procd|sdf|144|dock8
  -GOLD-   2262015353D 1   1.00000     0.00000
 Structure written by MMmdl.
 62 65  0  0  0  0  0  0  0  0  2 V2000
  145.7190  131.6481  150.1166 C   0  0  0  0  0  0  0  0  0  0  0  0
  146.1631  132.0917  151.3892 O   0  0  0  0  0  0  0  0  0  0  0  0
  145.8514  131.1980  152.4502 C   0  0  2  0  0  0  0  0  0  0  0  0
  146.3719  131.7073  153.7951 C   0  0  0  0  0  0  0  0  0  0  0  0
  147.8510  131.2821  153.8448 C   0  0  2  0  0  0  0  0  0  0  0  0
  148.8388  132.4296  153.5448 C   0  0  0  0  0  0  0  0  0  0  0  0
  149.3950  133.0454  154.7530 N   0  0  0  0  0  0  0  0  0  0  0  0
  150.5333  132.4091  155.4055 C   0  0  0  0  0  0  0  0  0  0  0  0
  148.9097  134.2366  155.2132 C   0  0  0  0  0  0  0  0  0  0  0  0
  147.5816  134.3232  155.4997 N   0  0  0  0  0  0  0  0  0  0  0  0
  147.0455  135.4605  155.9483 C   0  0  0  0  0  0  0  0  0  0  0  0
  147.6447  136.6270  156.1811 N   0  0  0  0  0  0  0  0  0  0  0  0
  148.9765  136.5594  155.9011 C   0  0  0  0  0  0  0  0  0  0  0  0
  149.6870  135.4203  155.4186 C   0  0  0  0  0  0  0  0  0  0  0  0
  151.0274  135.7578  155.2488 N   0  0  0  0  0  0  0  0  0  0  0  0
  151.1027  137.0089  155.6098 C   0  0  0  0  0  0  0  0  0  0  0  0
  149.9158  137.5675  156.0203 N   0  0  0  0  0  0  0  0  0  0  0  0
  149.7006  138.9321  156.4673 C   0  0  0  0  0  0  0  0  0  0  0  0
  150.2394  140.0078  155.4871 C   0  0  1  0  0  0  0  0  0  0  0  0
  149.1669  140.4575  154.4619 C   0  0  0  0  0  0  0  0  0  0  0  0
  149.7474  140.9779  153.2839 O   0  0  0  0  0  0  0  0  0  0  0  0
  150.8036  141.2233  156.2680 C   0  0  2  0  0  0  0  0  0  0  0  0
  151.8675  140.8770  157.3111 C   0  0  0  0  0  0  0  0  0  0  0  0
  151.5909  141.8177  158.4877 C   0  0  0  0  0  0  0  0  0  0  0  0
  150.5817  142.7030  158.0298 O   0  0  0  0  0  0  0  0  0  0  0  0
  149.7776  141.9823  157.1139 C   0  0  0  0  0  0  0  0  0  0  0  0
  148.0016  130.2188  152.8218 N   0  3  1  0  0  0  0  0  0  0  0  0
  148.7401  129.0233  153.2815 C   0  0  0  0  0  0  0  0  0  0  0  0
  146.6702  129.9254  152.2521 C   0  0  0  0  0  0  0  0  0  0  0  0
  144.7825  130.9783  152.4678 H   0  0  0  0  0  0  0  0  0  0  0  0
  148.0582  130.8705  154.8338 H   0  0  0  0  0  0  0  0  0  0  0  0
  146.0083  132.3750  149.3578 H   0  0  0  0  0  0  0  0  0  0  0  0
  144.6350  131.5422  150.0774 H   0  0  0  0  0  0  0  0  0  0  0  0
  146.1729  130.6922  149.8526 H   0  0  0  0  0  0  0  0  0  0  0  0
  146.2123  132.7725  153.9510 H   0  0  0  0  0  0  0  0  0  0  0  0
  145.8333  131.1940  154.5928 H   0  0  0  0  0  0  0  0  0  0  0  0
  149.6530  132.0688  152.9152 H   0  0  0  0  0  0  0  0  0  0  0  0
  148.3384  133.1920  152.9467 H   0  0  0  0  0  0  0  0  0  0  0  0
  150.3358  132.2617  156.4677 H   0  0  0  0  0  0  0  0  0  0  0  0
  151.4311  133.0174  155.2945 H   0  0  0  0  0  0  0  0  0  0  0  0
  150.7434  131.4308  154.9728 H   0  0  0  0  0  0  0  0  0  0  0  0
  145.9847  135.4318  156.1488 H   0  0  0  0  0  0  0  0  0  0  0  0
  152.0318  137.5597  155.5907 H   0  0  0  0  0  0  0  0  0  0  0  0
  148.6325  139.0772  156.6347 H   0  0  0  0  0  0  0  0  0  0  0  0
  150.1787  139.0241  157.4423 H   0  0  0  0  0  0  0  0  0  0  0  0
  151.0732  139.5731  154.9330 H   0  0  0  0  0  0  0  0  0  0  0  0
  148.5024  139.6311  154.2079 H   0  0  0  0  0  0  0  0  0  0  0  0
  148.5373  141.2482  154.8679 H   0  0  0  0  0  0  0  0  0  0  0  0
  149.6858  140.3243  152.6041 H   0  0  0  0  0  0  0  0  0  0  0  0
  151.2393  141.9319  155.5614 H   0  0  0  0  0  0  0  0  0  0  0  0
  151.7910  139.8403  157.6421 H   0  0  0  0  0  0  0  0  0  0  0  0
  152.8706  141.0230  156.9091 H   0  0  0  0  0  0  0  0  0  0  0  0
  151.2147  141.2579  159.3452 H   0  0  0  0  0  0  0  0  0  0  0  0
  152.4780  142.3674  158.8029 H   0  0  0  0  0  0  0  0  0  0  0  0
  149.1581  142.6590  156.5249 H   0  0  0  0  0  0  0  0  0  0  0  0
  149.1239  141.2981  157.6581 H   0  0  0  0  0  0  0  0  0  0  0  0
  148.2221  128.5328  154.1067 H   0  0  0  0  0  0  0  0  0  0  0  0
  149.7385  129.3014  153.6204 H   0  0  0  0  0  0  0  0  0  0  0  0
  148.8472  128.3054  152.4678 H   0  0  0  0  0  0  0  0  0  0  0  0
  146.2074  129.1107  152.8119 H   0  0  0  0  0  0  0  0  0  0  0  0
  146.7348  129.6179  151.2078 H   0  0  0  0  0  0  0  0  0  0  0  0
  148.5383  130.6330  152.0731 H   0  0  0  0  0  0  0  0  0  0  0  0
  1  2  1  0  0  0  0
  1 32  1  0  0  0  0
  1 33  1  0  0  0  0
  1 34  1  0  0  0  0
  2  3  1  0  0  0  0
  3 30  1  0  0  0  0
  3 29  1  0  0  0  0
  3  4  1  0  0  0  0
  4  5  1  0  0  0  0
  4 35  1  0  0  0  0
  4 36  1  0  0  0  0
  5 31  1  0  0  0  0
  5  6  1  0  0  0  0
  5 27  1  0  0  0  0
  6  7  1  0  0  0  0
  6 37  1  0  0  0  0
  6 38  1  0  0  0  0
  7  8  1  0  0  0  0
  7  9  1  0  0  0  0
  8 39  1  0  0  0  0
  8 40  1  0  0  0  0
  8 41  1  0  0  0  0
  9 14  1  0  0  0  0
  9 10  2  0  0  0  0
 10 11  1  0  0  0  0
 11 12  2  0  0  0  0
 11 42  1  0  0  0  0
 12 13  1  0  0  0  0
 13 17  1  0  0  0  0
 13 14  2  0  0  0  0
 14 15  1  0  0  0  0
 15 16  2  0  0  0  0
 16 17  1  0  0  0  0
 16 43  1  0  0  0  0
 17 18  1  0  0  0  0
 18 19  1  0  0  0  0
 18 44  1  0  0  0  0
 18 45  1  0  0  0  0
 19 20  1  0  0  0  0
 19 22  1  0  0  0  0
 19 46  1  0  0  0  0
 20 21  1  0  0  0  0
 20 47  1  0  0  0  0
 20 48  1  0  0  0  0
 21 49  1  0  0  0  0
 22 26  1  0  0  0  0
 22 23  1  0  0  0  0
 22 50  1  0  0  0  0
 23 24  1  0  0  0  0
 23 51  1  0  0  0  0
 23 52  1  0  0  0  0
 24 25  1  0  0  0  0
 24 53  1  0  0  0  0
 24 54  1  0  0  0  0
 25 26  1  0  0  0  0
 26 55  1  0  0  0  0
 26 56  1  0  0  0  0
 27 28  1  0  0  0  0
 27 29  1  0  0  0  0
 27 62  1  0  0  0  0
 28 57  1  0  0  0  0
 28 58  1  0  0  0  0
 28 59  1  0  0  0  0
 29 60  1  0  0  0  0
 29 61  1  0  0  0  0
M  CHG  1  27   1
M  END
> <s_m_source_file>
AV-unprocessed.smi

> <i_m_source_file_index>
21

> <i_lp_mmshare_version>
43012

> <i_f3d_flags>
0

> <s_epik_input>
W0NIM11PW0NASF0xW0NIMl1bQ0BIXShOKFtDSDNdKVtDSDJdMSlbQ0gyXU4oW0NIM10pYyhuW2NIXW4yKWMoYzIzKW5bY0hdbjNbQ0gyXVtDQEhdKFtDSDJdW09IXSlbQ0BASF00W0NIMl1bQ0gyXU9bQ0gyXTQ=

> <s_epik_cmdline>
J2VwaWtfcHl0aG9uJywgJy1waCcsICc3LjAnLCAnLXRuJywgJzgnLCAnLW1hJywgJzIwMCcsICctbWV0YWxfYmluZGluZycsICctaW1hZScsICc8aW5maWxlLm1hZT4nLCAnLW9tYWUnLCAnPG91dGZpbGUubWFlPic=

> <r_lp_tautomer_probability>
1

> <r_epik_Ionization_Penalty>
0.0157465

> <r_epik_Ionization_Penalty_Charging>
0.015354

> <r_epik_Ionization_Penalty_Neutral>
0.000392529

> <r_epik_State_Penalty>
0.0120612

> <r_epik_Charging_Adjusted_Penalty>
0.0274152

> <i_epik_Tot_Q>
1

> <i_epik_Tot_abs_Q>
1

> <r_epik_Metal_State_Penalty>
0.0121253

> <b_epik_Metal_Only>
0

> <s_lp_Force_Field>
OPLS_2005

> <r_lp_Energy>
59.4837

> <b_lp_Chiralities_Consistent>
1

> <s_lp_Variant>
AV-unprocessed.smi:21-24

> <Gold.Version>
5.8.1

> <Gold.Id.Protein>
6NUR|6NUR_protein|mol2

> <Gold.PLP.Fitness>
49.0362

> <Gold.PLP.PLP>
-41.9785

> <Gold.PLP.part.hbond>
-4.4450

> <Gold.PLP.part.metal>
0.0000

> <Gold.PLP.part.buried>
-6.3342

> <Gold.PLP.part.nonpolar>
-30.0954

> <Gold.PLP.part.repulsive>
0.4293

> <Gold.PLP.ligand.clash>
0.0000

> <Gold.PLP.ligand.torsion>
2.5646

> <Gold.PLP.Chemscore.Hbond>
3.9311

> <Gold.PLP.Chemscore.CHOScore>
0.0000

> <Gold.PLP.Chemscore.Metal>
0.0000

> <Gold.Chemscore.Hbonds>
donor molecule, donor type, donor heavy atom, donor atom, acceptor molecule, acceptor atom, score
      L1  H    21    49       P1  7957  0.78
      L1  H    27    62       P1 10747  1.00
      P1  H  7989  7998       L1    21  0.14
      P1  H  8011  8017       L1    21  1.00
      P1  H 10752 10763       L1    15  0.62

> <Gold.PLP.Chemscore.Internal.Correction>
0.3936

> <Gold.Rescore>
     Score         DG    S(hbond)    S(metal)    S(lipo)     H(rot)  DE(clash)    DE(int)     intcor
     14.65     -17.51       2.57        0.00      96.87       3.08       0.05       2.81       ----

> <Gold.Chemscore.Fitness>
14.6487

> <Gold.Chemscore.DG>
-17.5077

> <Gold.Chemscore.ZeroCoef>
-5.4800

> <Gold.Chemscore.Hbond>
2.5653

> <Gold.Chemscore.Metal>
0.0000

> <Gold.Chemscore.Lipo>
96.8697

> <Gold.Chemscore.Internal_Hbond>
0.0000

> <Gold.Chemscore.DEClash>
0.0515

> <Gold.Chemscore.DEInternal>
2.8075

> <Gold.Chemscore.Rot>
3.0758

> <Gold.Chemscore.Internal.Correction>
   9.000000E+99

> <Gold.Chemscore.Hbonds>
donor molecule, donor type, donor heavy atom, donor atom, acceptor molecule, acceptor atom, score
      L1  H    21    49       P1  7957  0.75
      L1  H    27    62       P1 10747  0.83
      P1  H  7989  7998       L1    21  0.02
      P1  H  8011  8017       L1    21  0.25
      P1  H 10752 10763       L1    15  0.12

> <Gold.Chemscore.Hbond.Weighted>
-8.5681

> <Gold.Chemscore.Metal.Weighted>
-0.0000

> <Gold.Chemscore.Lipo.Weighted>
-11.3338

> <Gold.Chemscore.Internal_Hbond.Weighted>
0.0000

> <Gold.Chemscore.DEClash.Weighted>
0.0515

> <Gold.Chemscore.DEInternal.Weighted>
2.8075

> <Gold.Chemscore.Rot.Weighted>
7.8741

> <Gold.Chemscore.Internal.Correction.Weighted>
   9.000000E+99

> <Gold.Protein.RotatedTorsions>
[ 6907 6896 6895 6894 ] final  -57.69 input  -60.11 | X-H torsion
[ 7974 7965 7964 7962 ] final  -89.81 input  175.53 | X-H torsion
[ 8008 7997 7996 7995 ] final  -38.34 input   59.86 | X-H torsion
[ 10167 10162 10161 10158 ] final   10.81 input  -65.29 | X-H torsion
[ 10718 10713 10712 10709 ] final  -89.90 input   66.30 | X-H torsion
[ 10763 10752 10751 10750 ] final   42.47 input  -60.55 | X-H torsion
[ 11005 11000 10999 10996 ] final  -82.55 input  -57.11 | X-H torsion

> <Gold.Protein.ActiveResidues>
 VAL166  LYS551  ARG553  GLY616  TRP617  ASP618  TYR619  PRO620  LYS621  CYS622 
 ASP623  PHE694  ASN695  SER759  ASP760  ASP761  ALA762  ILE779  LEU786  VAL792 
 PHE793  MET794  SER795  GLU796  ALA797  LYS798  CYS799  TRP800  GLU811  SER814 

> <Gold.Protein.RotatedAtoms>
  150.8066  134.7194  159.6648 H   0  0  0  0  0  0  0  0  0  0  0  0  # atno 6907 bound_to 6896
  152.4185  134.5995  160.0006 H   0  0  0  0  0  0  0  0  0  0  0  0  # atno 6908 bound_to 6896
  151.6217  133.3301  159.3125 H   0  0  0  0  0  0  0  0  0  0  0  0  # atno 6909 bound_to 6896
  145.4349  140.9557  143.2107 H   0  0  0  0  0  0  0  0  0  0  0  0  # atno 7974 bound_to 7965
  154.4038  140.1580  156.2684 H   0  0  0  0  0  0  0  0  0  0  0  0  # atno 8008 bound_to 7997
  155.8975  140.3435  155.5979 H   0  0  0  0  0  0  0  0  0  0  0  0  # atno 8009 bound_to 7997
  155.7487  140.0802  157.2202 H   0  0  0  0  0  0  0  0  0  0  0  0  # atno 8010 bound_to 7997
  140.6171  143.8284  150.7131 H   0  0  0  0  0  0  0  0  0  0  0  0  # atno 10167 bound_to 10162
  155.9986  130.4889  150.5242 H   0  0  0  0  0  0  0  0  0  0  0  0  # atno 10718 bound_to 10713
  152.9882  135.6131  154.2955 H   0  0  0  0  0  0  0  0  0  0  0  0  # atno 10763 bound_to 10752
  154.2678  135.2780  155.2753 H   0  0  0  0  0  0  0  0  0  0  0  0  # atno 10764 bound_to 10752
  154.5149  135.5831  153.6691 H   0  0  0  0  0  0  0  0  0  0  0  0  # atno 10765 bound_to 10752
  141.1662  133.7250  156.8588 H   0  0  0  0  0  0  0  0  0  0  0  0  # atno 11005 bound_to 11000
  144.8159  139.5878  143.7008 LP  0  0  0  0  0  0  0  0  0  0  0  0  # atno 17320 bound_to 7965
  146.2587  139.6362  142.9377 LP  0  0  0  0  0  0  0  0  0  0  0  0  # atno 17321 bound_to 7965
  140.1866  143.4071  152.1894 LP  0  0  0  0  0  0  0  0  0  0  0  0  # atno 17342 bound_to 10162
  139.5408  144.7254  151.4742 LP  0  0  0  0  0  0  0  0  0  0  0  0  # atno 17343 bound_to 10162
  157.3199  131.0680  151.1939 LP  0  0  0  0  0  0  0  0  0  0  0  0  # atno 17370 bound_to 10713
  157.2856  130.6771  149.6088 LP  0  0  0  0  0  0  0  0  0  0  0  0  # atno 17371 bound_to 10713
  140.1863  134.8997  157.3008 LP  0  0  0  0  0  0  0  0  0  0  0  0  # atno 17394 bound_to 11000
  140.2339  134.3876  155.7509 LP  0  0  0  0  0  0  0  0  0  0  0  0  # atno 17395 bound_to 11000

$$$$
