AV-unprocessed.smi:5|AV-procd|sdf|38|dock4
  -GOLD-   2262015153D 1   1.00000     0.00000
 Structure written by MMmdl.
 43 44  0  0  0  0  0  0  0  0  2 V2000
  146.4719  142.7452  155.4137 C   0  0  0  0  0  0  0  0  0  0  0  0
  146.7721  141.3959  154.7936 C   0  0  0  0  0  0  0  0  0  0  0  0
  146.0176  140.3059  155.0330 C   0  0  0  0  0  0  0  0  0  0  0  0
  146.2982  138.9550  154.3985 C   0  0  0  0  0  0  0  0  0  0  0  0
  147.3289  139.0741  153.2600 C   0  0  0  0  0  0  0  0  0  0  0  0
  148.4412  139.9415  153.6870 N   0  0  0  0  0  0  0  0  0  0  0  0
  149.6883  139.5247  154.0241 C   0  0  0  0  0  0  0  0  0  0  0  0
  150.4835  140.2159  154.6620 O   0  0  0  0  0  0  0  0  0  0  0  0
  149.9734  138.2625  153.6591 N   0  0  0  0  0  0  0  0  0  0  0  0
  151.1413  137.5001  154.0945 C   0  0  0  0  0  0  0  0  0  0  0  0
  150.7980  136.3175  155.0027 C   0  0  0  0  0  0  0  0  0  0  0  0
  150.1292  135.2153  154.5943 C   0  0  0  0  0  0  0  0  0  0  0  0
  149.8143  134.1443  155.4503 N   0  0  0  0  0  0  0  0  0  0  0  0
  149.0633  133.0052  154.8762 C   0  0  0  0  0  0  0  0  0  0  0  0
  149.8719  131.6995  154.9768 C   0  0  0  0  0  0  0  0  0  0  0  0
  148.5992  133.2977  153.4361 C   0  0  0  0  0  0  0  0  0  0  0  0
  150.2132  134.1922  156.7577 C   0  0  0  0  0  0  0  0  0  0  0  0
  149.9516  133.2497  157.5054 O   0  0  0  0  0  0  0  0  0  0  0  0
  150.8967  135.2915  157.1994 N   0  5  0  0  0  0  0  0  0  0  0  0
  151.2121  136.3561  156.4071 C   0  0  0  0  0  0  0  0  0  0  0  0
  151.8298  137.3312  156.8340 O   0  0  0  0  0  0  0  0  0  0  0  0
  148.0036  141.3332  153.8936 C   0  0  0  0  0  0  0  0  0  0  0  0
  146.3309  143.4948  154.6349 H   0  0  0  0  0  0  0  0  0  0  0  0
  147.2984  143.0612  156.0503 H   0  0  0  0  0  0  0  0  0  0  0  0
  145.5675  142.7116  156.0221 H   0  0  0  0  0  0  0  0  0  0  0  0
  145.1675  140.3636  155.6971 H   0  0  0  0  0  0  0  0  0  0  0  0
  146.6646  138.2818  155.1741 H   0  0  0  0  0  0  0  0  0  0  0  0
  145.3677  138.5325  154.0186 H   0  0  0  0  0  0  0  0  0  0  0  0
  147.6333  138.0855  152.9160 H   0  0  0  0  0  0  0  0  0  0  0  0
  146.8547  139.5388  152.3941 H   0  0  0  0  0  0  0  0  0  0  0  0
  149.2770  137.7588  153.1296 H   0  0  0  0  0  0  0  0  0  0  0  0
  151.6483  137.1217  153.2065 H   0  0  0  0  0  0  0  0  0  0  0  0
  151.8498  138.1585  154.6006 H   0  0  0  0  0  0  0  0  0  0  0  0
  149.7889  135.0811  153.5798 H   0  0  0  0  0  0  0  0  0  0  0  0
  148.1476  132.8288  155.4410 H   0  0  0  0  0  0  0  0  0  0  0  0
  149.2813  130.8499  154.6332 H   0  0  0  0  0  0  0  0  0  0  0  0
  150.1631  131.4999  156.0085 H   0  0  0  0  0  0  0  0  0  0  0  0
  150.7794  131.7304  154.3738 H   0  0  0  0  0  0  0  0  0  0  0  0
  147.9508  132.5014  153.0705 H   0  0  0  0  0  0  0  0  0  0  0  0
  149.4322  133.3806  152.7378 H   0  0  0  0  0  0  0  0  0  0  0  0
  148.0315  134.2276  153.3907 H   0  0  0  0  0  0  0  0  0  0  0  0
  147.7681  141.7901  152.9319 H   0  0  0  0  0  0  0  0  0  0  0  0
  148.7824  141.9497  154.3440 H   0  0  0  0  0  0  0  0  0  0  0  0
  1  2  1  0  0  0  0
  1 23  1  0  0  0  0
  1 24  1  0  0  0  0
  1 25  1  0  0  0  0
  2 22  1  0  0  0  0
  2  3  2  0  0  0  0
  3  4  1  0  0  0  0
  3 26  1  0  0  0  0
  4  5  1  0  0  0  0
  4 27  1  0  0  0  0
  4 28  1  0  0  0  0
  5  6  1  0  0  0  0
  5 29  1  0  0  0  0
  5 30  1  0  0  0  0
  6  7  1  0  0  0  0
  6 22  1  0  0  0  0
  7  8  2  0  0  0  0
  7  9  1  0  0  0  0
  9 10  1  0  0  0  0
  9 31  1  0  0  0  0
 10 11  1  0  0  0  0
 10 32  1  0  0  0  0
 10 33  1  0  0  0  0
 11 20  1  0  0  0  0
 11 12  2  0  0  0  0
 12 13  1  0  0  0  0
 12 34  1  0  0  0  0
 13 14  1  0  0  0  0
 13 17  1  0  0  0  0
 14 15  1  0  0  0  0
 14 16  1  0  0  0  0
 14 35  1  0  0  0  0
 15 36  1  0  0  0  0
 15 37  1  0  0  0  0
 15 38  1  0  0  0  0
 16 39  1  0  0  0  0
 16 40  1  0  0  0  0
 16 41  1  0  0  0  0
 17 18  2  0  0  0  0
 17 19  1  0  0  0  0
 19 20  1  0  0  0  0
 20 21  2  0  0  0  0
 22 42  1  0  0  0  0
 22 43  1  0  0  0  0
M  CHG  1  19  -1
M  END
> <s_m_source_file>
AV-unprocessed.smi

> <i_m_source_file_index>
5

> <i_lp_mmshare_version>
43012

> <i_f3d_flags>
0

> <s_epik_input>
W0NIM11DMT1bQ0hdW0NIMl1bQ0gyXU4oW0NIMl0xKUMoPU8pW05IXVtDSDJdYzJbY0hdbihbQ0hdKFtDSDNdKVtDSDNdKWMoPU8pW25IXWMyPU8=

> <s_epik_cmdline>
J2VwaWtfcHl0aG9uJywgJy1waCcsICc3LjAnLCAnLXRuJywgJzgnLCAnLW1hJywgJzIwMCcsICctbWV0YWxfYmluZGluZycsICctaW1hZScsICc8aW5maWxlLm1hZT4nLCAnLW9tYWUnLCAnPG91dGZpbGUubWFlPic=

> <r_lp_tautomer_probability>
0.999537

> <r_epik_Ionization_Penalty>
3.83548

> <r_epik_Ionization_Penalty_Charging>
1.96903e-07

> <r_epik_Ionization_Penalty_Neutral>
3.83548

> <r_epik_State_Penalty>
3.83512

> <r_epik_Charging_Adjusted_Penalty>
3.83512

> <i_epik_Tot_Q>
-1

> <i_epik_Tot_abs_Q>
1

> <r_epik_Metal_State_Penalty>
0.576105

> <b_epik_Metal_Only>
1

> <s_lp_Force_Field>
OPLS_2005

> <r_lp_Energy>
38.6384

> <b_lp_Chiralities_Consistent>
1

> <s_lp_Variant>
AV-unprocessed.smi:5-2

> <Gold.Version>
5.8.1

> <Gold.Id.Protein>
6NUR|6NUR_protein|mol2

> <Gold.PLP.Fitness>
42.5828

> <Gold.PLP.PLP>
-34.5989

> <Gold.PLP.part.hbond>
-4.4750

> <Gold.PLP.part.metal>
0.0000

> <Gold.PLP.part.buried>
-0.3465

> <Gold.PLP.part.nonpolar>
-31.6299

> <Gold.PLP.part.repulsive>
0.1299

> <Gold.PLP.ligand.clash>
1.3436

> <Gold.PLP.ligand.torsion>
0.2088

> <Gold.PLP.Chemscore.Hbond>
2.9350

> <Gold.PLP.Chemscore.CHOScore>
0.2920

> <Gold.PLP.Chemscore.Metal>
0.0000

> <Gold.Chemscore.Hbonds>
donor molecule, donor type, donor heavy atom, donor atom, acceptor molecule, acceptor atom, score
      L1  H     9    31       P1  7948  0.88
      P1  H  6896  6908       L1    18  0.98
      P1  H  7989  7998       L1     8  1.00
      L1  C    12    34       P1  7948  0.36

> <Gold.PLP.Chemscore.Internal.Correction>
0.0642

> <Gold.Rescore>
     Score         DG    S(hbond)    S(metal)    S(lipo)     H(rot)  DE(clash)    DE(int)     intcor
     15.03     -15.88       2.20        0.00      57.83       1.46       0.29       0.56       ----

> <Gold.Chemscore.Fitness>
15.0277

> <Gold.Chemscore.DG>
-15.8777

> <Gold.Chemscore.ZeroCoef>
-5.4800

> <Gold.Chemscore.Hbond>
2.2032

> <Gold.Chemscore.Metal>
0.0000

> <Gold.Chemscore.Lipo>
57.8341

> <Gold.Chemscore.Internal_Hbond>
0.0000

> <Gold.Chemscore.DEClash>
0.2887

> <Gold.Chemscore.DEInternal>
0.5612

> <Gold.Chemscore.Rot>
1.4561

> <Gold.Chemscore.Internal.Correction>
   9.000000E+99

> <Gold.Chemscore.Hbonds>
donor molecule, donor type, donor heavy atom, donor atom, acceptor molecule, acceptor atom, score
      L1  H     9    31       P1  7948  0.82
      P1  H  6896  6908       L1    18  0.54
      P1  H  7989  7998       L1     8  0.55

> <Gold.Chemscore.Hbond.Weighted>
-7.3587

> <Gold.Chemscore.Metal.Weighted>
-0.0000

> <Gold.Chemscore.Lipo.Weighted>
-6.7666

> <Gold.Chemscore.Internal_Hbond.Weighted>
0.0000

> <Gold.Chemscore.DEClash.Weighted>
0.2887

> <Gold.Chemscore.DEInternal.Weighted>
0.5612

> <Gold.Chemscore.Rot.Weighted>
3.7276

> <Gold.Chemscore.Internal.Correction.Weighted>
   9.000000E+99

> <Gold.Protein.RotatedTorsions>
[ 6907 6896 6895 6894 ] final   97.77 input  -60.11 | X-H torsion
[ 7974 7965 7964 7962 ] final  -29.66 input  175.53 | X-H torsion
[ 8008 7997 7996 7995 ] final  152.26 input   59.86 | X-H torsion
[ 10167 10162 10161 10158 ] final  159.18 input  -65.29 | X-H torsion
[ 10718 10713 10712 10709 ] final  -90.91 input   66.30 | X-H torsion
[ 10763 10752 10751 10750 ] final   -0.37 input  -60.55 | X-H torsion
[ 11005 11000 10999 10996 ] final  -53.76 input  -57.11 | X-H torsion

> <Gold.Protein.ActiveResidues>
 VAL166  LYS551  ARG553  GLY616  TRP617  ASP618  TYR619  PRO620  LYS621  CYS622 
 ASP623  PHE694  ASN695  SER759  ASP760  ASP761  ALA762  ILE779  LEU786  VAL792 
 PHE793  MET794  SER795  GLU796  ALA797  LYS798  CYS799  TRP800  GLU811  SER814 

> <Gold.Protein.RotatedAtoms>
  152.5419  134.0683  159.8182 H   0  0  0  0  0  0  0  0  0  0  0  0  # atno 6907 bound_to 6896
  151.0801  133.5389  159.2628 H   0  0  0  0  0  0  0  0  0  0  0  0  # atno 6908 bound_to 6896
  151.2220  135.0530  159.9007 H   0  0  0  0  0  0  0  0  0  0  0  0  # atno 6909 bound_to 6896
  146.1200  140.5440  142.8739 H   0  0  0  0  0  0  0  0  0  0  0  0  # atno 7974 bound_to 7965
  156.2637  140.2025  156.6306 H   0  0  0  0  0  0  0  0  0  0  0  0  # atno 8008 bound_to 7997
  154.6686  140.0552  157.0165 H   0  0  0  0  0  0  0  0  0  0  0  0  # atno 8009 bound_to 7997
  155.1170  140.3221  155.4510 H   0  0  0  0  0  0  0  0  0  0  0  0  # atno 8010 bound_to 7997
  139.4831  144.4755  151.8518 H   0  0  0  0  0  0  0  0  0  0  0  0  # atno 10167 bound_to 10162
  155.9990  130.4928  150.5395 H   0  0  0  0  0  0  0  0  0  0  0  0  # atno 10718 bound_to 10713
  153.3310  135.6975  153.6947 H   0  0  0  0  0  0  0  0  0  0  0  0  # atno 10763 bound_to 10752
  153.5750  135.3509  155.2853 H   0  0  0  0  0  0  0  0  0  0  0  0  # atno 10764 bound_to 10752
  154.8618  135.4281  154.2499 H   0  0  0  0  0  0  0  0  0  0  0  0  # atno 10765 bound_to 10752
  141.0992  133.6620  156.4219 H   0  0  0  0  0  0  0  0  0  0  0  0  # atno 11005 bound_to 11000
  144.7589  140.5373  143.6750 LP  0  0  0  0  0  0  0  0  0  0  0  0  # atno 17320 bound_to 7965
  145.5485  139.1476  143.3407 LP  0  0  0  0  0  0  0  0  0  0  0  0  # atno 17321 bound_to 7965
  140.4227  144.2222  150.5887 LP  0  0  0  0  0  0  0  0  0  0  0  0  # atno 17342 bound_to 10162
  140.4858  143.2363  151.8890 LP  0  0  0  0  0  0  0  0  0  0  0  0  # atno 17343 bound_to 10162
  157.3333  131.0703  151.1844 LP  0  0  0  0  0  0  0  0  0  0  0  0  # atno 17370 bound_to 10713
  157.2717  130.6707  149.6022 LP  0  0  0  0  0  0  0  0  0  0  0  0  # atno 17371 bound_to 10713
  140.5065  134.6436  157.5268 LP  0  0  0  0  0  0  0  0  0  0  0  0  # atno 17394 bound_to 11000
  139.9838  134.7095  155.9811 LP  0  0  0  0  0  0  0  0  0  0  0  0  # atno 17395 bound_to 11000

$$$$
