AV-unprocessed.smi:2698|AV-procd|sdf|10421|dock8
  -GOLD-   2272014463D 1   1.00000     0.00000
 Structure written by MMmdl.
 33 33  0  0  0  0  0  0  0  0  2 V2000
  151.8586  144.9700  160.3331 C   0  0  0  0  0  0  0  0  0  0  0  0
  151.8462  143.4631  160.6536 C   0  0  0  0  0  0  0  0  0  0  0  0
  152.5787  143.2032  161.9796 C   0  0  0  0  0  0  0  0  0  0  0  0
  152.4464  142.5937  159.5214 C   0  0  0  0  0  0  0  0  0  0  0  0
  151.6371  142.5799  158.2163 C   0  0  0  0  0  0  0  0  0  0  0  0
  151.2240  143.6258  157.7160 O   0  0  0  0  0  0  0  0  0  0  0  0
  151.4222  141.3724  157.6710 N   0  0  0  0  0  0  0  0  0  0  0  0
  150.7031  141.1073  156.4276 C   0  0  2  0  0  0  0  0  0  0  0  0
  149.2309  140.7382  156.7124 C   0  0  0  0  0  0  0  0  0  0  0  0
  148.2999  140.9140  155.5377 C   0  0  0  0  0  0  0  0  0  0  0  0
  148.2907  141.9148  154.5871 C   0  0  0  0  0  0  0  0  0  0  0  0
  147.2373  141.6323  153.7364 N   0  0  0  0  0  0  0  0  0  0  0  0
  146.6656  140.5128  154.1819 C   0  0  0  0  0  0  0  0  0  0  0  0
  147.2561  140.0224  155.2638 N   0  0  0  0  0  0  0  0  0  0  0  0
  151.4716  140.0715  155.5978 C   0  0  0  0  0  0  0  0  0  0  0  0
  150.9919  139.7615  154.4846 O   0  0  0  0  0  0  0  0  0  0  0  0
  152.5261  139.6095  156.0858 O   0  5  0  0  0  0  0  0  0  0  0  0
  146.9502  142.1753  152.9348 H   0  0  0  0  0  0  0  0  0  0  0  0
  152.8723  145.3252  160.1454 H   0  0  0  0  0  0  0  0  0  0  0  0
  151.4559  145.5483  161.1652 H   0  0  0  0  0  0  0  0  0  0  0  0
  151.2559  145.2129  159.4593 H   0  0  0  0  0  0  0  0  0  0  0  0
  150.8074  143.1635  160.8009 H   0  0  0  0  0  0  0  0  0  0  0  0
  153.6325  143.4754  161.9090 H   0  0  0  0  0  0  0  0  0  0  0  0
  152.5247  142.1513  162.2617 H   0  0  0  0  0  0  0  0  0  0  0  0
  152.1390  143.7812  162.7929 H   0  0  0  0  0  0  0  0  0  0  0  0
  153.4648  142.9138  159.2992 H   0  0  0  0  0  0  0  0  0  0  0  0
  152.5280  141.5631  159.8712 H   0  0  0  0  0  0  0  0  0  0  0  0
  151.8023  140.5643  158.1426 H   0  0  0  0  0  0  0  0  0  0  0  0
  150.6997  142.0290  155.8418 H   0  0  0  0  0  0  0  0  0  0  0  0
  149.1727  139.6986  157.0376 H   0  0  0  0  0  0  0  0  0  0  0  0
  148.8444  141.3357  157.5386 H   0  0  0  0  0  0  0  0  0  0  0  0
  148.9236  142.7809  154.4598 H   0  0  0  0  0  0  0  0  0  0  0  0
  145.8093  140.0526  153.7114 H   0  0  0  0  0  0  0  0  0  0  0  0
  1  2  1  0  0  0  0
  1 19  1  0  0  0  0
  1 20  1  0  0  0  0
  1 21  1  0  0  0  0
  2  3  1  0  0  0  0
  2  4  1  0  0  0  0
  2 22  1  0  0  0  0
  3 23  1  0  0  0  0
  3 24  1  0  0  0  0
  3 25  1  0  0  0  0
  4  5  1  0  0  0  0
  4 26  1  0  0  0  0
  4 27  1  0  0  0  0
  5  6  2  0  0  0  0
  5  7  1  0  0  0  0
  7  8  1  0  0  0  0
  7 28  1  0  0  0  0
  8  9  1  0  0  0  0
  8 15  1  0  0  0  0
  8 29  1  0  0  0  0
  9 10  1  0  0  0  0
  9 30  1  0  0  0  0
  9 31  1  0  0  0  0
 10 14  1  0  0  0  0
 10 11  2  0  0  0  0
 11 12  1  0  0  0  0
 11 32  1  0  0  0  0
 12 18  1  0  0  0  0
 12 13  1  0  0  0  0
 13 14  2  0  0  0  0
 13 33  1  0  0  0  0
 15 16  2  0  0  0  0
 15 17  1  0  0  0  0
M  CHG  1  17  -1
M  END
> <s_m_source_file>
AV-unprocessed.smi

> <i_m_source_file_index>
2698

> <i_lp_mmshare_version>
43012

> <i_f3d_flags>
0

> <s_epik_input>
W0NIM11bQ0hdKFtDSDNdKVtDSDJdQyg9TylbTkhdW0NAQEhdKEMoPU8pW09IXSlbQ0gyXWMxW2NIXVtuSF1bY0hdbjE=

> <s_epik_cmdline>
J2VwaWtfcHl0aG9uJywgJy1waCcsICc3LjAnLCAnLXRuJywgJzgnLCAnLW1hJywgJzIwMCcsICctbWV0YWxfYmluZGluZycsICctaW1hZScsICc8aW5maWxlLm1hZT4nLCAnLW9tYWUnLCAnPG91dGZpbGUubWFlPic=

> <r_lp_tautomer_probability>
0.5

> <r_epik_Ionization_Penalty>
0.818672

> <r_epik_Ionization_Penalty_Charging>
0.818672

> <r_epik_Ionization_Penalty_Neutral>
7.99661e-08

> <r_epik_State_Penalty>
0.927032

> <r_epik_Charging_Adjusted_Penalty>
1.7457

> <i_epik_Tot_Q>
-1

> <i_epik_Tot_abs_Q>
1

> <r_epik_Metal_State_Penalty>
0.525537

> <b_epik_Metal_Only>
0

> <s_lp_Force_Field>
OPLS_2005

> <r_lp_Energy>
1.77679

> <b_lp_Chiralities_Consistent>
1

> <s_lp_Variant>
AV-unprocessed.smi:2698-5

> <Gold.Version>
5.8.1

> <Gold.Id.Protein>
6NUR|6NUR_protein|mol2

> <Gold.PLP.Fitness>
45.6324

> <Gold.PLP.PLP>
-32.4544

> <Gold.PLP.part.hbond>
-2.0000

> <Gold.PLP.part.metal>
0.0000

> <Gold.PLP.part.buried>
-4.8518

> <Gold.PLP.part.nonpolar>
-26.3337

> <Gold.PLP.part.repulsive>
0.4425

> <Gold.PLP.ligand.clash>
0.0000

> <Gold.PLP.ligand.torsion>
0.9366

> <Gold.PLP.Chemscore.Hbond>
3.0000

> <Gold.PLP.Chemscore.CHOScore>
1.9771

> <Gold.PLP.Chemscore.Metal>
0.0000

> <Gold.Chemscore.Hbonds>
donor molecule, donor type, donor heavy atom, donor atom, acceptor molecule, acceptor atom, score
      P1  H  7989  7998       L1    16  1.00
      P1  H  7997  8010       L1    17  2.00
      L1  C    11    32       P1  8028  0.96
      L1  C    13    33       P1 10175  1.00

> <Gold.PLP.Chemscore.Internal.Correction>
0.1199

> <Gold.Rescore>
     Score         DG    S(hbond)    S(metal)    S(lipo)     H(rot)  DE(clash)    DE(int)     intcor
     11.44     -12.49       1.98        0.00      69.53       3.01       0.05       1.01       ----

> <Gold.Chemscore.Fitness>
11.4357

> <Gold.Chemscore.DG>
-12.4944

> <Gold.Chemscore.ZeroCoef>
-5.4800

> <Gold.Chemscore.Hbond>
1.9751

> <Gold.Chemscore.Metal>
0.0000

> <Gold.Chemscore.Lipo>
69.5261

> <Gold.Chemscore.Internal_Hbond>
0.0000

> <Gold.Chemscore.DEClash>
0.0456

> <Gold.Chemscore.DEInternal>
1.0131

> <Gold.Chemscore.Rot>
3.0145

> <Gold.Chemscore.Internal.Correction>
   9.000000E+99

> <Gold.Chemscore.Hbonds>
donor molecule, donor type, donor heavy atom, donor atom, acceptor molecule, acceptor atom, score
      P1  H  7989  7998       L1    16  0.39
      P1  H  7997  8010       L1    17  1.00

> <Gold.Chemscore.Hbond.Weighted>
-6.5969

> <Gold.Chemscore.Metal.Weighted>
-0.0000

> <Gold.Chemscore.Lipo.Weighted>
-8.1346

> <Gold.Chemscore.Internal_Hbond.Weighted>
0.0000

> <Gold.Chemscore.DEClash.Weighted>
0.0456

> <Gold.Chemscore.DEInternal.Weighted>
1.0131

> <Gold.Chemscore.Rot.Weighted>
7.7171

> <Gold.Chemscore.Internal.Correction.Weighted>
   9.000000E+99

> <Gold.Protein.RotatedTorsions>
[ 6907 6896 6895 6894 ] final   60.60 input  -60.11 | X-H torsion
[ 7974 7965 7964 7962 ] final -151.43 input  175.53 | X-H torsion
[ 8008 7997 7996 7995 ] final   80.30 input   59.86 | X-H torsion
[ 10167 10162 10161 10158 ] final   96.23 input  -65.29 | X-H torsion
[ 10718 10713 10712 10709 ] final  -82.83 input   66.30 | X-H torsion
[ 10763 10752 10751 10750 ] final   94.15 input  -60.55 | X-H torsion
[ 11005 11000 10999 10996 ] final  -45.54 input  -57.11 | X-H torsion

> <Gold.Protein.ActiveResidues>
 VAL166  LYS551  ARG553  GLY616  TRP617  ASP618  TYR619  PRO620  LYS621  CYS622 
 ASP623  PHE694  ASN695  SER759  ASP760  ASP761  ALA762  ILE779  LEU786  VAL792 
 PHE793  MET794  SER795  GLU796  ALA797  LYS798  CYS799  TRP800  GLU811  SER814 

> <Gold.Protein.RotatedAtoms>
  152.4017  134.6276  160.0066 H   0  0  0  0  0  0  0  0  0  0  0  0  # atno 6907 bound_to 6896
  151.6479  133.3317  159.3153 H   0  0  0  0  0  0  0  0  0  0  0  0  # atno 6908 bound_to 6896
  150.7916  134.6987  159.6582 H   0  0  0  0  0  0  0  0  0  0  0  0  # atno 6909 bound_to 6896
  144.7850  140.4798  143.5812 H   0  0  0  0  0  0  0  0  0  0  0  0  # atno 7974 bound_to 7965
  155.8815  140.3444  155.5891 H   0  0  0  0  0  0  0  0  0  0  0  0  # atno 8008 bound_to 7997
  155.7714  140.0846  157.2125 H   0  0  0  0  0  0  0  0  0  0  0  0  # atno 8009 bound_to 7997
  154.4025  140.1517  156.2933 H   0  0  0  0  0  0  0  0  0  0  0  0  # atno 8010 bound_to 7997
  139.7913  144.6851  150.9888 H   0  0  0  0  0  0  0  0  0  0  0  0  # atno 10167 bound_to 10162
  156.0027  130.4646  150.4164 H   0  0  0  0  0  0  0  0  0  0  0  0  # atno 10718 bound_to 10713
  153.2384  135.4300  155.0671 H   0  0  0  0  0  0  0  0  0  0  0  0  # atno 10763 bound_to 10752
  154.8329  135.3396  154.6686 H   0  0  0  0  0  0  0  0  0  0  0  0  # atno 10764 bound_to 10752
  153.7110  135.7023  153.5094 H   0  0  0  0  0  0  0  0  0  0  0  0  # atno 10765 bound_to 10752
  141.0522  133.6739  156.3027 H   0  0  0  0  0  0  0  0  0  0  0  0  # atno 11005 bound_to 11000
  145.5946  139.1498  143.3163 LP  0  0  0  0  0  0  0  0  0  0  0  0  # atno 17320 bound_to 7965
  146.2077  140.6070  142.9073 LP  0  0  0  0  0  0  0  0  0  0  0  0  # atno 17321 bound_to 7965
  140.7820  143.4377  151.0598 LP  0  0  0  0  0  0  0  0  0  0  0  0  # atno 17342 bound_to 10162
  139.8054  143.8025  152.3167 LP  0  0  0  0  0  0  0  0  0  0  0  0  # atno 17343 bound_to 10162
  157.2224  131.0485  151.2539 LP  0  0  0  0  0  0  0  0  0  0  0  0  # atno 17370 bound_to 10713
  157.3788  130.7220  149.6616 LP  0  0  0  0  0  0  0  0  0  0  0  0  # atno 17371 bound_to 10713
  140.6033  134.5532  157.5521 LP  0  0  0  0  0  0  0  0  0  0  0  0  # atno 17394 bound_to 11000
  139.9360  134.7875  156.0803 LP  0  0  0  0  0  0  0  0  0  0  0  0  # atno 17395 bound_to 11000

$$$$
