AV-unprocessed.smi:72|AV-procd|sdf|714|dock9
  -GOLD-   2262017 43D 1   1.00000     0.00000
 Structure written by MMmdl.
 28 29  0  0  0  0  0  0  0  0  2 V2000
  154.7190  137.8018  155.7602 N   0  0  0  0  0  0  0  0  0  0  0  0
  153.4648  137.9220  155.7181 C   0  0  0  0  0  0  0  0  0  0  0  0
  152.6183  136.7566  155.8528 N   0  0  0  0  0  0  0  0  0  0  0  0
  151.3341  136.9327  155.7935 C   0  0  0  0  0  0  0  0  0  0  0  0
  150.7466  138.2506  155.5957 N   0  0  0  0  0  0  0  0  0  0  0  0
  149.2416  138.4327  155.5348 C   0  0  1  0  0  0  0  0  0  0  0  0
  148.8890  139.5560  156.2878 O   0  0  0  0  0  0  0  0  0  0  0  0
  147.8881  140.3000  155.6011 C   0  0  1  0  0  0  0  0  0  0  0  0
  147.8532  141.7615  156.0821 C   0  0  0  0  0  0  0  0  0  0  0  0
  149.0899  142.3905  155.8204 O   0  0  0  0  0  0  0  0  0  0  0  0
  148.2482  140.0979  154.1226 C   0  0  1  0  0  0  0  0  0  0  0  0
  149.2645  141.0008  153.7175 O   0  0  0  0  0  0  0  0  0  0  0  0
  148.7130  138.6455  154.0996 C   0  0  1  0  0  0  0  0  0  0  0  0
  149.6268  138.3677  153.0520 O   0  0  0  0  0  0  0  0  0  0  0  0
  151.6012  139.3800  155.4852 C   0  0  0  0  0  0  0  0  0  0  0  0
  151.0866  140.4904  155.3514 O   0  0  0  0  0  0  0  0  0  0  0  0
  152.9490  139.1873  155.5436 N   0  5  0  0  0  0  0  0  0  0  0  0
  148.8023  137.5597  156.0192 H   0  0  0  0  0  0  0  0  0  0  0  0
  146.9227  139.8223  155.7812 H   0  0  0  0  0  0  0  0  0  0  0  0
  147.3849  140.2517  153.4745 H   0  0  0  0  0  0  0  0  0  0  0  0
  147.8437  137.9979  153.9788 H   0  0  0  0  0  0  0  0  0  0  0  0
  155.1926  138.6875  155.6558 H   0  0  0  0  0  0  0  0  0  0  0  0
  150.6201  136.1142  155.8903 H   0  0  0  0  0  0  0  0  0  0  0  0
  147.0395  142.3150  155.6122 H   0  0  0  0  0  0  0  0  0  0  0  0
  147.6926  141.7981  157.1600 H   0  0  0  0  0  0  0  0  0  0  0  0
  149.0211  143.3009  156.0639 H   0  0  0  0  0  0  0  0  0  0  0  0
  149.6833  140.6485  152.9467 H   0  0  0  0  0  0  0  0  0  0  0  0
  149.2864  137.6462  152.5449 H   0  0  0  0  0  0  0  0  0  0  0  0
  1  2  2  0  0  0  0
  1 22  1  0  0  0  0
  2 17  1  0  0  0  0
  2  3  1  0  0  0  0
  3  4  2  0  0  0  0
  4  5  1  0  0  0  0
  4 23  1  0  0  0  0
  5  6  1  0  0  0  0
  5 15  1  0  0  0  0
  6 18  1  0  0  0  0
  6 13  1  0  0  0  0
  6  7  1  0  0  0  0
  7  8  1  0  0  0  0
  8 19  1  0  0  0  0
  8  9  1  0  0  0  0
  8 11  1  0  0  0  0
  9 10  1  0  0  0  0
  9 24  1  0  0  0  0
  9 25  1  0  0  0  0
 10 26  1  0  0  0  0
 11 20  1  0  0  0  0
 11 12  1  0  0  0  0
 11 13  1  0  0  0  0
 12 27  1  0  0  0  0
 13 21  1  0  0  0  0
 13 14  1  0  0  0  0
 14 28  1  0  0  0  0
 15 16  2  0  0  0  0
 15 17  1  0  0  0  0
M  CHG  1  17  -1
M  END
> <s_m_source_file>
AV-unprocessed.smi

> <i_m_source_file_index>
72

> <i_lp_mmshare_version>
43012

> <i_f3d_flags>
0

> <s_epik_input>
W05IMl1jMW5bY0hdbihjKD1PKW4xKVtDQEBIXTJPW0NASF0oW0NIMl1bT0hdKVtDQEBIXShbT0hdKVtDQEhdMltPSF0=

> <s_epik_cmdline>
J2VwaWtfcHl0aG9uJywgJy1waCcsICc3LjAnLCAnLXRuJywgJzgnLCAnLW1hJywgJzIwMCcsICctbWV0YWxfYmluZGluZycsICctaW1hZScsICc8aW5maWxlLm1hZT4nLCAnLW9tYWUnLCAnPG91dGZpbGUubWFlPic=

> <r_lp_tautomer_probability>
7.17554e-07

> <r_epik_Ionization_Penalty>
12.8705

> <r_epik_Ionization_Penalty_Charging>
5.64144

> <r_epik_Ionization_Penalty_Neutral>
7.22905

> <r_epik_State_Penalty>
3.30104

> <r_epik_Charging_Adjusted_Penalty>
8.94249

> <i_epik_Tot_Q>
-1

> <i_epik_Tot_abs_Q>
1

> <r_epik_Metal_State_Penalty>
0.529074

> <b_epik_Metal_Only>
1

> <s_epik_Chemistry_Notes>
This compound contains an acetal/aminal-like group ( X-CH(R)-Y where X, Y are N, S, or O) that may be acid/base labile, releasing an aldehyde.

> <s_lp_Force_Field>
OPLS_2005

> <r_lp_Energy>
43.693

> <b_lp_Chiralities_Consistent>
1

> <s_lp_Variant>
AV-unprocessed.smi:72-52

> <Gold.Version>
5.8.1

> <Gold.Id.Protein>
6NUR|6NUR_protein|mol2

> <Gold.PLP.Fitness>
40.4189

> <Gold.PLP.PLP>
-21.0972

> <Gold.PLP.part.hbond>
-10.3131

> <Gold.PLP.part.metal>
0.0000

> <Gold.PLP.part.buried>
-0.9444

> <Gold.PLP.part.nonpolar>
-11.1377

> <Gold.PLP.part.repulsive>
0.0492

> <Gold.PLP.ligand.clash>
0.0000

> <Gold.PLP.ligand.torsion>
0.4596

> <Gold.PLP.Chemscore.Hbond>
6.7457

> <Gold.PLP.Chemscore.CHOScore>
0.0000

> <Gold.PLP.Chemscore.Metal>
0.0000

> <Gold.Chemscore.Hbonds>
donor molecule, donor type, donor heavy atom, donor atom, acceptor molecule, acceptor atom, score
      L1  H    10    26       P1  8028  0.87
      L1  H    12    27       P1  7957  1.00
      L1  H    14    28       P1  7948  1.00
      P1  H  7989  7998       L1    16  0.94
      P1  H  7997  8009       L1    17  2.00
      P1  H 10752 10763       L1     3  0.85

> <Gold.PLP.Chemscore.Internal.Correction>
0.0037

> <Gold.Rescore>
     Score         DG    S(hbond)    S(metal)    S(lipo)     H(rot)  DE(clash)    DE(int)     intcor
      4.14      -9.85       3.75        0.00      18.69       4.04       0.44       5.26       ----

> <Gold.Chemscore.Fitness>
4.1445

> <Gold.Chemscore.DG>
-9.8464

> <Gold.Chemscore.ZeroCoef>
-5.4800

> <Gold.Chemscore.Hbond>
3.7491

> <Gold.Chemscore.Metal>
0.0000

> <Gold.Chemscore.Lipo>
18.6949

> <Gold.Chemscore.Internal_Hbond>
0.0000

> <Gold.Chemscore.DEClash>
0.4378

> <Gold.Chemscore.DEInternal>
5.2640

> <Gold.Chemscore.Rot>
4.0403

> <Gold.Chemscore.Internal.Correction>
   9.000000E+99

> <Gold.Chemscore.Hbonds>
donor molecule, donor type, donor heavy atom, donor atom, acceptor molecule, acceptor atom, score
      L1  H    10    26       P1  8028  0.80
      L1  H    12    27       P1  7957  0.95
      L1  H    14    28       P1  7948  0.85
      P1  H  7989  7998       L1    16  0.23
      P1  H  7997  8009       L1    17  0.25
      P1  H 10752 10763       L1     3  0.64

> <Gold.Chemscore.Hbond.Weighted>
-12.5221

> <Gold.Chemscore.Metal.Weighted>
-0.0000

> <Gold.Chemscore.Lipo.Weighted>
-2.1873

> <Gold.Chemscore.Internal_Hbond.Weighted>
0.0000

> <Gold.Chemscore.DEClash.Weighted>
0.4378

> <Gold.Chemscore.DEInternal.Weighted>
5.2640

> <Gold.Chemscore.Rot.Weighted>
10.3431

> <Gold.Chemscore.Internal.Correction.Weighted>
   9.000000E+99

> <Gold.Protein.RotatedTorsions>
[ 6907 6896 6895 6894 ] final -105.01 input  -60.11 | X-H torsion
[ 7974 7965 7964 7962 ] final   77.03 input  175.53 | X-H torsion
[ 8008 7997 7996 7995 ] final -134.24 input   59.86 | X-H torsion
[ 10167 10162 10161 10158 ] final   19.19 input  -65.29 | X-H torsion
[ 10718 10713 10712 10709 ] final   64.05 input   66.30 | X-H torsion
[ 10763 10752 10751 10750 ] final   88.42 input  -60.55 | X-H torsion
[ 11005 11000 10999 10996 ] final -132.05 input  -57.11 | X-H torsion

> <Gold.Protein.ActiveResidues>
 VAL166  LYS551  ARG553  GLY616  TRP617  ASP618  TYR619  PRO620  LYS621  CYS622 
 ASP623  PHE694  ASN695  SER759  ASP760  ASP761  ALA762  ILE779  LEU786  VAL792 
 PHE793  MET794  SER795  GLU796  ALA797  LYS798  CYS799  TRP800  GLU811  SER814 

> <Gold.Protein.RotatedAtoms>
  150.7315  134.0191  159.3694 H   0  0  0  0  0  0  0  0  0  0  0  0  # atno 6907 bound_to 6896
  151.8154  135.0666  160.0427 H   0  0  0  0  0  0  0  0  0  0  0  0  # atno 6908 bound_to 6896
  152.3042  133.5650  159.5674 H   0  0  0  0  0  0  0  0  0  0  0  0  # atno 6909 bound_to 6896
  145.6953  139.2565  143.1736 H   0  0  0  0  0  0  0  0  0  0  0  0  # atno 7974 bound_to 7965
  155.3588  140.0481  157.3046 H   0  0  0  0  0  0  0  0  0  0  0  0  # atno 8008 bound_to 7997
  154.5189  140.2218  155.8977 H   0  0  0  0  0  0  0  0  0  0  0  0  # atno 8009 bound_to 7997
  156.1667  140.3105  155.8907 H   0  0  0  0  0  0  0  0  0  0  0  0  # atno 8010 bound_to 7997
  140.5597  143.9359  150.6634 H   0  0  0  0  0  0  0  0  0  0  0  0  # atno 10167 bound_to 10162
  157.6013  130.9139  149.9796 H   0  0  0  0  0  0  0  0  0  0  0  0  # atno 10718 bound_to 10713
  153.1766  135.4508  154.9973 H   0  0  0  0  0  0  0  0  0  0  0  0  # atno 10763 bound_to 10752
  154.8002  135.3253  154.7570 H   0  0  0  0  0  0  0  0  0  0  0  0  # atno 10764 bound_to 10752
  153.8040  135.6960  153.4906 H   0  0  0  0  0  0  0  0  0  0  0  0  # atno 10765 bound_to 10752
  140.9205  134.1451  157.4318 H   0  0  0  0  0  0  0  0  0  0  0  0  # atno 11005 bound_to 11000
  146.0846  140.7726  142.9625 LP  0  0  0  0  0  0  0  0  0  0  0  0  # atno 17320 bound_to 7965
  144.6984  140.3542  143.7176 LP  0  0  0  0  0  0  0  0  0  0  0  0  # atno 17321 bound_to 7965
  140.2807  143.3391  152.1154 LP  0  0  0  0  0  0  0  0  0  0  0  0  # atno 17342 bound_to 10162
  139.5064  144.6813  151.6000 LP  0  0  0  0  0  0  0  0  0  0  0  0  # atno 17343 bound_to 10162
  156.1087  130.3651  150.0087 LP  0  0  0  0  0  0  0  0  0  0  0  0  # atno 17370 bound_to 10713
  156.8189  130.9351  151.3642 LP  0  0  0  0  0  0  0  0  0  0  0  0  # atno 17371 bound_to 10713
  139.8774  134.9969  156.5820 LP  0  0  0  0  0  0  0  0  0  0  0  0  # atno 17394 bound_to 11000
  140.7994  133.8517  155.8714 LP  0  0  0  0  0  0  0  0  0  0  0  0  # atno 17395 bound_to 11000

$$$$
