#       Name:                AV-unprocessed.smi:1830
#       Creating user name   scv26
#       Creation time:       Fri Mar 27 09:13:36 2020


#       File generated by GOLD software.
#

@<TRIPOS>MOLECULE
AV-unprocessed.smi:1830
    59    62     1
SMALL
NO_CHARGES


@<TRIPOS>ATOM
      1 ****         1.0613   3.3554   0.0290 O.2            1 S1                 0.0000
      2 ****         0.5079   2.2590  -0.0441 C.2            1 S1                 0.0000
      3 ****         1.1721   1.0967  -0.0217 N.am           1 S1                 0.0000
      4 ****         2.6220   0.9848   0.0916 C.3            1 S1                 0.0000
      5 ****         3.1028  -0.4709  -0.0372 C.3            1 S1                 0.0000
      6 ****         2.7045  -1.1389  -1.3709 C.3            1 S1                 0.0000
      7 ****         3.0993  -2.5663  -1.4112 N.4            1 S1                 1.0000
      8 ****         4.5111  -2.8521  -1.7490 C.3            1 S1                 0.0000
      9 ****         4.8720  -4.1578  -1.0234 C.3            1 S1                 0.0000
     10 ****         3.5835  -4.6100  -0.3278 C.3            1 S1                 0.0000
     11 ****         2.7590  -3.3288  -0.1920 C.3            1 S1                 0.0000
     12 ****         3.1145  -2.5388   1.0885 C.3            1 S1                 0.0000
     13 ****         2.5607  -1.2310   1.0365 O.3            1 S1                 0.0000
     14 ****        -0.8180   2.0626  -0.1385 N.am           1 S1                 0.0000
     15 ****        -1.8573   3.0373  -0.1514 C.ar           1 S1                 0.0000
     16 ****        -1.6631   4.3630  -0.6181 C.ar           1 S1                 0.0000
     17 ****        -2.7411   5.2703  -0.6148 C.ar           1 S1                 0.0000
     18 ****        -3.9985   4.8387  -0.1547 C.ar           1 S1                 0.0000
     19 ****        -4.1558   3.5665   0.2665 N.pl3          1 S1                 1.0000
     20 ****        -3.1524   2.6547   0.2831 C.ar           1 S1                 0.0000
     21 ****        -3.4262   1.3502   0.7299 N.3            1 S1                 0.0000
     22 ****        -3.9461   1.2400   2.0827 C.3            1 S1                 0.0000
     23 ****        -4.5080  -0.1797   2.1851 C.3            1 S1                 0.0000
     24 ****        -4.7979  -0.5934   0.7371 C.3            1 S1                 0.0000
     25 ****        -4.3349   0.5924  -0.1144 C.3            1 S1                 0.0000
     26 ****         0.6468   0.2364  -0.0750 H              1 S1                 0.0000
     27 ****         3.0923   1.5931  -0.6827 H              1 S1                 0.0000
     28 ****         2.9386   1.3955   1.0516 H              1 S1                 0.0000
     29 ****         4.1903  -0.4604   0.0549 H              1 S1                 0.0000
     30 ****         1.6221  -1.1014  -1.4965 H              1 S1                 0.0000
     31 ****         3.1350  -0.6076  -2.2206 H              1 S1                 0.0000
     32 ****         4.6208  -2.9435  -2.8299 H              1 S1                 0.0000
     33 ****         5.1676  -2.0472  -1.4165 H              1 S1                 0.0000
     34 ****         5.2501  -4.9188  -1.7072 H              1 S1                 0.0000
     35 ****         5.6507  -3.9661  -0.2841 H              1 S1                 0.0000
     36 ****         3.0545  -5.3155  -0.9700 H              1 S1                 0.0000
     37 ****         3.7671  -5.1075   0.6252 H              1 S1                 0.0000
     38 ****         1.6907  -3.5490  -0.1908 H              1 S1                 0.0000
     39 ****         2.7189  -3.0532   1.9646 H              1 S1                 0.0000
     40 ****         4.1945  -2.4717   1.2305 H              1 S1                 0.0000
     41 ****        -1.1267   1.1020  -0.1056 H              1 S1                 0.0000
     42 ****        -0.7091   4.6999  -0.9932 H              1 S1                 0.0000
     43 ****        -2.6052   6.2830  -0.9656 H              1 S1                 0.0000
     44 ****        -4.8784   5.4646  -0.1187 H              1 S1                 0.0000
     45 ****        -3.1625   1.4158   2.8204 H              1 S1                 0.0000
     46 ****        -4.7396   1.9688   2.2528 H              1 S1                 0.0000
     47 ****        -3.7644  -0.8494   2.6190 H              1 S1                 0.0000
     48 ****        -5.3970  -0.2178   2.8155 H              1 S1                 0.0000
     49 ****        -4.2307  -1.4902   0.4846 H              1 S1                 0.0000
     50 ****        -5.8537  -0.8117   0.5737 H              1 S1                 0.0000
     51 ****        -5.1910   1.2048  -0.4013 H              1 S1                 0.0000
     52 ****        -3.8380   0.2614  -1.0268 H              1 S1                 0.0000
     53 ****         2.5668  -2.9917  -2.1568 H              1 S1                 0.0000
     54 ****        -5.0794   3.2757   0.5875 H              1 S1                 0.0000
     55 ****         2.0566   3.4087   0.1099 LP             1 S1                 0.0000
     56 ****         0.5158   4.1932   0.0075 LP             1 S1                 0.0000
     57 ****         1.5707  -1.3032   0.9148 LP             1 S1                 0.0000
     58 ****         2.7573  -0.7616   1.8973 LP             1 S1                 0.0000
     59 ****        -2.5048   0.9634   0.6924 LP             1 S1                 0.0000
@<TRIPOS>BOND
    1    1    2 2     
    2    2    3 am    
    3    2   14 am    
    4    3    4 1     
    5    3   26 1     
    6    4    5 1     
    7    4   27 1     
    8    4   28 1     
    9    5   13 1     
   10    5    6 1     
   11    5   29 1     
   12    6    7 1     
   13    6   30 1     
   14    6   31 1     
   15    7   11 1     
   16    7    8 1     
   17    7   53 1     
   18    8    9 1     
   19    8   32 1     
   20    8   33 1     
   21    9   10 1     
   22    9   34 1     
   23    9   35 1     
   24   10   11 1     
   25   10   36 1     
   26   10   37 1     
   27   11   12 1     
   28   11   38 1     
   29   12   13 1     
   30   12   39 1     
   31   12   40 1     
   32   14   15 1     
   33   14   41 1     
   34   15   20 ar    
   35   15   16 ar    
   36   16   17 ar    
   37   16   42 1     
   38   17   18 ar    
   39   17   43 1     
   40   18   19 ar    
   41   18   44 1     
   42   19   20 ar    
   43   19   54 1     
   44   20   21 1     
   45   21   25 1     
   46   21   22 1     
   47   22   23 1     
   48   22   45 1     
   49   22   46 1     
   50   23   24 1     
   51   23   47 1     
   52   23   48 1     
   53   24   25 1     
   54   24   49 1     
   55   24   50 1     
   56   25   51 1     
   57   25   52 1     
   58    1   55 1     
   59    1   56 1     
   60   13   57 1     
   61   13   58 1     
   62   21   59 1     
@<TRIPOS>SUBSTRUCTURE
      1 S1             1
@<TRIPOS>SET
LONE_PAIRS      STATIC     ATOMS    <user>   **** ""
5 55 56 57 58 59
DONOR_HYDROGENS      STATIC     ATOMS    <user>   **** ""
4 26 53 41 54
ATOM$BLUE        STATIC     ATOMS    COLORGROUP SYSTEM
5 55 56 57 58 59
ATOM$RED        STATIC     ATOMS    COLORGROUP SYSTEM
4 26 53 41 54
