AV-unprocessed.smi:1004|AV-procd|sdf|4361|dock4
  -GOLD-   22720 2263D 1   1.00000     0.00000
 Structure written by MMmdl.
 42 43  0  0  0  0  0  0  0  0  1 V2000
  152.8448  142.4918  161.2450 C   0  0  0  0  0  0  0  0  0  0  0  0
  152.2976  142.2766  159.8489 C   0  0  0  0  0  0  0  0  0  0  0  0
  151.3883  143.2338  159.2542 C   0  0  0  0  0  0  0  0  0  0  0  0
  150.9231  143.0108  158.0154 C   0  0  0  0  0  0  0  0  0  0  0  0
  151.2927  141.8725  157.2760 N   0  0  0  0  0  0  0  0  0  0  0  0
  150.7114  141.7267  155.9310 C   0  0  0  0  0  0  0  0  0  0  0  0
  149.2451  141.2707  155.9481 C   0  0  0  0  0  0  0  0  0  0  0  0
  148.9275  140.1730  156.4083 O   0  0  0  0  0  0  0  0  0  0  0  0
  148.3542  142.1408  155.4534 N   0  0  0  0  0  0  0  0  0  0  0  0
  146.9189  141.8971  155.3784 C   0  0  0  0  0  0  0  0  0  0  0  0
  146.1383  142.8225  156.3276 C   0  0  0  0  0  0  0  0  0  0  0  0
  145.3379  143.9008  155.6122 C   0  0  0  0  0  0  0  0  0  0  0  0
  145.4152  144.0809  154.2790 C   0  0  0  0  0  0  0  0  0  0  0  0
  144.6259  145.1273  153.5122 C   0  0  0  0  0  0  0  0  0  0  0  0
  143.4815  145.7258  154.3470 C   0  0  0  0  0  0  0  0  0  0  0  0
  143.9414  146.0328  155.7774 C   0  0  0  0  0  0  0  0  0  0  0  0
  144.4388  144.7628  156.4910 C   0  0  0  0  0  0  0  0  0  0  0  0
  152.1441  140.9294  157.7802 C   0  0  0  0  0  0  0  0  0  0  0  0
  152.4672  139.9285  157.1394 O   0  0  0  0  0  0  0  0  0  0  0  0
  152.6480  141.1843  159.1348 C   0  0  0  0  0  0  0  0  0  0  0  0
  152.4478  143.4058  161.6880 H   0  0  0  0  0  0  0  0  0  0  0  0
  153.9320  142.5702  161.2185 H   0  0  0  0  0  0  0  0  0  0  0  0
  152.5747  141.6561  161.8910 H   0  0  0  0  0  0  0  0  0  0  0  0
  151.0823  144.1151  159.7985 H   0  0  0  0  0  0  0  0  0  0  0  0
  150.2369  143.6806  157.5177 H   0  0  0  0  0  0  0  0  0  0  0  0
  150.7669  142.6711  155.3878 H   0  0  0  0  0  0  0  0  0  0  0  0
  151.3014  141.0234  155.3405 H   0  0  0  0  0  0  0  0  0  0  0  0
  148.6908  143.0230  155.0956 H   0  0  0  0  0  0  0  0  0  0  0  0
  146.5839  142.0424  154.3503 H   0  0  0  0  0  0  0  0  0  0  0  0
  146.7122  140.8563  155.6321 H   0  0  0  0  0  0  0  0  0  0  0  0
  145.4559  142.2306  156.9383 H   0  0  0  0  0  0  0  0  0  0  0  0
  146.8358  143.2917  157.0231 H   0  0  0  0  0  0  0  0  0  0  0  0
  146.0773  143.4625  153.6905 H   0  0  0  0  0  0  0  0  0  0  0  0
  145.3180  145.9118  153.2046 H   0  0  0  0  0  0  0  0  0  0  0  0
  144.2262  144.6814  152.6011 H   0  0  0  0  0  0  0  0  0  0  0  0
  143.1020  146.6284  153.8672 H   0  0  0  0  0  0  0  0  0  0  0  0
  142.6495  145.0213  154.3826 H   0  0  0  0  0  0  0  0  0  0  0  0
  144.7448  146.7698  155.7442 H   0  0  0  0  0  0  0  0  0  0  0  0
  143.1307  146.4865  156.3479 H   0  0  0  0  0  0  0  0  0  0  0  0
  143.5861  144.1578  156.8008 H   0  0  0  0  0  0  0  0  0  0  0  0
  144.9743  145.0423  157.3989 H   0  0  0  0  0  0  0  0  0  0  0  0
  153.3253  140.4658  159.5732 H   0  0  0  0  0  0  0  0  0  0  0  0
  1  2  1  0  0  0  0
  1 21  1  0  0  0  0
  1 22  1  0  0  0  0
  1 23  1  0  0  0  0
  2 20  2  0  0  0  0
  2  3  1  0  0  0  0
  3  4  2  0  0  0  0
  3 24  1  0  0  0  0
  4  5  1  0  0  0  0
  4 25  1  0  0  0  0
  5  6  1  0  0  0  0
  5 18  1  0  0  0  0
  6  7  1  0  0  0  0
  6 26  1  0  0  0  0
  6 27  1  0  0  0  0
  7  8  2  0  0  0  0
  7  9  1  0  0  0  0
  9 10  1  0  0  0  0
  9 28  1  0  0  0  0
 10 11  1  0  0  0  0
 10 29  1  0  0  0  0
 10 30  1  0  0  0  0
 11 12  1  0  0  0  0
 11 31  1  0  0  0  0
 11 32  1  0  0  0  0
 12 17  1  0  0  0  0
 12 13  2  0  0  0  0
 13 14  1  0  0  0  0
 13 33  1  0  0  0  0
 14 15  1  0  0  0  0
 14 34  1  0  0  0  0
 14 35  1  0  0  0  0
 15 16  1  0  0  0  0
 15 36  1  0  0  0  0
 15 37  1  0  0  0  0
 16 17  1  0  0  0  0
 16 38  1  0  0  0  0
 16 39  1  0  0  0  0
 17 40  1  0  0  0  0
 17 41  1  0  0  0  0
 18 19  2  0  0  0  0
 18 20  1  0  0  0  0
 20 42  1  0  0  0  0
M  END
> <s_m_source_file>
AV-unprocessed.smi

> <i_m_source_file_index>
1004

> <i_lp_mmshare_version>
43012

> <i_f3d_flags>
0

> <s_epik_input>
W0NIM11jMVtjSF1bY0hdbihjKD1PKVtjSF0xKVtDSDJdQyg9TylbTkhdW0NIMl1bQ0gyXUMyPVtDSF1bQ0gyXVtDSDJdW0NIMl1bQ0gyXTI=

> <s_epik_cmdline>
J2VwaWtfcHl0aG9uJywgJy1waCcsICc3LjAnLCAnLXRuJywgJzgnLCAnLW1hJywgJzIwMCcsICctbWV0YWxfYmluZGluZycsICctaW1hZScsICc8aW5maWxlLm1hZT4nLCAnLW9tYWUnLCAnPG91dGZpbGUubWFlPic=

> <r_lp_tautomer_probability>
1

> <r_epik_Ionization_Penalty>
5.31482e-07

> <r_epik_Ionization_Penalty_Charging>
5.13379e-07

> <r_epik_Ionization_Penalty_Neutral>
1.81035e-08

> <r_epik_State_Penalty>
-0

> <r_epik_Charging_Adjusted_Penalty>
5.13379e-07

> <i_epik_Tot_Q>
0

> <i_epik_Tot_abs_Q>
0

> <r_epik_Metal_State_Penalty>
-0

> <b_epik_Metal_Only>
0

> <s_lp_Force_Field>
OPLS_2005

> <r_lp_Energy>
18.1417

> <b_lp_Chiralities_Consistent>
1

> <s_lp_Variant>
AV-unprocessed.smi:1004-1

> <Gold.Version>
5.8.1

> <Gold.Id.Protein>
6NUR|6NUR_protein|mol2

> <Gold.PLP.Fitness>
47.3730

> <Gold.PLP.PLP>
-40.3988

> <Gold.PLP.part.hbond>
-2.0000

> <Gold.PLP.part.metal>
0.0000

> <Gold.PLP.part.buried>
-7.2174

> <Gold.PLP.part.nonpolar>
-30.9765

> <Gold.PLP.part.repulsive>
0.1374

> <Gold.PLP.ligand.clash>
0.0000

> <Gold.PLP.ligand.torsion>
0.6296

> <Gold.PLP.Chemscore.Hbond>
1.7360

> <Gold.PLP.Chemscore.CHOScore>
1.0000

> <Gold.PLP.Chemscore.Metal>
0.0000

> <Gold.Chemscore.Hbonds>
donor molecule, donor type, donor heavy atom, donor atom, acceptor molecule, acceptor atom, score
      L1  H     9    28       P1  8028  0.78
      P1  H  7997  8010       L1    19  1.00
      L1  C     4    25       P1  8028  1.00

> <Gold.PLP.Chemscore.Internal.Correction>
0.0254

> <Gold.Rescore>
     Score         DG    S(hbond)    S(metal)    S(lipo)     H(rot)  DE(clash)    DE(int)     intcor
     18.25     -18.97       1.75        0.00     101.02       1.63       0.09       0.63       ----

> <Gold.Chemscore.Fitness>
18.2487

> <Gold.Chemscore.DG>
-18.9713

> <Gold.Chemscore.ZeroCoef>
-5.4800

> <Gold.Chemscore.Hbond>
1.7506

> <Gold.Chemscore.Metal>
0.0000

> <Gold.Chemscore.Lipo>
101.0245

> <Gold.Chemscore.Internal_Hbond>
0.0000

> <Gold.Chemscore.DEClash>
0.0946

> <Gold.Chemscore.DEInternal>
0.6279

> <Gold.Chemscore.Rot>
1.6311

> <Gold.Chemscore.Internal.Correction>
   9.000000E+99

> <Gold.Chemscore.Hbonds>
donor molecule, donor type, donor heavy atom, donor atom, acceptor molecule, acceptor atom, score
      L1  H     9    28       P1  8028  0.78
      P1  H  7997  8010       L1    19  0.64

> <Gold.Chemscore.Hbond.Weighted>
-5.8471

> <Gold.Chemscore.Metal.Weighted>
-0.0000

> <Gold.Chemscore.Lipo.Weighted>
-11.8199

> <Gold.Chemscore.Internal_Hbond.Weighted>
0.0000

> <Gold.Chemscore.DEClash.Weighted>
0.0946

> <Gold.Chemscore.DEInternal.Weighted>
0.6279

> <Gold.Chemscore.Rot.Weighted>
4.1757

> <Gold.Chemscore.Internal.Correction.Weighted>
   9.000000E+99

> <Gold.Protein.RotatedTorsions>
[ 6907 6896 6895 6894 ] final   80.42 input  -60.11 | X-H torsion
[ 7974 7965 7964 7962 ] final  -62.53 input  175.53 | X-H torsion
[ 8008 7997 7996 7995 ] final   58.20 input   59.86 | X-H torsion
[ 10167 10162 10161 10158 ] final -143.87 input  -65.29 | X-H torsion
[ 10718 10713 10712 10709 ] final  -73.15 input   66.30 | X-H torsion
[ 10763 10752 10751 10750 ] final    9.19 input  -60.55 | X-H torsion
[ 11005 11000 10999 10996 ] final  174.35 input  -57.11 | X-H torsion

> <Gold.Protein.ActiveResidues>
 VAL166  LYS551  ARG553  GLY616  TRP617  ASP618  TYR619  PRO620  LYS621  CYS622 
 ASP623  PHE694  ASN695  SER759  ASP760  ASP761  ALA762  ILE779  LEU786  VAL792 
 PHE793  MET794  SER795  GLU796  ALA797  LYS798  CYS799  TRP800  GLU811  SER814 

> <Gold.Protein.RotatedAtoms>
  152.5234  134.3360  159.9199 H   0  0  0  0  0  0  0  0  0  0  0  0  # atno 6907 bound_to 6896
  151.3310  133.3994  159.2670 H   0  0  0  0  0  0  0  0  0  0  0  0  # atno 6908 bound_to 6896
  150.9881  134.9239  159.7941 H   0  0  0  0  0  0  0  0  0  0  0  0  # atno 6909 bound_to 6896
  145.7902  140.8714  143.0285 H   0  0  0  0  0  0  0  0  0  0  0  0  # atno 7974 bound_to 7965
  155.5462  140.3485  155.4458 H   0  0  0  0  0  0  0  0  0  0  0  0  # atno 8008 bound_to 7997
  156.0616  140.1341  156.9961 H   0  0  0  0  0  0  0  0  0  0  0  0  # atno 8009 bound_to 7997
  154.4482  140.0984  156.6510 H   0  0  0  0  0  0  0  0  0  0  0  0  # atno 8010 bound_to 7997
  139.7952  143.7910  152.2653 H   0  0  0  0  0  0  0  0  0  0  0  0  # atno 10167 bound_to 10162
  156.0292  130.4388  150.2699 H   0  0  0  0  0  0  0  0  0  0  0  0  # atno 10718 bound_to 10713
  153.2168  135.6876  153.8048 H   0  0  0  0  0  0  0  0  0  0  0  0  # atno 10763 bound_to 10752
  153.7261  135.3260  155.3277 H   0  0  0  0  0  0  0  0  0  0  0  0  # atno 10764 bound_to 10752
  154.8250  135.4624  154.0998 H   0  0  0  0  0  0  0  0  0  0  0  0  # atno 10765 bound_to 10752
  140.3504  134.7200  157.4263 H   0  0  0  0  0  0  0  0  0  0  0  0  # atno 11005 bound_to 11000
  144.6783  140.0113  143.7484 LP  0  0  0  0  0  0  0  0  0  0  0  0  # atno 17320 bound_to 7965
  145.9984  139.3071  143.0942 LP  0  0  0  0  0  0  0  0  0  0  0  0  # atno 17321 bound_to 7965
  139.8013  144.7373  150.9821 LP  0  0  0  0  0  0  0  0  0  0  0  0  # atno 17342 bound_to 10162
  140.7820  143.4342  151.0648 LP  0  0  0  0  0  0  0  0  0  0  0  0  # atno 17343 bound_to 10162
  157.0802  131.0141  151.3159 LP  0  0  0  0  0  0  0  0  0  0  0  0  # atno 17370 bound_to 10713
  157.4933  130.7835  149.7530 LP  0  0  0  0  0  0  0  0  0  0  0  0  # atno 17371 bound_to 10713
  140.0708  134.5865  155.8644 LP  0  0  0  0  0  0  0  0  0  0  0  0  # atno 17394 bound_to 11000
  141.2014  133.6618  156.5947 LP  0  0  0  0  0  0  0  0  0  0  0  0  # atno 17395 bound_to 11000

$$$$
