AV-unprocessed.smi:1211|AV-procd|sdf|5081|dock4
  -GOLD-   22720 4133D 1   1.00000     0.00000
 Structure written by MMmdl.
 48 50  0  0  0  0  0  0  0  0  2 V2000
  146.3642  131.6980  152.0776 C   0  0  0  0  0  0  0  0  0  0  0  0
  145.4052  132.4532  151.1711 C   0  0  0  0  0  0  0  0  0  0  0  0
  144.5088  131.7281  150.3572 C   0  0  0  0  0  0  0  0  0  0  0  0
  143.6239  132.4278  149.5190 C   0  0  0  0  0  0  0  0  0  0  0  0
  143.6727  133.8322  149.5304 C   0  0  0  0  0  0  0  0  0  0  0  0
  144.5253  134.5330  150.3054 N   0  0  0  0  0  0  0  0  0  0  0  0
  145.3878  133.8729  151.1186 C   0  0  0  0  0  0  0  0  0  0  0  0
  146.3144  134.5467  151.9636 N   0  0  0  0  0  0  0  0  0  0  0  0
  146.4014  134.5100  153.3048 C   0  0  0  0  0  0  0  0  0  0  0  0
  145.6516  133.8820  154.0521 O   0  0  0  0  0  0  0  0  0  0  0  0
  147.4267  135.2542  153.7440 N   0  0  0  0  0  0  0  0  0  0  0  0
  147.7941  135.4468  155.1468 C   0  0  0  0  0  0  0  0  0  0  0  0
  149.3364  135.5376  155.3819 C   0  0  2  0  0  0  0  0  0  0  0  0
  149.8568  136.7842  154.7067 N   0  3  0  0  0  0  0  0  0  0  0  0
  149.0685  138.0148  154.9984 C   0  0  0  0  0  0  0  0  0  0  0  0
  149.5436  139.1894  154.1308 C   0  0  0  0  0  0  0  0  0  0  0  0
  150.9206  139.4252  154.3816 O   0  0  0  0  0  0  0  0  0  0  0  0
  151.7140  138.3065  154.0143 C   0  0  0  0  0  0  0  0  0  0  0  0
  151.3130  137.0707  154.8399 C   0  0  0  0  0  0  0  0  0  0  0  0
  150.0285  134.2348  154.8900 C   0  0  0  0  0  0  0  0  0  0  0  0
  149.6476  133.0926  155.8364 C   0  0  0  0  0  0  0  0  0  0  0  0
  149.5087  133.8081  157.4926 S   0  0  0  0  0  0  0  0  0  0  0  0
  149.6307  135.5192  156.9005 C   0  0  0  0  0  0  0  0  0  0  0  0
  146.2296  130.6195  151.9880 H   0  0  0  0  0  0  0  0  0  0  0  0
  146.1990  131.9705  153.1202 H   0  0  0  0  0  0  0  0  0  0  0  0
  147.3975  131.9292  151.8168 H   0  0  0  0  0  0  0  0  0  0  0  0
  144.4973  130.6481  150.3722 H   0  0  0  0  0  0  0  0  0  0  0  0
  142.9265  131.9022  148.8837 H   0  0  0  0  0  0  0  0  0  0  0  0
  143.0102  134.4087  148.9015 H   0  0  0  0  0  0  0  0  0  0  0  0
  146.9913  135.1221  151.4854 H   0  0  0  0  0  0  0  0  0  0  0  0
  147.9767  135.7504  153.0582 H   0  0  0  0  0  0  0  0  0  0  0  0
  147.3084  136.3663  155.4707 H   0  0  0  0  0  0  0  0  0  0  0  0
  147.3309  134.6778  155.7649 H   0  0  0  0  0  0  0  0  0  0  0  0
  148.0079  137.8546  154.8134 H   0  0  0  0  0  0  0  0  0  0  0  0
  149.1712  138.2873  156.0495 H   0  0  0  0  0  0  0  0  0  0  0  0
  149.3754  138.9895  153.0712 H   0  0  0  0  0  0  0  0  0  0  0  0
  148.9817  140.0905  154.3782 H   0  0  0  0  0  0  0  0  0  0  0  0
  151.6082  138.1089  152.9463 H   0  0  0  0  0  0  0  0  0  0  0  0
  152.7631  138.5471  154.1877 H   0  0  0  0  0  0  0  0  0  0  0  0
  151.5705  137.2191  155.8893 H   0  0  0  0  0  0  0  0  0  0  0  0
  151.9102  136.2414  154.4640 H   0  0  0  0  0  0  0  0  0  0  0  0
  149.8086  133.9965  153.8500 H   0  0  0  0  0  0  0  0  0  0  0  0
  151.1119  134.3144  154.9695 H   0  0  0  0  0  0  0  0  0  0  0  0
  148.6893  132.6553  155.5564 H   0  0  0  0  0  0  0  0  0  0  0  0
  150.3863  132.2910  155.8228 H   0  0  0  0  0  0  0  0  0  0  0  0
  150.6500  135.8524  157.0976 H   0  0  0  0  0  0  0  0  0  0  0  0
  148.9626  136.1649  157.4713 H   0  0  0  0  0  0  0  0  0  0  0  0
  149.7278  136.6063  153.7210 H   0  0  0  0  0  0  0  0  0  0  0  0
  1  2  1  0  0  0  0
  1 24  1  0  0  0  0
  1 25  1  0  0  0  0
  1 26  1  0  0  0  0
  2  7  1  0  0  0  0
  2  3  2  0  0  0  0
  3  4  1  0  0  0  0
  3 27  1  0  0  0  0
  4  5  2  0  0  0  0
  4 28  1  0  0  0  0
  5  6  1  0  0  0  0
  5 29  1  0  0  0  0
  6  7  2  0  0  0  0
  7  8  1  0  0  0  0
  8  9  1  0  0  0  0
  8 30  1  0  0  0  0
  9 10  2  0  0  0  0
  9 11  1  0  0  0  0
 11 12  1  0  0  0  0
 11 31  1  0  0  0  0
 12 13  1  0  0  0  0
 12 32  1  0  0  0  0
 12 33  1  0  0  0  0
 13 23  1  0  0  0  0
 13 14  1  0  0  0  0
 13 20  1  0  0  0  0
 14 19  1  0  0  0  0
 14 15  1  0  0  0  0
 14 48  1  0  0  0  0
 15 16  1  0  0  0  0
 15 34  1  0  0  0  0
 15 35  1  0  0  0  0
 16 17  1  0  0  0  0
 16 36  1  0  0  0  0
 16 37  1  0  0  0  0
 17 18  1  0  0  0  0
 18 19  1  0  0  0  0
 18 38  1  0  0  0  0
 18 39  1  0  0  0  0
 19 40  1  0  0  0  0
 19 41  1  0  0  0  0
 20 21  1  0  0  0  0
 20 42  1  0  0  0  0
 20 43  1  0  0  0  0
 21 22  1  0  0  0  0
 21 44  1  0  0  0  0
 21 45  1  0  0  0  0
 22 23  1  0  0  0  0
 23 46  1  0  0  0  0
 23 47  1  0  0  0  0
M  CHG  1  14   1
M  END
> <s_m_source_file>
AV-unprocessed.smi

> <i_m_source_file_index>
1211

> <i_lp_mmshare_version>
43012

> <i_f3d_flags>
0

> <s_epik_input>
W0NIM11jMVtjSF1bY0hdW2NIXW5jMVtOSF1DKD1PKVtOSF1bQ0gyXVtDQF0yKFtDSDJdW0NIMl1TW0NIMl0yKU4zW0NIMl1bQ0gyXU9bQ0gyXVtDSDJdMw==

> <s_epik_cmdline>
J2VwaWtfcHl0aG9uJywgJy1waCcsICc3LjAnLCAnLXRuJywgJzgnLCAnLW1hJywgJzIwMCcsICctbWV0YWxfYmluZGluZycsICctaW1hZScsICc8aW5maWxlLm1hZT4nLCAnLW9tYWUnLCAnPG91dGZpbGUubWFlPic=

> <r_epik_Ionization_Penalty>
2.03223

> <r_epik_Ionization_Penalty_Charging>
2.03219

> <r_epik_Ionization_Penalty_Neutral>
4.05816e-05

> <r_epik_State_Penalty>
2.16328

> <r_epik_Charging_Adjusted_Penalty>
4.19546

> <i_epik_Tot_Q>
1

> <i_epik_Tot_abs_Q>
1

> <r_epik_Metal_State_Penalty>
2.16328

> <b_epik_Metal_Only>
0

> <s_lp_Force_Field>
OPLS_2005

> <r_lp_Energy>
45.9337

> <b_lp_Chiralities_Consistent>
1

> <s_lp_Variant>
AV-unprocessed.smi:1211-4

> <Gold.Version>
5.8.1

> <Gold.Id.Protein>
6NUR|6NUR_protein|mol2

> <Gold.PLP.Fitness>
44.5865

> <Gold.PLP.PLP>
-30.5339

> <Gold.PLP.part.hbond>
-4.0000

> <Gold.PLP.part.metal>
0.0000

> <Gold.PLP.part.buried>
0.8561

> <Gold.PLP.part.nonpolar>
-27.8875

> <Gold.PLP.part.repulsive>
1.4453

> <Gold.PLP.ligand.clash>
0.0000

> <Gold.PLP.ligand.torsion>
0.8763

> <Gold.PLP.Chemscore.Hbond>
4.5503

> <Gold.PLP.Chemscore.CHOScore>
0.6700

> <Gold.PLP.Chemscore.Metal>
0.0000

> <Gold.Chemscore.Hbonds>
donor molecule, donor type, donor heavy atom, donor atom, acceptor molecule, acceptor atom, score
      L1  H     8    30       P1  7948  0.41
      L1  H    11    31       P1  7948  1.00
      L1  H    14    48       P1  7948  2.00
      P1  H  7989  7998       L1    17  1.00
      L1  C     5    29       P1 10186  0.70

> <Gold.PLP.Chemscore.Internal.Correction>
0.1442

> <Gold.Rescore>
     Score         DG    S(hbond)    S(metal)    S(lipo)     H(rot)  DE(clash)    DE(int)     intcor
     17.61     -21.61       2.62        0.00      95.52       1.48       3.11       0.89       ----

> <Gold.Chemscore.Fitness>
17.6135

> <Gold.Chemscore.DG>
-21.6106

> <Gold.Chemscore.ZeroCoef>
-5.4800

> <Gold.Chemscore.Hbond>
2.6194

> <Gold.Chemscore.Metal>
0.0000

> <Gold.Chemscore.Lipo>
95.5179

> <Gold.Chemscore.Internal_Hbond>
0.0000

> <Gold.Chemscore.DEClash>
3.1069

> <Gold.Chemscore.DEInternal>
0.8901

> <Gold.Chemscore.Rot>
1.4820

> <Gold.Chemscore.Internal.Correction>
   9.000000E+99

> <Gold.Chemscore.Hbonds>
donor molecule, donor type, donor heavy atom, donor atom, acceptor molecule, acceptor atom, score
      L1  H     8    30       P1  7948  0.36
      L1  H    11    31       P1  7948  0.99
      L1  H    14    48       P1  7948  0.52
      P1  H  7989  7998       L1    17  0.50

> <Gold.Chemscore.Hbond.Weighted>
-8.7489

> <Gold.Chemscore.Metal.Weighted>
-0.0000

> <Gold.Chemscore.Lipo.Weighted>
-11.1756

> <Gold.Chemscore.Internal_Hbond.Weighted>
0.0000

> <Gold.Chemscore.DEClash.Weighted>
3.1069

> <Gold.Chemscore.DEInternal.Weighted>
0.8901

> <Gold.Chemscore.Rot.Weighted>
3.7939

> <Gold.Chemscore.Internal.Correction.Weighted>
   9.000000E+99

> <Gold.Protein.RotatedTorsions>
[ 6907 6896 6895 6894 ] final -158.44 input  -60.11 | X-H torsion
[ 7974 7965 7964 7962 ] final -119.88 input  175.53 | X-H torsion
[ 8008 7997 7996 7995 ] final -104.16 input   59.86 | X-H torsion
[ 10167 10162 10161 10158 ] final  -98.85 input  -65.29 | X-H torsion
[ 10718 10713 10712 10709 ] final  -61.64 input   66.30 | X-H torsion
[ 10763 10752 10751 10750 ] final   69.17 input  -60.55 | X-H torsion
[ 11005 11000 10999 10996 ] final  142.80 input  -57.11 | X-H torsion

> <Gold.Protein.ActiveResidues>
 VAL166  LYS551  ARG553  GLY616  TRP617  ASP618  TYR619  PRO620  LYS621  CYS622 
 ASP623  PHE694  ASN695  SER759  ASP760  ASP761  ALA762  ILE779  LEU786  VAL792 
 PHE793  MET794  SER795  GLU796  ALA797  LYS798  CYS799  TRP800  GLU811  SER814 

> <Gold.Protein.RotatedAtoms>
  151.3182  133.4051  159.2652 H   0  0  0  0  0  0  0  0  0  0  0  0  # atno 6907 bound_to 6896
  151.0056  134.9357  159.7989 H   0  0  0  0  0  0  0  0  0  0  0  0  # atno 6908 bound_to 6896
  152.5287  134.3147  159.9179 H   0  0  0  0  0  0  0  0  0  0  0  0  # atno 6909 bound_to 6896
  145.0575  140.8265  143.4172 H   0  0  0  0  0  0  0  0  0  0  0  0  # atno 7974 bound_to 7965
  154.8813  140.0419  157.1784 H   0  0  0  0  0  0  0  0  0  0  0  0  # atno 8008 bound_to 7997
  154.8636  140.2948  155.5503 H   0  0  0  0  0  0  0  0  0  0  0  0  # atno 8009 bound_to 7997
  156.2998  140.2442  156.3614 H   0  0  0  0  0  0  0  0  0  0  0  0  # atno 8010 bound_to 7997
  140.2687  143.3359  152.0556 H   0  0  0  0  0  0  0  0  0  0  0  0  # atno 10167 bound_to 10162
  156.0908  130.4200  150.1023 H   0  0  0  0  0  0  0  0  0  0  0  0  # atno 10718 bound_to 10713
  153.0273  135.5220  154.7247 H   0  0  0  0  0  0  0  0  0  0  0  0  # atno 10763 bound_to 10752
  154.6292  135.2898  155.0239 H   0  0  0  0  0  0  0  0  0  0  0  0  # atno 10764 bound_to 10752
  154.1197  135.6609  153.4953 H   0  0  0  0  0  0  0  0  0  0  0  0  # atno 10765 bound_to 10752
  140.0505  134.9258  157.1007 H   0  0  0  0  0  0  0  0  0  0  0  0  # atno 11005 bound_to 11000
  145.1450  139.2549  143.5470 LP  0  0  0  0  0  0  0  0  0  0  0  0  # atno 17320 bound_to 7965
  146.3522  140.1137  142.8603 LP  0  0  0  0  0  0  0  0  0  0  0  0  # atno 17321 bound_to 7965
  139.4995  144.6671  151.6331 LP  0  0  0  0  0  0  0  0  0  0  0  0  # atno 17342 bound_to 10162
  140.5908  143.9784  150.6323 LP  0  0  0  0  0  0  0  0  0  0  0  0  # atno 17343 bound_to 10162
  156.9033  130.9627  151.3573 LP  0  0  0  0  0  0  0  0  0  0  0  0  # atno 17370 bound_to 10713
  157.6056  130.8545  149.8870 LP  0  0  0  0  0  0  0  0  0  0  0  0  # atno 17371 bound_to 10713
  140.3926  134.2168  155.7165 LP  0  0  0  0  0  0  0  0  0  0  0  0  # atno 17394 bound_to 11000
  141.1928  133.8166  157.0826 LP  0  0  0  0  0  0  0  0  0  0  0  0  # atno 17395 bound_to 11000

$$$$
