AV-unprocessed.smi:276|AV-procd|sdf|2075|dock2
  -GOLD-   2262021333D 1   1.00000     0.00000
 Structure written by MMmdl.
 57 61  0  0  0  0  0  0  0  0  1 V2000
  142.9552  134.4944  162.7317 C   0  0  0  0  0  0  0  0  0  0  0  0
  144.1326  134.8529  162.0302 O   0  0  0  0  0  0  0  0  0  0  0  0
  145.3191  134.5640  162.7567 C   0  0  1  0  0  0  0  0  0  0  0  0
  145.8275  133.1327  162.5221 C   0  0  0  0  0  0  0  0  0  0  0  0
  146.6753  133.6550  161.3450 C   0  0  1  0  0  0  0  0  0  0  0  0
  145.9705  133.4995  160.0645 N   0  0  0  0  0  0  0  0  0  0  0  0
  145.4739  132.1601  159.7661 C   0  0  0  0  0  0  0  0  0  0  0  0
  146.6070  134.0021  158.9846 C   0  0  0  0  0  0  0  0  0  0  0  0
  147.6344  134.8566  159.2154 N   0  0  0  0  0  0  0  0  0  0  0  0
  148.3102  135.3803  158.1882 C   0  0  0  0  0  0  0  0  0  0  0  0
  148.1189  135.1939  156.8804 N   0  0  0  0  0  0  0  0  0  0  0  0
  147.0735  134.3495  156.6475 C   0  0  0  0  0  0  0  0  0  0  0  0
  146.2675  133.7134  157.6325 C   0  0  0  0  0  0  0  0  0  0  0  0
  145.2976  132.9301  157.0182 N   0  0  0  0  0  0  0  0  0  0  0  0
  145.5173  133.0946  155.7424 C   0  0  0  0  0  0  0  0  0  0  0  0
  146.5597  133.9379  155.4308 N   0  0  0  0  0  0  0  0  0  0  0  0
  147.0128  134.3061  154.1018 C   0  0  0  0  0  0  0  0  0  0  0  0
  145.8580  134.5590  153.1079 C   0  0  1  0  0  0  0  0  0  0  0  0
  146.4132  135.2203  151.9884 O   0  0  0  0  0  0  0  0  0  0  0  0
  145.1216  133.2858  152.6299 C   0  0  2  0  0  0  0  0  0  0  0  0
  145.9579  132.3853  151.7146 C   0  0  0  0  0  0  0  0  0  0  0  0
  144.8967  131.6735  150.9089 C   0  0  0  0  0  0  0  0  0  0  0  0
  143.8901  132.7940  150.6870 C   0  0  0  0  0  0  0  0  0  0  0  0
  143.9732  133.6153  151.8468 O   0  0  0  0  0  0  0  0  0  0  0  0
  146.5716  135.0541  162.0098 C   0  0  0  0  0  0  0  0  0  0  0  0
  147.7510  135.5814  162.8461 C   0  0  0  0  0  0  0  0  0  0  0  0
  147.2856  137.0016  162.5158 C   0  0  0  0  0  0  0  0  0  0  0  0
  146.6014  136.4135  161.2811 C   0  0  0  0  0  0  0  0  0  0  0  0
  142.0822  134.7348  162.1253 H   0  0  0  0  0  0  0  0  0  0  0  0
  142.8751  135.0455  163.6695 H   0  0  0  0  0  0  0  0  0  0  0  0
  142.9287  133.4266  162.9497 H   0  0  0  0  0  0  0  0  0  0  0  0
  145.2795  134.8720  163.8028 H   0  0  0  0  0  0  0  0  0  0  0  0
  146.4463  132.7761  163.3469 H   0  0  0  0  0  0  0  0  0  0  0  0
  145.0549  132.4043  162.2783 H   0  0  0  0  0  0  0  0  0  0  0  0
  147.6851  133.2440  161.3493 H   0  0  0  0  0  0  0  0  0  0  0  0
  145.2094  132.0460  158.7134 H   0  0  0  0  0  0  0  0  0  0  0  0
  144.5775  131.9467  160.3472 H   0  0  0  0  0  0  0  0  0  0  0  0
  146.2252  131.4081  160.0094 H   0  0  0  0  0  0  0  0  0  0  0  0
  149.1195  136.0447  158.4526 H   0  0  0  0  0  0  0  0  0  0  0  0
  144.9132  132.6102  154.9892 H   0  0  0  0  0  0  0  0  0  0  0  0
  147.6326  135.1991  154.1937 H   0  0  0  0  0  0  0  0  0  0  0  0
  147.6630  133.5131  153.7296 H   0  0  0  0  0  0  0  0  0  0  0  0
  145.1345  135.2386  153.5593 H   0  0  0  0  0  0  0  0  0  0  0  0
  147.3433  135.3137  152.1263 H   0  0  0  0  0  0  0  0  0  0  0  0
  144.7813  132.7027  153.4872 H   0  0  0  0  0  0  0  0  0  0  0  0
  146.5837  132.9851  151.0520 H   0  0  0  0  0  0  0  0  0  0  0  0
  146.6038  131.7012  152.2658 H   0  0  0  0  0  0  0  0  0  0  0  0
  145.2742  131.2482  149.9787 H   0  0  0  0  0  0  0  0  0  0  0  0
  144.4487  130.8725  151.4987 H   0  0  0  0  0  0  0  0  0  0  0  0
  144.1705  133.3920  149.8189 H   0  0  0  0  0  0  0  0  0  0  0  0
  142.8770  132.4229  150.5319 H   0  0  0  0  0  0  0  0  0  0  0  0
  147.7200  135.3253  163.9055 H   0  0  0  0  0  0  0  0  0  0  0  0
  148.7203  135.3433  162.4046 H   0  0  0  0  0  0  0  0  0  0  0  0
  146.5757  137.3968  163.2444 H   0  0  0  0  0  0  0  0  0  0  0  0
  148.0870  137.7092  162.3022 H   0  0  0  0  0  0  0  0  0  0  0  0
  147.2633  136.4365  160.4152 H   0  0  0  0  0  0  0  0  0  0  0  0
  145.6255  136.8411  161.0512 H   0  0  0  0  0  0  0  0  0  0  0  0
  1  2  1  0  0  0  0
  1 29  1  0  0  0  0
  1 30  1  0  0  0  0
  1 31  1  0  0  0  0
  2  3  1  0  0  0  0
  3 25  1  0  0  0  0
  3  4  1  0  0  0  0
  3 32  1  0  0  0  0
  4  5  1  0  0  0  0
  4 33  1  0  0  0  0
  4 34  1  0  0  0  0
  5  6  1  0  0  0  0
  5 25  1  0  0  0  0
  5 35  1  0  0  0  0
  6  7  1  0  0  0  0
  6  8  1  0  0  0  0
  7 36  1  0  0  0  0
  7 37  1  0  0  0  0
  7 38  1  0  0  0  0
  8 13  1  0  0  0  0
  8  9  2  0  0  0  0
  9 10  1  0  0  0  0
 10 11  2  0  0  0  0
 10 39  1  0  0  0  0
 11 12  1  0  0  0  0
 12 16  1  0  0  0  0
 12 13  2  0  0  0  0
 13 14  1  0  0  0  0
 14 15  2  0  0  0  0
 15 16  1  0  0  0  0
 15 40  1  0  0  0  0
 16 17  1  0  0  0  0
 17 18  1  0  0  0  0
 17 41  1  0  0  0  0
 17 42  1  0  0  0  0
 18 19  1  0  0  0  0
 18 20  1  0  0  0  0
 18 43  1  0  0  0  0
 19 44  1  0  0  0  0
 20 24  1  0  0  0  0
 20 21  1  0  0  0  0
 20 45  1  0  0  0  0
 21 22  1  0  0  0  0
 21 46  1  0  0  0  0
 21 47  1  0  0  0  0
 22 23  1  0  0  0  0
 22 48  1  0  0  0  0
 22 49  1  0  0  0  0
 23 24  1  0  0  0  0
 23 50  1  0  0  0  0
 23 51  1  0  0  0  0
 25 28  1  0  0  0  0
 25 26  1  0  0  0  0
 26 27  1  0  0  0  0
 26 52  1  0  0  0  0
 26 53  1  0  0  0  0
 27 28  1  0  0  0  0
 27 54  1  0  0  0  0
 27 55  1  0  0  0  0
 28 56  1  0  0  0  0
 28 57  1  0  0  0  0
M  END
> <s_m_source_file>
AV-unprocessed.smi

> <i_m_source_file_index>
276

> <i_lp_mmshare_version>
43012

> <i_f3d_flags>
0

> <s_epik_input>
W0NIMl0xW0NIMl1bQ0gyXUMxMltDQEhdKE9bQ0gzXSlbQ0gyXVtDQEhdMk4oW0NIM10pYyhuW2NIXW4zKWMoYzM0KW5bY0hdbjRbQ0gyXVtDQEhdKFtPSF0pW0NAQEhdNVtDSDJdW0NIMl1bQ0gyXU81

> <s_epik_cmdline>
J2VwaWtfcHl0aG9uJywgJy1waCcsICc3LjAnLCAnLXRuJywgJzgnLCAnLW1hJywgJzIwMCcsICctbWV0YWxfYmluZGluZycsICctaW1hZScsICc8aW5maWxlLm1hZT4nLCAnLW9tYWUnLCAnPG91dGZpbGUubWFlPic=

> <r_lp_tautomer_probability>
1

> <r_epik_Ionization_Penalty>
0.00204117

> <r_epik_Ionization_Penalty_Charging>
0

> <r_epik_Ionization_Penalty_Neutral>
0.00204117

> <r_epik_State_Penalty>
0.00127401

> <r_epik_Charging_Adjusted_Penalty>
0.00127401

> <i_epik_Tot_Q>
0

> <i_epik_Tot_abs_Q>
0

> <r_epik_Metal_State_Penalty>
-0

> <b_epik_Metal_Only>
0

> <s_lp_Force_Field>
OPLS_2005

> <r_lp_Energy>
56.2402

> <b_lp_Chiralities_Consistent>
1

> <s_lp_Variant>
AV-unprocessed.smi:276-6

> <Gold.Version>
5.8.1

> <Gold.Id.Protein>
6NUR|6NUR_protein|mol2

> <Gold.PLP.Fitness>
39.8884

> <Gold.PLP.PLP>
-36.0097

> <Gold.PLP.part.hbond>
-1.0000

> <Gold.PLP.part.metal>
0.0000

> <Gold.PLP.part.buried>
-5.3991

> <Gold.PLP.part.nonpolar>
-29.9286

> <Gold.PLP.part.repulsive>
0.2474

> <Gold.PLP.ligand.clash>
0.0000

> <Gold.PLP.ligand.torsion>
1.4552

> <Gold.PLP.Chemscore.Hbond>
1.0000

> <Gold.PLP.Chemscore.CHOScore>
1.0000

> <Gold.PLP.Chemscore.Metal>
0.0000

> <Gold.Chemscore.Hbonds>
donor molecule, donor type, donor heavy atom, donor atom, acceptor molecule, acceptor atom, score
      L1  H    19    44       P1  7948  1.00
      L1  C    15    40       P1 10957  1.00

> <Gold.PLP.Chemscore.Internal.Correction>
0.7892

> <Gold.Rescore>
     Score         DG    S(hbond)    S(metal)    S(lipo)     H(rot)  DE(clash)    DE(int)     intcor
     10.40     -13.63       0.98        0.00     101.04       2.72       0.00       3.23       ----

> <Gold.Chemscore.Fitness>
10.3951

> <Gold.Chemscore.DG>
-13.6253

> <Gold.Chemscore.ZeroCoef>
-5.4800

> <Gold.Chemscore.Hbond>
0.9821

> <Gold.Chemscore.Metal>
0.0000

> <Gold.Chemscore.Lipo>
101.0352

> <Gold.Chemscore.Internal_Hbond>
0.0000

> <Gold.Chemscore.DEClash>
0.0021

> <Gold.Chemscore.DEInternal>
3.2281

> <Gold.Chemscore.Rot>
2.7172

> <Gold.Chemscore.Internal.Correction>
   9.000000E+99

> <Gold.Chemscore.Hbonds>
donor molecule, donor type, donor heavy atom, donor atom, acceptor molecule, acceptor atom, score
      L1  H    19    44       P1  7948  0.95

> <Gold.Chemscore.Hbond.Weighted>
-3.2802

> <Gold.Chemscore.Metal.Weighted>
-0.0000

> <Gold.Chemscore.Lipo.Weighted>
-11.8211

> <Gold.Chemscore.Internal_Hbond.Weighted>
0.0000

> <Gold.Chemscore.DEClash.Weighted>
0.0021

> <Gold.Chemscore.DEInternal.Weighted>
3.2281

> <Gold.Chemscore.Rot.Weighted>
6.9560

> <Gold.Chemscore.Internal.Correction.Weighted>
   9.000000E+99

> <Gold.Protein.RotatedTorsions>
[ 6907 6896 6895 6894 ] final  159.92 input  -60.11 | X-H torsion
[ 7974 7965 7964 7962 ] final  -74.07 input  175.53 | X-H torsion
[ 8008 7997 7996 7995 ] final  -34.79 input   59.86 | X-H torsion
[ 10167 10162 10161 10158 ] final    1.23 input  -65.29 | X-H torsion
[ 10718 10713 10712 10709 ] final  171.50 input   66.30 | X-H torsion
[ 10763 10752 10751 10750 ] final  -44.77 input  -60.55 | X-H torsion
[ 11005 11000 10999 10996 ] final -176.01 input  -57.11 | X-H torsion

> <Gold.Protein.ActiveResidues>
 VAL166  LYS551  ARG553  GLY616  TRP617  ASP618  TYR619  PRO620  LYS621  CYS622 
 ASP623  PHE694  ASN695  SER759  ASP760  ASP761  ALA762  ILE779  LEU786  VAL792 
 PHE793  MET794  SER795  GLU796  ALA797  LYS798  CYS799  TRP800  GLU811  SER814 

> <Gold.Protein.RotatedAtoms>
  151.9784  133.3749  159.4097 H   0  0  0  0  0  0  0  0  0  0  0  0  # atno 6907 bound_to 6896
  150.6938  134.4065  159.5151 H   0  0  0  0  0  0  0  0  0  0  0  0  # atno 6908 bound_to 6896
  152.1780  134.8778  160.0579 H   0  0  0  0  0  0  0  0  0  0  0  0  # atno 6909 bound_to 6896
  145.6439  140.9303  143.1021 H   0  0  0  0  0  0  0  0  0  0  0  0  # atno 7974 bound_to 7965
  154.4111  140.1674  156.2107 H   0  0  0  0  0  0  0  0  0  0  0  0  # atno 8008 bound_to 7997
  155.9446  140.3405  155.6333 H   0  0  0  0  0  0  0  0  0  0  0  0  # atno 8009 bound_to 7997
  155.6946  140.0738  157.2425 H   0  0  0  0  0  0  0  0  0  0  0  0  # atno 8010 bound_to 7997
  140.6692  143.7095  150.7888 H   0  0  0  0  0  0  0  0  0  0  0  0  # atno 10167 bound_to 10162
  156.9927  131.0152  151.2852 H   0  0  0  0  0  0  0  0  0  0  0  0  # atno 10718 bound_to 10713
  154.0175  135.6673  153.4770 H   0  0  0  0  0  0  0  0  0  0  0  0  # atno 10763 bound_to 10752
  153.0594  135.5036  154.8055 H   0  0  0  0  0  0  0  0  0  0  0  0  # atno 10764 bound_to 10752
  154.6958  135.3069  154.9378 H   0  0  0  0  0  0  0  0  0  0  0  0  # atno 10765 bound_to 10752
  140.4568  134.6291  157.4825 H   0  0  0  0  0  0  0  0  0  0  0  0  # atno 11005 bound_to 11000
  144.7147  139.8240  143.7403 LP  0  0  0  0  0  0  0  0  0  0  0  0  # atno 17320 bound_to 7965
  146.1258  139.4284  143.0199 LP  0  0  0  0  0  0  0  0  0  0  0  0  # atno 17321 bound_to 7965
  140.0778  143.4999  152.2546 LP  0  0  0  0  0  0  0  0  0  0  0  0  # atno 17342 bound_to 10162
  139.5953  144.7565  151.3301 LP  0  0  0  0  0  0  0  0  0  0  0  0  # atno 17343 bound_to 10162
  157.5447  130.8143  149.8071 LP  0  0  0  0  0  0  0  0  0  0  0  0  # atno 17370 bound_to 10713
  156.0201  130.3799  150.1988 LP  0  0  0  0  0  0  0  0  0  0  0  0  # atno 17371 bound_to 10713
  139.9971  134.6895  155.9592 LP  0  0  0  0  0  0  0  0  0  0  0  0  # atno 17394 bound_to 11000
  141.1639  133.6537  156.4413 LP  0  0  0  0  0  0  0  0  0  0  0  0  # atno 17395 bound_to 11000

$$$$
