AV-unprocessed.smi:3285|AV-procd|sdf|12586|dock9
  -GOLD-   2272018513D 1   1.00000     0.00000
 Structure written by MMmdl.
 45 46  0  0  0  0  0  0  0  0  2 V2000
  153.9723  141.8481  159.8814 C   0  0  0  0  0  0  0  0  0  0  0  0
  152.8869  142.8096  160.2717 C   0  0  0  0  0  0  0  0  0  0  0  0
  152.6861  143.0693  161.5522 N   0  0  0  0  0  0  0  0  0  0  0  0
  151.6278  143.9807  161.5980 O   0  0  0  0  0  0  0  0  0  0  0  0
  151.2269  144.2380  160.3278 C   0  0  0  0  0  0  0  0  0  0  0  0
  150.0999  145.2028  160.1742 C   0  0  0  0  0  0  0  0  0  0  0  0
  151.9855  143.5301  159.4351 C   0  0  0  0  0  0  0  0  0  0  0  0
  151.9005  143.5107  157.9295 C   0  0  0  0  0  0  0  0  0  0  0  0
  151.4242  142.1522  157.3927 C   0  0  0  0  0  0  0  0  0  0  0  0
  150.1024  142.2642  156.7390 N   0  3  0  0  0  0  0  0  0  0  0  0
  149.9464  141.5003  155.4823 C   0  0  2  0  0  0  0  0  0  0  0  0
  148.4512  141.3598  155.1467 C   0  0  0  0  0  0  0  0  0  0  0  0
  148.2335  140.5360  153.8664 C   0  0  0  0  0  0  0  0  0  0  0  0
  148.8883  139.1422  153.9504 C   0  0  2  0  0  0  0  0  0  0  0  0
  148.1118  138.2058  154.8984 C   0  0  0  0  0  0  0  0  0  0  0  0
  150.3941  139.2850  154.2905 C   0  0  2  0  0  0  0  0  0  0  0  0
  151.1356  137.9389  154.3435 C   0  0  0  0  0  0  0  0  0  0  0  0
  150.6154  140.1122  155.5736 C   0  0  0  0  0  0  0  0  0  0  0  0
  154.2332  141.9456  158.8280 H   0  0  0  0  0  0  0  0  0  0  0  0
  153.6592  140.8182  160.0519 H   0  0  0  0  0  0  0  0  0  0  0  0
  154.8799  142.0201  160.4608 H   0  0  0  0  0  0  0  0  0  0  0  0
  149.8306  145.3336  159.1263 H   0  0  0  0  0  0  0  0  0  0  0  0
  150.3713  146.1791  160.5757 H   0  0  0  0  0  0  0  0  0  0  0  0
  149.2166  144.8509  160.7073 H   0  0  0  0  0  0  0  0  0  0  0  0
  151.2170  144.2847  157.5787 H   0  0  0  0  0  0  0  0  0  0  0  0
  152.8640  143.7570  157.4821 H   0  0  0  0  0  0  0  0  0  0  0  0
  152.1523  141.7613  156.6806 H   0  0  0  0  0  0  0  0  0  0  0  0
  151.3656  141.4394  158.2150 H   0  0  0  0  0  0  0  0  0  0  0  0
  149.3825  141.9810  157.3883 H   0  0  0  0  0  0  0  0  0  0  0  0
  150.4161  142.0690  154.6779 H   0  0  0  0  0  0  0  0  0  0  0  0
  147.9240  140.8929  155.9794 H   0  0  0  0  0  0  0  0  0  0  0  0
  148.0046  142.3469  155.0213 H   0  0  0  0  0  0  0  0  0  0  0  0
  147.1666  140.4414  153.6607 H   0  0  0  0  0  0  0  0  0  0  0  0
  148.6544  141.0798  153.0196 H   0  0  0  0  0  0  0  0  0  0  0  0
  148.8181  138.6983  152.9562 H   0  0  0  0  0  0  0  0  0  0  0  0
  148.1654  138.5321  155.9366 H   0  0  0  0  0  0  0  0  0  0  0  0
  148.4916  137.1856  154.8523 H   0  0  0  0  0  0  0  0  0  0  0  0
  147.0577  138.1622  154.6227 H   0  0  0  0  0  0  0  0  0  0  0  0
  150.8466  139.8466  153.4715 H   0  0  0  0  0  0  0  0  0  0  0  0
  150.8154  137.3331  155.1914 H   0  0  0  0  0  0  0  0  0  0  0  0
  152.2111  138.0902  154.4398 H   0  0  0  0  0  0  0  0  0  0  0  0
  150.9668  137.3605  153.4349 H   0  0  0  0  0  0  0  0  0  0  0  0
  151.6869  140.2258  155.7381 H   0  0  0  0  0  0  0  0  0  0  0  0
  150.2320  139.5695  156.4383 H   0  0  0  0  0  0  0  0  0  0  0  0
  149.9662  143.2403  156.5173 H   0  0  0  0  0  0  0  0  0  0  0  0
  1  2  1  0  0  0  0
  1 19  1  0  0  0  0
  1 20  1  0  0  0  0
  1 21  1  0  0  0  0
  2  7  1  0  0  0  0
  2  3  2  0  0  0  0
  3  4  1  0  0  0  0
  4  5  1  0  0  0  0
  5  6  1  0  0  0  0
  5  7  2  0  0  0  0
  6 22  1  0  0  0  0
  6 23  1  0  0  0  0
  6 24  1  0  0  0  0
  7  8  1  0  0  0  0
  8  9  1  0  0  0  0
  8 25  1  0  0  0  0
  8 26  1  0  0  0  0
  9 10  1  0  0  0  0
  9 27  1  0  0  0  0
  9 28  1  0  0  0  0
 10 11  1  0  0  0  0
 10 29  1  0  0  0  0
 10 45  1  0  0  0  0
 11 18  1  0  0  0  0
 11 12  1  0  0  0  0
 11 30  1  0  0  0  0
 12 13  1  0  0  0  0
 12 31  1  0  0  0  0
 12 32  1  0  0  0  0
 13 14  1  0  0  0  0
 13 33  1  0  0  0  0
 13 34  1  0  0  0  0
 14 15  1  0  0  0  0
 14 16  1  0  0  0  0
 14 35  1  0  0  0  0
 15 36  1  0  0  0  0
 15 37  1  0  0  0  0
 15 38  1  0  0  0  0
 16 17  1  0  0  0  0
 16 18  1  0  0  0  0
 16 39  1  0  0  0  0
 17 40  1  0  0  0  0
 17 41  1  0  0  0  0
 17 42  1  0  0  0  0
 18 43  1  0  0  0  0
 18 44  1  0  0  0  0
M  CHG  1  10   1
M  END
> <s_m_source_file>
AV-unprocessed.smi

> <i_m_source_file_index>
3285

> <i_lp_mmshare_version>
43012

> <i_f3d_flags>
0

> <s_epik_input>
W0NIM11jMW5vYyhbQ0gzXSljMVtDSDJdW0NIMl1bTkhdW0NAQEhdMltDSDJdW0NIMl1bQ0BASF0oW0NIM10pW0NAQEhdKFtDSDNdKVtDSDJdMg==

> <s_epik_cmdline>
J2VwaWtfcHl0aG9uJywgJy1waCcsICc3LjAnLCAnLXRuJywgJzgnLCAnLW1hJywgJzIwMCcsICctbWV0YWxfYmluZGluZycsICctaW1hZScsICc8aW5maWxlLm1hZT4nLCAnLW9tYWUnLCAnPG91dGZpbGUubWFlPic=

> <r_lp_tautomer_probability>
1

> <r_epik_Ionization_Penalty>
0.000204615

> <r_epik_Ionization_Penalty_Charging>
0.000204615

> <r_epik_Ionization_Penalty_Neutral>
9.28663e-11

> <r_epik_State_Penalty>
-0

> <r_epik_Charging_Adjusted_Penalty>
0.000204615

> <i_epik_Tot_Q>
1

> <i_epik_Tot_abs_Q>
1

> <r_epik_Metal_State_Penalty>
-0

> <b_epik_Metal_Only>
0

> <s_lp_Force_Field>
OPLS_2005

> <r_lp_Energy>
13.9003

> <b_lp_Chiralities_Consistent>
1

> <s_lp_Variant>
AV-unprocessed.smi:3285-7

> <Gold.Version>
5.8.1

> <Gold.Id.Protein>
6NUR|6NUR_protein|mol2

> <Gold.PLP.Fitness>
44.9772

> <Gold.PLP.PLP>
-40.7234

> <Gold.PLP.part.hbond>
-1.0000

> <Gold.PLP.part.metal>
0.0000

> <Gold.PLP.part.buried>
-3.8729

> <Gold.PLP.part.nonpolar>
-35.8160

> <Gold.PLP.part.repulsive>
0.3233

> <Gold.PLP.ligand.clash>
0.0000

> <Gold.PLP.ligand.torsion>
0.8761

> <Gold.PLP.Chemscore.Hbond>
2.0000

> <Gold.PLP.Chemscore.CHOScore>
0.0000

> <Gold.PLP.Chemscore.Metal>
0.0000

> <Gold.Chemscore.Hbonds>
donor molecule, donor type, donor heavy atom, donor atom, acceptor molecule, acceptor atom, score
      L1  H    10    45       P1  8028  2.00

> <Gold.PLP.Chemscore.Internal.Correction>
0.0061

> <Gold.Rescore>
     Score         DG    S(hbond)    S(metal)    S(lipo)     H(rot)  DE(clash)    DE(int)     intcor
     18.54     -19.41       1.00        0.00     119.95       1.35       0.02       0.85       ----

> <Gold.Chemscore.Fitness>
18.5375

> <Gold.Chemscore.DG>
-19.4057

> <Gold.Chemscore.ZeroCoef>
-5.4800

> <Gold.Chemscore.Hbond>
0.9995

> <Gold.Chemscore.Metal>
0.0000

> <Gold.Chemscore.Lipo>
119.9521

> <Gold.Chemscore.Internal_Hbond>
0.0000

> <Gold.Chemscore.DEClash>
0.0194

> <Gold.Chemscore.DEInternal>
0.8488

> <Gold.Chemscore.Rot>
1.3465

> <Gold.Chemscore.Internal.Correction>
   9.000000E+99

> <Gold.Chemscore.Hbonds>
donor molecule, donor type, donor heavy atom, donor atom, acceptor molecule, acceptor atom, score
      L1  H    10    45       P1  8028  0.90

> <Gold.Chemscore.Hbond.Weighted>
-3.3383

> <Gold.Chemscore.Metal.Weighted>
-0.0000

> <Gold.Chemscore.Lipo.Weighted>
-14.0344

> <Gold.Chemscore.Internal_Hbond.Weighted>
0.0000

> <Gold.Chemscore.DEClash.Weighted>
0.0194

> <Gold.Chemscore.DEInternal.Weighted>
0.8488

> <Gold.Chemscore.Rot.Weighted>
3.4470

> <Gold.Chemscore.Internal.Correction.Weighted>
   9.000000E+99

> <Gold.Protein.RotatedTorsions>
[ 6907 6896 6895 6894 ] final  104.11 input  -60.11 | X-H torsion
[ 7974 7965 7964 7962 ] final   25.23 input  175.53 | X-H torsion
[ 8008 7997 7996 7995 ] final  -38.76 input   59.86 | X-H torsion
[ 10167 10162 10161 10158 ] final   94.35 input  -65.29 | X-H torsion
[ 10718 10713 10712 10709 ] final -164.94 input   66.30 | X-H torsion
[ 10763 10752 10751 10750 ] final   41.83 input  -60.55 | X-H torsion
[ 11005 11000 10999 10996 ] final   23.97 input  -57.11 | X-H torsion

> <Gold.Protein.ActiveResidues>
 VAL166  LYS551  ARG553  GLY616  TRP617  ASP618  TYR619  PRO620  LYS621  CYS622 
 ASP623  PHE694  ASN695  SER759  ASP760  ASP761  ALA762  ILE779  LEU786  VAL792 
 PHE793  MET794  SER795  GLU796  ALA797  LYS798  CYS799  TRP800  GLU811  SER814 

> <Gold.Protein.RotatedAtoms>
  152.5274  133.9725  159.7768 H   0  0  0  0  0  0  0  0  0  0  0  0  # atno 6907 bound_to 6896
  150.9994  133.6063  159.2704 H   0  0  0  0  0  0  0  0  0  0  0  0  # atno 6908 bound_to 6896
  151.3177  135.0817  159.9348 H   0  0  0  0  0  0  0  0  0  0  0  0  # atno 6909 bound_to 6896
  146.1898  139.7494  142.8840 H   0  0  0  0  0  0  0  0  0  0  0  0  # atno 7974 bound_to 7965
  154.4032  140.1569  156.2752 H   0  0  0  0  0  0  0  0  0  0  0  0  # atno 8008 bound_to 7997
  155.8918  140.3438  155.5940 H   0  0  0  0  0  0  0  0  0  0  0  0  # atno 8009 bound_to 7997
  155.7549  140.0810  157.2174 H   0  0  0  0  0  0  0  0  0  0  0  0  # atno 8010 bound_to 7997
  139.8092  144.6781  150.9662 H   0  0  0  0  0  0  0  0  0  0  0  0  # atno 10167 bound_to 10162
  156.6463  130.8989  151.3005 H   0  0  0  0  0  0  0  0  0  0  0  0  # atno 10718 bound_to 10713
  152.9898  135.6150  154.2851 H   0  0  0  0  0  0  0  0  0  0  0  0  # atno 10763 bound_to 10752
  154.2579  135.2783  155.2792 H   0  0  0  0  0  0  0  0  0  0  0  0  # atno 10764 bound_to 10752
  154.5231  135.5809  153.6754 H   0  0  0  0  0  0  0  0  0  0  0  0  # atno 10765 bound_to 10752
  140.3638  134.2097  155.7670 H   0  0  0  0  0  0  0  0  0  0  0  0  # atno 11005 bound_to 11000
  145.3826  141.0360  143.3169 LP  0  0  0  0  0  0  0  0  0  0  0  0  # atno 17320 bound_to 7965
  144.8466  139.5387  143.6876 LP  0  0  0  0  0  0  0  0  0  0  0  0  # atno 17321 bound_to 7965
  140.7818  143.4202  151.0853 LP  0  0  0  0  0  0  0  0  0  0  0  0  # atno 17342 bound_to 10162
  139.7870  143.8273  152.3146 LP  0  0  0  0  0  0  0  0  0  0  0  0  # atno 17343 bound_to 10162
  157.7155  130.9492  150.1240 LP  0  0  0  0  0  0  0  0  0  0  0  0  # atno 17370 bound_to 10713
  156.2119  130.3667  149.8660 LP  0  0  0  0  0  0  0  0  0  0  0  0  # atno 17371 bound_to 10713
  141.1976  133.8055  157.0621 LP  0  0  0  0  0  0  0  0  0  0  0  0  # atno 17394 bound_to 11000
  140.0606  134.9757  157.1297 LP  0  0  0  0  0  0  0  0  0  0  0  0  # atno 17395 bound_to 11000

$$$$
