AV-unprocessed.smi:1840|AV-procd|sdf|7493|dock6
  -GOLD-   22720 9193D 1   1.00000     0.00000
 Structure written by MMmdl.
 43 44  0  0  0  0  0  0  0  0  1 V2000
  141.1819  133.9835  153.3371 C   0  0  0  0  0  0  0  0  0  0  0  0
  142.2794  135.0479  153.2035 C   0  0  1  0  0  0  0  0  0  0  0  0
  142.1032  136.1735  154.2443 C   0  0  0  0  0  0  0  0  0  0  0  0
  140.8661  136.9143  154.0643 N   0  0  0  0  0  0  0  0  0  0  0  0
  139.7272  136.8814  154.8412 C   0  0  0  0  0  0  0  0  0  0  0  0
  138.8237  137.7337  154.2742 C   0  0  0  0  0  0  0  0  0  0  0  0
  139.5131  138.2533  153.1435 C   0  0  0  0  0  0  0  0  0  0  0  0
  140.7361  137.7631  153.0216 N   0  0  0  0  0  0  0  0  0  0  0  0
  143.5859  134.4067  153.3494 N   0  0  0  0  0  0  0  0  0  0  0  0
  144.3274  133.9113  152.3479 C   0  0  0  0  0  0  0  0  0  0  0  0
  143.9803  133.9089  151.1666 O   0  0  0  0  0  0  0  0  0  0  0  0
  145.5011  133.4374  152.7898 N   0  0  0  0  0  0  0  0  0  0  0  0
  146.5562  132.8479  151.9625 C   0  0  2  0  0  0  0  0  0  0  0  0
  145.9636  131.7387  151.0694 C   0  0  0  0  0  0  0  0  0  0  0  0
  145.5626  130.4910  151.8753 C   0  0  0  0  0  0  0  0  0  0  0  0
  146.7415  129.9633  152.7063 C   0  0  0  0  0  0  0  0  0  0  0  0
  147.3138  131.0575  153.6211 C   0  0  0  0  0  0  0  0  0  0  0  0
  147.7314  132.3070  152.8184 C   0  0  2  0  0  0  0  0  0  0  0  0
  148.3615  133.3742  153.7295 C   0  0  0  0  0  0  0  0  0  0  0  0
  140.1920  134.4227  153.2106 H   0  0  0  0  0  0  0  0  0  0  0  0
  141.2103  133.5038  154.3160 H   0  0  0  0  0  0  0  0  0  0  0  0
  141.2946  133.2057  152.5808 H   0  0  0  0  0  0  0  0  0  0  0  0
  142.1858  135.4810  152.2059 H   0  0  0  0  0  0  0  0  0  0  0  0
  142.0933  135.7524  155.2505 H   0  0  0  0  0  0  0  0  0  0  0  0
  142.9464  136.8656  154.2064 H   0  0  0  0  0  0  0  0  0  0  0  0
  139.6536  136.2554  155.7180 H   0  0  0  0  0  0  0  0  0  0  0  0
  137.8222  137.9510  154.6143 H   0  0  0  0  0  0  0  0  0  0  0  0
  139.1626  138.9647  152.4105 H   0  0  0  0  0  0  0  0  0  0  0  0
  143.9663  134.3648  154.2835 H   0  0  0  0  0  0  0  0  0  0  0  0
  145.6899  133.4988  153.7795 H   0  0  0  0  0  0  0  0  0  0  0  0
  146.9523  133.6149  151.2947 H   0  0  0  0  0  0  0  0  0  0  0  0
  145.1039  132.1176  150.5154 H   0  0  0  0  0  0  0  0  0  0  0  0
  146.7022  131.4527  150.3193 H   0  0  0  0  0  0  0  0  0  0  0  0
  144.7275  130.7292  152.5349 H   0  0  0  0  0  0  0  0  0  0  0  0
  145.2079  129.7124  151.1997 H   0  0  0  0  0  0  0  0  0  0  0  0
  146.4219  129.1092  153.3040 H   0  0  0  0  0  0  0  0  0  0  0  0
  147.5242  129.5984  152.0399 H   0  0  0  0  0  0  0  0  0  0  0  0
  146.5726  131.3284  154.3741 H   0  0  0  0  0  0  0  0  0  0  0  0
  148.1718  130.6623  154.1656 H   0  0  0  0  0  0  0  0  0  0  0  0
  148.5115  131.9948  152.1223 H   0  0  0  0  0  0  0  0  0  0  0  0
  147.6735  133.6857  154.5152 H   0  0  0  0  0  0  0  0  0  0  0  0
  148.6437  134.2606  153.1610 H   0  0  0  0  0  0  0  0  0  0  0  0
  149.2601  132.9930  154.2147 H   0  0  0  0  0  0  0  0  0  0  0  0
  1  2  1  0  0  0  0
  1 20  1  0  0  0  0
  1 21  1  0  0  0  0
  1 22  1  0  0  0  0
  2  3  1  0  0  0  0
  2  9  1  0  0  0  0
  2 23  1  0  0  0  0
  3  4  1  0  0  0  0
  3 24  1  0  0  0  0
  3 25  1  0  0  0  0
  4  8  1  0  0  0  0
  4  5  1  0  0  0  0
  5  6  2  0  0  0  0
  5 26  1  0  0  0  0
  6  7  1  0  0  0  0
  6 27  1  0  0  0  0
  7  8  2  0  0  0  0
  7 28  1  0  0  0  0
  9 10  1  0  0  0  0
  9 29  1  0  0  0  0
 10 11  2  0  0  0  0
 10 12  1  0  0  0  0
 12 13  1  0  0  0  0
 12 30  1  0  0  0  0
 13 18  1  0  0  0  0
 13 14  1  0  0  0  0
 13 31  1  0  0  0  0
 14 15  1  0  0  0  0
 14 32  1  0  0  0  0
 14 33  1  0  0  0  0
 15 16  1  0  0  0  0
 15 34  1  0  0  0  0
 15 35  1  0  0  0  0
 16 17  1  0  0  0  0
 16 36  1  0  0  0  0
 16 37  1  0  0  0  0
 17 18  1  0  0  0  0
 17 38  1  0  0  0  0
 17 39  1  0  0  0  0
 18 19  1  0  0  0  0
 18 40  1  0  0  0  0
 19 41  1  0  0  0  0
 19 42  1  0  0  0  0
 19 43  1  0  0  0  0
M  END
> <s_m_source_file>
AV-unprocessed.smi

> <i_m_source_file_index>
1840

> <i_lp_mmshare_version>
43012

> <i_f3d_flags>
0

> <s_epik_input>
bjFbY0hdW2NIXVtjSF1uMVtDSDJdW0NAQEhdKFtDSDNdKVtOSF1DKD1PKVtOSF1bQ0BASF0yW0NIMl1bQ0gyXVtDSDJdW0NIMl1bQ0BIXTJbQ0gzXQ==

> <s_epik_cmdline>
J2VwaWtfcHl0aG9uJywgJy1waCcsICc3LjAnLCAnLXRuJywgJzgnLCAnLW1hJywgJzIwMCcsICctbWV0YWxfYmluZGluZycsICctaW1hZScsICc8aW5maWxlLm1hZT4nLCAnLW9tYWUnLCAnPG91dGZpbGUubWFlPic=

> <r_lp_tautomer_probability>
1

> <r_epik_Ionization_Penalty>
7.38659e-05

> <r_epik_Ionization_Penalty_Charging>
0

> <r_epik_Ionization_Penalty_Neutral>
7.38659e-05

> <r_epik_State_Penalty>
-0

> <r_epik_Charging_Adjusted_Penalty>
0

> <i_epik_Tot_Q>
0

> <i_epik_Tot_abs_Q>
0

> <r_epik_Metal_State_Penalty>
-0

> <b_epik_Metal_Only>
0

> <s_lp_Force_Field>
OPLS_2005

> <r_lp_Energy>
6.71394

> <b_lp_Chiralities_Consistent>
1

> <s_lp_Variant>
AV-unprocessed.smi:1840-6

> <Gold.Version>
5.8.1

> <Gold.Id.Protein>
6NUR|6NUR_protein|mol2

> <Gold.PLP.Fitness>
38.0154

> <Gold.PLP.PLP>
-33.0958

> <Gold.PLP.part.hbond>
-0.6417

> <Gold.PLP.part.metal>
0.0000

> <Gold.PLP.part.buried>
-2.4731

> <Gold.PLP.part.nonpolar>
-29.9697

> <Gold.PLP.part.repulsive>
0.3946

> <Gold.PLP.ligand.clash>
0.0000

> <Gold.PLP.ligand.torsion>
0.5553

> <Gold.PLP.Chemscore.Hbond>
0.0000

> <Gold.PLP.Chemscore.CHOScore>
2.0000

> <Gold.PLP.Chemscore.Metal>
0.0000

> <Gold.Chemscore.Hbonds>
donor molecule, donor type, donor heavy atom, donor atom, acceptor molecule, acceptor atom, score
      L1  C     5    26       P1 11000  1.00
      L1  C     7    28       P1 10160  0.99

> <Gold.PLP.Chemscore.Internal.Correction>
0.0301

> <Gold.Rescore>
     Score         DG    S(hbond)    S(metal)    S(lipo)     H(rot)  DE(clash)    DE(int)     intcor
     10.76     -11.23       0.00        0.00      83.23       1.56       0.08       0.39       ----

> <Gold.Chemscore.Fitness>
10.7591

> <Gold.Chemscore.DG>
-11.2308

> <Gold.Chemscore.ZeroCoef>
-5.4800

> <Gold.Chemscore.Hbond>
0.0000

> <Gold.Chemscore.Metal>
0.0000

> <Gold.Chemscore.Lipo>
83.2331

> <Gold.Chemscore.Internal_Hbond>
0.0000

> <Gold.Chemscore.DEClash>
0.0808

> <Gold.Chemscore.DEInternal>
0.3909

> <Gold.Chemscore.Rot>
1.5576

> <Gold.Chemscore.Internal.Correction>
   9.000000E+99

> <Gold.Chemscore.Hbond.Weighted>
-0.0000

> <Gold.Chemscore.Metal.Weighted>
-0.0000

> <Gold.Chemscore.Lipo.Weighted>
-9.7383

> <Gold.Chemscore.Internal_Hbond.Weighted>
0.0000

> <Gold.Chemscore.DEClash.Weighted>
0.0808

> <Gold.Chemscore.DEInternal.Weighted>
0.3909

> <Gold.Chemscore.Rot.Weighted>
3.9875

> <Gold.Chemscore.Internal.Correction.Weighted>
   9.000000E+99

> <Gold.Protein.RotatedTorsions>
[ 6907 6896 6895 6894 ] final  -84.59 input  -60.11 | X-H torsion
[ 7974 7965 7964 7962 ] final  134.07 input  175.53 | X-H torsion
[ 8008 7997 7996 7995 ] final  -21.31 input   59.86 | X-H torsion
[ 10167 10162 10161 10158 ] final   56.34 input  -65.29 | X-H torsion
[ 10718 10713 10712 10709 ] final  101.49 input   66.30 | X-H torsion
[ 10763 10752 10751 10750 ] final  -76.87 input  -60.55 | X-H torsion
[ 11005 11000 10999 10996 ] final -111.23 input  -57.11 | X-H torsion

> <Gold.Protein.ActiveResidues>
 VAL166  LYS551  ARG553  GLY616  TRP617  ASP618  TYR619  PRO620  LYS621  CYS622 
 ASP623  PHE694  ASN695  SER759  ASP760  ASP761  ALA762  ILE779  LEU786  VAL792 
 PHE793  MET794  SER795  GLU796  ALA797  LYS798  CYS799  TRP800  GLU811  SER814 

> <Gold.Protein.RotatedAtoms>
  150.6875  134.3335  159.4837 H   0  0  0  0  0  0  0  0  0  0  0  0  # atno 6907 bound_to 6896
  152.1197  134.9212  160.0572 H   0  0  0  0  0  0  0  0  0  0  0  0  # atno 6908 bound_to 6896
  152.0422  133.3948  159.4379 H   0  0  0  0  0  0  0  0  0  0  0  0  # atno 6909 bound_to 6896
  144.9801  139.4513  143.5390 H   0  0  0  0  0  0  0  0  0  0  0  0  # atno 7974 bound_to 7965
  154.4714  140.2038  155.9986 H   0  0  0  0  0  0  0  0  0  0  0  0  # atno 8008 bound_to 7997
  156.1016  140.3243  155.7921 H   0  0  0  0  0  0  0  0  0  0  0  0  # atno 8009 bound_to 7997
  155.4787  140.0537  157.2961 H   0  0  0  0  0  0  0  0  0  0  0  0  # atno 8010 bound_to 7997
  140.2098  144.3901  150.6494 H   0  0  0  0  0  0  0  0  0  0  0  0  # atno 10167 bound_to 10162
  157.6828  131.0727  150.5260 H   0  0  0  0  0  0  0  0  0  0  0  0  # atno 10718 bound_to 10713
  154.5056  135.5783  153.6564 H   0  0  0  0  0  0  0  0  0  0  0  0  # atno 10763 bound_to 10752
  152.9887  135.6146  154.2946 H   0  0  0  0  0  0  0  0  0  0  0  0  # atno 10764 bound_to 10752
  154.2857  135.2850  155.2657 H   0  0  0  0  0  0  0  0  0  0  0  0  # atno 10765 bound_to 10752
  141.0746  133.9322  157.2415 H   0  0  0  0  0  0  0  0  0  0  0  0  # atno 11005 bound_to 11000
  146.3406  139.9068  142.8786 LP  0  0  0  0  0  0  0  0  0  0  0  0  # atno 17320 bound_to 7965
  145.2433  141.0017  143.3923 LP  0  0  0  0  0  0  0  0  0  0  0  0  # atno 17321 bound_to 7965
  140.6332  143.2190  151.6452 LP  0  0  0  0  0  0  0  0  0  0  0  0  # atno 17342 bound_to 10162
  139.5184  144.3284  152.0848 LP  0  0  0  0  0  0  0  0  0  0  0  0  # atno 17343 bound_to 10162
  156.5572  130.4246  149.6080 LP  0  0  0  0  0  0  0  0  0  0  0  0  # atno 17370 bound_to 10713
  156.2852  130.7093  151.1928 LP  0  0  0  0  0  0  0  0  0  0  0  0  # atno 17371 bound_to 10713
  139.9559  135.0165  156.9125 LP  0  0  0  0  0  0  0  0  0  0  0  0  # atno 17394 bound_to 11000
  140.5600  134.0544  155.7396 LP  0  0  0  0  0  0  0  0  0  0  0  0  # atno 17395 bound_to 11000

$$$$
