#       Name:                AV-unprocessed.smi:1062
#       Creating user name   scv26
#       Creation time:       Fri Mar 27 03:17:18 2020


#       File generated by GOLD software.
#

@<TRIPOS>MOLECULE
AV-unprocessed.smi:1062
    43    45     1
SMALL
NO_CHARGES


@<TRIPOS>ATOM
      1 ****        -3.2051  -1.2486  -1.2116 C.3            1 S1                 0.0000
      2 ****        -2.2754  -1.9123  -2.2409 C.3            1 S1                 0.0000
      3 ****        -0.8745  -1.9329  -1.7909 N.am           1 S1                 0.0000
      4 ****        -0.1424  -0.7903  -1.7675 C.2            1 S1                 0.0000
      5 ****        -0.5334   0.2440  -2.3138 O.2            1 S1                 0.0000
      6 ****         1.2085  -0.7761  -1.0233 C.3            1 S1                 0.0000
      7 ****         1.5858   0.6093  -0.5786 C.2            1 S1                 0.0000
      8 ****         2.4164   1.4876  -1.2309 C.2            1 S1                 0.0000
      9 ****         2.5804   2.9935  -0.3702 S.3            1 S1                 0.0000
     10 ****         1.4991   2.3606   0.8746 C.2            1 S1                 0.0000
     11 ****         1.0730   3.0423   2.0530 N.am           1 S1                 0.0000
     12 ****         0.1555   2.4252   3.0058 C.3            1 S1                 0.0000
     13 ****        -0.0234   3.4896   4.0838 C.3            1 S1                 0.0000
     14 ****         0.8160   4.5587   3.5968 N.am           1 S1                 0.0000
     15 ****         1.4261   4.2835   2.4418 C.2            1 S1                 0.0000
     16 ****         2.1797   5.0618   1.8604 O.2            1 S1                 0.0000
     17 ****         1.0773   1.1172   0.6217 N.2            1 S1                 0.0000
     18 ****        -0.4634  -3.1727  -1.1868 C.3            1 S1                 0.0000
     19 ****         0.8190  -3.8517  -1.6327 C.3            1 S1                 0.0000
     20 ****        -0.5113  -4.4536  -1.9974 C.3            1 S1                 0.0000
     21 ****        -4.2412  -1.2857  -1.5482 H              1 S1                 0.0000
     22 ****        -2.9503  -0.2008  -1.0516 H              1 S1                 0.0000
     23 ****        -3.1520  -1.7573  -0.2486 H              1 S1                 0.0000
     24 ****        -2.6357  -2.9233  -2.4314 H              1 S1                 0.0000
     25 ****        -2.3518  -1.3956  -3.1990 H              1 S1                 0.0000
     26 ****         1.1722  -1.4315  -0.1529 H              1 S1                 0.0000
     27 ****         1.9743  -1.1781  -1.6869 H              1 S1                 0.0000
     28 ****         2.9351   1.3422  -2.1668 H              1 S1                 0.0000
     29 ****        -0.7928   2.1810   2.5250 H              1 S1                 0.0000
     30 ****         0.5840   1.5099   3.4167 H              1 S1                 0.0000
     31 ****        -1.0590   3.8214   4.1652 H              1 S1                 0.0000
     32 ****         0.3187   3.1461   5.0608 H              1 S1                 0.0000
     33 ****         0.9214   5.4320   4.0927 H              1 S1                 0.0000
     34 ****        -0.7104  -3.2751  -0.1316 H              1 S1                 0.0000
     35 ****         1.3915  -3.4041  -2.4427 H              1 S1                 0.0000
     36 ****         1.4086  -4.3574  -0.8709 H              1 S1                 0.0000
     37 ****        -0.8101  -5.3632  -1.4804 H              1 S1                 0.0000
     38 ****        -0.8087  -4.3941  -3.0428 H              1 S1                 0.0000
     39 ****        -1.4122   0.2560  -2.7909 LP             1 S1                 0.0000
     40 ****         0.0283   1.0706  -2.2796 LP             1 S1                 0.0000
     41 ****         2.6062   4.7934   0.9966 LP             1 S1                 0.0000
     42 ****         2.3661   5.9631   2.2513 LP             1 S1                 0.0000
     43 ****         0.4650   0.6060   1.2249 LP             1 S1                 0.0000
@<TRIPOS>BOND
    1    1    2 1     
    2    1   21 1     
    3    1   22 1     
    4    1   23 1     
    5    2    3 1     
    6    2   24 1     
    7    2   25 1     
    8    3    4 am    
    9    3   18 1     
   10    4    5 2     
   11    4    6 1     
   12    6    7 1     
   13    6   26 1     
   14    6   27 1     
   15    7   17 1     
   16    7    8 2     
   17    8    9 1     
   18    8   28 1     
   19    9   10 1     
   20   10   11 1     
   21   10   17 2     
   22   11   15 am    
   23   11   12 1     
   24   12   13 1     
   25   12   29 1     
   26   12   30 1     
   27   13   14 1     
   28   13   31 1     
   29   13   32 1     
   30   14   15 am    
   31   14   33 1     
   32   15   16 2     
   33   18   20 1     
   34   18   19 1     
   35   18   34 1     
   36   19   20 1     
   37   19   35 1     
   38   19   36 1     
   39   20   37 1     
   40   20   38 1     
   41    5   39 1     
   42    5   40 1     
   43   16   41 1     
   44   16   42 1     
   45   17   43 1     
@<TRIPOS>SUBSTRUCTURE
      1 S1             1
@<TRIPOS>SET
LONE_PAIRS      STATIC     ATOMS    <user>   **** ""
5 39 40 41 42 43
DONOR_HYDROGENS      STATIC     ATOMS    <user>   **** ""
1 33
ATOM$BLUE        STATIC     ATOMS    COLORGROUP SYSTEM
5 39 40 41 42 43
ATOM$RED        STATIC     ATOMS    COLORGROUP SYSTEM
1 33
