AV-unprocessed.smi:772|AV-procd|sdf|3686|dock9
  -GOLD-   22720 1103D 1   1.00000     0.00000
 Structure written by MMmdl.
 46 47  0  0  0  0  0  0  0  0  1 V2000
  151.2429  145.4220  160.0925 C   0  0  0  0  0  0  0  0  0  0  0  0
  152.0039  144.1195  160.2260 C   0  0  0  0  0  0  0  0  0  0  0  0
  152.5231  143.7088  161.4718 C   0  0  0  0  0  0  0  0  0  0  0  0
  153.2232  142.4891  161.5366 C   0  0  0  0  0  0  0  0  0  0  0  0
  153.3784  141.7301  160.3582 C   0  0  0  0  0  0  0  0  0  0  0  0
  154.1436  140.4184  160.3667 C   0  0  0  0  0  0  0  0  0  0  0  0
  153.3013  139.2177  160.8362 C   0  0  0  0  0  0  0  0  0  0  0  0
  154.0875  138.2707  161.6231 N   0  0  0  0  0  0  0  0  0  0  0  0
  154.0960  136.9345  161.4700 C   0  0  0  0  0  0  0  0  0  0  0  0
  153.3870  136.3639  160.6401 O   0  0  0  0  0  0  0  0  0  0  0  0
  154.9593  136.2757  162.2845 N   0  0  0  0  0  0  0  0  0  0  0  0
  155.4711  136.7592  163.5768 C   0  0  0  0  0  0  0  0  0  0  0  0
  154.6329  136.1421  164.7065 C   0  0  0  0  0  0  0  0  0  0  0  0
  154.7920  134.3296  164.7175 S   0  0  0  0  0  0  0  0  0  0  0  0
  154.4608  133.9619  162.9569 C   0  0  2  0  0  0  0  0  0  0  0  0
  154.6238  132.4560  162.6294 C   0  0  0  0  0  0  0  0  0  0  0  0
  154.3536  132.1567  161.1450 C   0  0  0  0  0  0  0  0  0  0  0  0
  153.7962  131.5257  163.5361 C   0  0  0  0  0  0  0  0  0  0  0  0
  155.3194  134.8720  162.0501 C   0  0  0  0  0  0  0  0  0  0  0  0
  152.8189  142.2304  159.1637 C   0  0  0  0  0  0  0  0  0  0  0  0
  152.1447  143.3981  159.0923 N   0  0  0  0  0  0  0  0  0  0  0  0
  151.1860  145.9469  161.0465 H   0  0  0  0  0  0  0  0  0  0  0  0
  150.2261  145.2335  159.7472 H   0  0  0  0  0  0  0  0  0  0  0  0
  151.7355  146.0768  159.3732 H   0  0  0  0  0  0  0  0  0  0  0  0
  152.3914  144.3125  162.3575 H   0  0  0  0  0  0  0  0  0  0  0  0
  153.6401  142.1489  162.4732 H   0  0  0  0  0  0  0  0  0  0  0  0
  154.5301  140.2254  159.3652 H   0  0  0  0  0  0  0  0  0  0  0  0
  155.0164  140.5277  161.0116 H   0  0  0  0  0  0  0  0  0  0  0  0
  152.4761  139.5708  161.4548 H   0  0  0  0  0  0  0  0  0  0  0  0
  152.8440  138.7237  159.9772 H   0  0  0  0  0  0  0  0  0  0  0  0
  154.6972  138.6638  162.3250 H   0  0  0  0  0  0  0  0  0  0  0  0
  156.5179  136.4742  163.6927 H   0  0  0  0  0  0  0  0  0  0  0  0
  155.4682  137.8461  163.6603 H   0  0  0  0  0  0  0  0  0  0  0  0
  154.9559  136.5266  165.6739 H   0  0  0  0  0  0  0  0  0  0  0  0
  153.5814  136.4077  164.5908 H   0  0  0  0  0  0  0  0  0  0  0  0
  153.4155  134.2203  162.7798 H   0  0  0  0  0  0  0  0  0  0  0  0
  155.6725  132.2092  162.8008 H   0  0  0  0  0  0  0  0  0  0  0  0
  153.3116  132.3362  160.8799 H   0  0  0  0  0  0  0  0  0  0  0  0
  154.5769  131.1159  160.9091 H   0  0  0  0  0  0  0  0  0  0  0  0
  154.9738  132.7775  160.4982 H   0  0  0  0  0  0  0  0  0  0  0  0
  152.7255  131.6920  163.4185 H   0  0  0  0  0  0  0  0  0  0  0  0
  154.0425  131.6625  164.5884 H   0  0  0  0  0  0  0  0  0  0  0  0
  153.9903  130.4800  163.2965 H   0  0  0  0  0  0  0  0  0  0  0  0
  155.1878  134.5937  161.0032 H   0  0  0  0  0  0  0  0  0  0  0  0
  156.3813  134.7284  162.2525 H   0  0  0  0  0  0  0  0  0  0  0  0
  152.9203  141.6822  158.2387 H   0  0  0  0  0  0  0  0  0  0  0  0
  1  2  1  0  0  0  0
  1 22  1  0  0  0  0
  1 23  1  0  0  0  0
  1 24  1  0  0  0  0
  2 21  1  0  0  0  0
  2  3  2  0  0  0  0
  3  4  1  0  0  0  0
  3 25  1  0  0  0  0
  4  5  2  0  0  0  0
  4 26  1  0  0  0  0
  5  6  1  0  0  0  0
  5 20  1  0  0  0  0
  6  7  1  0  0  0  0
  6 27  1  0  0  0  0
  6 28  1  0  0  0  0
  7  8  1  0  0  0  0
  7 29  1  0  0  0  0
  7 30  1  0  0  0  0
  8  9  1  0  0  0  0
  8 31  1  0  0  0  0
  9 10  2  0  0  0  0
  9 11  1  0  0  0  0
 11 19  1  0  0  0  0
 11 12  1  0  0  0  0
 12 13  1  0  0  0  0
 12 32  1  0  0  0  0
 12 33  1  0  0  0  0
 13 14  1  0  0  0  0
 13 34  1  0  0  0  0
 13 35  1  0  0  0  0
 14 15  1  0  0  0  0
 15 16  1  0  0  0  0
 15 19  1  0  0  0  0
 15 36  1  0  0  0  0
 16 17  1  0  0  0  0
 16 18  1  0  0  0  0
 16 37  1  0  0  0  0
 17 38  1  0  0  0  0
 17 39  1  0  0  0  0
 17 40  1  0  0  0  0
 18 41  1  0  0  0  0
 18 42  1  0  0  0  0
 18 43  1  0  0  0  0
 19 44  1  0  0  0  0
 19 45  1  0  0  0  0
 20 21  2  0  0  0  0
 20 46  1  0  0  0  0
M  END
> <s_m_source_file>
AV-unprocessed.smi

> <i_m_source_file_index>
772

> <i_lp_mmshare_version>
43012

> <i_f3d_flags>
0

> <s_epik_input>
W0NIM11jMVtjSF1bY0hdYyhbY0hdbjEpW0NIMl1bQ0gyXVtOSF1DKD1PKU4yW0NIMl1bQ0gyXVNbQ0BIXShbQ0gyXTIpW0NIXShbQ0gzXSlbQ0gzXQ==

> <s_epik_cmdline>
J2VwaWtfcHl0aG9uJywgJy1waCcsICc3LjAnLCAnLXRuJywgJzgnLCAnLW1hJywgJzIwMCcsICctbWV0YWxfYmluZGluZycsICctaW1hZScsICc8aW5maWxlLm1hZT4nLCAnLW9tYWUnLCAnPG91dGZpbGUubWFlPic=

> <r_epik_Ionization_Penalty>
0.0566916

> <r_epik_Ionization_Penalty_Charging>
0

> <r_epik_Ionization_Penalty_Neutral>
0.0566916

> <r_epik_State_Penalty>
0.0488669

> <r_epik_Charging_Adjusted_Penalty>
0.0488669

> <i_epik_Tot_Q>
0

> <i_epik_Tot_abs_Q>
0

> <r_epik_Metal_State_Penalty>
0.0445784

> <b_epik_Metal_Only>
0

> <s_lp_Force_Field>
OPLS_2005

> <r_lp_Energy>
25.5588

> <b_lp_Chiralities_Consistent>
1

> <s_lp_Variant>
AV-unprocessed.smi:772-2

> <Gold.Version>
5.8.1

> <Gold.Id.Protein>
6NUR|6NUR_protein|mol2

> <Gold.PLP.Fitness>
46.9476

> <Gold.PLP.PLP>
-45.5070

> <Gold.PLP.part.hbond>
-0.9820

> <Gold.PLP.part.metal>
0.0000

> <Gold.PLP.part.buried>
-4.5816

> <Gold.PLP.part.nonpolar>
-40.9458

> <Gold.PLP.part.repulsive>
0.0120

> <Gold.PLP.ligand.clash>
0.0000

> <Gold.PLP.ligand.torsion>
0.8234

> <Gold.PLP.Chemscore.Hbond>
1.0000

> <Gold.PLP.Chemscore.CHOScore>
0.0000

> <Gold.PLP.Chemscore.Metal>
0.0000

> <Gold.Chemscore.Hbonds>
donor molecule, donor type, donor heavy atom, donor atom, acceptor molecule, acceptor atom, score
      P1  H  6896  6907       L1    10  1.00

> <Gold.PLP.Chemscore.Internal.Correction>
0.0875

> <Gold.Rescore>
     Score         DG    S(hbond)    S(metal)    S(lipo)     H(rot)  DE(clash)    DE(int)     intcor
     20.15     -21.07       0.99        0.00     134.05       1.32       0.24       0.68       ----

> <Gold.Chemscore.Fitness>
20.1541

> <Gold.Chemscore.DG>
-21.0707

> <Gold.Chemscore.ZeroCoef>
-5.4800

> <Gold.Chemscore.Hbond>
0.9863

> <Gold.Chemscore.Metal>
0.0000

> <Gold.Chemscore.Lipo>
134.0508

> <Gold.Chemscore.Internal_Hbond>
0.0000

> <Gold.Chemscore.DEClash>
0.2371

> <Gold.Chemscore.DEInternal>
0.6796

> <Gold.Chemscore.Rot>
1.3233

> <Gold.Chemscore.Internal.Correction>
   9.000000E+99

> <Gold.Chemscore.Hbonds>
donor molecule, donor type, donor heavy atom, donor atom, acceptor molecule, acceptor atom, score
      P1  H  6896  6907       L1    10  0.99

> <Gold.Chemscore.Hbond.Weighted>
-3.2944

> <Gold.Chemscore.Metal.Weighted>
-0.0000

> <Gold.Chemscore.Lipo.Weighted>
-15.6839

> <Gold.Chemscore.Internal_Hbond.Weighted>
0.0000

> <Gold.Chemscore.DEClash.Weighted>
0.2371

> <Gold.Chemscore.DEInternal.Weighted>
0.6796

> <Gold.Chemscore.Rot.Weighted>
3.3876

> <Gold.Chemscore.Internal.Correction.Weighted>
   9.000000E+99

> <Gold.Protein.RotatedTorsions>
[ 6907 6896 6895 6894 ] final   45.67 input  -60.11 | X-H torsion
[ 7974 7965 7964 7962 ] final   95.57 input  175.53 | X-H torsion
[ 8008 7997 7996 7995 ] final -111.46 input   59.86 | X-H torsion
[ 10167 10162 10161 10158 ] final -151.08 input  -65.29 | X-H torsion
[ 10718 10713 10712 10709 ] final  -75.73 input   66.30 | X-H torsion
[ 10763 10752 10751 10750 ] final  178.44 input  -60.55 | X-H torsion
[ 11005 11000 10999 10996 ] final   29.21 input  -57.11 | X-H torsion

> <Gold.Protein.ActiveResidues>
 VAL166  LYS551  ARG553  GLY616  TRP617  ASP618  TYR619  PRO620  LYS621  CYS622 
 ASP623  PHE694  ASN695  SER759  ASP760  ASP761  ALA762  ILE779  LEU786  VAL792 
 PHE793  MET794  SER795  GLU796  ALA797  LYS798  CYS799  TRP800  GLU811  SER814 

> <Gold.Protein.RotatedAtoms>
  152.2473  134.8168  160.0451 H   0  0  0  0  0  0  0  0  0  0  0  0  # atno 6907 bound_to 6896
  151.8861  133.3500  159.3790 H   0  0  0  0  0  0  0  0  0  0  0  0  # atno 6908 bound_to 6896
  150.7072  134.4897  159.5554 H   0  0  0  0  0  0  0  0  0  0  0  0  # atno 6909 bound_to 6896
  145.4504  139.2294  143.3043 H   0  0  0  0  0  0  0  0  0  0  0  0  # atno 7974 bound_to 7965
  154.9901  140.0395  157.2316 H   0  0  0  0  0  0  0  0  0  0  0  0  # atno 8008 bound_to 7997
  154.7636  140.2789  155.6171 H   0  0  0  0  0  0  0  0  0  0  0  0  # atno 8009 bound_to 7997
  156.2908  140.2623  156.2421 H   0  0  0  0  0  0  0  0  0  0  0  0  # atno 8010 bound_to 7997
  139.7298  143.8826  152.2531 H   0  0  0  0  0  0  0  0  0  0  0  0  # atno 10167 bound_to 10162
  156.0198  130.4448  150.3087 H   0  0  0  0  0  0  0  0  0  0  0  0  # atno 10718 bound_to 10713
  154.5077  135.2787  155.1368 H   0  0  0  0  0  0  0  0  0  0  0  0  # atno 10763 bound_to 10752
  154.2976  135.6254  153.5415 H   0  0  0  0  0  0  0  0  0  0  0  0  # atno 10764 bound_to 10752
  152.9913  135.5689  154.5535 H   0  0  0  0  0  0  0  0  0  0  0  0  # atno 10765 bound_to 10752
  140.3073  134.2689  155.7741 H   0  0  0  0  0  0  0  0  0  0  0  0  # atno 11005 bound_to 11000
  146.2507  140.5262  142.8894 LP  0  0  0  0  0  0  0  0  0  0  0  0  # atno 17320 bound_to 7965
  144.8065  140.6309  143.6443 LP  0  0  0  0  0  0  0  0  0  0  0  0  # atno 17321 bound_to 7965
  139.8746  144.7050  150.8948 LP  0  0  0  0  0  0  0  0  0  0  0  0  # atno 17342 bound_to 10162
  140.7769  143.3710  151.1649 LP  0  0  0  0  0  0  0  0  0  0  0  0  # atno 17343 bound_to 10162
  157.1189  131.0241  151.3017 LP  0  0  0  0  0  0  0  0  0  0  0  0  # atno 17370 bound_to 10713
  157.4644  130.7672  149.7265 LP  0  0  0  0  0  0  0  0  0  0  0  0  # atno 17371 bound_to 10713
  141.2115  133.7685  156.9856 LP  0  0  0  0  0  0  0  0  0  0  0  0  # atno 17394 bound_to 11000
  140.1056  134.9509  157.1988 LP  0  0  0  0  0  0  0  0  0  0  0  0  # atno 17395 bound_to 11000

$$$$
