AV-unprocessed.smi:1718|AV-procd|sdf|6925|dock3
  -GOLD-   22720 8133D 1   1.00000     0.00000
 Structure written by MMmdl.
 40 41  0  0  0  0  0  0  0  0  1 V2000
  150.9641  135.4470  156.0113 C   0  0  0  0  0  0  0  0  0  0  0  0
  149.6574  135.7924  155.2827 C   0  0  1  0  0  0  0  0  0  0  0  0
  150.0065  136.3788  154.0315 O   0  0  0  0  0  0  0  0  0  0  0  0
  150.6146  137.6636  154.1063 C   0  0  0  0  0  0  0  0  0  0  0  0
  149.5899  138.7210  153.6793 C   0  0  1  0  0  0  0  0  0  0  0  0
  148.2277  138.5781  154.3596 C   0  0  0  0  0  0  0  0  0  0  0  0
  147.7206  140.0015  154.3349 C   0  0  0  0  0  0  0  0  0  0  0  0
  148.9994  140.7841  154.6126 C   0  0  0  0  0  0  0  0  0  0  0  0
  150.0519  140.0259  154.0225 O   0  0  0  0  0  0  0  0  0  0  0  0
  148.7976  134.5379  155.0598 C   0  0  0  0  0  0  0  0  0  0  0  0
  148.4430  133.8672  156.0293 O   0  0  0  0  0  0  0  0  0  0  0  0
  148.4935  134.2642  153.7759 N   0  0  0  0  0  0  0  0  0  0  0  0
  147.8013  133.1635  153.2449 C   0  0  0  0  0  0  0  0  0  0  0  0
  146.7534  133.2527  152.3852 C   0  0  0  0  0  0  0  0  0  0  0  0
  146.0636  132.0765  151.8856 C   0  0  0  0  0  0  0  0  0  0  0  0
  144.9093  132.2085  150.9054 C   0  0  0  0  0  0  0  0  0  0  0  0
  144.6289  133.4845  150.6369 F   0  0  0  0  0  0  0  0  0  0  0  0
  145.2098  131.5955  149.7610 F   0  0  0  0  0  0  0  0  0  0  0  0
  143.8150  131.6341  151.4038 F   0  0  0  0  0  0  0  0  0  0  0  0
  146.5102  130.8850  152.3250 C   0  0  0  0  0  0  0  0  0  0  0  0
  147.5784  130.7855  153.2199 N   0  0  0  0  0  0  0  0  0  0  0  0
  148.2558  131.8451  153.7166 C   0  0  0  0  0  0  0  0  0  0  0  0
  149.1839  131.6747  154.5066 O   0  0  0  0  0  0  0  0  0  0  0  0
  147.8505  129.8564  153.5079 H   0  0  0  0  0  0  0  0  0  0  0  0
  150.7680  134.9795  156.9769 H   0  0  0  0  0  0  0  0  0  0  0  0
  151.5522  136.3463  156.1952 H   0  0  0  0  0  0  0  0  0  0  0  0
  151.5819  134.7641  155.4265 H   0  0  0  0  0  0  0  0  0  0  0  0
  149.1097  136.5218  155.8829 H   0  0  0  0  0  0  0  0  0  0  0  0
  150.9726  137.8840  155.1126 H   0  0  0  0  0  0  0  0  0  0  0  0
  151.4775  137.6968  153.4398 H   0  0  0  0  0  0  0  0  0  0  0  0
  149.4588  138.6981  152.5964 H   0  0  0  0  0  0  0  0  0  0  0  0
  147.5677  137.8787  153.8459 H   0  0  0  0  0  0  0  0  0  0  0  0
  148.3436  138.2429  155.3916 H   0  0  0  0  0  0  0  0  0  0  0  0
  147.3355  140.2461  153.3441 H   0  0  0  0  0  0  0  0  0  0  0  0
  146.9348  140.1918  155.0664 H   0  0  0  0  0  0  0  0  0  0  0  0
  148.9639  141.7982  154.2140 H   0  0  0  0  0  0  0  0  0  0  0  0
  149.1787  140.8482  155.6866 H   0  0  0  0  0  0  0  0  0  0  0  0
  148.7758  134.9532  153.0933 H   0  0  0  0  0  0  0  0  0  0  0  0
  146.3802  134.2101  152.0591 H   0  0  0  0  0  0  0  0  0  0  0  0
  146.0961  129.9310  152.0338 H   0  0  0  0  0  0  0  0  0  0  0  0
  1  2  1  0  0  0  0
  1 25  1  0  0  0  0
  1 26  1  0  0  0  0
  1 27  1  0  0  0  0
  2  3  1  0  0  0  0
  2 10  1  0  0  0  0
  2 28  1  0  0  0  0
  3  4  1  0  0  0  0
  4  5  1  0  0  0  0
  4 29  1  0  0  0  0
  4 30  1  0  0  0  0
  5  9  1  0  0  0  0
  5  6  1  0  0  0  0
  5 31  1  0  0  0  0
  6  7  1  0  0  0  0
  6 32  1  0  0  0  0
  6 33  1  0  0  0  0
  7  8  1  0  0  0  0
  7 34  1  0  0  0  0
  7 35  1  0  0  0  0
  8  9  1  0  0  0  0
  8 36  1  0  0  0  0
  8 37  1  0  0  0  0
 10 11  2  0  0  0  0
 10 12  1  0  0  0  0
 12 13  1  0  0  0  0
 12 38  1  0  0  0  0
 13 22  1  0  0  0  0
 13 14  2  0  0  0  0
 14 15  1  0  0  0  0
 14 39  1  0  0  0  0
 15 16  1  0  0  0  0
 15 20  2  0  0  0  0
 16 17  1  0  0  0  0
 16 18  1  0  0  0  0
 16 19  1  0  0  0  0
 20 21  1  0  0  0  0
 20 40  1  0  0  0  0
 21 24  1  0  0  0  0
 21 22  1  0  0  0  0
 22 23  2  0  0  0  0
M  END
> <s_m_source_file>
AV-unprocessed.smi

> <i_m_source_file_index>
1718

> <i_lp_mmshare_version>
43012

> <i_f3d_flags>
0

> <s_epik_input>
TzFbQ0gyXVtDSDJdW0NIMl1bQ0BIXTFbQ0gyXU9bQ0BASF0oW0NIM10pQyg9TylbTkhdYzJbY0hdYyhDKEYpKEYpRilbY0hdW25IXWMyPU8=

> <s_epik_cmdline>
J2VwaWtfcHl0aG9uJywgJy1waCcsICc3LjAnLCAnLXRuJywgJzgnLCAnLW1hJywgJzIwMCcsICctbWV0YWxfYmluZGluZycsICctaW1hZScsICc8aW5maWxlLm1hZT4nLCAnLW9tYWUnLCAnPG91dGZpbGUubWFlPic=

> <r_lp_tautomer_probability>
0.999

> <r_epik_Ionization_Penalty>
0.00894336

> <r_epik_Ionization_Penalty_Charging>
0.00894326

> <r_epik_Ionization_Penalty_Neutral>
1.00145e-07

> <r_epik_State_Penalty>
0.00676626

> <r_epik_Charging_Adjusted_Penalty>
0.0157095

> <i_epik_Tot_Q>
0

> <i_epik_Tot_abs_Q>
0

> <r_epik_Metal_State_Penalty>
0.321145

> <b_epik_Metal_Only>
0

> <s_lp_Force_Field>
OPLS_2005

> <r_lp_Energy>
34.4612

> <b_lp_Chiralities_Consistent>
1

> <s_lp_Variant>
AV-unprocessed.smi:1718-4

> <Gold.Version>
5.8.1

> <Gold.Id.Protein>
6NUR|6NUR_protein|mol2

> <Gold.PLP.Fitness>
43.3825

> <Gold.PLP.PLP>
-39.1393

> <Gold.PLP.part.hbond>
-2.0146

> <Gold.PLP.part.metal>
0.0000

> <Gold.PLP.part.buried>
-4.7679

> <Gold.PLP.part.nonpolar>
-33.5323

> <Gold.PLP.part.repulsive>
2.2467

> <Gold.PLP.ligand.clash>
0.0000

> <Gold.PLP.ligand.torsion>
0.8990

> <Gold.PLP.Chemscore.Hbond>
1.9000

> <Gold.PLP.Chemscore.CHOScore>
0.0000

> <Gold.PLP.Chemscore.Metal>
0.0000

> <Gold.Chemscore.Hbonds>
donor molecule, donor type, donor heavy atom, donor atom, acceptor molecule, acceptor atom, score
      L1  H    12    38       P1  7948  1.00
      P1  H  7989  7998       L1     9  0.93

> <Gold.PLP.Chemscore.Internal.Correction>
0.3411

> <Gold.Rescore>
     Score         DG    S(hbond)    S(metal)    S(lipo)     H(rot)  DE(clash)    DE(int)     intcor
     10.01     -13.98       1.79        0.00      62.68       1.88       0.26       3.71       ----

> <Gold.Chemscore.Fitness>
10.0058

> <Gold.Chemscore.DG>
-13.9809

> <Gold.Chemscore.ZeroCoef>
-5.4800

> <Gold.Chemscore.Hbond>
1.7897

> <Gold.Chemscore.Metal>
0.0000

> <Gold.Chemscore.Lipo>
62.6796

> <Gold.Chemscore.Internal_Hbond>
0.0000

> <Gold.Chemscore.DEClash>
0.2635

> <Gold.Chemscore.DEInternal>
3.7116

> <Gold.Chemscore.Rot>
1.8790

> <Gold.Chemscore.Internal.Correction>
   9.000000E+99

> <Gold.Chemscore.Hbonds>
donor molecule, donor type, donor heavy atom, donor atom, acceptor molecule, acceptor atom, score
      L1  H    12    38       P1  7948  0.35
      P1  H  7989  7998       L1     9  0.87

> <Gold.Chemscore.Hbond.Weighted>
-5.9776

> <Gold.Chemscore.Metal.Weighted>
-0.0000

> <Gold.Chemscore.Lipo.Weighted>
-7.3335

> <Gold.Chemscore.Internal_Hbond.Weighted>
0.0000

> <Gold.Chemscore.DEClash.Weighted>
0.2635

> <Gold.Chemscore.DEInternal.Weighted>
3.7116

> <Gold.Chemscore.Rot.Weighted>
4.8102

> <Gold.Chemscore.Internal.Correction.Weighted>
   9.000000E+99

> <Gold.Protein.RotatedTorsions>
[ 6907 6896 6895 6894 ] final  122.88 input  -60.11 | X-H torsion
[ 7974 7965 7964 7962 ] final    8.00 input  175.53 | X-H torsion
[ 8008 7997 7996 7995 ] final   52.82 input   59.86 | X-H torsion
[ 10167 10162 10161 10158 ] final   73.52 input  -65.29 | X-H torsion
[ 10718 10713 10712 10709 ] final  156.19 input   66.30 | X-H torsion
[ 10763 10752 10751 10750 ] final  146.79 input  -60.55 | X-H torsion
[ 11005 11000 10999 10996 ] final  -41.81 input  -57.11 | X-H torsion

> <Gold.Protein.ActiveResidues>
 VAL166  LYS551  ARG553  GLY616  TRP617  ASP618  TYR619  PRO620  LYS621  CYS622 
 ASP623  PHE694  ASN695  SER759  ASP760  ASP761  ALA762  ILE779  LEU786  VAL792 
 PHE793  MET794  SER795  GLU796  ALA797  LYS798  CYS799  TRP800  GLU811  SER814 

> <Gold.Protein.RotatedAtoms>
  152.4207  133.7111  159.6479 H   0  0  0  0  0  0  0  0  0  0  0  0  # atno 6907 bound_to 6896
  150.8083  133.8458  159.3200 H   0  0  0  0  0  0  0  0  0  0  0  0  # atno 6908 bound_to 6896
  151.6176  135.1037  160.0146 H   0  0  0  0  0  0  0  0  0  0  0  0  # atno 6909 bound_to 6896
  146.2421  139.9998  142.8417 H   0  0  0  0  0  0  0  0  0  0  0  0  # atno 7974 bound_to 7965
  155.4581  140.3461  155.4309 H   0  0  0  0  0  0  0  0  0  0  0  0  # atno 8008 bound_to 7997
  156.1178  140.1478  156.9277 H   0  0  0  0  0  0  0  0  0  0  0  0  # atno 8009 bound_to 7997
  154.4801  140.0872  156.7337 H   0  0  0  0  0  0  0  0  0  0  0  0  # atno 8010 bound_to 7997
  140.0236  144.5521  150.7562 H   0  0  0  0  0  0  0  0  0  0  0  0  # atno 10167 bound_to 10162
  157.2083  131.0692  151.1984 H   0  0  0  0  0  0  0  0  0  0  0  0  # atno 10718 bound_to 10713
  154.0277  135.2900  155.3372 H   0  0  0  0  0  0  0  0  0  0  0  0  # atno 10763 bound_to 10752
  154.7007  135.5189  153.8526 H   0  0  0  0  0  0  0  0  0  0  0  0  # atno 10764 bound_to 10752
  153.0653  135.6629  154.0493 H   0  0  0  0  0  0  0  0  0  0  0  0  # atno 10765 bound_to 10752
  141.0272  133.6836  156.2509 H   0  0  0  0  0  0  0  0  0  0  0  0  # atno 11005 bound_to 11000
  145.1425  140.9579  143.4480 LP  0  0  0  0  0  0  0  0  0  0  0  0  # atno 17320 bound_to 7965
  145.0282  139.3364  143.6038 LP  0  0  0  0  0  0  0  0  0  0  0  0  # atno 17321 bound_to 7965
  140.7332  143.2714  151.3876 LP  0  0  0  0  0  0  0  0  0  0  0  0  # atno 17342 bound_to 10162
  139.6123  144.1073  152.2311 LP  0  0  0  0  0  0  0  0  0  0  0  0  # atno 17343 bound_to 10162
  157.3697  130.7175  149.6557 LP  0  0  0  0  0  0  0  0  0  0  0  0  # atno 17370 bound_to 10713
  155.9693  130.4202  150.4412 LP  0  0  0  0  0  0  0  0  0  0  0  0  # atno 17371 bound_to 10713
  140.6470  134.5106  157.5574 LP  0  0  0  0  0  0  0  0  0  0  0  0  # atno 17394 bound_to 11000
  139.9184  134.8199  156.1291 LP  0  0  0  0  0  0  0  0  0  0  0  0  # atno 17395 bound_to 11000

$$$$
