AV-unprocessed.smi:845|AV-procd|sdf|3934|dock4
  -GOLD-   22720 1393D 1   1.00000     0.00000
 Structure written by MMmdl.
 41 42  0  0  0  0  0  0  0  0  2 V2000
  147.0806  140.1187  153.2103 C   0  0  0  0  0  0  0  0  0  0  0  0
  147.0801  138.7853  153.9877 C   0  0  0  0  0  0  0  0  0  0  0  0
  145.7351  138.0528  153.8372 C   0  0  0  0  0  0  0  0  0  0  0  0
  147.5757  138.8360  155.4697 C   0  0  1  0  0  0  0  0  0  0  0  0
  147.1120  137.6249  156.3220 C   0  0  0  0  0  0  0  0  0  0  0  0
  147.3631  137.8392  157.7425 N   0  0  0  0  0  0  0  0  0  0  0  0
  146.8380  137.1145  158.7386 C   0  0  0  0  0  0  0  0  0  0  0  0
  146.0750  136.1801  158.4817 O   0  0  0  0  0  0  0  0  0  0  0  0
  147.2302  137.5167  159.9689 N   0  5  0  0  0  0  0  0  0  0  0  0
  147.3285  136.6250  160.9683 C   0  0  0  0  0  0  0  0  0  0  0  0
  147.6555  136.9665  162.2200 N   0  0  0  0  0  0  0  0  0  0  0  0
  147.6897  135.8835  163.1004 C   0  0  0  0  0  0  0  0  0  0  0  0
  147.3730  134.6904  162.5069 C   0  0  0  0  0  0  0  0  0  0  0  0
  147.0214  134.8927  160.8141 S   0  0  0  0  0  0  0  0  0  0  0  0
  148.9948  139.2089  155.6412 N   0  0  0  0  0  0  0  0  0  0  0  0
  149.8964  138.4588  154.7687 C   0  0  0  0  0  0  0  0  0  0  0  0
  151.3716  138.7675  155.0730 C   0  0  0  0  0  0  0  0  0  0  0  0
  151.5978  140.1675  154.9469 O   0  0  0  0  0  0  0  0  0  0  0  0
  150.7711  140.9361  155.8147 C   0  0  0  0  0  0  0  0  0  0  0  0
  149.2882  140.6362  155.5320 C   0  0  0  0  0  0  0  0  0  0  0  0
  146.3273  140.8187  153.5626 H   0  0  0  0  0  0  0  0  0  0  0  0
  146.8675  139.9388  152.1563 H   0  0  0  0  0  0  0  0  0  0  0  0
  148.0482  140.6183  153.2485 H   0  0  0  0  0  0  0  0  0  0  0  0
  147.8029  138.1601  153.4616 H   0  0  0  0  0  0  0  0  0  0  0  0
  144.9154  138.6259  154.2717 H   0  0  0  0  0  0  0  0  0  0  0  0
  145.7605  137.0796  154.3281 H   0  0  0  0  0  0  0  0  0  0  0  0
  145.4959  137.8843  152.7871 H   0  0  0  0  0  0  0  0  0  0  0  0
  147.0168  139.6799  155.8778 H   0  0  0  0  0  0  0  0  0  0  0  0
  146.0501  137.4278  156.1700 H   0  0  0  0  0  0  0  0  0  0  0  0
  147.6417  136.7185  156.0302 H   0  0  0  0  0  0  0  0  0  0  0  0
  147.9822  138.5967  157.9912 H   0  0  0  0  0  0  0  0  0  0  0  0
  147.9476  136.0545  164.1348 H   0  0  0  0  0  0  0  0  0  0  0  0
  147.3238  133.7110  162.9586 H   0  0  0  0  0  0  0  0  0  0  0  0
  149.7229  137.3885  154.8845 H   0  0  0  0  0  0  0  0  0  0  0  0
  149.7011  138.6986  153.7237 H   0  0  0  0  0  0  0  0  0  0  0  0
  151.6368  138.4361  156.0782 H   0  0  0  0  0  0  0  0  0  0  0  0
  152.0219  138.2367  154.3778 H   0  0  0  0  0  0  0  0  0  0  0  0
  151.0171  140.7095  156.8534 H   0  0  0  0  0  0  0  0  0  0  0  0
  150.9795  141.9948  155.6603 H   0  0  0  0  0  0  0  0  0  0  0  0
  149.0338  140.9979  154.5352 H   0  0  0  0  0  0  0  0  0  0  0  0
  148.6927  141.2040  156.2395 H   0  0  0  0  0  0  0  0  0  0  0  0
  1  2  1  0  0  0  0
  1 21  1  0  0  0  0
  1 22  1  0  0  0  0
  1 23  1  0  0  0  0
  2  3  1  0  0  0  0
  2  4  1  0  0  0  0
  2 24  1  0  0  0  0
  3 25  1  0  0  0  0
  3 26  1  0  0  0  0
  3 27  1  0  0  0  0
  4  5  1  0  0  0  0
  4 15  1  0  0  0  0
  4 28  1  0  0  0  0
  5  6  1  0  0  0  0
  5 29  1  0  0  0  0
  5 30  1  0  0  0  0
  6  7  1  0  0  0  0
  6 31  1  0  0  0  0
  7  8  2  0  0  0  0
  7  9  1  0  0  0  0
  9 10  1  0  0  0  0
 10 14  1  0  0  0  0
 10 11  2  0  0  0  0
 11 12  1  0  0  0  0
 12 13  2  0  0  0  0
 12 32  1  0  0  0  0
 13 14  1  0  0  0  0
 13 33  1  0  0  0  0
 15 20  1  0  0  0  0
 15 16  1  0  0  0  0
 16 17  1  0  0  0  0
 16 34  1  0  0  0  0
 16 35  1  0  0  0  0
 17 18  1  0  0  0  0
 17 36  1  0  0  0  0
 17 37  1  0  0  0  0
 18 19  1  0  0  0  0
 19 20  1  0  0  0  0
 19 38  1  0  0  0  0
 19 39  1  0  0  0  0
 20 40  1  0  0  0  0
 20 41  1  0  0  0  0
M  CHG  1   9  -1
M  END
> <s_m_source_file>
AV-unprocessed.smi

> <i_m_source_file_index>
845

> <i_lp_mmshare_version>
43012

> <i_f3d_flags>
0

> <s_epik_input>
W0NIMl0xW0NIMl1PW0NIMl1bQ0gyXU4xW0NASF0oW0NIXShbQ0gzXSlbQ0gzXSlbQ0gyXVtOSF1DKD1PKVtOSF1jMm5bY0hdW2NIXXMy

> <s_epik_cmdline>
J2VwaWtfcHl0aG9uJywgJy1waCcsICc3LjAnLCAnLXRuJywgJzgnLCAnLW1hJywgJzIwMCcsICctbWV0YWxfYmluZGluZycsICctaW1hZScsICc8aW5maWxlLm1hZT4nLCAnLW9tYWUnLCAnPG91dGZpbGUubWFlPic=

> <r_lp_tautomer_probability>
0.999

> <r_epik_Ionization_Penalty>
9.02543

> <r_epik_Ionization_Penalty_Charging>
6.76546

> <r_epik_Ionization_Penalty_Neutral>
2.25997

> <r_epik_State_Penalty>
7.18984

> <r_epik_Charging_Adjusted_Penalty>
13.9553

> <i_epik_Tot_Q>
-1

> <i_epik_Tot_abs_Q>
1

> <r_epik_Metal_State_Penalty>
3.11401

> <b_epik_Metal_Only>
1

> <s_lp_Force_Field>
OPLS_2005

> <r_lp_Energy>
34.4261

> <b_lp_Chiralities_Consistent>
1

> <s_lp_Variant>
AV-unprocessed.smi:845-8

> <Gold.Version>
5.8.1

> <Gold.Id.Protein>
6NUR|6NUR_protein|mol2

> <Gold.PLP.Fitness>
40.8213

> <Gold.PLP.PLP>
-30.5334

> <Gold.PLP.part.hbond>
-3.3519

> <Gold.PLP.part.metal>
0.0000

> <Gold.PLP.part.buried>
-4.7378

> <Gold.PLP.part.nonpolar>
-23.0266

> <Gold.PLP.part.repulsive>
0.1338

> <Gold.PLP.ligand.clash>
0.0000

> <Gold.PLP.ligand.torsion>
1.1438

> <Gold.PLP.Chemscore.Hbond>
3.9760

> <Gold.PLP.Chemscore.CHOScore>
0.0000

> <Gold.PLP.Chemscore.Metal>
0.0000

> <Gold.Chemscore.Hbonds>
donor molecule, donor type, donor heavy atom, donor atom, acceptor molecule, acceptor atom, score
      P1  H  6931  6943       L1    11  1.00
      P1  H  6934  6947       L1     9  1.98
      P1  H  7989  7998       L1    18  1.00

> <Gold.PLP.Chemscore.Internal.Correction>
0.6475

> <Gold.Rescore>
     Score         DG    S(hbond)    S(metal)    S(lipo)     H(rot)  DE(clash)    DE(int)     intcor
     12.47     -15.22       1.90        0.00      66.30       1.71       0.00       2.75       ----

> <Gold.Chemscore.Fitness>
12.4696

> <Gold.Chemscore.DG>
-15.2230

> <Gold.Chemscore.ZeroCoef>
-5.4800

> <Gold.Chemscore.Hbond>
1.9038

> <Gold.Chemscore.Metal>
0.0000

> <Gold.Chemscore.Lipo>
66.2988

> <Gold.Chemscore.Internal_Hbond>
0.0000

> <Gold.Chemscore.DEClash>
0.0004

> <Gold.Chemscore.DEInternal>
2.7530

> <Gold.Chemscore.Rot>
1.7081

> <Gold.Chemscore.Internal.Correction>
   9.000000E+99

> <Gold.Chemscore.Hbonds>
donor molecule, donor type, donor heavy atom, donor atom, acceptor molecule, acceptor atom, score
      P1  H  6931  6943       L1    11  0.33
      P1  H  6934  6947       L1     9  0.24
      P1  H  7989  7998       L1    18  0.65

> <Gold.Chemscore.Hbond.Weighted>
-6.3588

> <Gold.Chemscore.Metal.Weighted>
-0.0000

> <Gold.Chemscore.Lipo.Weighted>
-7.7570

> <Gold.Chemscore.Internal_Hbond.Weighted>
0.0000

> <Gold.Chemscore.DEClash.Weighted>
0.0004

> <Gold.Chemscore.DEInternal.Weighted>
2.7530

> <Gold.Chemscore.Rot.Weighted>
4.3728

> <Gold.Chemscore.Internal.Correction.Weighted>
   9.000000E+99

> <Gold.Protein.RotatedTorsions>
[ 6907 6896 6895 6894 ] final -133.70 input  -60.11 | X-H torsion
[ 7974 7965 7964 7962 ] final  104.35 input  175.53 | X-H torsion
[ 8008 7997 7996 7995 ] final  102.22 input   59.86 | X-H torsion
[ 10167 10162 10161 10158 ] final  128.00 input  -65.29 | X-H torsion
[ 10718 10713 10712 10709 ] final  120.93 input   66.30 | X-H torsion
[ 10763 10752 10751 10750 ] final -102.59 input  -60.55 | X-H torsion
[ 11005 11000 10999 10996 ] final   54.01 input  -57.11 | X-H torsion

> <Gold.Protein.ActiveResidues>
 VAL166  LYS551  ARG553  GLY616  TRP617  ASP618  TYR619  PRO620  LYS621  CYS622 
 ASP623  PHE694  ASN695  SER759  ASP760  ASP761  ALA762  ILE779  LEU786  VAL792 
 PHE793  MET794  SER795  GLU796  ALA797  LYS798  CYS799  TRP800  GLU811  SER814 

> <Gold.Protein.RotatedAtoms>
  150.9771  133.6283  159.2728 H   0  0  0  0  0  0  0  0  0  0  0  0  # atno 6907 bound_to 6896
  151.3552  135.0891  159.9426 H   0  0  0  0  0  0  0  0  0  0  0  0  # atno 6908 bound_to 6896
  152.5203  133.9356  159.7656 H   0  0  0  0  0  0  0  0  0  0  0  0  # atno 6909 bound_to 6896
  145.3339  139.2479  143.3646 H   0  0  0  0  0  0  0  0  0  0  0  0  # atno 7974 bound_to 7965
  156.1373  140.3185  155.8440 H   0  0  0  0  0  0  0  0  0  0  0  0  # atno 8008 bound_to 7997
  155.4220  140.0513  157.3042 H   0  0  0  0  0  0  0  0  0  0  0  0  # atno 8009 bound_to 7997
  154.4947  140.2106  155.9485 H   0  0  0  0  0  0  0  0  0  0  0  0  # atno 8010 bound_to 7997
  139.5549  144.6841  151.4212 H   0  0  0  0  0  0  0  0  0  0  0  0  # atno 10167 bound_to 10162
  157.5855  131.1070  150.8104 H   0  0  0  0  0  0  0  0  0  0  0  0  # atno 10718 bound_to 10713
  154.7745  135.4855  153.9715 H   0  0  0  0  0  0  0  0  0  0  0  0  # atno 10763 bound_to 10752
  153.1410  135.6772  153.9034 H   0  0  0  0  0  0  0  0  0  0  0  0  # atno 10764 bound_to 10752
  153.8709  135.3144  155.3420 H   0  0  0  0  0  0  0  0  0  0  0  0  # atno 10765 bound_to 10752
  140.0721  134.5456  155.9036 H   0  0  0  0  0  0  0  0  0  0  0  0  # atno 11005 bound_to 11000
  146.3034  140.3923  142.8696 LP  0  0  0  0  0  0  0  0  0  0  0  0  # atno 17320 bound_to 7965
  144.8842  140.7440  143.5967 LP  0  0  0  0  0  0  0  0  0  0  0  0  # atno 17321 bound_to 7965
  140.6820  143.8060  150.7134 LP  0  0  0  0  0  0  0  0  0  0  0  0  # atno 17342 bound_to 10162
  140.1517  143.4352  152.2127 LP  0  0  0  0  0  0  0  0  0  0  0  0  # atno 17343 bound_to 10162
  156.8539  130.5090  149.5309 LP  0  0  0  0  0  0  0  0  0  0  0  0  # atno 17370 bound_to 10713
  156.0903  130.5891  150.9721 LP  0  0  0  0  0  0  0  0  0  0  0  0  # atno 17371 bound_to 10713
  141.2015  133.6619  156.5957 LP  0  0  0  0  0  0  0  0  0  0  0  0  # atno 17394 bound_to 11000
  140.3612  134.7686  157.4535 LP  0  0  0  0  0  0  0  0  0  0  0  0  # atno 17395 bound_to 11000

$$$$
