AV-unprocessed.smi:1648|AV-procd|sdf|6628|dock10
  -GOLD-   22720 7323D 1   1.00000     0.00000
 Structure written by MMmdl.
 42 42  0  0  0  0  0  0  0  0  2 V2000
  150.4132  134.9009  156.1690 C   0  0  0  0  0  0  0  0  0  0  0  0
  149.9702  133.4604  156.4326 C   0  0  0  0  0  0  0  0  0  0  0  0
  150.0498  133.0031  157.5703 O   0  0  0  0  0  0  0  0  0  0  0  0
  149.4986  132.7188  155.4151 N   0  0  0  0  0  0  0  0  0  0  0  0
  149.0284  131.3309  155.4633 C   0  0  1  0  0  0  0  0  0  0  0  0
  147.6565  131.2492  154.7642 C   0  0  0  0  0  0  0  0  0  0  0  0
  146.6859  130.7598  155.3440 O   0  0  0  0  0  0  0  0  0  0  0  0
  147.5958  131.7417  153.5167 N   0  0  0  0  0  0  0  0  0  0  0  0
  146.4317  131.7050  152.6328 C   0  0  2  0  0  0  0  0  0  0  0  0
  146.0329  130.2390  152.4158 C   0  0  0  0  0  0  0  0  0  0  0  0
  146.7152  132.4092  151.2871 C   0  0  0  0  0  0  0  0  0  0  0  0
  145.6996  133.4054  150.9259 N   0  0  0  0  0  0  0  0  0  0  0  0
  145.8722  134.7609  150.8023 C   0  0  0  0  0  0  0  0  0  0  0  0
  144.6518  135.2815  150.4577 C   0  0  0  0  0  0  0  0  0  0  0  0
  143.7823  134.2258  150.4017 N   0  3  0  0  0  0  0  0  0  0  0  0
  144.4188  133.0877  150.6968 C   0  0  0  0  0  0  0  0  0  0  0  0
  150.0559  130.4246  154.7223 C   0  0  0  0  0  0  0  0  0  0  0  0
  149.4868  129.0331  154.3784 C   0  0  0  0  0  0  0  0  0  0  0  0
  151.3587  130.2428  155.5271 C   0  0  0  0  0  0  0  0  0  0  0  0
  151.2171  134.9333  155.4336 H   0  0  0  0  0  0  0  0  0  0  0  0
  150.7819  135.3613  157.0863 H   0  0  0  0  0  0  0  0  0  0  0  0
  149.5793  135.5016  155.8060 H   0  0  0  0  0  0  0  0  0  0  0  0
  149.4468  133.1690  154.5128 H   0  0  0  0  0  0  0  0  0  0  0  0
  148.9437  131.0002  156.5001 H   0  0  0  0  0  0  0  0  0  0  0  0
  148.4427  132.1319  153.1284 H   0  0  0  0  0  0  0  0  0  0  0  0
  145.5881  132.1938  153.1238 H   0  0  0  0  0  0  0  0  0  0  0  0
  145.1410  130.1619  151.7934 H   0  0  0  0  0  0  0  0  0  0  0  0
  145.8133  129.7464  153.3640 H   0  0  0  0  0  0  0  0  0  0  0  0
  146.8295  129.6778  151.9255 H   0  0  0  0  0  0  0  0  0  0  0  0
  147.6955  132.8888  151.2988 H   0  0  0  0  0  0  0  0  0  0  0  0
  146.7327  131.6781  150.4778 H   0  0  0  0  0  0  0  0  0  0  0  0
  146.8280  135.2410  150.9550 H   0  0  0  0  0  0  0  0  0  0  0  0
  144.3444  136.2975  150.2571 H   0  0  0  0  0  0  0  0  0  0  0  0
  143.9821  132.1057  150.7356 H   0  0  0  0  0  0  0  0  0  0  0  0
  150.3280  130.9066  153.7814 H   0  0  0  0  0  0  0  0  0  0  0  0
  149.1700  128.5044  155.2779 H   0  0  0  0  0  0  0  0  0  0  0  0
  150.2345  128.4163  153.8791 H   0  0  0  0  0  0  0  0  0  0  0  0
  148.6302  129.0920  153.7096 H   0  0  0  0  0  0  0  0  0  0  0  0
  151.1607  129.7999  156.5037 H   0  0  0  0  0  0  0  0  0  0  0  0
  151.8770  131.1877  155.6893 H   0  0  0  0  0  0  0  0  0  0  0  0
  152.0558  129.5884  155.0030 H   0  0  0  0  0  0  0  0  0  0  0  0
  142.7984  134.2946  150.1735 H   0  0  0  0  0  0  0  0  0  0  0  0
  1  2  1  0  0  0  0
  1 20  1  0  0  0  0
  1 21  1  0  0  0  0
  1 22  1  0  0  0  0
  2  3  2  0  0  0  0
  2  4  1  0  0  0  0
  4  5  1  0  0  0  0
  4 23  1  0  0  0  0
  5  6  1  0  0  0  0
  5 17  1  0  0  0  0
  5 24  1  0  0  0  0
  6  7  2  0  0  0  0
  6  8  1  0  0  0  0
  8  9  1  0  0  0  0
  8 25  1  0  0  0  0
  9 10  1  0  0  0  0
  9 11  1  0  0  0  0
  9 26  1  0  0  0  0
 10 27  1  0  0  0  0
 10 28  1  0  0  0  0
 10 29  1  0  0  0  0
 11 12  1  0  0  0  0
 11 30  1  0  0  0  0
 11 31  1  0  0  0  0
 12 16  1  0  0  0  0
 12 13  1  0  0  0  0
 13 14  2  0  0  0  0
 13 32  1  0  0  0  0
 14 15  1  0  0  0  0
 14 33  1  0  0  0  0
 15 16  2  0  0  0  0
 15 42  1  0  0  0  0
 16 34  1  0  0  0  0
 17 18  1  0  0  0  0
 17 19  1  0  0  0  0
 17 35  1  0  0  0  0
 18 36  1  0  0  0  0
 18 37  1  0  0  0  0
 18 38  1  0  0  0  0
 19 39  1  0  0  0  0
 19 40  1  0  0  0  0
 19 41  1  0  0  0  0
M  CHG  1  15   1
M  END
> <s_m_source_file>
AV-unprocessed.smi

> <i_m_source_file_index>
1648

> <i_lp_mmshare_version>
43012

> <i_f3d_flags>
0

> <s_epik_input>
W0NIM11DKD1PKVtOSF1bQ0BASF0oW0NIXShbQ0gzXSlbQ0gzXSlDKD1PKVtOSF1bQ0BIXShbQ0gzXSlbQ0gyXW4xW2NIXVtjSF1uW2NIXTE=

> <s_epik_cmdline>
J2VwaWtfcHl0aG9uJywgJy1waCcsICc3LjAnLCAnLXRuJywgJzgnLCAnLW1hJywgJzIwMCcsICctbWV0YWxfYmluZGluZycsICctaW1hZScsICc8aW5maWxlLm1hZT4nLCAnLW9tYWUnLCAnPG91dGZpbGUubWFlPic=

> <r_lp_tautomer_probability>
1

> <r_epik_Ionization_Penalty>
0.251562

> <r_epik_Ionization_Penalty_Charging>
0

> <r_epik_Ionization_Penalty_Neutral>
0.251562

> <r_epik_State_Penalty>
0.242926

> <r_epik_Charging_Adjusted_Penalty>
0.242926

> <i_epik_Tot_Q>
1

> <i_epik_Tot_abs_Q>
1

> <r_epik_Metal_State_Penalty>
0.53388

> <b_epik_Metal_Only>
0

> <s_lp_Force_Field>
OPLS_2005

> <r_lp_Energy>
11.0591

> <b_lp_Chiralities_Consistent>
1

> <s_lp_Variant>
AV-unprocessed.smi:1648-2

> <Gold.Version>
5.8.1

> <Gold.Id.Protein>
6NUR|6NUR_protein|mol2

> <Gold.PLP.Fitness>
40.3029

> <Gold.PLP.PLP>
-30.3456

> <Gold.PLP.part.hbond>
-2.0000

> <Gold.PLP.part.metal>
0.0000

> <Gold.PLP.part.buried>
-4.4669

> <Gold.PLP.part.nonpolar>
-24.0385

> <Gold.PLP.part.repulsive>
0.0925

> <Gold.PLP.ligand.clash>
0.0000

> <Gold.PLP.ligand.torsion>
1.0736

> <Gold.PLP.Chemscore.Hbond>
3.0000

> <Gold.PLP.Chemscore.CHOScore>
1.0000

> <Gold.PLP.Chemscore.Metal>
0.0000

> <Gold.Chemscore.Hbonds>
donor molecule, donor type, donor heavy atom, donor atom, acceptor molecule, acceptor atom, score
      L1  H    15    42       P1 10186  2.00
      P1  H  6896  6909       L1     3  1.00
      L1  C    13    32       P1  7948  1.00

> <Gold.PLP.Chemscore.Internal.Correction>
0.1047

> <Gold.Rescore>
     Score         DG    S(hbond)    S(metal)    S(lipo)     H(rot)  DE(clash)    DE(int)     intcor
     10.79     -11.93       1.97        0.00      56.08       2.61       0.04       1.11       ----

> <Gold.Chemscore.Fitness>
10.7861

> <Gold.Chemscore.DG>
-11.9293

> <Gold.Chemscore.ZeroCoef>
-5.4800

> <Gold.Chemscore.Hbond>
1.9697

> <Gold.Chemscore.Metal>
0.0000

> <Gold.Chemscore.Lipo>
56.0774

> <Gold.Chemscore.Internal_Hbond>
0.0000

> <Gold.Chemscore.DEClash>
0.0354

> <Gold.Chemscore.DEInternal>
1.1078

> <Gold.Chemscore.Rot>
2.6135

> <Gold.Chemscore.Internal.Correction>
   9.000000E+99

> <Gold.Chemscore.Hbonds>
donor molecule, donor type, donor heavy atom, donor atom, acceptor molecule, acceptor atom, score
      L1  H    15    42       P1 10186  0.88
      P1  H  6896  6909       L1     3  0.97

> <Gold.Chemscore.Hbond.Weighted>
-6.5789

> <Gold.Chemscore.Metal.Weighted>
-0.0000

> <Gold.Chemscore.Lipo.Weighted>
-6.5611

> <Gold.Chemscore.Internal_Hbond.Weighted>
0.0000

> <Gold.Chemscore.DEClash.Weighted>
0.0354

> <Gold.Chemscore.DEInternal.Weighted>
1.1078

> <Gold.Chemscore.Rot.Weighted>
6.6906

> <Gold.Chemscore.Internal.Correction.Weighted>
   9.000000E+99

> <Gold.Protein.RotatedTorsions>
[ 6907 6896 6895 6894 ] final  -23.08 input  -60.11 | X-H torsion
[ 7974 7965 7964 7962 ] final  130.78 input  175.53 | X-H torsion
[ 8008 7997 7996 7995 ] final   98.00 input   59.86 | X-H torsion
[ 10167 10162 10161 10158 ] final  116.32 input  -65.29 | X-H torsion
[ 10718 10713 10712 10709 ] final   16.06 input   66.30 | X-H torsion
[ 10763 10752 10751 10750 ] final  159.25 input  -60.55 | X-H torsion
[ 11005 11000 10999 10996 ] final  -36.53 input  -57.11 | X-H torsion

> <Gold.Protein.ActiveResidues>
 VAL166  LYS551  ARG553  GLY616  TRP617  ASP618  TYR619  PRO620  LYS621  CYS622 
 ASP623  PHE694  ASN695  SER759  ASP760  ASP761  ALA762  ILE779  LEU786  VAL792 
 PHE793  MET794  SER795  GLU796  ALA797  LYS798  CYS799  TRP800  GLU811  SER814 

> <Gold.Protein.RotatedAtoms>
  151.2092  135.0474  159.8903 H   0  0  0  0  0  0  0  0  0  0  0  0  # atno 6907 bound_to 6896
  152.5426  134.0764  159.8226 H   0  0  0  0  0  0  0  0  0  0  0  0  # atno 6908 bound_to 6896
  151.0915  133.5265  159.2646 H   0  0  0  0  0  0  0  0  0  0  0  0  # atno 6909 bound_to 6896
  145.0143  139.4191  143.5229 H   0  0  0  0  0  0  0  0  0  0  0  0  # atno 7974 bound_to 7965
  156.0959  140.3250  155.7877 H   0  0  0  0  0  0  0  0  0  0  0  0  # atno 8008 bound_to 7997
  155.4918  140.0562  157.2969 H   0  0  0  0  0  0  0  0  0  0  0  0  # atno 8009 bound_to 7997
  154.4666  140.1992  156.0117 H   0  0  0  0  0  0  0  0  0  0  0  0  # atno 8010 bound_to 7997
  139.6255  144.7108  151.2542 H   0  0  0  0  0  0  0  0  0  0  0  0  # atno 10167 bound_to 10162
  157.0624  130.6314  149.5789 H   0  0  0  0  0  0  0  0  0  0  0  0  # atno 10718 bound_to 10713
  154.2288  135.2779  155.2897 H   0  0  0  0  0  0  0  0  0  0  0  0  # atno 10763 bound_to 10752
  154.5641  135.5638  153.7038 H   0  0  0  0  0  0  0  0  0  0  0  0  # atno 10764 bound_to 10752
  153.0025  135.6305  154.2429 H   0  0  0  0  0  0  0  0  0  0  0  0  # atno 10765 bound_to 10752
  140.9882  133.7019  156.1803 H   0  0  0  0  0  0  0  0  0  0  0  0  # atno 11005 bound_to 11000
  146.3475  139.9605  142.8718 LP  0  0  0  0  0  0  0  0  0  0  0  0  # atno 17320 bound_to 7965
  145.1981  140.9842  143.4172 LP  0  0  0  0  0  0  0  0  0  0  0  0  # atno 17321 bound_to 7965
  140.7408  143.6575  150.8193 LP  0  0  0  0  0  0  0  0  0  0  0  0  # atno 17342 bound_to 10162
  140.0192  143.5560  152.2807 LP  0  0  0  0  0  0  0  0  0  0  0  0  # atno 17343 bound_to 10162
  155.9974  130.5046  150.7534 LP  0  0  0  0  0  0  0  0  0  0  0  0  # atno 17370 bound_to 10713
  157.4944  131.0913  151.0389 LP  0  0  0  0  0  0  0  0  0  0  0  0  # atno 17371 bound_to 10713
  140.7081  134.4491  157.5583 LP  0  0  0  0  0  0  0  0  0  0  0  0  # atno 17394 bound_to 11000
  139.8980  134.8624  156.2020 LP  0  0  0  0  0  0  0  0  0  0  0  0  # atno 17395 bound_to 11000

$$$$
