#       Name:                AV-unprocessed.smi:3122
#       Creating user name   scv26
#       Creation time:       Fri Mar 27 17:28:22 2020


#       File generated by GOLD software.
#

@<TRIPOS>MOLECULE
AV-unprocessed.smi:3122
    36    37     1
SMALL
NO_CHARGES


@<TRIPOS>ATOM
      1 ****        -3.7033  -1.6619   1.7798 C.3            1 S1                 0.0000
      2 ****        -3.1892  -1.2014   0.4076 C.3            1 S1                 0.0000
      3 ****        -3.7470  -2.0564  -0.7386 C.3            1 S1                 0.0000
      4 ****        -1.6948  -1.1340   0.3639 C.2            1 S1                 0.0000
      5 ****        -0.8268  -2.0925   0.7005 N.2            1 S1                 0.0000
      6 ****         0.4211  -1.5897   0.4115 N.2            1 S1                 0.0000
      7 ****         0.2123  -0.3865  -0.1297 C.2            1 S1                 0.0000
      8 ****         1.2374   0.6088  -0.5696 C.3            1 S1                 0.0000
      9 ****         1.6160   1.5912   0.5548 C.3            1 S1                 0.0000
     10 ****         2.6990   2.4857   0.1016 N.4            1 S1                 1.0000
     11 ****         3.8619   1.7202  -0.3897 C.3            1 S1                 0.0000
     12 ****         3.4202   0.7276  -1.4795 C.3            1 S1                 0.0000
     13 ****         2.3956  -0.1200  -0.9706 O.3            1 S1                 0.0000
     14 ****        -1.1004  -0.0416  -0.1838 O.3            1 S1                 0.0000
     15 ****        -3.3440  -1.0061   2.5734 H              1 S1                 0.0000
     16 ****        -3.3722  -2.6753   2.0093 H              1 S1                 0.0000
     17 ****        -4.7931  -1.6538   1.8138 H              1 S1                 0.0000
     18 ****        -3.5564  -0.1853   0.2574 H              1 S1                 0.0000
     19 ****        -3.4300  -1.6685  -1.7071 H              1 S1                 0.0000
     20 ****        -4.8371  -2.0659  -0.7280 H              1 S1                 0.0000
     21 ****        -3.4042  -3.0889  -0.6646 H              1 S1                 0.0000
     22 ****         0.8372   1.1521  -1.4277 H              1 S1                 0.0000
     23 ****         0.7541   2.1893   0.8517 H              1 S1                 0.0000
     24 ****         1.9510   1.0467   1.4390 H              1 S1                 0.0000
     25 ****         2.3497   3.0627  -0.6503 H              1 S1                 0.0000
     26 ****         4.6119   2.4096  -0.7778 H              1 S1                 0.0000
     27 ****         4.3171   1.1848   0.4446 H              1 S1                 0.0000
     28 ****         3.0637   1.2556  -2.3652 H              1 S1                 0.0000
     29 ****         4.2642   0.1133  -1.7936 H              1 S1                 0.0000
     30 ****         2.9863   3.0800   0.8663 H              1 S1                 0.0000
     31 ****        -1.0403  -2.9911   1.0839 LP             1 S1                 0.0000
     32 ****         1.3025  -2.0335   0.5733 LP             1 S1                 0.0000
     33 ****         2.1345  -0.7716  -1.6828 LP             1 S1                 0.0000
     34 ****         2.7528  -0.6163  -0.1793 LP             1 S1                 0.0000
     35 ****        -1.2836   0.7813   0.3541 LP             1 S1                 0.0000
     36 ****        -1.4009   0.1027  -1.1266 LP             1 S1                 0.0000
@<TRIPOS>BOND
    1    1    2 1     
    2    1   15 1     
    3    1   16 1     
    4    1   17 1     
    5    2    3 1     
    6    2    4 1     
    7    2   18 1     
    8    3   19 1     
    9    3   20 1     
   10    3   21 1     
   11    4   14 1     
   12    4    5 2     
   13    5    6 1     
   14    6    7 2     
   15    7    8 1     
   16    7   14 1     
   17    8   13 1     
   18    8    9 1     
   19    8   22 1     
   20    9   10 1     
   21    9   23 1     
   22    9   24 1     
   23   10   11 1     
   24   10   25 1     
   25   10   30 1     
   26   11   12 1     
   27   11   26 1     
   28   11   27 1     
   29   12   13 1     
   30   12   28 1     
   31   12   29 1     
   32    5   31 1     
   33    6   32 1     
   34   13   33 1     
   35   13   34 1     
   36   14   35 1     
   37   14   36 1     
@<TRIPOS>SUBSTRUCTURE
      1 S1             1
@<TRIPOS>SET
LONE_PAIRS      STATIC     ATOMS    <user>   **** ""
6 31 32 33 34 35 36
DONOR_HYDROGENS      STATIC     ATOMS    <user>   **** ""
2 25 30
ATOM$BLUE        STATIC     ATOMS    COLORGROUP SYSTEM
6 31 32 33 34 35 36
ATOM$RED        STATIC     ATOMS    COLORGROUP SYSTEM
2 25 30
