AV-unprocessed.smi:19|AV-procd|sdf|110|dock4
  -GOLD-   2262015273D 1   1.00000     0.00000
 Structure written by MMmdl.
 57 60  0  0  0  0  0  0  0  0  1 V2000
  151.3305  145.4421  159.7946 C   0  0  0  0  0  0  0  0  0  0  0  0
  151.3210  144.1337  160.3377 O   0  0  0  0  0  0  0  0  0  0  0  0
  152.6156  143.6913  160.7106 C   0  0  0  0  0  0  0  0  0  0  0  0
  152.6892  142.1666  160.5607 C   0  0  1  0  0  0  0  0  0  0  0  0
  152.6034  141.7331  159.0850 C   0  0  0  0  0  0  0  0  0  0  0  0
  152.7877  140.2900  158.9705 N   0  0  0  0  0  0  0  0  0  0  0  0
  152.4561  139.7649  157.7631 C   0  0  0  0  0  0  0  0  0  0  0  0
  153.2985  138.8924  157.1470 N   0  0  0  0  0  0  0  0  0  0  0  0
  152.9874  138.3816  155.9523 C   0  0  0  0  0  0  0  0  0  0  0  0
  151.9006  138.5988  155.2101 N   0  0  0  0  0  0  0  0  0  0  0  0
  151.0429  139.4611  155.8265 C   0  0  0  0  0  0  0  0  0  0  0  0
  151.2432  140.0872  157.0899 C   0  0  0  0  0  0  0  0  0  0  0  0
  150.1552  140.8977  157.3917 N   0  0  0  0  0  0  0  0  0  0  0  0
  149.3658  140.7693  156.3611 C   0  0  0  0  0  0  0  0  0  0  0  0
  149.8114  139.9115  155.3803 N   0  0  0  0  0  0  0  0  0  0  0  0
  149.1316  139.5874  154.1325 C   0  0  0  0  0  0  0  0  0  0  0  0
  147.6283  139.9934  154.0763 C   0  0  0  0  0  0  0  0  0  0  0  0
  146.9519  139.4140  152.8012 C   0  0  0  0  0  0  0  0  0  0  0  0
  146.8651  138.0038  152.8351 O   0  0  0  0  0  0  0  0  0  0  0  0
  146.8902  139.4706  155.3357 C   0  0  0  0  0  0  0  0  0  0  0  0
  145.4954  140.0962  155.5255 C   0  0  0  0  0  0  0  0  0  0  0  0
  145.5914  141.5139  155.5516 O   0  0  0  0  0  0  0  0  0  0  0  0
  146.1059  142.0530  154.3414 C   0  0  0  0  0  0  0  0  0  0  0  0
  147.5381  141.5401  154.1112 C   0  0  0  0  0  0  0  0  0  0  0  0
  154.0132  139.8190  159.6107 C   0  0  0  0  0  0  0  0  0  0  0  0
  154.0716  140.3071  161.0695 C   0  0  1  0  0  0  0  0  0  0  0  0
  155.3955  139.9392  161.7475 C   0  0  0  0  0  0  0  0  0  0  0  0
  153.9383  141.7255  161.0884 O   0  0  0  0  0  0  0  0  0  0  0  0
  150.3162  145.7326  159.5212 H   0  0  0  0  0  0  0  0  0  0  0  0
  151.9491  145.4929  158.8975 H   0  0  0  0  0  0  0  0  0  0  0  0
  151.7045  146.1666  160.5192 H   0  0  0  0  0  0  0  0  0  0  0  0
  153.3516  144.1625  160.0570 H   0  0  0  0  0  0  0  0  0  0  0  0
  152.8496  143.9865  161.7348 H   0  0  0  0  0  0  0  0  0  0  0  0
  151.8684  141.7137  161.1198 H   0  0  0  0  0  0  0  0  0  0  0  0
  151.6455  142.0460  158.6712 H   0  0  0  0  0  0  0  0  0  0  0  0
  153.3775  142.2337  158.5017 H   0  0  0  0  0  0  0  0  0  0  0  0
  153.7135  137.7026  155.5304 H   0  0  0  0  0  0  0  0  0  0  0  0
  148.4249  141.2954  156.2921 H   0  0  0  0  0  0  0  0  0  0  0  0
  149.6804  140.0780  153.3274 H   0  0  0  0  0  0  0  0  0  0  0  0
  149.2444  138.5180  153.9505 H   0  0  0  0  0  0  0  0  0  0  0  0
  145.9480  139.8199  152.6758 H   0  0  0  0  0  0  0  0  0  0  0  0
  147.4969  139.6827  151.8981 H   0  0  0  0  0  0  0  0  0  0  0  0
  147.6695  137.6447  152.4933 H   0  0  0  0  0  0  0  0  0  0  0  0
  146.7929  138.3853  155.3020 H   0  0  0  0  0  0  0  0  0  0  0  0
  147.4839  139.6959  156.2226 H   0  0  0  0  0  0  0  0  0  0  0  0
  144.8024  139.7803  154.7456 H   0  0  0  0  0  0  0  0  0  0  0  0
  145.0682  139.7613  156.4709 H   0  0  0  0  0  0  0  0  0  0  0  0
  145.4506  141.8063  153.5054 H   0  0  0  0  0  0  0  0  0  0  0  0
  146.1116  143.1400  154.4217 H   0  0  0  0  0  0  0  0  0  0  0  0
  148.1624  141.9208  154.9206 H   0  0  0  0  0  0  0  0  0  0  0  0
  147.9445  141.9742  153.1974 H   0  0  0  0  0  0  0  0  0  0  0  0
  154.0528  138.7291  159.5857 H   0  0  0  0  0  0  0  0  0  0  0  0
  154.8769  140.1907  159.0573 H   0  0  0  0  0  0  0  0  0  0  0  0
  153.2533  139.8628  161.6392 H   0  0  0  0  0  0  0  0  0  0  0  0
  155.5391  138.8587  161.7672 H   0  0  0  0  0  0  0  0  0  0  0  0
  155.4181  140.2970  162.7770 H   0  0  0  0  0  0  0  0  0  0  0  0
  156.2434  140.3802  161.2227 H   0  0  0  0  0  0  0  0  0  0  0  0
  1  2  1  0  0  0  0
  1 29  1  0  0  0  0
  1 30  1  0  0  0  0
  1 31  1  0  0  0  0
  2  3  1  0  0  0  0
  3  4  1  0  0  0  0
  3 32  1  0  0  0  0
  3 33  1  0  0  0  0
  4 28  1  0  0  0  0
  4  5  1  0  0  0  0
  4 34  1  0  0  0  0
  5  6  1  0  0  0  0
  5 35  1  0  0  0  0
  5 36  1  0  0  0  0
  6  7  1  0  0  0  0
  6 25  1  0  0  0  0
  7 12  1  0  0  0  0
  7  8  2  0  0  0  0
  8  9  1  0  0  0  0
  9 10  2  0  0  0  0
  9 37  1  0  0  0  0
 10 11  1  0  0  0  0
 11 15  1  0  0  0  0
 11 12  2  0  0  0  0
 12 13  1  0  0  0  0
 13 14  2  0  0  0  0
 14 15  1  0  0  0  0
 14 38  1  0  0  0  0
 15 16  1  0  0  0  0
 16 17  1  0  0  0  0
 16 39  1  0  0  0  0
 16 40  1  0  0  0  0
 17 24  1  0  0  0  0
 17 18  1  0  0  0  0
 17 20  1  0  0  0  0
 18 19  1  0  0  0  0
 18 41  1  0  0  0  0
 18 42  1  0  0  0  0
 19 43  1  0  0  0  0
 20 21  1  0  0  0  0
 20 44  1  0  0  0  0
 20 45  1  0  0  0  0
 21 22  1  0  0  0  0
 21 46  1  0  0  0  0
 21 47  1  0  0  0  0
 22 23  1  0  0  0  0
 23 24  1  0  0  0  0
 23 48  1  0  0  0  0
 23 49  1  0  0  0  0
 24 50  1  0  0  0  0
 24 51  1  0  0  0  0
 25 26  1  0  0  0  0
 25 52  1  0  0  0  0
 25 53  1  0  0  0  0
 26 27  1  0  0  0  0
 26 28  1  0  0  0  0
 26 54  1  0  0  0  0
 27 55  1  0  0  0  0
 27 56  1  0  0  0  0
 27 57  1  0  0  0  0
M  END
> <s_m_source_file>
AV-unprocessed.smi

> <i_m_source_file_index>
19

> <i_lp_mmshare_version>
43012

> <i_f3d_flags>
0

> <s_epik_input>
W0NIM11PW0NIMl1bQ0BASF0xW0NIMl1OKFtDSDJdW0NASF0oTzEpW0NIM10pYyhuW2NIXW4yKWMoYzIzKW5bY0hdbjNbQ0gyXUM0KFtDSDJdW09IXSlbQ0gyXVtDSDJdT1tDSDJdW0NIMl00

> <s_epik_cmdline>
J2VwaWtfcHl0aG9uJywgJy1waCcsICc3LjAnLCAnLXRuJywgJzgnLCAnLW1hJywgJzIwMCcsICctbWV0YWxfYmluZGluZycsICctaW1hZScsICc8aW5maWxlLm1hZT4nLCAnLW9tYWUnLCAnPG91dGZpbGUubWFlPic=

> <r_lp_tautomer_probability>
1

> <r_epik_Ionization_Penalty>
6.20357e-05

> <r_epik_Ionization_Penalty_Charging>
0

> <r_epik_Ionization_Penalty_Neutral>
6.20357e-05

> <r_epik_State_Penalty>
-0

> <r_epik_Charging_Adjusted_Penalty>
0

> <i_epik_Tot_Q>
0

> <i_epik_Tot_abs_Q>
0

> <r_epik_Metal_State_Penalty>
-0

> <b_epik_Metal_Only>
0

> <s_lp_Force_Field>
OPLS_2005

> <r_lp_Energy>
35.6446

> <b_lp_Chiralities_Consistent>
1

> <s_lp_Variant>
AV-unprocessed.smi:19-2

> <Gold.Version>
5.8.1

> <Gold.Id.Protein>
6NUR|6NUR_protein|mol2

> <Gold.PLP.Fitness>
48.0672

> <Gold.PLP.PLP>
-44.1493

> <Gold.PLP.part.hbond>
-2.0000

> <Gold.PLP.part.metal>
0.0000

> <Gold.PLP.part.buried>
-3.3555

> <Gold.PLP.part.nonpolar>
-40.6749

> <Gold.PLP.part.repulsive>
0.2783

> <Gold.PLP.ligand.clash>
0.7588

> <Gold.PLP.ligand.torsion>
0.6493

> <Gold.PLP.Chemscore.Hbond>
1.8500

> <Gold.PLP.Chemscore.CHOScore>
0.0000

> <Gold.PLP.Chemscore.Metal>
0.0000

> <Gold.Chemscore.Hbonds>
donor molecule, donor type, donor heavy atom, donor atom, acceptor molecule, acceptor atom, score
      L1  H    19    43       P1  7948  1.00
      P1  H  7997  8010       L1     8  0.64

> <Gold.PLP.Chemscore.Internal.Correction>
0.4252

> <Gold.Rescore>
     Score         DG    S(hbond)    S(metal)    S(lipo)     H(rot)  DE(clash)    DE(int)     intcor
     11.32     -14.02       1.02        0.00     106.88       2.87       0.04       2.67       ----

> <Gold.Chemscore.Fitness>
11.3175

> <Gold.Chemscore.DG>
-14.0224

> <Gold.Chemscore.ZeroCoef>
-5.4800

> <Gold.Chemscore.Hbond>
1.0154

> <Gold.Chemscore.Metal>
0.0000

> <Gold.Chemscore.Lipo>
106.8846

> <Gold.Chemscore.Internal_Hbond>
0.0000

> <Gold.Chemscore.DEClash>
0.0351

> <Gold.Chemscore.DEInternal>
2.6698

> <Gold.Chemscore.Rot>
2.8729

> <Gold.Chemscore.Internal.Correction>
   9.000000E+99

> <Gold.Chemscore.Hbonds>
donor molecule, donor type, donor heavy atom, donor atom, acceptor molecule, acceptor atom, score
      L1  H    19    43       P1  7948  0.96
      P1  H  7997  8010       L1     8  0.01

> <Gold.Chemscore.Hbond.Weighted>
-3.3915

> <Gold.Chemscore.Metal.Weighted>
-0.0000

> <Gold.Chemscore.Lipo.Weighted>
-12.5055

> <Gold.Chemscore.Internal_Hbond.Weighted>
0.0000

> <Gold.Chemscore.DEClash.Weighted>
0.0351

> <Gold.Chemscore.DEInternal.Weighted>
2.6698

> <Gold.Chemscore.Rot.Weighted>
7.3546

> <Gold.Chemscore.Internal.Correction.Weighted>
   9.000000E+99

> <Gold.Protein.RotatedTorsions>
[ 6907 6896 6895 6894 ] final   11.24 input  -60.11 | X-H torsion
[ 7974 7965 7964 7962 ] final  134.88 input  175.53 | X-H torsion
[ 8008 7997 7996 7995 ] final   64.69 input   59.86 | X-H torsion
[ 10167 10162 10161 10158 ] final    9.80 input  -65.29 | X-H torsion
[ 10718 10713 10712 10709 ] final  126.79 input   66.30 | X-H torsion
[ 10763 10752 10751 10750 ] final -131.43 input  -60.55 | X-H torsion
[ 11005 11000 10999 10996 ] final -138.09 input  -57.11 | X-H torsion

> <Gold.Protein.ActiveResidues>
 VAL166  LYS551  ARG553  GLY616  TRP617  ASP618  TYR619  PRO620  LYS621  CYS622 
 ASP623  PHE694  ASN695  SER759  ASP760  ASP761  ALA762  ILE779  LEU786  VAL792 
 PHE793  MET794  SER795  GLU796  ALA797  LYS798  CYS799  TRP800  GLU811  SER814 

> <Gold.Protein.RotatedAtoms>
  151.7511  135.0832  160.0330 H   0  0  0  0  0  0  0  0  0  0  0  0  # atno 6907 bound_to 6896
  152.3416  133.6069  159.5889 H   0  0  0  0  0  0  0  0  0  0  0  0  # atno 6908 bound_to 6896
  150.7483  133.9630  159.3563 H   0  0  0  0  0  0  0  0  0  0  0  0  # atno 6909 bound_to 6896
  144.9719  139.4597  143.5429 H   0  0  0  0  0  0  0  0  0  0  0  0  # atno 7974 bound_to 7965
  155.6501  140.3497  155.4745 H   0  0  0  0  0  0  0  0  0  0  0  0  # atno 8008 bound_to 7997
  155.9855  140.1183  157.0710 H   0  0  0  0  0  0  0  0  0  0  0  0  # atno 8009 bound_to 7997
  154.4204  140.1130  156.5480 H   0  0  0  0  0  0  0  0  0  0  0  0  # atno 8010 bound_to 7997
  140.6233  143.8157  150.7202 H   0  0  0  0  0  0  0  0  0  0  0  0  # atno 10167 bound_to 10162
  157.5389  131.1097  150.8891 H   0  0  0  0  0  0  0  0  0  0  0  0  # atno 10718 bound_to 10713
  154.8750  135.3830  154.4246 H   0  0  0  0  0  0  0  0  0  0  0  0  # atno 10763 bound_to 10752
  153.4946  135.7030  153.5870 H   0  0  0  0  0  0  0  0  0  0  0  0  # atno 10764 bound_to 10752
  153.4229  135.3897  155.2089 H   0  0  0  0  0  0  0  0  0  0  0  0  # atno 10765 bound_to 10752
  140.8649  134.2123  157.4686 H   0  0  0  0  0  0  0  0  0  0  0  0  # atno 11005 bound_to 11000
  146.3384  139.8936  142.8805 LP  0  0  0  0  0  0  0  0  0  0  0  0  # atno 17320 bound_to 7965
  145.2547  141.0056  143.3861 LP  0  0  0  0  0  0  0  0  0  0  0  0  # atno 17321 bound_to 7965
  140.1752  143.4161  152.1973 LP  0  0  0  0  0  0  0  0  0  0  0  0  # atno 17342 bound_to 10162
  139.5457  144.7296  151.4590 LP  0  0  0  0  0  0  0  0  0  0  0  0  # atno 17343 bound_to 10162
  156.9449  130.5398  149.5281 LP  0  0  0  0  0  0  0  0  0  0  0  0  # atno 17370 bound_to 10713
  156.0481  130.5554  150.8926 LP  0  0  0  0  0  0  0  0  0  0  0  0  # atno 17371 bound_to 10713
  139.8709  134.9747  156.4856 LP  0  0  0  0  0  0  0  0  0  0  0  0  # atno 17394 bound_to 11000
  140.8640  133.8038  155.9295 LP  0  0  0  0  0  0  0  0  0  0  0  0  # atno 17395 bound_to 11000

$$$$
