AV-unprocessed.smi:869|AV-procd|sdf|4005|dock2
  -GOLD-   22720 1493D 1   1.00000     0.00000
 Structure written by MMmdl.
 47 49  0  0  0  0  0  0  0  0  2 V2000
  150.9207  138.8596  154.6174 C   0  0  0  0  0  0  0  0  0  0  0  0
  150.3119  140.1171  154.3817 O   0  0  0  0  0  0  0  0  0  0  0  0
  149.5342  140.5584  155.4826 C   0  0  0  0  0  0  0  0  0  0  0  0
  150.3785  141.1688  156.5527 C   0  0  0  0  0  0  0  0  0  0  0  0
  150.4865  142.4986  156.8317 N   0  3  0  0  0  0  0  0  0  0  0  0
  151.3670  142.6886  157.8969 C   0  0  0  0  0  0  0  0  0  0  0  0
  151.7898  143.8522  158.5322 C   0  0  0  0  0  0  0  0  0  0  0  0
  152.6997  143.6961  159.5984 C   0  0  0  0  0  0  0  0  0  0  0  0
  153.1530  142.4215  159.9957 C   0  0  0  0  0  0  0  0  0  0  0  0
  152.7180  141.2492  159.3430 C   0  0  0  0  0  0  0  0  0  0  0  0
  151.8195  141.4117  158.2884 C   0  0  0  0  0  0  0  0  0  0  0  0
  151.1840  140.5054  157.4305 N   0  0  0  0  0  0  0  0  0  0  0  0
  151.4405  139.0629  157.5707 C   0  0  0  0  0  0  0  0  0  0  0  0
  150.9411  138.4928  158.9138 C   0  0  2  0  0  0  0  0  0  0  0  0
  151.9545  137.7164  159.5212 O   0  0  0  0  0  0  0  0  0  0  0  0
  149.6923  137.6148  158.7488 C   0  0  0  0  0  0  0  0  0  0  0  0
  148.9211  137.6789  159.9410 O   0  0  0  0  0  0  0  0  0  0  0  0
  148.3406  136.5182  160.4057 C   0  0  0  0  0  0  0  0  0  0  0  0
  147.9446  136.4980  161.7588 C   0  0  0  0  0  0  0  0  0  0  0  0
  147.3457  135.3532  162.3188 C   0  0  0  0  0  0  0  0  0  0  0  0
  147.1359  134.2069  161.5277 C   0  0  0  0  0  0  0  0  0  0  0  0
  146.4905  132.9750  162.1279 C   0  0  0  0  0  0  0  0  0  0  0  0
  147.5255  134.2160  160.1738 C   0  0  0  0  0  0  0  0  0  0  0  0
  148.1240  135.3618  159.6143 C   0  0  0  0  0  0  0  0  0  0  0  0
  151.5131  138.5707  153.7492 H   0  0  0  0  0  0  0  0  0  0  0  0
  150.1715  138.0849  154.7865 H   0  0  0  0  0  0  0  0  0  0  0  0
  151.5860  138.8982  155.4809 H   0  0  0  0  0  0  0  0  0  0  0  0
  148.8026  141.2960  155.1496 H   0  0  0  0  0  0  0  0  0  0  0  0
  148.9842  139.7187  155.9095 H   0  0  0  0  0  0  0  0  0  0  0  0
  151.4419  144.8292  158.2306 H   0  0  0  0  0  0  0  0  0  0  0  0
  153.0553  144.5709  160.1232 H   0  0  0  0  0  0  0  0  0  0  0  0
  153.8472  142.3404  160.8196 H   0  0  0  0  0  0  0  0  0  0  0  0
  153.0669  140.2780  159.6611 H   0  0  0  0  0  0  0  0  0  0  0  0
  150.9328  138.5650  156.7439 H   0  0  0  0  0  0  0  0  0  0  0  0
  152.5038  138.8696  157.4289 H   0  0  0  0  0  0  0  0  0  0  0  0
  150.7100  139.3133  159.5939 H   0  0  0  0  0  0  0  0  0  0  0  0
  151.5980  137.3153  160.2994 H   0  0  0  0  0  0  0  0  0  0  0  0
  149.1076  137.9526  157.8912 H   0  0  0  0  0  0  0  0  0  0  0  0
  149.9927  136.5811  158.5683 H   0  0  0  0  0  0  0  0  0  0  0  0
  148.1013  137.3707  162.3755 H   0  0  0  0  0  0  0  0  0  0  0  0
  147.0491  135.3584  163.3575 H   0  0  0  0  0  0  0  0  0  0  0  0
  146.8182  132.0722  161.6114 H   0  0  0  0  0  0  0  0  0  0  0  0
  145.4054  133.0427  162.0479 H   0  0  0  0  0  0  0  0  0  0  0  0
  146.7528  132.8745  163.1815 H   0  0  0  0  0  0  0  0  0  0  0  0
  147.3669  133.3427  159.5581 H   0  0  0  0  0  0  0  0  0  0  0  0
  148.4094  135.3263  158.5742 H   0  0  0  0  0  0  0  0  0  0  0  0
  149.9886  143.2200  156.3261 H   0  0  0  0  0  0  0  0  0  0  0  0
  1  2  1  0  0  0  0
  1 25  1  0  0  0  0
  1 26  1  0  0  0  0
  1 27  1  0  0  0  0
  2  3  1  0  0  0  0
  3  4  1  0  0  0  0
  3 28  1  0  0  0  0
  3 29  1  0  0  0  0
  4 12  1  0  0  0  0
  4  5  2  0  0  0  0
  5  6  1  0  0  0  0
  5 47  1  0  0  0  0
  6 11  2  0  0  0  0
  6  7  1  0  0  0  0
  7  8  2  0  0  0  0
  7 30  1  0  0  0  0
  8  9  1  0  0  0  0
  8 31  1  0  0  0  0
  9 10  2  0  0  0  0
  9 32  1  0  0  0  0
 10 11  1  0  0  0  0
 10 33  1  0  0  0  0
 11 12  1  0  0  0  0
 12 13  1  0  0  0  0
 13 14  1  0  0  0  0
 13 34  1  0  0  0  0
 13 35  1  0  0  0  0
 14 15  1  0  0  0  0
 14 16  1  0  0  0  0
 14 36  1  0  0  0  0
 15 37  1  0  0  0  0
 16 17  1  0  0  0  0
 16 38  1  0  0  0  0
 16 39  1  0  0  0  0
 17 18  1  0  0  0  0
 18 24  1  0  0  0  0
 18 19  2  0  0  0  0
 19 20  1  0  0  0  0
 19 40  1  0  0  0  0
 20 21  2  0  0  0  0
 20 41  1  0  0  0  0
 21 22  1  0  0  0  0
 21 23  1  0  0  0  0
 22 42  1  0  0  0  0
 22 43  1  0  0  0  0
 22 44  1  0  0  0  0
 23 24  2  0  0  0  0
 23 45  1  0  0  0  0
 24 46  1  0  0  0  0
M  CHG  1   5   1
M  END
> <s_m_source_file>
AV-unprocessed.smi

> <i_m_source_file_index>
869

> <i_lp_mmshare_version>
43012

> <i_f3d_flags>
0

> <s_epik_input>
W2NIXTFbY0hdW2NIXVtjSF1jKGMxMiluKGMobjIpW0NIMl1PW0NIM10pW0NIMl1bQ0BIXShbT0hdKVtDSDJdT2MzW2NIXVtjSF1jKFtDSDNdKVtjSF1bY0hdMw==

> <s_epik_cmdline>
J2VwaWtfcHl0aG9uJywgJy1waCcsICc3LjAnLCAnLXRuJywgJzgnLCAnLW1hJywgJzIwMCcsICctbWV0YWxfYmluZGluZycsICctaW1hZScsICc8aW5maWxlLm1hZT4nLCAnLW9tYWUnLCAnPG91dGZpbGUubWFlPic=

> <r_lp_tautomer_probability>
1

> <r_epik_Ionization_Penalty>
1.5538

> <r_epik_Ionization_Penalty_Charging>
1.5538

> <r_epik_Ionization_Penalty_Neutral>
2.3993e-06

> <r_epik_State_Penalty>
1.64824

> <r_epik_Charging_Adjusted_Penalty>
3.20204

> <i_epik_Tot_Q>
1

> <i_epik_Tot_abs_Q>
1

> <r_epik_Metal_State_Penalty>
5.70315

> <b_epik_Metal_Only>
0

> <s_lp_Force_Field>
OPLS_2005

> <r_lp_Energy>
18.5065

> <b_lp_Chiralities_Consistent>
1

> <s_lp_Variant>
AV-unprocessed.smi:869-3

> <Gold.Version>
5.8.1

> <Gold.Id.Protein>
6NUR|6NUR_protein|mol2

> <Gold.PLP.Fitness>
57.3477

> <Gold.PLP.PLP>
-51.5938

> <Gold.PLP.part.hbond>
-3.7983

> <Gold.PLP.part.metal>
0.0000

> <Gold.PLP.part.buried>
-6.7688

> <Gold.PLP.part.nonpolar>
-42.0252

> <Gold.PLP.part.repulsive>
0.1490

> <Gold.PLP.ligand.clash>
0.0000

> <Gold.PLP.ligand.torsion>
1.8637

> <Gold.PLP.Chemscore.Hbond>
3.1081

> <Gold.PLP.Chemscore.CHOScore>
0.0000

> <Gold.PLP.Chemscore.Metal>
0.0000

> <Gold.Chemscore.Hbonds>
donor molecule, donor type, donor heavy atom, donor atom, acceptor molecule, acceptor atom, score
      L1  H     5    47       P1  8028  2.00
      P1  H  6931  6943       L1    17  0.10
      P1  H  6934  6947       L1    17  0.02
      P1  H  7989  7998       L1     2  0.95

> <Gold.PLP.Chemscore.Internal.Correction>
0.1570

> <Gold.Rescore>
     Score         DG    S(hbond)    S(metal)    S(lipo)     H(rot)  DE(clash)    DE(int)     intcor
     19.66     -21.49       1.94        0.00     135.06       2.45       0.01       1.81       ----

> <Gold.Chemscore.Fitness>
19.6627

> <Gold.Chemscore.DG>
-21.4877

> <Gold.Chemscore.ZeroCoef>
-5.4800

> <Gold.Chemscore.Hbond>
1.9389

> <Gold.Chemscore.Metal>
0.0000

> <Gold.Chemscore.Lipo>
135.0615

> <Gold.Chemscore.Internal_Hbond>
0.0000

> <Gold.Chemscore.DEClash>
0.0126

> <Gold.Chemscore.DEInternal>
1.8124

> <Gold.Chemscore.Rot>
2.4494

> <Gold.Chemscore.Internal.Correction>
   9.000000E+99

> <Gold.Chemscore.Hbonds>
donor molecule, donor type, donor heavy atom, donor atom, acceptor molecule, acceptor atom, score
      L1  H     5    47       P1  8028  0.98
      P1  H  7989  7998       L1     2  0.21

> <Gold.Chemscore.Hbond.Weighted>
-6.4759

> <Gold.Chemscore.Metal.Weighted>
-0.0000

> <Gold.Chemscore.Lipo.Weighted>
-15.8022

> <Gold.Chemscore.Internal_Hbond.Weighted>
0.0000

> <Gold.Chemscore.DEClash.Weighted>
0.0126

> <Gold.Chemscore.DEInternal.Weighted>
1.8124

> <Gold.Chemscore.Rot.Weighted>
6.2704

> <Gold.Chemscore.Internal.Correction.Weighted>
   9.000000E+99

> <Gold.Protein.RotatedTorsions>
[ 6907 6896 6895 6894 ] final  -26.22 input  -60.11 | X-H torsion
[ 7974 7965 7964 7962 ] final   89.23 input  175.53 | X-H torsion
[ 8008 7997 7996 7995 ] final  112.72 input   59.86 | X-H torsion
[ 10167 10162 10161 10158 ] final  -56.94 input  -65.29 | X-H torsion
[ 10718 10713 10712 10709 ] final -100.11 input   66.30 | X-H torsion
[ 10763 10752 10751 10750 ] final -107.19 input  -60.55 | X-H torsion
[ 11005 11000 10999 10996 ] final -123.01 input  -57.11 | X-H torsion

> <Gold.Protein.ActiveResidues>
 VAL166  LYS551  ARG553  GLY616  TRP617  ASP618  TYR619  PRO620  LYS621  CYS622 
 ASP623  PHE694  ASN695  SER759  ASP760  ASP761  ALA762  ILE779  LEU786  VAL792 
 PHE793  MET794  SER795  GLU796  ALA797  LYS798  CYS799  TRP800  GLU811  SER814 

> <Gold.Protein.RotatedAtoms>
  151.1641  135.0287  159.8722 H   0  0  0  0  0  0  0  0  0  0  0  0  # atno 6907 bound_to 6896
  152.5451  134.1246  159.8423 H   0  0  0  0  0  0  0  0  0  0  0  0  # atno 6908 bound_to 6896
  151.1344  133.4968  159.2631 H   0  0  0  0  0  0  0  0  0  0  0  0  # atno 6909 bound_to 6896
  145.5351  139.2285  143.2597 H   0  0  0  0  0  0  0  0  0  0  0  0  # atno 7974 bound_to 7965
  156.2211  140.2994  155.9954 H   0  0  0  0  0  0  0  0  0  0  0  0  # atno 8008 bound_to 7997
  155.2480  140.0425  157.3000 H   0  0  0  0  0  0  0  0  0  0  0  0  # atno 8009 bound_to 7997
  154.5841  140.2383  155.8019 H   0  0  0  0  0  0  0  0  0  0  0  0  # atno 8010 bound_to 7997
  140.6287  143.2450  151.5296 H   0  0  0  0  0  0  0  0  0  0  0  0  # atno 10167 bound_to 10162
  156.0153  130.5313  150.6770 H   0  0  0  0  0  0  0  0  0  0  0  0  # atno 10718 bound_to 10713
  154.8060  135.4684  154.0393 H   0  0  0  0  0  0  0  0  0  0  0  0  # atno 10763 bound_to 10752
  153.1861  135.6848  153.8420 H   0  0  0  0  0  0  0  0  0  0  0  0  # atno 10764 bound_to 10752
  153.7953  135.3237  155.3361 H   0  0  0  0  0  0  0  0  0  0  0  0  # atno 10765 bound_to 10752
  140.9951  134.0483  157.3607 H   0  0  0  0  0  0  0  0  0  0  0  0  # atno 11005 bound_to 11000
  146.2018  140.6169  142.9099 LP  0  0  0  0  0  0  0  0  0  0  0  0  # atno 17320 bound_to 7965
  144.7606  140.5412  143.6738 LP  0  0  0  0  0  0  0  0  0  0  0  0  # atno 17321 bound_to 7965
  139.5504  144.2410  152.1520 LP  0  0  0  0  0  0  0  0  0  0  0  0  # atno 17342 bound_to 10162
  140.1648  144.4991  150.6612 LP  0  0  0  0  0  0  0  0  0  0  0  0  # atno 17343 bound_to 10162
  157.4480  131.0869  151.0875 LP  0  0  0  0  0  0  0  0  0  0  0  0  # atno 17370 bound_to 10713
  157.1399  130.6138  149.5552 LP  0  0  0  0  0  0  0  0  0  0  0  0  # atno 17371 bound_to 10713
  139.9011  135.0164  156.7271 LP  0  0  0  0  0  0  0  0  0  0  0  0  # atno 17394 bound_to 11000
  140.6978  133.9333  155.8005 LP  0  0  0  0  0  0  0  0  0  0  0  0  # atno 17395 bound_to 11000

$$$$
