AV-unprocessed.smi:39|AV-procd|sdf|366|dock6
  -GOLD-   2262016203D 1   1.00000     0.00000
 Structure written by MMmdl.
 31 32  0  0  0  0  0  0  0  0  4 V2000
  152.7564  143.3877  159.7131 C   0  0  0  0  0  0  0  0  0  0  0  0
  152.7966  141.8752  159.5799 C   0  0  0  0  0  0  0  0  0  0  0  0
  152.1849  141.2243  158.5654 C   0  0  0  0  0  0  0  0  0  0  0  0
  152.2263  139.8447  158.4449 N   0  0  0  0  0  0  0  0  0  0  0  0
  151.5292  139.1225  157.3086 C   0  0  2  0  0  0  0  0  0  0  0  0
  152.1746  139.4570  155.9557 C   0  0  0  0  0  0  0  0  0  0  0  0
  150.9709  139.5807  155.0362 C   0  0  1  0  0  0  0  0  0  0  0  0
  150.5448  138.2736  154.5220 N   0  0  0  0  0  0  0  0  0  0  0  0
  151.1819  137.2879  154.9163 N   0  3  0  0  0  0  0  0  0  0  0  0
  151.6602  136.3413  155.3287 N   0  5  0  0  0  0  0  0  0  0  0  0
  149.9134  140.1643  155.9811 C   0  0  2  0  0  0  0  0  0  0  0  0
  150.0168  141.6960  156.1262 C   0  0  0  0  0  0  0  0  0  0  0  0
  149.5037  142.3299  154.9741 O   0  0  0  0  0  0  0  0  0  0  0  0
  150.1918  139.5317  157.2311 O   0  0  0  0  0  0  0  0  0  0  0  0
  152.8941  139.0779  159.4362 C   0  0  0  0  0  0  0  0  0  0  0  0
  152.8772  137.8516  159.3273 O   0  0  0  0  0  0  0  0  0  0  0  0
  153.5198  139.7263  160.4595 N   0  5  0  0  0  0  0  0  0  0  0  0
  153.5174  141.0843  160.5842 C   0  0  0  0  0  0  0  0  0  0  0  0
  154.0957  141.6575  161.5069 O   0  0  0  0  0  0  0  0  0  0  0  0
  151.5675  138.0625  157.5656 H   0  0  0  0  0  0  0  0  0  0  0  0
  151.1755  140.2632  154.2091 H   0  0  0  0  0  0  0  0  0  0  0  0
  148.9103  139.9016  155.6411 H   0  0  0  0  0  0  0  0  0  0  0  0
  152.1872  143.8425  158.9021 H   0  0  0  0  0  0  0  0  0  0  0  0
  153.7658  143.7993  159.6892 H   0  0  0  0  0  0  0  0  0  0  0  0
  152.2891  143.6739  160.6558 H   0  0  0  0  0  0  0  0  0  0  0  0
  151.6504  141.8125  157.8356 H   0  0  0  0  0  0  0  0  0  0  0  0
  152.6948  140.4138  156.0228 H   0  0  0  0  0  0  0  0  0  0  0  0
  152.8928  138.6918  155.6588 H   0  0  0  0  0  0  0  0  0  0  0  0
  149.5077  142.0608  157.0179 H   0  0  0  0  0  0  0  0  0  0  0  0
  151.0617  141.9933  156.2148 H   0  0  0  0  0  0  0  0  0  0  0  0
  149.2328  143.2042  155.2082 H   0  0  0  0  0  0  0  0  0  0  0  0
  1  2  1  0  0  0  0
  1 23  1  0  0  0  0
  1 24  1  0  0  0  0
  1 25  1  0  0  0  0
  2 18  1  0  0  0  0
  2  3  2  0  0  0  0
  3  4  1  0  0  0  0
  3 26  1  0  0  0  0
  4  5  1  0  0  0  0
  4 15  1  0  0  0  0
  5 20  1  0  0  0  0
  5 14  1  0  0  0  0
  5  6  1  0  0  0  0
  6  7  1  0  0  0  0
  6 27  1  0  0  0  0
  6 28  1  0  0  0  0
  7 21  1  0  0  0  0
  7  8  1  0  0  0  0
  7 11  1  0  0  0  0
  8  9  2  0  0  0  0
  9 10  2  0  0  0  0
 11 22  1  0  0  0  0
 11 12  1  0  0  0  0
 11 14  1  0  0  0  0
 12 13  1  0  0  0  0
 12 29  1  0  0  0  0
 12 30  1  0  0  0  0
 13 31  1  0  0  0  0
 15 16  2  0  0  0  0
 15 17  1  0  0  0  0
 17 18  1  0  0  0  0
 18 19  2  0  0  0  0
M  CHG  1   9   1
M  CHG  1  10  -1
M  CHG  1  17  -1
M  END
> <s_m_source_file>
AV-unprocessed.smi

> <i_m_source_file_index>
39

> <i_lp_mmshare_version>
43012

> <i_f3d_flags>
0

> <s_epik_input>
Tz1jMVtuSF1jKD1PKW4oW2NIXWMxW0NIM10pW0NASF0yW0NIMl1bQ0BIXShOPVtOK109W04tXSlbQ0BIXShPMilbQ0gyXVtPSF0=

> <s_epik_cmdline>
J2VwaWtfcHl0aG9uJywgJy1waCcsICc3LjAnLCAnLXRuJywgJzgnLCAnLW1hJywgJzIwMCcsICctbWV0YWxfYmluZGluZycsICctaW1hZScsICc8aW5maWxlLm1hZT4nLCAnLW9tYWUnLCAnPG91dGZpbGUubWFlPic=

> <r_lp_tautomer_probability>
0.999537

> <r_epik_Ionization_Penalty>
3.6393

> <r_epik_Ionization_Penalty_Charging>
9.76484e-08

> <r_epik_Ionization_Penalty_Neutral>
3.6393

> <r_epik_State_Penalty>
3.63887

> <r_epik_Charging_Adjusted_Penalty>
3.63887

> <i_epik_Tot_Q>
-1

> <i_epik_Tot_abs_Q>
3

> <r_epik_Metal_State_Penalty>
0.225911

> <b_epik_Metal_Only>
1

> <s_epik_Chemistry_Notes>
This compound contains an acetal/aminal-like group ( X-CH(R)-Y where X, Y are N, S, or O) that may be acid/base labile, releasing an aldehyde.

> <s_lp_Force_Field>
OPLS_2005

> <r_lp_Energy>
37.4001

> <b_lp_Chiralities_Consistent>
1

> <s_lp_Variant>
AV-unprocessed.smi:39-16

> <Gold.Version>
5.8.1

> <Gold.Id.Protein>
6NUR|6NUR_protein|mol2

> <Gold.PLP.Fitness>
36.6955

> <Gold.PLP.PLP>
-31.0572

> <Gold.PLP.part.hbond>
-3.7035

> <Gold.PLP.part.metal>
0.0000

> <Gold.PLP.part.buried>
-2.3330

> <Gold.PLP.part.nonpolar>
-24.3535

> <Gold.PLP.part.repulsive>
0.4109

> <Gold.PLP.ligand.clash>
0.0000

> <Gold.PLP.ligand.torsion>
0.2022

> <Gold.PLP.Chemscore.Hbond>
2.0000

> <Gold.PLP.Chemscore.CHOScore>
0.0000

> <Gold.PLP.Chemscore.Metal>
0.0000

> <Gold.Chemscore.Hbonds>
donor molecule, donor type, donor heavy atom, donor atom, acceptor molecule, acceptor atom, score
      L1  H    13    31       P1  8028  1.00
      P1  H 10752 10765       L1    10  1.00

> <Gold.PLP.Chemscore.Internal.Correction>
0.0428

> <Gold.Rescore>
     Score         DG    S(hbond)    S(metal)    S(lipo)     H(rot)  DE(clash)    DE(int)     intcor
     11.63     -11.80       1.97        0.00      57.12       2.72       0.08       0.09       ----

> <Gold.Chemscore.Fitness>
11.6287

> <Gold.Chemscore.DG>
-11.7982

> <Gold.Chemscore.ZeroCoef>
-5.4800

> <Gold.Chemscore.Hbond>
1.9721

> <Gold.Chemscore.Metal>
0.0000

> <Gold.Chemscore.Lipo>
57.1179

> <Gold.Chemscore.Internal_Hbond>
0.0000

> <Gold.Chemscore.DEClash>
0.0840

> <Gold.Chemscore.DEInternal>
0.0856

> <Gold.Chemscore.Rot>
2.7153

> <Gold.Chemscore.Internal.Correction>
   9.000000E+99

> <Gold.Chemscore.Hbonds>
donor molecule, donor type, donor heavy atom, donor atom, acceptor molecule, acceptor atom, score
      L1  H    13    31       P1  8028  0.99
      P1  H 10752 10765       L1    10  0.99

> <Gold.Chemscore.Hbond.Weighted>
-6.5867

> <Gold.Chemscore.Metal.Weighted>
-0.0000

> <Gold.Chemscore.Lipo.Weighted>
-6.6828

> <Gold.Chemscore.Internal_Hbond.Weighted>
0.0000

> <Gold.Chemscore.DEClash.Weighted>
0.0840

> <Gold.Chemscore.DEInternal.Weighted>
0.0856

> <Gold.Chemscore.Rot.Weighted>
6.9512

> <Gold.Chemscore.Internal.Correction.Weighted>
   9.000000E+99

> <Gold.Protein.RotatedTorsions>
[ 6907 6896 6895 6894 ] final   23.82 input  -60.11 | X-H torsion
[ 7974 7965 7964 7962 ] final -107.76 input  175.53 | X-H torsion
[ 8008 7997 7996 7995 ] final  168.73 input   59.86 | X-H torsion
[ 10167 10162 10161 10158 ] final   88.25 input  -65.29 | X-H torsion
[ 10718 10713 10712 10709 ] final  -30.97 input   66.30 | X-H torsion
[ 10763 10752 10751 10750 ] final -178.03 input  -60.55 | X-H torsion
[ 11005 11000 10999 10996 ] final  -41.38 input  -57.11 | X-H torsion

> <Gold.Protein.ActiveResidues>
 VAL166  LYS551  ARG553  GLY616  TRP617  ASP618  TYR619  PRO620  LYS621  CYS622 
 ASP623  PHE694  ASN695  SER759  ASP760  ASP761  ALA762  ILE779  LEU786  VAL792 
 PHE793  MET794  SER795  GLU796  ALA797  LYS798  CYS799  TRP800  GLU811  SER814 

> <Gold.Protein.RotatedAtoms>
  151.9482  135.0182  160.0540 H   0  0  0  0  0  0  0  0  0  0  0  0  # atno 6907 bound_to 6896
  152.1977  133.4813  159.5050 H   0  0  0  0  0  0  0  0  0  0  0  0  # atno 6908 bound_to 6896
  150.6948  134.1548  159.4197 H   0  0  0  0  0  0  0  0  0  0  0  0  # atno 6909 bound_to 6896
  145.2013  140.9057  143.3368 H   0  0  0  0  0  0  0  0  0  0  0  0  # atno 7974 bound_to 7965
  156.1521  140.1583  156.8753 H   0  0  0  0  0  0  0  0  0  0  0  0  # atno 8008 bound_to 7997
  154.5081  140.0808  156.7971 H   0  0  0  0  0  0  0  0  0  0  0  0  # atno 8009 bound_to 7997
  155.3875  140.3408  155.4252 H   0  0  0  0  0  0  0  0  0  0  0  0  # atno 8010 bound_to 7997
  139.8692  144.6502  150.8969 H   0  0  0  0  0  0  0  0  0  0  0  0  # atno 10167 bound_to 10162
  156.3931  130.4376  149.7379 H   0  0  0  0  0  0  0  0  0  0  0  0  # atno 10718 bound_to 10713
  154.5528  135.2814  155.0992 H   0  0  0  0  0  0  0  0  0  0  0  0  # atno 10763 bound_to 10752
  154.2431  135.6353  153.5218 H   0  0  0  0  0  0  0  0  0  0  0  0  # atno 10764 bound_to 10752
  153.0007  135.5565  154.6100 H   0  0  0  0  0  0  0  0  0  0  0  0  # atno 10765 bound_to 10752
  141.0241  133.6849  156.2449 H   0  0  0  0  0  0  0  0  0  0  0  0  # atno 11005 bound_to 11000
  144.9945  139.3657  143.6198 LP  0  0  0  0  0  0  0  0  0  0  0  0  # atno 17320 bound_to 7965
  146.3417  139.9142  142.8776 LP  0  0  0  0  0  0  0  0  0  0  0  0  # atno 17321 bound_to 7965
  140.7763  143.3678  151.1705 LP  0  0  0  0  0  0  0  0  0  0  0  0  # atno 17342 bound_to 10162
  139.7300  143.9087  152.3016 LP  0  0  0  0  0  0  0  0  0  0  0  0  # atno 17343 bound_to 10162
  156.4425  130.7868  151.2889 LP  0  0  0  0  0  0  0  0  0  0  0  0  # atno 17370 bound_to 10713
  157.7500  131.0120  150.3369 LP  0  0  0  0  0  0  0  0  0  0  0  0  # atno 17371 bound_to 10713
  140.6521  134.5056  157.5578 LP  0  0  0  0  0  0  0  0  0  0  0  0  # atno 17394 bound_to 11000
  139.9165  134.8236  156.1350 LP  0  0  0  0  0  0  0  0  0  0  0  0  # atno 17395 bound_to 11000

$$$$
