AV-unprocessed.smi:907|AV-procd|sdf|4107|dock7
  -GOLD-   22720 2 03D 1   1.00000     0.00000
 Structure written by MMmdl.
 53 56  0  0  0  0  0  0  0  0  2 V2000
  150.1488  136.8665  159.4994 O   0  0  0  0  0  0  0  0  0  0  0  0
  149.8883  137.5430  158.5039 C   0  0  0  0  0  0  0  0  0  0  0  0
  148.7326  137.4105  157.8335 N   0  0  0  0  0  0  0  0  0  0  0  0
  147.6644  136.4886  158.1948 C   0  0  0  0  0  0  0  0  0  0  0  0
  146.7869  137.0872  159.3031 C   0  0  0  0  0  0  0  0  0  0  0  0
  146.9801  136.3844  160.6337 C   0  0  0  0  0  0  0  0  0  0  0  0
  146.6978  135.0083  160.7690 C   0  0  0  0  0  0  0  0  0  0  0  0
  146.8994  134.4023  162.0241 C   0  0  0  0  0  0  0  0  0  0  0  0
  147.3745  135.1908  163.0895 C   0  0  0  0  0  0  0  0  0  0  0  0
  147.6279  136.5566  162.8512 C   0  0  0  0  0  0  0  0  0  0  0  0
  147.4368  137.1479  161.6520 N   0  0  0  0  0  0  0  0  0  0  0  0
  150.7495  138.4501  157.9776 N   0  0  0  0  0  0  0  0  0  0  0  0
  150.4461  139.4427  156.9402 C   0  0  0  0  0  0  0  0  0  0  0  0
  150.3564  140.8388  157.5852 C   0  0  0  0  0  0  0  0  0  0  0  0
  151.5863  141.1869  158.3579 N   0  3  0  0  0  0  0  0  0  0  0  0
  151.5196  142.5054  159.0613 C   0  0  1  0  0  0  0  0  0  0  0  0
  152.9277  143.1276  159.2610 C   0  0  0  0  0  0  0  0  0  0  0  0
  152.7934  144.5346  158.6560 C   0  0  2  0  0  0  0  0  0  0  0  0
  151.8831  145.3949  159.5478 C   0  0  0  0  0  0  0  0  0  0  0  0
  150.4926  144.7938  159.2805 C   0  0  0  0  0  0  0  0  0  0  0  0
  150.7933  143.6474  158.2942 C   0  0  1  0  0  0  0  0  0  0  0  0
  151.9044  144.2615  157.4503 C   0  0  0  0  0  0  0  0  0  0  0  0
  151.9961  140.0891  159.2848 C   0  0  0  0  0  0  0  0  0  0  0  0
  152.0557  138.7248  158.5768 C   0  0  0  0  0  0  0  0  0  0  0  0
  148.5865  137.9831  157.0151 H   0  0  0  0  0  0  0  0  0  0  0  0
  147.0609  136.2771  157.3106 H   0  0  0  0  0  0  0  0  0  0  0  0
  148.0935  135.5422  158.5283 H   0  0  0  0  0  0  0  0  0  0  0  0
  147.0133  138.1473  159.4280 H   0  0  0  0  0  0  0  0  0  0  0  0
  145.7353  137.0301  159.0186 H   0  0  0  0  0  0  0  0  0  0  0  0
  146.3369  134.4289  159.9320 H   0  0  0  0  0  0  0  0  0  0  0  0
  146.6934  133.3517  162.1665 H   0  0  0  0  0  0  0  0  0  0  0  0
  147.5412  134.7598  164.0655 H   0  0  0  0  0  0  0  0  0  0  0  0
  147.9938  137.1910  163.6448 H   0  0  0  0  0  0  0  0  0  0  0  0
  151.2425  139.4302  156.1946 H   0  0  0  0  0  0  0  0  0  0  0  0
  149.5314  139.2370  156.3838 H   0  0  0  0  0  0  0  0  0  0  0  0
  150.1941  141.5511  156.7791 H   0  0  0  0  0  0  0  0  0  0  0  0
  149.4882  140.8886  158.2445 H   0  0  0  0  0  0  0  0  0  0  0  0
  151.0295  142.3461  160.0236 H   0  0  0  0  0  0  0  0  0  0  0  0
  153.2254  143.1530  160.3098 H   0  0  0  0  0  0  0  0  0  0  0  0
  153.6968  142.5817  158.7130 H   0  0  0  0  0  0  0  0  0  0  0  0
  153.7504  145.0040  158.4258 H   0  0  0  0  0  0  0  0  0  0  0  0
  152.1661  145.3430  160.5999 H   0  0  0  0  0  0  0  0  0  0  0  0
  151.9133  146.4418  159.2431 H   0  0  0  0  0  0  0  0  0  0  0  0
  150.0060  144.4457  160.1921 H   0  0  0  0  0  0  0  0  0  0  0  0
  149.8397  145.5372  158.8210 H   0  0  0  0  0  0  0  0  0  0  0  0
  149.8994  143.3682  157.7414 H   0  0  0  0  0  0  0  0  0  0  0  0
  151.5986  145.1680  156.9248 H   0  0  0  0  0  0  0  0  0  0  0  0
  152.3426  143.5632  156.7351 H   0  0  0  0  0  0  0  0  0  0  0  0
  152.9705  140.2977  159.7249 H   0  0  0  0  0  0  0  0  0  0  0  0
  151.2871  140.0353  160.1129 H   0  0  0  0  0  0  0  0  0  0  0  0
  152.3665  137.9518  159.2813 H   0  0  0  0  0  0  0  0  0  0  0  0
  152.8197  138.7370  157.7981 H   0  0  0  0  0  0  0  0  0  0  0  0
  152.3245  141.2672  157.6730 H   0  0  0  0  0  0  0  0  0  0  0  0
  1  2  2  0  0  0  0
  2  3  1  0  0  0  0
  2 12  1  0  0  0  0
  3  4  1  0  0  0  0
  3 25  1  0  0  0  0
  4  5  1  0  0  0  0
  4 26  1  0  0  0  0
  4 27  1  0  0  0  0
  5  6  1  0  0  0  0
  5 28  1  0  0  0  0
  5 29  1  0  0  0  0
  6 11  1  0  0  0  0
  6  7  2  0  0  0  0
  7  8  1  0  0  0  0
  7 30  1  0  0  0  0
  8  9  2  0  0  0  0
  8 31  1  0  0  0  0
  9 10  1  0  0  0  0
  9 32  1  0  0  0  0
 10 11  2  0  0  0  0
 10 33  1  0  0  0  0
 12 24  1  0  0  0  0
 12 13  1  0  0  0  0
 13 14  1  0  0  0  0
 13 34  1  0  0  0  0
 13 35  1  0  0  0  0
 14 15  1  0  0  0  0
 14 36  1  0  0  0  0
 14 37  1  0  0  0  0
 15 16  1  0  0  0  0
 15 23  1  0  0  0  0
 15 53  1  0  0  0  0
 16 21  1  0  0  0  0
 16 17  1  0  0  0  0
 16 38  1  0  0  0  0
 17 18  1  0  0  0  0
 17 39  1  0  0  0  0
 17 40  1  0  0  0  0
 18 22  1  0  0  0  0
 18 19  1  0  0  0  0
 18 41  1  0  0  0  0
 19 20  1  0  0  0  0
 19 42  1  0  0  0  0
 19 43  1  0  0  0  0
 20 21  1  0  0  0  0
 20 44  1  0  0  0  0
 20 45  1  0  0  0  0
 21 22  1  0  0  0  0
 21 46  1  0  0  0  0
 22 47  1  0  0  0  0
 22 48  1  0  0  0  0
 23 24  1  0  0  0  0
 23 49  1  0  0  0  0
 23 50  1  0  0  0  0
 24 51  1  0  0  0  0
 24 52  1  0  0  0  0
M  CHG  1  15   1
M  END
> <s_m_source_file>
AV-unprocessed.smi

> <i_m_source_file_index>
907

> <i_lp_mmshare_version>
43012

> <i_f3d_flags>
0

> <s_epik_input>
W0NIMl0xW0NIMl1bQ0BASF0oW0NIMl0yKVtDQEBIXShbQ0gyXVtDQEhdMTIpTihbQ0gyXVtDSDJdMylbQ0gyXVtDSDJdTjNDKD1PKVtOSF1bQ0gyXVtDSDJdYzRbY0hdW2NIXVtjSF1bY0hdbjQ=

> <s_epik_cmdline>
J2VwaWtfcHl0aG9uJywgJy1waCcsICc3LjAnLCAnLXRuJywgJzgnLCAnLW1hJywgJzIwMCcsICctbWV0YWxfYmluZGluZycsICctaW1hZScsICc8aW5maWxlLm1hZT4nLCAnLW9tYWUnLCAnPG91dGZpbGUubWFlPic=

> <r_epik_Ionization_Penalty>
0.0419258

> <r_epik_Ionization_Penalty_Charging>
0.00262064

> <r_epik_Ionization_Penalty_Neutral>
0.0393052

> <r_epik_State_Penalty>
0.0329887

> <r_epik_Charging_Adjusted_Penalty>
0.0356093

> <i_epik_Tot_Q>
1

> <i_epik_Tot_abs_Q>
1

> <r_epik_Metal_State_Penalty>
0.0309172

> <b_epik_Metal_Only>
0

> <s_lp_Force_Field>
OPLS_2005

> <r_lp_Energy>
96.5641

> <b_lp_Chiralities_Consistent>
1

> <s_lp_Variant>
AV-unprocessed.smi:907-2

> <Gold.Version>
5.8.1

> <Gold.Id.Protein>
6NUR|6NUR_protein|mol2

> <Gold.PLP.Fitness>
56.6794

> <Gold.PLP.PLP>
-51.5402

> <Gold.PLP.part.hbond>
-2.8882

> <Gold.PLP.part.metal>
0.0000

> <Gold.PLP.part.buried>
-7.4811

> <Gold.PLP.part.nonpolar>
-41.6688

> <Gold.PLP.part.repulsive>
0.1673

> <Gold.PLP.ligand.clash>
0.0000

> <Gold.PLP.ligand.torsion>
0.9311

> <Gold.PLP.Chemscore.Hbond>
2.3025

> <Gold.PLP.Chemscore.CHOScore>
0.0000

> <Gold.PLP.Chemscore.Metal>
0.0000

> <Gold.Chemscore.Hbonds>
donor molecule, donor type, donor heavy atom, donor atom, acceptor molecule, acceptor atom, score
      P1  H  6896  6907       L1     1  0.93
      P1  H  6931  6943       L1    11  0.52
      P1  H  6934  6947       L1    11  0.83

> <Gold.PLP.Chemscore.Internal.Correction>
0.0940

> <Gold.Rescore>
     Score         DG    S(hbond)    S(metal)    S(lipo)     H(rot)  DE(clash)    DE(int)     intcor
     24.16     -25.11       1.90        0.00     143.58       1.37       0.03       0.91       ----

> <Gold.Chemscore.Fitness>
24.1647

> <Gold.Chemscore.DG>
-25.1111

> <Gold.Chemscore.ZeroCoef>
-5.4800

> <Gold.Chemscore.Hbond>
1.9002

> <Gold.Chemscore.Metal>
0.0000

> <Gold.Chemscore.Lipo>
143.5849

> <Gold.Chemscore.Internal_Hbond>
0.0000

> <Gold.Chemscore.DEClash>
0.0317

> <Gold.Chemscore.DEInternal>
0.9147

> <Gold.Chemscore.Rot>
1.3731

> <Gold.Chemscore.Internal.Correction>
   9.000000E+99

> <Gold.Chemscore.Hbonds>
donor molecule, donor type, donor heavy atom, donor atom, acceptor molecule, acceptor atom, score
      P1  H  6896  6907       L1     1  0.89
      P1  H  6931  6943       L1    11  0.03
      P1  H  6934  6947       L1    11  0.31

> <Gold.Chemscore.Hbond.Weighted>
-6.3468

> <Gold.Chemscore.Metal.Weighted>
-0.0000

> <Gold.Chemscore.Lipo.Weighted>
-16.7994

> <Gold.Chemscore.Internal_Hbond.Weighted>
0.0000

> <Gold.Chemscore.DEClash.Weighted>
0.0317

> <Gold.Chemscore.DEInternal.Weighted>
0.9147

> <Gold.Chemscore.Rot.Weighted>
3.5152

> <Gold.Chemscore.Internal.Correction.Weighted>
   9.000000E+99

> <Gold.Protein.RotatedTorsions>
[ 6907 6896 6895 6894 ] final  -34.81 input  -60.11 | X-H torsion
[ 7974 7965 7964 7962 ] final -177.97 input  175.53 | X-H torsion
[ 8008 7997 7996 7995 ] final  178.89 input   59.86 | X-H torsion
[ 10167 10162 10161 10158 ] final  -53.28 input  -65.29 | X-H torsion
[ 10718 10713 10712 10709 ] final  -94.41 input   66.30 | X-H torsion
[ 10763 10752 10751 10750 ] final  -20.48 input  -60.55 | X-H torsion
[ 11005 11000 10999 10996 ] final   28.15 input  -57.11 | X-H torsion

> <Gold.Protein.ActiveResidues>
 VAL166  LYS551  ARG553  GLY616  TRP617  ASP618  TYR619  PRO620  LYS621  CYS622 
 ASP623  PHE694  ASN695  SER759  ASP760  ASP761  ALA762  ILE779  LEU786  VAL792 
 PHE793  MET794  SER795  GLU796  ALA797  LYS798  CYS799  TRP800  GLU811  SER814 

> <Gold.Protein.RotatedAtoms>
  151.0478  134.9652  159.8195 H   0  0  0  0  0  0  0  0  0  0  0  0  # atno 6907 bound_to 6896
  152.5375  134.2576  159.8933 H   0  0  0  0  0  0  0  0  0  0  0  0  # atno 6908 bound_to 6896
  151.2590  133.4269  159.2649 H   0  0  0  0  0  0  0  0  0  0  0  0  # atno 6909 bound_to 6896
  144.7129  140.0939  143.6420 H   0  0  0  0  0  0  0  0  0  0  0  0  # atno 7974 bound_to 7965
  156.0496  140.1322  157.0065 H   0  0  0  0  0  0  0  0  0  0  0  0  # atno 8008 bound_to 7997
  154.4428  140.1013  156.6426 H   0  0  0  0  0  0  0  0  0  0  0  0  # atno 8009 bound_to 7997
  155.5544  140.3463  155.4478 H   0  0  0  0  0  0  0  0  0  0  0  0  # atno 8010 bound_to 7997
  140.6493  143.2555  151.4769 H   0  0  0  0  0  0  0  0  0  0  0  0  # atno 10167 bound_to 10162
  156.0027  130.5067  150.5923 H   0  0  0  0  0  0  0  0  0  0  0  0  # atno 10718 bound_to 10713
  153.6211  135.6992  153.5310 H   0  0  0  0  0  0  0  0  0  0  0  0  # atno 10763 bound_to 10752
  153.2937  135.4149  155.1189 H   0  0  0  0  0  0  0  0  0  0  0  0  # atno 10764 bound_to 10752
  154.8543  135.3631  154.5752 H   0  0  0  0  0  0  0  0  0  0  0  0  # atno 10765 bound_to 10752
  140.3186  134.2568  155.7721 H   0  0  0  0  0  0  0  0  0  0  0  0  # atno 11005 bound_to 11000
  145.9596  139.2791  143.1163 LP  0  0  0  0  0  0  0  0  0  0  0  0  # atno 17320 bound_to 7965
  145.9234  140.9099  143.0393 LP  0  0  0  0  0  0  0  0  0  0  0  0  # atno 17321 bound_to 7965
  139.5707  144.1936  152.1831 LP  0  0  0  0  0  0  0  0  0  0  0  0  # atno 17342 bound_to 10162
  140.1231  144.5355  150.6850 LP  0  0  0  0  0  0  0  0  0  0  0  0  # atno 17343 bound_to 10162
  157.3786  131.0777  151.1496 LP  0  0  0  0  0  0  0  0  0  0  0  0  # atno 17370 bound_to 10713
  157.2226  130.6488  149.5817 LP  0  0  0  0  0  0  0  0  0  0  0  0  # atno 17371 bound_to 10713
  141.2092  133.7757  157.0013 LP  0  0  0  0  0  0  0  0  0  0  0  0  # atno 17394 bound_to 11000
  140.0961  134.9563  157.1852 LP  0  0  0  0  0  0  0  0  0  0  0  0  # atno 17395 bound_to 11000

$$$$
