#       Name:                AV-unprocessed.smi:1679
#       Creating user name   scv26
#       Creation time:       Fri Mar 27 07:48:19 2020


#       File generated by GOLD software.
#

@<TRIPOS>MOLECULE
AV-unprocessed.smi:1679
    53    54     1
SMALL
NO_CHARGES


@<TRIPOS>ATOM
      1 ****        -1.5401   0.7205  -1.5227 C.3            1 S1                 0.0000
      2 ****        -1.5958   1.2677  -0.0890 C.3            1 S1                 0.0000
      3 ****        -0.2033   1.7059   0.4073 C.3            1 S1                 0.0000
      4 ****        -0.2699   2.3120   1.8171 C.3            1 S1                 0.0000
      5 ****        -0.9322   1.3456   2.8101 C.3            1 S1                 0.0000
      6 ****        -2.3213   0.9020   2.3185 C.3            1 S1                 0.0000
      7 ****        -2.2605   0.2866   0.9081 C.3            1 S1                 0.0000
      8 ****        -1.5019  -0.9117   1.0072 O.3            1 S1                 0.0000
      9 ****        -2.0667  -2.0450   0.3666 C.3            1 S1                 0.0000
     10 ****        -1.0485  -3.1958   0.3975 C.3            1 S1                 0.0000
     11 ****         0.1075  -2.9125  -0.4484 N.am           1 S1                 0.0000
     12 ****         1.1851  -2.2066  -0.0705 C.2            1 S1                 0.0000
     13 ****         1.3331  -1.7648   1.0693 O.2            1 S1                 0.0000
     14 ****         2.2662  -1.9858  -1.1370 C.3            1 S1                 0.0000
     15 ****         2.6339  -0.5667  -1.2714 N.am           1 S1                 0.0000
     16 ****         1.9473   0.1849  -2.2411 C.2            1 S1                 0.0000
     17 ****         2.1829   1.4976  -2.4243 C.2            1 S1                 0.0000
     18 ****         3.1835   2.1420  -1.5835 C.2            1 S1                 0.0000
     19 ****         3.4023   3.3433  -1.7271 O.2            1 S1                 0.0000
     20 ****         3.8348   1.3682  -0.6668 N.pl3          1 S1                -1.0000
     21 ****         3.5866   0.0325  -0.4942 C.2            1 S1                 0.0000
     22 ****         4.1915  -0.6462   0.3358 O.2            1 S1                 0.0000
     23 ****        -0.9020  -0.1604  -1.5873 H              1 S1                 0.0000
     24 ****        -1.1402   1.4662  -2.2101 H              1 S1                 0.0000
     25 ****        -2.5328   0.4433  -1.8774 H              1 S1                 0.0000
     26 ****        -2.2209   2.1611  -0.1236 H              1 S1                 0.0000
     27 ****         0.4763   0.8534   0.4101 H              1 S1                 0.0000
     28 ****         0.2258   2.4357  -0.2797 H              1 S1                 0.0000
     29 ****         0.7343   2.5651   2.1583 H              1 S1                 0.0000
     30 ****        -0.8314   3.2464   1.7869 H              1 S1                 0.0000
     31 ****        -0.2940   0.4714   2.9466 H              1 S1                 0.0000
     32 ****        -1.0178   1.8195   3.7881 H              1 S1                 0.0000
     33 ****        -2.7506   0.1853   3.0192 H              1 S1                 0.0000
     34 ****        -2.9919   1.7620   2.3102 H              1 S1                 0.0000
     35 ****        -3.2816   0.0707   0.5876 H              1 S1                 0.0000
     36 ****        -2.9755  -2.3362   0.8946 H              1 S1                 0.0000
     37 ****        -2.3486  -1.8209  -0.6625 H              1 S1                 0.0000
     38 ****        -0.7381  -3.4080   1.4221 H              1 S1                 0.0000
     39 ****        -1.5180  -4.1055   0.0225 H              1 S1                 0.0000
     40 ****         0.0723  -3.2497  -1.3991 H              1 S1                 0.0000
     41 ****         3.1368  -2.5917  -0.8812 H              1 S1                 0.0000
     42 ****         1.9238  -2.3743  -2.0977 H              1 S1                 0.0000
     43 ****         1.2181  -0.3656  -2.8168 H              1 S1                 0.0000
     44 ****         1.6412   2.0600  -3.1702 H              1 S1                 0.0000
     45 ****        -1.3927  -1.1283   1.9773 LP             1 S1                 0.0000
     46 ****        -0.6041  -0.7430   0.6003 LP             1 S1                 0.0000
     47 ****         0.6315  -1.9265   1.7632 LP             1 S1                 0.0000
     48 ****         2.1550  -1.2444   1.3010 LP             1 S1                 0.0000
     49 ****         2.8964   3.8650  -2.4140 LP             1 S1                 0.0000
     50 ****         4.0862   3.7986  -1.1571 LP             1 S1                 0.0000
     51 ****         4.5296   1.7992  -0.0911 LP             1 S1                 0.0000
     52 ****         3.9832  -1.6194   0.4334 LP             1 S1                 0.0000
     53 ****         4.8912  -0.2244   0.9123 LP             1 S1                 0.0000
@<TRIPOS>BOND
    1    1    2 1     
    2    1   23 1     
    3    1   24 1     
    4    1   25 1     
    5    2    7 1     
    6    2    3 1     
    7    2   26 1     
    8    3    4 1     
    9    3   27 1     
   10    3   28 1     
   11    4    5 1     
   12    4   29 1     
   13    4   30 1     
   14    5    6 1     
   15    5   31 1     
   16    5   32 1     
   17    6    7 1     
   18    6   33 1     
   19    6   34 1     
   20    7    8 1     
   21    7   35 1     
   22    8    9 1     
   23    9   10 1     
   24    9   36 1     
   25    9   37 1     
   26   10   11 1     
   27   10   38 1     
   28   10   39 1     
   29   11   12 am    
   30   11   40 1     
   31   12   13 2     
   32   12   14 1     
   33   14   15 1     
   34   14   41 1     
   35   14   42 1     
   36   15   21 am    
   37   15   16 1     
   38   16   17 2     
   39   16   43 1     
   40   17   18 1     
   41   17   44 1     
   42   18   19 2     
   43   18   20 1     
   44   20   21 1     
   45   21   22 2     
   46    8   45 1     
   47    8   46 1     
   48   13   47 1     
   49   13   48 1     
   50   19   49 1     
   51   19   50 1     
   52   20   51 1     
   53   22   52 1     
   54   22   53 1     
@<TRIPOS>SUBSTRUCTURE
      1 S1             1
@<TRIPOS>SET
LONE_PAIRS      STATIC     ATOMS    <user>   **** ""
9 45 46 47 48 49 50 51 52 53
DONOR_HYDROGENS      STATIC     ATOMS    <user>   **** ""
1 40
ATOM$BLUE        STATIC     ATOMS    COLORGROUP SYSTEM
9 45 46 47 48 49 50 51 52 53
ATOM$RED        STATIC     ATOMS    COLORGROUP SYSTEM
1 40
