AV-unprocessed.smi:2770|AV-procd|sdf|10659|dock3
  -GOLD-   2272015103D 1   1.00000     0.00000
 Structure written by MMmdl.
 34 35  0  0  0  0  0  0  0  0  1 V2000
  146.3394  142.5410  154.2778 C   0  0  0  0  0  0  0  0  0  0  0  0
  147.7342  142.3324  154.6348 N   0  0  0  0  0  0  0  0  0  0  0  0
  148.3084  141.1284  154.7702 C   0  0  0  0  0  0  0  0  0  0  0  0
  147.7018  140.0712  154.5936 O   0  0  0  0  0  0  0  0  0  0  0  0
  149.7897  141.1302  155.1647 C   0  0  1  0  0  0  0  0  0  0  0  0
  150.0591  141.9056  156.4736 C   0  0  0  0  0  0  0  0  0  0  0  0
  151.4661  141.7932  156.8375 N   0  0  0  0  0  0  0  0  0  0  0  0
  151.8237  142.5730  157.9463 C   0  0  0  0  0  0  0  0  0  0  0  0
  151.5379  143.9544  157.9322 C   0  0  0  0  0  0  0  0  0  0  0  0
  151.8982  144.7318  159.0498 C   0  0  0  0  0  0  0  0  0  0  0  0
  152.5308  144.1032  160.1391 C   0  0  0  0  0  0  0  0  0  0  0  0
  152.7760  142.7164  160.0613 C   0  0  0  0  0  0  0  0  0  0  0  0
  153.4536  141.9805  161.1979 C   0  0  0  0  0  0  0  0  0  0  0  0
  152.4332  141.9646  158.9924 N   0  0  0  0  0  0  0  0  0  0  0  0
  151.9052  140.4073  156.9356 C   0  0  0  0  0  0  0  0  0  0  0  0
  151.5949  139.6656  155.6244 C   0  0  0  0  0  0  0  0  0  0  0  0
  150.2051  139.7753  155.3284 O   0  0  0  0  0  0  0  0  0  0  0  0
  146.1172  143.6078  154.2548 H   0  0  0  0  0  0  0  0  0  0  0  0
  145.6774  142.0701  155.0058 H   0  0  0  0  0  0  0  0  0  0  0  0
  146.1247  142.1262  153.2923 H   0  0  0  0  0  0  0  0  0  0  0  0
  148.3002  143.1538  154.7911 H   0  0  0  0  0  0  0  0  0  0  0  0
  150.3606  141.5835  154.3516 H   0  0  0  0  0  0  0  0  0  0  0  0
  149.7975  142.9573  156.3496 H   0  0  0  0  0  0  0  0  0  0  0  0
  149.4431  141.5116  157.2839 H   0  0  0  0  0  0  0  0  0  0  0  0
  151.0510  144.4107  157.0828 H   0  0  0  0  0  0  0  0  0  0  0  0
  151.6930  145.7919  159.0710 H   0  0  0  0  0  0  0  0  0  0  0  0
  152.8193  144.6732  161.0099 H   0  0  0  0  0  0  0  0  0  0  0  0
  153.6831  142.6535  162.0244 H   0  0  0  0  0  0  0  0  0  0  0  0
  154.3862  141.5318  160.8548 H   0  0  0  0  0  0  0  0  0  0  0  0
  152.8074  141.1869  161.5743 H   0  0  0  0  0  0  0  0  0  0  0  0
  152.9752  140.3712  157.1434 H   0  0  0  0  0  0  0  0  0  0  0  0
  151.3978  139.9170  157.7678 H   0  0  0  0  0  0  0  0  0  0  0  0
  152.1853  140.0689  154.7999 H   0  0  0  0  0  0  0  0  0  0  0  0
  151.8569  138.6116  155.7172 H   0  0  0  0  0  0  0  0  0  0  0  0
  1  2  1  0  0  0  0
  1 18  1  0  0  0  0
  1 19  1  0  0  0  0
  1 20  1  0  0  0  0
  2  3  1  0  0  0  0
  2 21  1  0  0  0  0
  3  4  2  0  0  0  0
  3  5  1  0  0  0  0
  5 17  1  0  0  0  0
  5  6  1  0  0  0  0
  5 22  1  0  0  0  0
  6  7  1  0  0  0  0
  6 23  1  0  0  0  0
  6 24  1  0  0  0  0
  7  8  1  0  0  0  0
  7 15  1  0  0  0  0
  8 14  1  0  0  0  0
  8  9  2  0  0  0  0
  9 10  1  0  0  0  0
  9 25  1  0  0  0  0
 10 11  2  0  0  0  0
 10 26  1  0  0  0  0
 11 12  1  0  0  0  0
 11 27  1  0  0  0  0
 12 13  1  0  0  0  0
 12 14  2  0  0  0  0
 13 28  1  0  0  0  0
 13 29  1  0  0  0  0
 13 30  1  0  0  0  0
 15 16  1  0  0  0  0
 15 31  1  0  0  0  0
 15 32  1  0  0  0  0
 16 17  1  0  0  0  0
 16 33  1  0  0  0  0
 16 34  1  0  0  0  0
M  END
> <s_m_source_file>
AV-unprocessed.smi

> <i_m_source_file_index>
2770

> <i_lp_mmshare_version>
43012

> <i_f3d_flags>
0

> <s_epik_input>
W0NIM11bTkhdQyg9TylbQ0BASF0xW0NIMl1OKFtDSDJdW0NIMl1PMSljMltjSF1bY0hdW2NIXWMobjIpW0NIM10=

> <s_epik_cmdline>
J2VwaWtfcHl0aG9uJywgJy1waCcsICc3LjAnLCAnLXRuJywgJzgnLCAnLW1hJywgJzIwMCcsICctbWV0YWxfYmluZGluZycsICctaW1hZScsICc8aW5maWxlLm1hZT4nLCAnLW9tYWUnLCAnPG91dGZpbGUubWFlPic=

> <r_lp_tautomer_probability>
1

> <r_epik_Ionization_Penalty>
0.0115449

> <r_epik_Ionization_Penalty_Charging>
0

> <r_epik_Ionization_Penalty_Neutral>
0.0115449

> <r_epik_State_Penalty>
0.00889041

> <r_epik_Charging_Adjusted_Penalty>
0.00889041

> <i_epik_Tot_Q>
0

> <i_epik_Tot_abs_Q>
0

> <r_epik_Metal_State_Penalty>
0.00871946

> <b_epik_Metal_Only>
0

> <s_lp_Force_Field>
OPLS_2005

> <r_lp_Energy>
19.0153

> <b_lp_Chiralities_Consistent>
1

> <s_lp_Variant>
AV-unprocessed.smi:2770-2

> <Gold.Version>
5.8.1

> <Gold.Id.Protein>
6NUR|6NUR_protein|mol2

> <Gold.PLP.Fitness>
41.6500

> <Gold.PLP.PLP>
-38.6960

> <Gold.PLP.part.hbond>
-1.0000

> <Gold.PLP.part.metal>
0.0000

> <Gold.PLP.part.buried>
-3.0722

> <Gold.PLP.part.nonpolar>
-34.4509

> <Gold.PLP.part.repulsive>
0.3638

> <Gold.PLP.ligand.clash>
0.0000

> <Gold.PLP.ligand.torsion>
0.0744

> <Gold.PLP.Chemscore.Hbond>
1.0000

> <Gold.PLP.Chemscore.CHOScore>
0.0000

> <Gold.PLP.Chemscore.Metal>
0.0000

> <Gold.Chemscore.Hbonds>
donor molecule, donor type, donor heavy atom, donor atom, acceptor molecule, acceptor atom, score
      L1  H     2    21       P1  8028  1.00

> <Gold.PLP.Chemscore.Internal.Correction>
0.1027

> <Gold.Rescore>
     Score         DG    S(hbond)    S(metal)    S(lipo)     H(rot)  DE(clash)    DE(int)     intcor
     16.03     -16.19       0.99        0.00      91.30       1.27       0.04       0.12       ----

> <Gold.Chemscore.Fitness>
16.0263

> <Gold.Chemscore.DG>
-16.1934

> <Gold.Chemscore.ZeroCoef>
-5.4800

> <Gold.Chemscore.Hbond>
0.9853

> <Gold.Chemscore.Metal>
0.0000

> <Gold.Chemscore.Lipo>
91.3020

> <Gold.Chemscore.Internal_Hbond>
0.0000

> <Gold.Chemscore.DEClash>
0.0442

> <Gold.Chemscore.DEInternal>
0.1229

> <Gold.Chemscore.Rot>
1.2734

> <Gold.Chemscore.Internal.Correction>
   9.000000E+99

> <Gold.Chemscore.Hbonds>
donor molecule, donor type, donor heavy atom, donor atom, acceptor molecule, acceptor atom, score
      L1  H     2    21       P1  8028  0.98

> <Gold.Chemscore.Hbond.Weighted>
-3.2909

> <Gold.Chemscore.Metal.Weighted>
-0.0000

> <Gold.Chemscore.Lipo.Weighted>
-10.6823

> <Gold.Chemscore.Internal_Hbond.Weighted>
0.0000

> <Gold.Chemscore.DEClash.Weighted>
0.0442

> <Gold.Chemscore.DEInternal.Weighted>
0.1229

> <Gold.Chemscore.Rot.Weighted>
3.2598

> <Gold.Chemscore.Internal.Correction.Weighted>
   9.000000E+99

> <Gold.Protein.RotatedTorsions>
[ 6907 6896 6895 6894 ] final  -56.87 input  -60.11 | X-H torsion
[ 7974 7965 7964 7962 ] final   41.95 input  175.53 | X-H torsion
[ 8008 7997 7996 7995 ] final -114.74 input   59.86 | X-H torsion
[ 10167 10162 10161 10158 ] final   84.80 input  -65.29 | X-H torsion
[ 10718 10713 10712 10709 ] final -122.77 input   66.30 | X-H torsion
[ 10763 10752 10751 10750 ] final  -55.53 input  -60.55 | X-H torsion
[ 11005 11000 10999 10996 ] final   88.56 input  -57.11 | X-H torsion

> <Gold.Protein.ActiveResidues>
 VAL166  LYS551  ARG553  GLY616  TRP617  ASP618  TYR619  PRO620  LYS621  CYS622 
 ASP623  PHE694  ASN695  SER759  ASP760  ASP761  ALA762  ILE779  LEU786  VAL792 
 PHE793  MET794  SER795  GLU796  ALA797  LYS798  CYS799  TRP800  GLU811  SER814 

> <Gold.Protein.RotatedAtoms>
  150.8132  134.7298  159.6706 H   0  0  0  0  0  0  0  0  0  0  0  0  # atno 6907 bound_to 6896
  152.4251  134.5880  159.9976 H   0  0  0  0  0  0  0  0  0  0  0  0  # atno 6908 bound_to 6896
  151.6084  133.3312  159.3098 H   0  0  0  0  0  0  0  0  0  0  0  0  # atno 6909 bound_to 6896
  146.0781  139.5356  142.9555 H   0  0  0  0  0  0  0  0  0  0  0  0  # atno 7974 bound_to 7965
  155.0411  140.0392  157.2510 H   0  0  0  0  0  0  0  0  0  0  0  0  # atno 8008 bound_to 7997
  154.7215  140.2713  155.6513 H   0  0  0  0  0  0  0  0  0  0  0  0  # atno 8009 bound_to 7997
  156.2818  140.2702  156.1888 H   0  0  0  0  0  0  0  0  0  0  0  0  # atno 8010 bound_to 7997
  139.9043  144.6311  150.8604 H   0  0  0  0  0  0  0  0  0  0  0  0  # atno 10167 bound_to 10162
  156.1446  130.6490  150.9822 H   0  0  0  0  0  0  0  0  0  0  0  0  # atno 10718 bound_to 10713
  154.1922  135.6425  153.5063 H   0  0  0  0  0  0  0  0  0  0  0  0  # atno 10763 bound_to 10752
  153.0032  135.5431  154.6403 H   0  0  0  0  0  0  0  0  0  0  0  0  # atno 10764 bound_to 10752
  154.5795  135.2924  155.0720 H   0  0  0  0  0  0  0  0  0  0  0  0  # atno 10765 bound_to 10752
  139.8894  134.8495  156.3017 H   0  0  0  0  0  0  0  0  0  0  0  0  # atno 11005 bound_to 11000
  145.6269  141.0312  143.1884 LP  0  0  0  0  0  0  0  0  0  0  0  0  # atno 17320 bound_to 7965
  144.7275  139.7830  143.7359 LP  0  0  0  0  0  0  0  0  0  0  0  0  # atno 17321 bound_to 7965
  140.7700  143.3413  151.2202 LP  0  0  0  0  0  0  0  0  0  0  0  0  # atno 17342 bound_to 10162
  139.6998  143.9552  152.2900 LP  0  0  0  0  0  0  0  0  0  0  0  0  # atno 17343 bound_to 10162
  157.6605  131.0881  150.7849 LP  0  0  0  0  0  0  0  0  0  0  0  0  # atno 17370 bound_to 10713
  156.7921  130.4893  149.5383 LP  0  0  0  0  0  0  0  0  0  0  0  0  # atno 17371 bound_to 10713
  140.9909  133.7209  156.0812 LP  0  0  0  0  0  0  0  0  0  0  0  0  # atno 17394 bound_to 11000
  140.7626  134.3922  157.5523 LP  0  0  0  0  0  0  0  0  0  0  0  0  # atno 17395 bound_to 11000

$$$$
