AV-unprocessed.smi:1240|AV-procd|sdf|5201|dock3
  -GOLD-   22720 4293D 1   1.00000     0.00000
 Structure written by MMmdl.
 48 50  0  0  0  0  0  0  0  0  2 V2000
  144.6163  136.2620  152.9631 O   0  0  0  0  0  0  0  0  0  0  0  0
  145.7821  136.3475  152.5786 C   0  0  0  0  0  0  0  0  0  0  0  0
  146.6398  137.2683  153.0365 N   0  0  0  0  0  0  0  0  0  0  0  0
  146.2999  138.2906  154.0211 C   0  0  0  0  0  0  0  0  0  0  0  0
  147.1632  139.5654  153.8456 C   0  0  2  0  0  0  0  0  0  0  0  0
  148.4336  139.5244  154.7581 C   0  0  1  0  0  0  0  0  0  0  0  0
  149.2226  138.2220  154.6764 C   0  0  0  0  0  0  0  0  0  0  0  0
  150.6050  138.6369  155.1510 C   0  0  0  0  0  0  0  0  0  0  0  0
  150.7923  139.8879  154.5164 O   0  0  0  0  0  0  0  0  0  0  0  0
  149.5352  140.5479  154.4076 C   0  0  0  0  0  0  0  0  0  0  0  0
  146.2674  140.7586  154.0242 N   0  3  0  0  0  0  0  0  0  0  0  0
  145.4795  140.8662  155.2799 C   0  0  0  0  0  0  0  0  0  0  0  0
  144.5322  142.0769  155.2182 C   0  0  0  0  0  0  0  0  0  0  0  0
  145.2819  143.2621  154.9889 O   0  0  0  0  0  0  0  0  0  0  0  0
  145.9784  143.2145  153.7513 C   0  0  0  0  0  0  0  0  0  0  0  0
  146.9723  142.0414  153.7664 C   0  0  0  0  0  0  0  0  0  0  0  0
  146.3693  135.5390  151.6795 N   0  0  0  0  0  0  0  0  0  0  0  0
  145.7952  134.4597  150.9555 C   0  0  0  0  0  0  0  0  0  0  0  0
  146.6043  133.3330  150.7013 C   0  0  0  0  0  0  0  0  0  0  0  0
  146.0601  132.2584  149.9698 C   0  0  0  0  0  0  0  0  0  0  0  0
  144.8005  132.2536  149.4854 N   0  0  0  0  0  0  0  0  0  0  0  0
  144.0332  133.3399  149.7157 C   0  0  0  0  0  0  0  0  0  0  0  0
  144.4782  134.4658  150.4370 C   0  0  0  0  0  0  0  0  0  0  0  0
  147.5778  137.2770  152.6637 H   0  0  0  0  0  0  0  0  0  0  0  0
  145.2368  138.5212  153.9491 H   0  0  0  0  0  0  0  0  0  0  0  0
  146.4335  137.8737  155.0195 H   0  0  0  0  0  0  0  0  0  0  0  0
  147.5243  139.5703  152.8157 H   0  0  0  0  0  0  0  0  0  0  0  0
  148.1488  139.6504  155.8036 H   0  0  0  0  0  0  0  0  0  0  0  0
  148.7983  137.4240  155.2867 H   0  0  0  0  0  0  0  0  0  0  0  0
  149.2824  137.8704  153.6452 H   0  0  0  0  0  0  0  0  0  0  0  0
  150.6235  138.7682  156.2339 H   0  0  0  0  0  0  0  0  0  0  0  0
  151.3814  137.9238  154.8732 H   0  0  0  0  0  0  0  0  0  0  0  0
  149.4326  140.9286  153.3909 H   0  0  0  0  0  0  0  0  0  0  0  0
  149.5197  141.3993  155.0878 H   0  0  0  0  0  0  0  0  0  0  0  0
  144.8737  139.9756  155.4390 H   0  0  0  0  0  0  0  0  0  0  0  0
  146.1504  140.9772  156.1323 H   0  0  0  0  0  0  0  0  0  0  0  0
  143.7839  141.9477  154.4346 H   0  0  0  0  0  0  0  0  0  0  0  0
  143.9917  142.1785  156.1594 H   0  0  0  0  0  0  0  0  0  0  0  0
  145.2735  143.1190  152.9237 H   0  0  0  0  0  0  0  0  0  0  0  0
  146.5105  144.1553  153.6101 H   0  0  0  0  0  0  0  0  0  0  0  0
  147.7267  142.2039  154.5379 H   0  0  0  0  0  0  0  0  0  0  0  0
  147.4990  142.0083  152.8134 H   0  0  0  0  0  0  0  0  0  0  0  0
  147.3583  135.6774  151.5332 H   0  0  0  0  0  0  0  0  0  0  0  0
  147.6211  133.2842  151.0628 H   0  0  0  0  0  0  0  0  0  0  0  0
  146.6543  131.3796  149.7671 H   0  0  0  0  0  0  0  0  0  0  0  0
  143.0340  133.3149  149.3067 H   0  0  0  0  0  0  0  0  0  0  0  0
  143.8127  135.3057  150.5643 H   0  0  0  0  0  0  0  0  0  0  0  0
  145.5745  140.6702  153.2944 H   0  0  0  0  0  0  0  0  0  0  0  0
  1  2  2  0  0  0  0
  2  3  1  0  0  0  0
  2 17  1  0  0  0  0
  3  4  1  0  0  0  0
  3 24  1  0  0  0  0
  4  5  1  0  0  0  0
  4 25  1  0  0  0  0
  4 26  1  0  0  0  0
  5  6  1  0  0  0  0
  5 11  1  0  0  0  0
  5 27  1  0  0  0  0
  6 10  1  0  0  0  0
  6  7  1  0  0  0  0
  6 28  1  0  0  0  0
  7  8  1  0  0  0  0
  7 29  1  0  0  0  0
  7 30  1  0  0  0  0
  8  9  1  0  0  0  0
  8 31  1  0  0  0  0
  8 32  1  0  0  0  0
  9 10  1  0  0  0  0
 10 33  1  0  0  0  0
 10 34  1  0  0  0  0
 11 16  1  0  0  0  0
 11 12  1  0  0  0  0
 11 48  1  0  0  0  0
 12 13  1  0  0  0  0
 12 35  1  0  0  0  0
 12 36  1  0  0  0  0
 13 14  1  0  0  0  0
 13 37  1  0  0  0  0
 13 38  1  0  0  0  0
 14 15  1  0  0  0  0
 15 16  1  0  0  0  0
 15 39  1  0  0  0  0
 15 40  1  0  0  0  0
 16 41  1  0  0  0  0
 16 42  1  0  0  0  0
 17 18  1  0  0  0  0
 17 43  1  0  0  0  0
 18 23  1  0  0  0  0
 18 19  2  0  0  0  0
 19 20  1  0  0  0  0
 19 44  1  0  0  0  0
 20 21  2  0  0  0  0
 20 45  1  0  0  0  0
 21 22  1  0  0  0  0
 22 23  2  0  0  0  0
 22 46  1  0  0  0  0
 23 47  1  0  0  0  0
M  CHG  1  11   1
M  END
> <s_m_source_file>
AV-unprocessed.smi

> <i_m_source_file_index>
1240

> <i_lp_mmshare_version>
43012

> <i_f3d_flags>
0

> <s_epik_input>
W2NIXTFbY0hdbltjSF1bY0hdYzFbTkhdQyg9TylbTkhdW0NIMl1bQ0BIXShbQ0BASF0yW0NIMl1bQ0gyXU9bQ0gyXTIpTjNbQ0gyXVtDSDJdT1tDSDJdW0NIMl0z

> <s_epik_cmdline>
J2VwaWtfcHl0aG9uJywgJy1waCcsICc3LjAnLCAnLXRuJywgJzgnLCAnLW1hJywgJzIwMCcsICctbWV0YWxfYmluZGluZycsICctaW1hZScsICc8aW5maWxlLm1hZT4nLCAnLW9tYWUnLCAnPG91dGZpbGUubWFlPic=

> <r_epik_Ionization_Penalty>
1.08433

> <r_epik_Ionization_Penalty_Charging>
0.98326

> <r_epik_Ionization_Penalty_Neutral>
0.10107

> <r_epik_State_Penalty>
1.11265

> <r_epik_Charging_Adjusted_Penalty>
2.09591

> <i_epik_Tot_Q>
1

> <i_epik_Tot_abs_Q>
1

> <r_epik_Metal_State_Penalty>
1.10731

> <b_epik_Metal_Only>
0

> <s_lp_Force_Field>
OPLS_2005

> <r_lp_Energy>
52.9252

> <b_lp_Chiralities_Consistent>
1

> <s_lp_Variant>
AV-unprocessed.smi:1240-7

> <Gold.Version>
5.8.1

> <Gold.Id.Protein>
6NUR|6NUR_protein|mol2

> <Gold.PLP.Fitness>
55.5988

> <Gold.PLP.PLP>
-37.0851

> <Gold.PLP.part.hbond>
-4.0000

> <Gold.PLP.part.metal>
0.0000

> <Gold.PLP.part.buried>
-5.4286

> <Gold.PLP.part.nonpolar>
-28.1567

> <Gold.PLP.part.repulsive>
0.6435

> <Gold.PLP.ligand.clash>
0.0000

> <Gold.PLP.ligand.torsion>
1.1433

> <Gold.PLP.Chemscore.Hbond>
4.8960

> <Gold.PLP.Chemscore.CHOScore>
2.0000

> <Gold.PLP.Chemscore.Metal>
0.0000

> <Gold.Chemscore.Hbonds>
donor molecule, donor type, donor heavy atom, donor atom, acceptor molecule, acceptor atom, score
      L1  H     3    24       P1  7948  0.91
      L1  H    11    48       P1 10175  1.82
      L1  H    17    43       P1  7948  1.00
      P1  H  7989  7998       L1     9  0.85
      L1  C    20    45       P1 10747  1.00
      L1  C    22    46       P1 10186  1.00

> <Gold.PLP.Chemscore.Internal.Correction>
0.1122

> <Gold.Rescore>
     Score         DG    S(hbond)    S(metal)    S(lipo)     H(rot)  DE(clash)    DE(int)     intcor
     22.03     -23.98       3.85        0.00      85.35       1.70       0.14       1.80       ----

> <Gold.Chemscore.Fitness>
22.0331

> <Gold.Chemscore.DG>
-23.9779

> <Gold.Chemscore.ZeroCoef>
-5.4800

> <Gold.Chemscore.Hbond>
3.8531

> <Gold.Chemscore.Metal>
0.0000

> <Gold.Chemscore.Lipo>
85.3497

> <Gold.Chemscore.Internal_Hbond>
0.0000

> <Gold.Chemscore.DEClash>
0.1433

> <Gold.Chemscore.DEInternal>
1.8015

> <Gold.Chemscore.Rot>
1.7021

> <Gold.Chemscore.Internal.Correction>
   9.000000E+99

> <Gold.Chemscore.Hbonds>
donor molecule, donor type, donor heavy atom, donor atom, acceptor molecule, acceptor atom, score
      L1  H     3    24       P1  7948  0.89
      L1  H    11    48       P1 10175  0.75
      L1  H    17    43       P1  7948  0.98
      P1  H  7989  7998       L1     9  0.15

> <Gold.Chemscore.Hbond.Weighted>
-12.8695

> <Gold.Chemscore.Metal.Weighted>
-0.0000

> <Gold.Chemscore.Lipo.Weighted>
-9.9859

> <Gold.Chemscore.Internal_Hbond.Weighted>
0.0000

> <Gold.Chemscore.DEClash.Weighted>
0.1433

> <Gold.Chemscore.DEInternal.Weighted>
1.8015

> <Gold.Chemscore.Rot.Weighted>
4.3575

> <Gold.Chemscore.Internal.Correction.Weighted>
   9.000000E+99

> <Gold.Protein.RotatedTorsions>
[ 6907 6896 6895 6894 ] final  102.45 input  -60.11 | X-H torsion
[ 7974 7965 7964 7962 ] final   63.91 input  175.53 | X-H torsion
[ 8008 7997 7996 7995 ] final  -48.85 input   59.86 | X-H torsion
[ 10167 10162 10161 10158 ] final   67.19 input  -65.29 | X-H torsion
[ 10718 10713 10712 10709 ] final   49.71 input   66.30 | X-H torsion
[ 10763 10752 10751 10750 ] final  -32.87 input  -60.55 | X-H torsion
[ 11005 11000 10999 10996 ] final  -60.46 input  -57.11 | X-H torsion

> <Gold.Protein.ActiveResidues>
 VAL166  LYS551  ARG553  GLY616  TRP617  ASP618  TYR619  PRO620  LYS621  CYS622 
 ASP623  PHE694  ASN695  SER759  ASP760  ASP761  ALA762  ILE779  LEU786  VAL792 
 PHE793  MET794  SER795  GLU796  ALA797  LYS798  CYS799  TRP800  GLU811  SER814 

> <Gold.Protein.RotatedAtoms>
  152.5323  133.9974  159.7878 H   0  0  0  0  0  0  0  0  0  0  0  0  # atno 6907 bound_to 6896
  151.0199  133.5879  159.2679 H   0  0  0  0  0  0  0  0  0  0  0  0  # atno 6908 bound_to 6896
  151.2922  135.0752  159.9262 H   0  0  0  0  0  0  0  0  0  0  0  0  # atno 6909 bound_to 6896
  145.8563  139.3286  143.0845 H   0  0  0  0  0  0  0  0  0  0  0  0  # atno 7974 bound_to 7965
  154.4035  140.1311  156.4407 H   0  0  0  0  0  0  0  0  0  0  0  0  # atno 8008 bound_to 7997
  155.7461  140.3489  155.5108 H   0  0  0  0  0  0  0  0  0  0  0  0  # atno 8009 bound_to 7997
  155.8993  140.1016  157.1352 H   0  0  0  0  0  0  0  0  0  0  0  0  # atno 8010 bound_to 7997
  140.0923  144.4977  150.7091 H   0  0  0  0  0  0  0  0  0  0  0  0  # atno 10167 bound_to 10162
  157.4813  130.8317  149.8097 H   0  0  0  0  0  0  0  0  0  0  0  0  # atno 10718 bound_to 10713
  153.8209  135.6874  153.4827 H   0  0  0  0  0  0  0  0  0  0  0  0  # atno 10763 bound_to 10752
  153.1570  135.4595  154.9716 H   0  0  0  0  0  0  0  0  0  0  0  0  # atno 10764 bound_to 10752
  154.7928  135.3308  154.7681 H   0  0  0  0  0  0  0  0  0  0  0  0  # atno 10765 bound_to 10752
  141.1288  133.6622  156.5227 H   0  0  0  0  0  0  0  0  0  0  0  0  # atno 11005 bound_to 11000
  145.9300  140.9055  143.0361 LP  0  0  0  0  0  0  0  0  0  0  0  0  # atno 17320 bound_to 7965
  144.6727  140.1405  143.7437 LP  0  0  0  0  0  0  0  0  0  0  0  0  # atno 17321 bound_to 7965
  140.7022  143.2443  151.4831 LP  0  0  0  0  0  0  0  0  0  0  0  0  # atno 17342 bound_to 10162
  139.5718  144.1911  152.1847 LP  0  0  0  0  0  0  0  0  0  0  0  0  # atno 17343 bound_to 10162
  156.0123  130.3828  150.2223 LP  0  0  0  0  0  0  0  0  0  0  0  0  # atno 17370 bound_to 10713
  157.0409  131.0035  151.3283 LP  0  0  0  0  0  0  0  0  0  0  0  0  # atno 17371 bound_to 10713
  140.4279  134.7128  157.4926 LP  0  0  0  0  0  0  0  0  0  0  0  0  # atno 17394 bound_to 11000
  140.0314  134.6401  155.9102 LP  0  0  0  0  0  0  0  0  0  0  0  0  # atno 17395 bound_to 11000

$$$$
