AV-unprocessed.smi:1421|AV-procd|sdf|5790|dock7
  -GOLD-   22720 5433D 1   1.00000     0.00000
 Structure written by MMmdl.
 45 46  0  0  0  0  0  0  0  0  1 V2000
  150.3519  130.8145  157.6765 C   0  0  0  0  0  0  0  0  0  0  0  0
  151.5543  131.7887  156.6853 S   0  0  0  0  0  0  0  0  0  0  0  0
  152.2670  132.7041  157.5892 O   0  0  0  0  0  0  0  0  0  0  0  0
  152.3091  130.8749  155.8148 O   0  0  0  0  0  0  0  0  0  0  0  0
  150.5203  132.7306  155.6727 N   0  0  0  0  0  0  0  0  0  0  0  0
  150.5101  134.1863  155.8297 C   0  0  0  0  0  0  0  0  0  0  0  0
  149.1595  134.6733  156.3874 C   0  0  0  0  0  0  0  0  0  0  0  0
  149.2916  135.3610  157.7494 C   0  0  0  0  0  0  0  0  0  0  0  0
  148.9099  134.7937  158.7731 O   0  0  0  0  0  0  0  0  0  0  0  0
  149.8503  136.5814  157.7450 N   0  0  0  0  0  0  0  0  0  0  0  0
  150.1302  137.3967  158.9235 C   0  0  0  0  0  0  0  0  0  0  0  0
  151.5698  137.8943  158.9577 C   0  0  0  0  0  0  0  0  0  0  0  0
  152.3821  137.5906  160.0713 C   0  0  0  0  0  0  0  0  0  0  0  0
  153.7069  138.0623  160.1062 C   0  0  0  0  0  0  0  0  0  0  0  0
  154.1715  138.8249  159.0195 C   0  0  0  0  0  0  0  0  0  0  0  0
  153.4094  139.1229  157.9471 N   0  0  0  0  0  0  0  0  0  0  0  0
  152.1320  138.6706  157.9097 C   0  0  0  0  0  0  0  0  0  0  0  0
  151.3723  138.9778  156.7686 N   0  0  0  0  0  0  0  0  0  0  0  0
  151.0918  140.3923  156.5532 C   0  0  0  0  0  0  0  0  0  0  0  0
  150.1091  140.5547  155.3815 C   0  0  0  0  0  0  0  0  0  0  0  0
  150.6489  139.9301  154.2203 O   0  0  0  0  0  0  0  0  0  0  0  0
  150.8578  138.5330  154.4097 C   0  0  0  0  0  0  0  0  0  0  0  0
  151.8459  138.3041  155.5673 C   0  0  0  0  0  0  0  0  0  0  0  0
  150.8923  130.1661  158.3659 H   0  0  0  0  0  0  0  0  0  0  0  0
  149.7391  130.2052  157.0128 H   0  0  0  0  0  0  0  0  0  0  0  0
  149.7125  131.4912  158.2427 H   0  0  0  0  0  0  0  0  0  0  0  0
  150.6440  132.4746  154.6934 H   0  0  0  0  0  0  0  0  0  0  0  0
  151.3358  134.4869  156.4765 H   0  0  0  0  0  0  0  0  0  0  0  0
  150.6941  134.6324  154.8519 H   0  0  0  0  0  0  0  0  0  0  0  0
  148.7056  135.3814  155.6933 H   0  0  0  0  0  0  0  0  0  0  0  0
  148.4651  133.8379  156.4773 H   0  0  0  0  0  0  0  0  0  0  0  0
  150.1284  136.9669  156.8542 H   0  0  0  0  0  0  0  0  0  0  0  0
  149.4475  138.2468  158.9107 H   0  0  0  0  0  0  0  0  0  0  0  0
  149.9200  136.8617  159.8505 H   0  0  0  0  0  0  0  0  0  0  0  0
  151.9966  137.0055  160.8934 H   0  0  0  0  0  0  0  0  0  0  0  0
  154.3503  137.8463  160.9463 H   0  0  0  0  0  0  0  0  0  0  0  0
  155.1822  139.2055  159.0102 H   0  0  0  0  0  0  0  0  0  0  0  0
  150.6701  140.8265  157.4602 H   0  0  0  0  0  0  0  0  0  0  0  0
  152.0173  140.9269  156.3344 H   0  0  0  0  0  0  0  0  0  0  0  0
  149.1373  140.1212  155.6241 H   0  0  0  0  0  0  0  0  0  0  0  0
  149.9442  141.6117  155.1725 H   0  0  0  0  0  0  0  0  0  0  0  0
  149.9059  138.0381  154.6058 H   0  0  0  0  0  0  0  0  0  0  0  0
  151.2533  138.1048  153.4888 H   0  0  0  0  0  0  0  0  0  0  0  0
  152.8301  138.6916  155.3006 H   0  0  0  0  0  0  0  0  0  0  0  0
  151.9602  137.2360  155.7556 H   0  0  0  0  0  0  0  0  0  0  0  0
  1  2  1  0  0  0  0
  1 24  1  0  0  0  0
  1 25  1  0  0  0  0
  1 26  1  0  0  0  0
  2  3  2  0  0  0  0
  2  4  2  0  0  0  0
  2  5  1  0  0  0  0
  5  6  1  0  0  0  0
  5 27  1  0  0  0  0
  6  7  1  0  0  0  0
  6 28  1  0  0  0  0
  6 29  1  0  0  0  0
  7  8  1  0  0  0  0
  7 30  1  0  0  0  0
  7 31  1  0  0  0  0
  8  9  2  0  0  0  0
  8 10  1  0  0  0  0
 10 11  1  0  0  0  0
 10 32  1  0  0  0  0
 11 12  1  0  0  0  0
 11 33  1  0  0  0  0
 11 34  1  0  0  0  0
 12 17  1  0  0  0  0
 12 13  2  0  0  0  0
 13 14  1  0  0  0  0
 13 35  1  0  0  0  0
 14 15  2  0  0  0  0
 14 36  1  0  0  0  0
 15 16  1  0  0  0  0
 15 37  1  0  0  0  0
 16 17  2  0  0  0  0
 17 18  1  0  0  0  0
 18 23  1  0  0  0  0
 18 19  1  0  0  0  0
 19 20  1  0  0  0  0
 19 38  1  0  0  0  0
 19 39  1  0  0  0  0
 20 21  1  0  0  0  0
 20 40  1  0  0  0  0
 20 41  1  0  0  0  0
 21 22  1  0  0  0  0
 22 23  1  0  0  0  0
 22 42  1  0  0  0  0
 22 43  1  0  0  0  0
 23 44  1  0  0  0  0
 23 45  1  0  0  0  0
M  END
> <s_m_source_file>
AV-unprocessed.smi

> <i_m_source_file_index>
1421

> <i_lp_mmshare_version>
43012

> <i_f3d_flags>
0

> <s_epik_input>
W0NIM11TKD1PKSg9TylbTkhdW0NIMl1bQ0gyXUMoPU8pW05IXVtDSDJdYzFbY0hdW2NIXVtjSF1uYzFOMltDSDJdW0NIMl1PW0NIMl1bQ0gyXTI=

> <s_epik_cmdline>
J2VwaWtfcHl0aG9uJywgJy1waCcsICc3LjAnLCAnLXRuJywgJzgnLCAnLW1hJywgJzIwMCcsICctbWV0YWxfYmluZGluZycsICctaW1hZScsICc8aW5maWxlLm1hZT4nLCAnLW9tYWUnLCAnPG91dGZpbGUubWFlPic=

> <r_lp_tautomer_probability>
1

> <r_epik_Ionization_Penalty>
0.00479902

> <r_epik_Ionization_Penalty_Charging>
0

> <r_epik_Ionization_Penalty_Neutral>
0.00479902

> <r_epik_State_Penalty>
0.00346804

> <r_epik_Charging_Adjusted_Penalty>
0.00346804

> <i_epik_Tot_Q>
0

> <i_epik_Tot_abs_Q>
0

> <r_epik_Metal_State_Penalty>
0.0135183

> <b_epik_Metal_Only>
0

> <s_lp_Force_Field>
OPLS_2005

> <r_lp_Energy>
16.2215

> <b_lp_Chiralities_Consistent>
1

> <s_lp_Variant>
AV-unprocessed.smi:1421-1

> <Gold.Version>
5.8.1

> <Gold.Id.Protein>
6NUR|6NUR_protein|mol2

> <Gold.PLP.Fitness>
38.0339

> <Gold.PLP.PLP>
-28.4697

> <Gold.PLP.part.hbond>
-3.9692

> <Gold.PLP.part.metal>
0.0000

> <Gold.PLP.part.buried>
-5.5455

> <Gold.PLP.part.nonpolar>
-20.0712

> <Gold.PLP.part.repulsive>
0.2037

> <Gold.PLP.ligand.clash>
0.0000

> <Gold.PLP.ligand.torsion>
1.0718

> <Gold.PLP.Chemscore.Hbond>
3.8120

> <Gold.PLP.Chemscore.CHOScore>
0.0000

> <Gold.PLP.Chemscore.Metal>
0.0000

> <Gold.Chemscore.Hbonds>
donor molecule, donor type, donor heavy atom, donor atom, acceptor molecule, acceptor atom, score
      P1  H  6896  6907       L1     3  0.91
      P1  H  6896  6908       L1     9  0.85
      P1  H  7989  7998       L1    21  1.00
      P1  H  7997  8009       L1    16  1.00

> <Gold.PLP.Chemscore.Internal.Correction>
0.2718

> <Gold.Rescore>
     Score         DG    S(hbond)    S(metal)    S(lipo)     H(rot)  DE(clash)    DE(int)     intcor
     12.96     -14.76       2.78        0.00      63.52       2.90       0.02       1.78       ----

> <Gold.Chemscore.Fitness>
12.9639

> <Gold.Chemscore.DG>
-14.7632

> <Gold.Chemscore.ZeroCoef>
-5.4800

> <Gold.Chemscore.Hbond>
2.7781

> <Gold.Chemscore.Metal>
0.0000

> <Gold.Chemscore.Lipo>
63.5241

> <Gold.Chemscore.Internal_Hbond>
0.0000

> <Gold.Chemscore.DEClash>
0.0202

> <Gold.Chemscore.DEInternal>
1.7791

> <Gold.Chemscore.Rot>
2.9015

> <Gold.Chemscore.Internal.Correction>
   9.000000E+99

> <Gold.Chemscore.Hbonds>
donor molecule, donor type, donor heavy atom, donor atom, acceptor molecule, acceptor atom, score
      P1  H  6896  6907       L1     3  0.88
      P1  H  6896  6908       L1     9  0.15
      P1  H  7989  7998       L1    21  0.73
      P1  H  7997  8009       L1    16  0.50

> <Gold.Chemscore.Hbond.Weighted>
-9.2787

> <Gold.Chemscore.Metal.Weighted>
-0.0000

> <Gold.Chemscore.Lipo.Weighted>
-7.4323

> <Gold.Chemscore.Internal_Hbond.Weighted>
0.0000

> <Gold.Chemscore.DEClash.Weighted>
0.0202

> <Gold.Chemscore.DEInternal.Weighted>
1.7791

> <Gold.Chemscore.Rot.Weighted>
7.4278

> <Gold.Chemscore.Internal.Correction.Weighted>
   9.000000E+99

> <Gold.Protein.RotatedTorsions>
[ 6907 6896 6895 6894 ] final  160.45 input  -60.11 | X-H torsion
[ 7974 7965 7964 7962 ] final  -97.82 input  175.53 | X-H torsion
[ 8008 7997 7996 7995 ] final  167.67 input   59.86 | X-H torsion
[ 10167 10162 10161 10158 ] final -177.27 input  -65.29 | X-H torsion
[ 10718 10713 10712 10709 ] final  -25.61 input   66.30 | X-H torsion
[ 10763 10752 10751 10750 ] final    6.66 input  -60.55 | X-H torsion
[ 11005 11000 10999 10996 ] final  133.90 input  -57.11 | X-H torsion

> <Gold.Protein.ActiveResidues>
 VAL166  LYS551  ARG553  GLY616  TRP617  ASP618  TYR619  PRO620  LYS621  CYS622 
 ASP623  PHE694  ASN695  SER759  ASP760  ASP761  ALA762  ILE779  LEU786  VAL792 
 PHE793  MET794  SER795  GLU796  ALA797  LYS798  CYS799  TRP800  GLU811  SER814 

> <Gold.Protein.RotatedAtoms>
  151.9704  133.3724  159.4068 H   0  0  0  0  0  0  0  0  0  0  0  0  # atno 6907 bound_to 6896
  150.6950  134.4146  159.5186 H   0  0  0  0  0  0  0  0  0  0  0  0  # atno 6908 bound_to 6896
  152.1849  134.8722  160.0574 H   0  0  0  0  0  0  0  0  0  0  0  0  # atno 6909 bound_to 6896
  145.3287  140.9437  143.2674 H   0  0  0  0  0  0  0  0  0  0  0  0  # atno 7974 bound_to 7965
  156.1613  140.1610  156.8606 H   0  0  0  0  0  0  0  0  0  0  0  0  # atno 8008 bound_to 7997
  154.5164  140.0788  156.8124 H   0  0  0  0  0  0  0  0  0  0  0  0  # atno 8009 bound_to 7997
  155.3701  140.3400  155.4245 H   0  0  0  0  0  0  0  0  0  0  0  0  # atno 8010 bound_to 7997
  139.5488  144.2164  152.1039 H   0  0  0  0  0  0  0  0  0  0  0  0  # atno 10167 bound_to 10162
  156.4621  130.4506  149.6922 H   0  0  0  0  0  0  0  0  0  0  0  0  # atno 10718 bound_to 10713
  153.2451  135.6908  153.7740 H   0  0  0  0  0  0  0  0  0  0  0  0  # atno 10763 bound_to 10752
  153.6855  135.3321  155.3190 H   0  0  0  0  0  0  0  0  0  0  0  0  # atno 10764 bound_to 10752
  154.8372  135.4532  154.1388 H   0  0  0  0  0  0  0  0  0  0  0  0  # atno 10765 bound_to 10752
  139.9880  134.9525  156.9790 H   0  0  0  0  0  0  0  0  0  0  0  0  # atno 11005 bound_to 11000
  144.8881  139.4811  143.6691 LP  0  0  0  0  0  0  0  0  0  0  0  0  # atno 17320 bound_to 7965
  146.3054  139.7563  142.9060 LP  0  0  0  0  0  0  0  0  0  0  0  0  # atno 17321 bound_to 7965
  140.1655  144.4985  150.6608 LP  0  0  0  0  0  0  0  0  0  0  0  0  # atno 17342 bound_to 10162
  140.6745  143.2299  151.5543 LP  0  0  0  0  0  0  0  0  0  0  0  0  # atno 17343 bound_to 10162
  156.3706  130.7528  151.2511 LP  0  0  0  0  0  0  0  0  0  0  0  0  # atno 17370 bound_to 10713
  157.7497  131.0324  150.4225 LP  0  0  0  0  0  0  0  0  0  0  0  0  # atno 17371 bound_to 10713
  140.4963  134.1142  155.7242 LP  0  0  0  0  0  0  0  0  0  0  0  0  # atno 17394 bound_to 11000
  141.1542  133.8914  157.2021 LP  0  0  0  0  0  0  0  0  0  0  0  0  # atno 17395 bound_to 11000

$$$$
