AV-unprocessed.smi:1707|AV-procd|sdf|6887|dock6
  -GOLD-   22720 8 93D 1   1.00000     0.00000
 Structure written by MMmdl.
 41 42  0  0  0  0  0  0  0  0  1 V2000
  145.5950  135.8850  155.3985 O   0  0  0  0  0  0  0  0  0  0  0  0
  144.7347  135.0207  155.5641 C   0  0  0  0  0  0  0  0  0  0  0  0
  144.3385  134.6034  156.7752 N   0  0  0  0  0  0  0  0  0  0  0  0
  144.8590  135.1012  158.0431 C   0  0  0  0  0  0  0  0  0  0  0  0
  145.9532  134.1767  158.6050 C   0  0  0  0  0  0  0  0  0  0  0  0
  146.3408  134.5228  160.0328 C   0  0  0  0  0  0  0  0  0  0  0  0
  145.7530  135.5299  160.7079 C   0  0  0  0  0  0  0  0  0  0  0  0
  146.1090  135.9253  162.1304 C   0  0  0  0  0  0  0  0  0  0  0  0
  147.4314  135.2966  162.6002 C   0  0  0  0  0  0  0  0  0  0  0  0
  147.5200  133.8222  162.1875 C   0  0  0  0  0  0  0  0  0  0  0  0
  147.4324  133.6621  160.6591 C   0  0  0  0  0  0  0  0  0  0  0  0
  144.0788  134.3600  154.5922 N   0  0  0  0  0  0  0  0  0  0  0  0
  144.1751  134.4879  153.1955 C   0  0  0  0  0  0  0  0  0  0  0  0
  144.3681  133.4611  152.3259 C   0  0  0  0  0  0  0  0  0  0  0  0
  144.4680  133.6726  150.8914 C   0  0  0  0  0  0  0  0  0  0  0  0
  144.6069  132.5063  149.9254 C   0  0  0  0  0  0  0  0  0  0  0  0
  143.8845  132.7007  148.8212 F   0  0  0  0  0  0  0  0  0  0  0  0
  145.8824  132.3639  149.5682 F   0  0  0  0  0  0  0  0  0  0  0  0
  144.2062  131.3682  150.4926 F   0  0  0  0  0  0  0  0  0  0  0  0
  144.3489  134.9424  150.4619 C   0  0  0  0  0  0  0  0  0  0  0  0
  144.1689  136.0052  151.3496 N   0  0  0  0  0  0  0  0  0  0  0  0
  144.0739  135.8676  152.6910 C   0  0  0  0  0  0  0  0  0  0  0  0
  143.9138  136.8562  153.4061 O   0  0  0  0  0  0  0  0  0  0  0  0
  144.1034  136.9306  150.9506 H   0  0  0  0  0  0  0  0  0  0  0  0
  143.6277  133.8880  156.8247 H   0  0  0  0  0  0  0  0  0  0  0  0
  145.2329  136.1178  157.9134 H   0  0  0  0  0  0  0  0  0  0  0  0
  144.0292  135.1627  158.7478 H   0  0  0  0  0  0  0  0  0  0  0  0
  145.6094  133.1420  158.5641 H   0  0  0  0  0  0  0  0  0  0  0  0
  146.8489  134.2260  157.9846 H   0  0  0  0  0  0  0  0  0  0  0  0
  144.9685  136.1056  160.2388 H   0  0  0  0  0  0  0  0  0  0  0  0
  146.1700  137.0117  162.1976 H   0  0  0  0  0  0  0  0  0  0  0  0
  145.2918  135.6125  162.7809 H   0  0  0  0  0  0  0  0  0  0  0  0
  148.2698  135.8406  162.1630 H   0  0  0  0  0  0  0  0  0  0  0  0
  147.5284  135.3961  163.6815 H   0  0  0  0  0  0  0  0  0  0  0  0
  148.4467  133.3801  162.5546 H   0  0  0  0  0  0  0  0  0  0  0  0
  146.7065  133.2695  162.6587 H   0  0  0  0  0  0  0  0  0  0  0  0
  147.2576  132.6144  160.4129 H   0  0  0  0  0  0  0  0  0  0  0  0
  148.3854  133.9380  160.2074 H   0  0  0  0  0  0  0  0  0  0  0  0
  143.4348  133.6451  154.8991 H   0  0  0  0  0  0  0  0  0  0  0  0
  144.4724  132.4466  152.6720 H   0  0  0  0  0  0  0  0  0  0  0  0
  144.3758  135.2395  149.4238 H   0  0  0  0  0  0  0  0  0  0  0  0
  1  2  2  0  0  0  0
  2  3  1  0  0  0  0
  2 12  1  0  0  0  0
  3  4  1  0  0  0  0
  3 25  1  0  0  0  0
  4  5  1  0  0  0  0
  4 26  1  0  0  0  0
  4 27  1  0  0  0  0
  5  6  1  0  0  0  0
  5 28  1  0  0  0  0
  5 29  1  0  0  0  0
  6 11  1  0  0  0  0
  6  7  2  0  0  0  0
  7  8  1  0  0  0  0
  7 30  1  0  0  0  0
  8  9  1  0  0  0  0
  8 31  1  0  0  0  0
  8 32  1  0  0  0  0
  9 10  1  0  0  0  0
  9 33  1  0  0  0  0
  9 34  1  0  0  0  0
 10 11  1  0  0  0  0
 10 35  1  0  0  0  0
 10 36  1  0  0  0  0
 11 37  1  0  0  0  0
 11 38  1  0  0  0  0
 12 13  1  0  0  0  0
 12 39  1  0  0  0  0
 13 22  1  0  0  0  0
 13 14  2  0  0  0  0
 14 15  1  0  0  0  0
 14 40  1  0  0  0  0
 15 16  1  0  0  0  0
 15 20  2  0  0  0  0
 16 17  1  0  0  0  0
 16 18  1  0  0  0  0
 16 19  1  0  0  0  0
 20 21  1  0  0  0  0
 20 41  1  0  0  0  0
 21 24  1  0  0  0  0
 21 22  1  0  0  0  0
 22 23  2  0  0  0  0
M  END
> <s_m_source_file>
AV-unprocessed.smi

> <i_m_source_file_index>
1707

> <i_lp_mmshare_version>
43012

> <i_f3d_flags>
0

> <s_epik_input>
Tz1jMVtuSF1bY0hdYyhDKEYpKEYpRilbY0hdYzFbTkhdQyg9TylbTkhdW0NIMl1bQ0gyXUMyPVtDSF1bQ0gyXVtDSDJdW0NIMl1bQ0gyXTI=

> <s_epik_cmdline>
J2VwaWtfcHl0aG9uJywgJy1waCcsICc3LjAnLCAnLXRuJywgJzgnLCAnLW1hJywgJzIwMCcsICctbWV0YWxfYmluZGluZycsICctaW1hZScsICc8aW5maWxlLm1hZT4nLCAnLW9tYWUnLCAnPG91dGZpbGUubWFlPic=

> <r_lp_tautomer_probability>
1

> <r_epik_Ionization_Penalty>
0.00382222

> <r_epik_Ionization_Penalty_Charging>
0.0038016

> <r_epik_Ionization_Penalty_Neutral>
2.06242e-05

> <r_epik_State_Penalty>
-0

> <r_epik_Charging_Adjusted_Penalty>
0.0038016

> <i_epik_Tot_Q>
0

> <i_epik_Tot_abs_Q>
0

> <r_epik_Metal_State_Penalty>
0.371215

> <b_epik_Metal_Only>
0

> <s_lp_Force_Field>
OPLS_2005

> <r_lp_Energy>
19.0753

> <b_lp_Chiralities_Consistent>
1

> <s_lp_Variant>
AV-unprocessed.smi:1707-1

> <Gold.Version>
5.8.1

> <Gold.Id.Protein>
6NUR|6NUR_protein|mol2

> <Gold.PLP.Fitness>
42.0856

> <Gold.PLP.PLP>
-36.2593

> <Gold.PLP.part.hbond>
-2.0000

> <Gold.PLP.part.metal>
0.0000

> <Gold.PLP.part.buried>
-4.0952

> <Gold.PLP.part.nonpolar>
-31.0553

> <Gold.PLP.part.repulsive>
0.1556

> <Gold.PLP.ligand.clash>
0.0000

> <Gold.PLP.ligand.torsion>
1.5646

> <Gold.PLP.Chemscore.Hbond>
1.9672

> <Gold.PLP.Chemscore.CHOScore>
1.0000

> <Gold.PLP.Chemscore.Metal>
0.0000

> <Gold.Chemscore.Hbonds>
donor molecule, donor type, donor heavy atom, donor atom, acceptor molecule, acceptor atom, score
      L1  H    12    39       P1 10957  0.99
      L1  H    21    24       P1 10171  1.00
      L1  C    20    41       P1  7921  0.98

> <Gold.PLP.Chemscore.Internal.Correction>
0.0538

> <Gold.Rescore>
     Score         DG    S(hbond)    S(metal)    S(lipo)     H(rot)  DE(clash)    DE(int)     intcor
     11.81     -16.10       1.93        0.00      70.13       1.57       0.20       4.09       ----

> <Gold.Chemscore.Fitness>
11.8102

> <Gold.Chemscore.DG>
-16.1008

> <Gold.Chemscore.ZeroCoef>
-5.4800

> <Gold.Chemscore.Hbond>
1.9280

> <Gold.Chemscore.Metal>
0.0000

> <Gold.Chemscore.Lipo>
70.1275

> <Gold.Chemscore.Internal_Hbond>
0.0000

> <Gold.Chemscore.DEClash>
0.2008

> <Gold.Chemscore.DEInternal>
4.0898

> <Gold.Chemscore.Rot>
1.5717

> <Gold.Chemscore.Internal.Correction>
   9.000000E+99

> <Gold.Chemscore.Hbonds>
donor molecule, donor type, donor heavy atom, donor atom, acceptor molecule, acceptor atom, score
      L1  H    12    39       P1 10957  0.89
      L1  H    21    24       P1 10171  0.94

> <Gold.Chemscore.Hbond.Weighted>
-6.4396

> <Gold.Chemscore.Metal.Weighted>
-0.0000

> <Gold.Chemscore.Lipo.Weighted>
-8.2049

> <Gold.Chemscore.Internal_Hbond.Weighted>
0.0000

> <Gold.Chemscore.DEClash.Weighted>
0.2008

> <Gold.Chemscore.DEInternal.Weighted>
4.0898

> <Gold.Chemscore.Rot.Weighted>
4.0237

> <Gold.Chemscore.Internal.Correction.Weighted>
   9.000000E+99

> <Gold.Protein.RotatedTorsions>
[ 6907 6896 6895 6894 ] final  -31.61 input  -60.11 | X-H torsion
[ 7974 7965 7964 7962 ] final -177.70 input  175.53 | X-H torsion
[ 8008 7997 7996 7995 ] final   81.79 input   59.86 | X-H torsion
[ 10167 10162 10161 10158 ] final  -81.90 input  -65.29 | X-H torsion
[ 10718 10713 10712 10709 ] final  119.20 input   66.30 | X-H torsion
[ 10763 10752 10751 10750 ] final -143.52 input  -60.55 | X-H torsion
[ 11005 11000 10999 10996 ] final  -74.92 input  -57.11 | X-H torsion

> <Gold.Protein.ActiveResidues>
 VAL166  LYS551  ARG553  GLY616  TRP617  ASP618  TYR619  PRO620  LYS621  CYS622 
 ASP623  PHE694  ASN695  SER759  ASP760  ASP761  ALA762  ILE779  LEU786  VAL792 
 PHE793  MET794  SER795  GLU796  ALA797  LYS798  CYS799  TRP800  GLU811  SER814 

> <Gold.Protein.RotatedAtoms>
  151.0898  134.9909  159.8396 H   0  0  0  0  0  0  0  0  0  0  0  0  # atno 6907 bound_to 6896
  152.5428  134.2079  159.8748 H   0  0  0  0  0  0  0  0  0  0  0  0  # atno 6908 bound_to 6896
  151.2115  133.4509  159.2632 H   0  0  0  0  0  0  0  0  0  0  0  0  # atno 6909 bound_to 6896
  144.7128  140.0979  143.6418 H   0  0  0  0  0  0  0  0  0  0  0  0  # atno 7974 bound_to 7965
  155.9018  140.3433  155.6032 H   0  0  0  0  0  0  0  0  0  0  0  0  # atno 8008 bound_to 7997
  155.7490  140.0817  157.2229 H   0  0  0  0  0  0  0  0  0  0  0  0  # atno 8009 bound_to 7997
  154.4044  140.1556  156.2690 H   0  0  0  0  0  0  0  0  0  0  0  0  # atno 8010 bound_to 7997
  140.4369  143.2528  151.8680 H   0  0  0  0  0  0  0  0  0  0  0  0  # atno 10167 bound_to 10162
  157.5978  131.1055  150.7862 H   0  0  0  0  0  0  0  0  0  0  0  0  # atno 10718 bound_to 10713
  154.8466  135.3465  154.6201 H   0  0  0  0  0  0  0  0  0  0  0  0  # atno 10763 bound_to 10752
  153.6810  135.6980  153.5122 H   0  0  0  0  0  0  0  0  0  0  0  0  # atno 10764 bound_to 10752
  153.2668  135.4305  155.0905 H   0  0  0  0  0  0  0  0  0  0  0  0  # atno 10765 bound_to 10752
  141.1640  133.6928  156.7438 H   0  0  0  0  0  0  0  0  0  0  0  0  # atno 11005 bound_to 11000
  145.9563  139.2769  143.1182 LP  0  0  0  0  0  0  0  0  0  0  0  0  # atno 17320 bound_to 7965
  145.9269  140.9076  143.0376 LP  0  0  0  0  0  0  0  0  0  0  0  0  # atno 17321 bound_to 7965
  139.4787  144.5272  151.8718 LP  0  0  0  0  0  0  0  0  0  0  0  0  # atno 17342 bound_to 10162
  140.4363  144.2048  150.5889 LP  0  0  0  0  0  0  0  0  0  0  0  0  # atno 17343 bound_to 10162
  156.8269  130.5002  149.5336 LP  0  0  0  0  0  0  0  0  0  0  0  0  # atno 17370 bound_to 10713
  156.1045  130.5994  150.9947 LP  0  0  0  0  0  0  0  0  0  0  0  0  # atno 17371 bound_to 10713
  140.2655  134.8433  157.3798 LP  0  0  0  0  0  0  0  0  0  0  0  0  # atno 17394 bound_to 11000
  140.1571  134.4776  155.7920 LP  0  0  0  0  0  0  0  0  0  0  0  0  # atno 17395 bound_to 11000

$$$$
