AV-unprocessed.smi:274|AV-procd|sdf|2059|dock3
  -GOLD-   2262021303D 1   1.00000     0.00000
 Structure written by MMmdl.
 50 53  0  0  0  0  0  0  0  0  1 V2000
  150.5976  137.7450  154.3540 C   0  0  0  0  0  0  0  0  0  0  0  0
  150.8283  139.2103  154.7762 C   0  0  0  0  0  0  0  0  0  0  0  0
  152.2029  139.3208  155.4662 C   0  0  0  0  0  0  0  0  0  0  0  0
  149.6508  139.7599  155.6416 C   0  0  1  0  0  0  0  0  0  0  0  0
  149.7716  141.2781  155.9267 C   0  0  0  0  0  0  0  0  0  0  0  0
  150.5676  141.6819  156.7720 O   0  0  0  0  0  0  0  0  0  0  0  0
  148.9741  142.1350  155.2636 N   0  0  0  0  0  0  0  0  0  0  0  0
  147.9327  141.7767  154.3001 C   0  0  0  0  0  0  0  0  0  0  0  0
  147.9795  140.3001  153.8684 C   0  0  0  0  0  0  0  0  0  0  0  0
  148.3666  139.4496  154.9911 N   0  0  0  0  0  0  0  0  0  0  0  0
  147.3330  139.0032  155.7506 C   0  0  0  0  0  0  0  0  0  0  0  0
  146.0506  139.1904  155.3395 N   0  0  0  0  0  0  0  0  0  0  0  0
  145.0335  138.7387  156.0787 C   0  0  0  0  0  0  0  0  0  0  0  0
  145.0727  138.0865  157.2421 N   0  0  0  0  0  0  0  0  0  0  0  0
  146.3569  137.8998  157.6619 C   0  0  0  0  0  0  0  0  0  0  0  0
  147.5344  138.3179  156.9804 C   0  0  0  0  0  0  0  0  0  0  0  0
  148.6594  137.9513  157.7089 N   0  0  0  0  0  0  0  0  0  0  0  0
  148.1747  137.3458  158.7585 C   0  0  0  0  0  0  0  0  0  0  0  0
  146.8005  137.2801  158.8177 N   0  0  0  0  0  0  0  0  0  0  0  0
  145.9968  136.6744  159.8690 C   0  0  0  0  0  0  0  0  0  0  0  0
  146.8353  136.0625  161.0166 C   0  0  1  0  0  0  0  0  0  0  0  0
  147.5422  137.0966  161.6797 O   0  0  0  0  0  0  0  0  0  0  0  0
  145.9828  135.3296  162.0444 C   0  0  0  0  0  0  0  0  0  0  0  0
  146.9385  134.2733  162.5827 C   0  0  0  0  0  0  0  0  0  0  0  0
  147.6359  133.8558  161.4216 O   0  0  0  0  0  0  0  0  0  0  0  0
  147.8460  134.9831  160.5758 C   0  0  0  0  0  0  0  0  0  0  0  0
  150.4845  137.0977  155.2242 H   0  0  0  0  0  0  0  0  0  0  0  0
  151.4360  137.3676  153.7680 H   0  0  0  0  0  0  0  0  0  0  0  0
  149.7063  137.6318  153.7363 H   0  0  0  0  0  0  0  0  0  0  0  0
  150.8917  139.7996  153.8609 H   0  0  0  0  0  0  0  0  0  0  0  0
  152.1963  138.8349  156.4423 H   0  0  0  0  0  0  0  0  0  0  0  0
  152.5081  140.3572  155.6072 H   0  0  0  0  0  0  0  0  0  0  0  0
  152.9821  138.8484  154.8673 H   0  0  0  0  0  0  0  0  0  0  0  0
  149.7061  139.2474  156.6039 H   0  0  0  0  0  0  0  0  0  0  0  0
  149.0737  143.1174  155.4745 H   0  0  0  0  0  0  0  0  0  0  0  0
  146.9739  141.9810  154.7778 H   0  0  0  0  0  0  0  0  0  0  0  0
  147.9944  142.4313  153.4307 H   0  0  0  0  0  0  0  0  0  0  0  0
  147.0227  140.0088  153.4341 H   0  0  0  0  0  0  0  0  0  0  0  0
  148.7124  140.1738  153.0719 H   0  0  0  0  0  0  0  0  0  0  0  0
  144.0471  138.9266  155.6807 H   0  0  0  0  0  0  0  0  0  0  0  0
  148.8134  136.9308  159.5243 H   0  0  0  0  0  0  0  0  0  0  0  0
  145.3206  137.4342  160.2635 H   0  0  0  0  0  0  0  0  0  0  0  0
  145.3642  135.9103  159.4155 H   0  0  0  0  0  0  0  0  0  0  0  0
  147.2202  137.1598  162.5658 H   0  0  0  0  0  0  0  0  0  0  0  0
  145.5763  135.9786  162.8214 H   0  0  0  0  0  0  0  0  0  0  0  0
  145.1439  134.8330  161.5545 H   0  0  0  0  0  0  0  0  0  0  0  0
  147.6407  134.7062  163.2969 H   0  0  0  0  0  0  0  0  0  0  0  0
  146.4236  133.4419  163.0642 H   0  0  0  0  0  0  0  0  0  0  0  0
  147.6834  134.6616  159.5477 H   0  0  0  0  0  0  0  0  0  0  0  0
  148.8792  135.3255  160.6517 H   0  0  0  0  0  0  0  0  0  0  0  0
  1  2  1  0  0  0  0
  1 27  1  0  0  0  0
  1 28  1  0  0  0  0
  1 29  1  0  0  0  0
  2  3  1  0  0  0  0
  2  4  1  0  0  0  0
  2 30  1  0  0  0  0
  3 31  1  0  0  0  0
  3 32  1  0  0  0  0
  3 33  1  0  0  0  0
  4 10  1  0  0  0  0
  4  5  1  0  0  0  0
  4 34  1  0  0  0  0
  5  6  2  0  0  0  0
  5  7  1  0  0  0  0
  7  8  1  0  0  0  0
  7 35  1  0  0  0  0
  8  9  1  0  0  0  0
  8 36  1  0  0  0  0
  8 37  1  0  0  0  0
  9 10  1  0  0  0  0
  9 38  1  0  0  0  0
  9 39  1  0  0  0  0
 10 11  1  0  0  0  0
 11 16  1  0  0  0  0
 11 12  2  0  0  0  0
 12 13  1  0  0  0  0
 13 14  2  0  0  0  0
 13 40  1  0  0  0  0
 14 15  1  0  0  0  0
 15 19  1  0  0  0  0
 15 16  2  0  0  0  0
 16 17  1  0  0  0  0
 17 18  2  0  0  0  0
 18 19  1  0  0  0  0
 18 41  1  0  0  0  0
 19 20  1  0  0  0  0
 20 21  1  0  0  0  0
 20 42  1  0  0  0  0
 20 43  1  0  0  0  0
 21 26  1  0  0  0  0
 21 22  1  0  0  0  0
 21 23  1  0  0  0  0
 22 44  1  0  0  0  0
 23 24  1  0  0  0  0
 23 45  1  0  0  0  0
 23 46  1  0  0  0  0
 24 25  1  0  0  0  0
 24 47  1  0  0  0  0
 24 48  1  0  0  0  0
 25 26  1  0  0  0  0
 26 49  1  0  0  0  0
 26 50  1  0  0  0  0
M  END
> <s_m_source_file>
AV-unprocessed.smi

> <i_m_source_file_index>
274

> <i_lp_mmshare_version>
43012

> <i_f3d_flags>
0

> <s_epik_input>
W0NIM11bQ0hdKFtDSDNdKVtDQEBIXTFDKD1PKVtOSF1bQ0gyXVtDSDJdTjFjKG5bY0hdbjIpYyhjMjMpbltjSF1uM1tDSDJdW0NAQF00KFtPSF0pW0NIMl1bQ0gyXU9bQ0gyXTQ=

> <s_epik_cmdline>
J2VwaWtfcHl0aG9uJywgJy1waCcsICc3LjAnLCAnLXRuJywgJzgnLCAnLW1hJywgJzIwMCcsICctbWV0YWxfYmluZGluZycsICctaW1hZScsICc8aW5maWxlLm1hZT4nLCAnLW9tYWUnLCAnPG91dGZpbGUubWFlPic=

> <r_lp_tautomer_probability>
1

> <r_epik_Ionization_Penalty>
0.000690079

> <r_epik_Ionization_Penalty_Charging>
0

> <r_epik_Ionization_Penalty_Neutral>
0.000690079

> <r_epik_State_Penalty>
0.000321372

> <r_epik_Charging_Adjusted_Penalty>
0.000321372

> <i_epik_Tot_Q>
0

> <i_epik_Tot_abs_Q>
0

> <r_epik_Metal_State_Penalty>
-0

> <b_epik_Metal_Only>
0

> <s_lp_Force_Field>
OPLS_2005

> <r_lp_Energy>
42.7916

> <b_lp_Chiralities_Consistent>
1

> <s_lp_Variant>
AV-unprocessed.smi:274-2

> <Gold.Version>
5.8.1

> <Gold.Id.Protein>
6NUR|6NUR_protein|mol2

> <Gold.PLP.Fitness>
41.5359

> <Gold.PLP.PLP>
-33.7557

> <Gold.PLP.part.hbond>
-3.0000

> <Gold.PLP.part.metal>
0.0000

> <Gold.PLP.part.buried>
-4.5650

> <Gold.PLP.part.nonpolar>
-27.5062

> <Gold.PLP.part.repulsive>
0.3263

> <Gold.PLP.ligand.clash>
0.0639

> <Gold.PLP.ligand.torsion>
0.2368

> <Gold.PLP.Chemscore.Hbond>
2.6656

> <Gold.PLP.Chemscore.CHOScore>
0.0000

> <Gold.PLP.Chemscore.Metal>
0.0000

> <Gold.Chemscore.Hbonds>
donor molecule, donor type, donor heavy atom, donor atom, acceptor molecule, acceptor atom, score
      L1  H     7    35       P1  8028  1.00
      P1  H  6931  6943       L1    22  0.80
      P1  H  6934  6947       L1    22  0.68

> <Gold.PLP.Chemscore.Internal.Correction>
0.3209

> <Gold.Rescore>
     Score         DG    S(hbond)    S(metal)    S(lipo)     H(rot)  DE(clash)    DE(int)     intcor
     13.29     -16.16       2.28        0.00      73.11       2.14       0.05       2.82       ----

> <Gold.Chemscore.Fitness>
13.2887

> <Gold.Chemscore.DG>
-16.1578

> <Gold.Chemscore.ZeroCoef>
-5.4800

> <Gold.Chemscore.Hbond>
2.2785

> <Gold.Chemscore.Metal>
0.0000

> <Gold.Chemscore.Lipo>
73.1095

> <Gold.Chemscore.Internal_Hbond>
0.0000

> <Gold.Chemscore.DEClash>
0.0465

> <Gold.Chemscore.DEInternal>
2.8225

> <Gold.Chemscore.Rot>
2.1431

> <Gold.Chemscore.Internal.Correction>
   9.000000E+99

> <Gold.Chemscore.Hbonds>
donor molecule, donor type, donor heavy atom, donor atom, acceptor molecule, acceptor atom, score
      L1  H     7    35       P1  8028  0.99
      P1  H  6931  6943       L1    22  0.11
      P1  H  6934  6947       L1    22  0.21

> <Gold.Chemscore.Hbond.Weighted>
-7.6102

> <Gold.Chemscore.Metal.Weighted>
-0.0000

> <Gold.Chemscore.Lipo.Weighted>
-8.5538

> <Gold.Chemscore.Internal_Hbond.Weighted>
0.0000

> <Gold.Chemscore.DEClash.Weighted>
0.0465

> <Gold.Chemscore.DEInternal.Weighted>
2.8225

> <Gold.Chemscore.Rot.Weighted>
5.4863

> <Gold.Chemscore.Internal.Correction.Weighted>
   9.000000E+99

> <Gold.Protein.RotatedTorsions>
[ 6907 6896 6895 6894 ] final  -11.32 input  -60.11 | X-H torsion
[ 7974 7965 7964 7962 ] final  -42.20 input  175.53 | X-H torsion
[ 8008 7997 7996 7995 ] final   25.52 input   59.86 | X-H torsion
[ 10167 10162 10161 10158 ] final   -8.88 input  -65.29 | X-H torsion
[ 10718 10713 10712 10709 ] final  174.44 input   66.30 | X-H torsion
[ 10763 10752 10751 10750 ] final    0.39 input  -60.55 | X-H torsion
[ 11005 11000 10999 10996 ] final -163.18 input  -57.11 | X-H torsion

> <Gold.Protein.ActiveResidues>
 VAL166  LYS551  ARG553  GLY616  TRP617  ASP618  TYR619  PRO620  LYS621  CYS622 
 ASP623  PHE694  ASN695  SER759  ASP760  ASP761  ALA762  ILE779  LEU786  VAL792 
 PHE793  MET794  SER795  GLU796  ALA797  LYS798  CYS799  TRP800  GLU811  SER814 

> <Gold.Protein.RotatedAtoms>
  151.3881  135.0951  159.9517 H   0  0  0  0  0  0  0  0  0  0  0  0  # atno 6907 bound_to 6896
  152.5088  133.9006  159.7450 H   0  0  0  0  0  0  0  0  0  0  0  0  # atno 6908 bound_to 6896
  150.9454  133.6553  159.2811 H   0  0  0  0  0  0  0  0  0  0  0  0  # atno 6909 bound_to 6896
  146.0139  140.6931  142.9211 H   0  0  0  0  0  0  0  0  0  0  0  0  # atno 7974 bound_to 7965
  155.0130  140.3139  155.4822 H   0  0  0  0  0  0  0  0  0  0  0  0  # atno 8008 bound_to 7997
  156.2906  140.2211  156.5186 H   0  0  0  0  0  0  0  0  0  0  0  0  # atno 8009 bound_to 7997
  154.7518  140.0465  157.0888 H   0  0  0  0  0  0  0  0  0  0  0  0  # atno 8010 bound_to 7997
  140.7072  143.5920  150.8884 H   0  0  0  0  0  0  0  0  0  0  0  0  # atno 10167 bound_to 10162
  156.9495  131.0026  151.2951 H   0  0  0  0  0  0  0  0  0  0  0  0  # atno 10718 bound_to 10713
  153.3213  135.6969  153.7028 H   0  0  0  0  0  0  0  0  0  0  0  0  # atno 10763 bound_to 10752
  153.5867  135.3487  155.2896 H   0  0  0  0  0  0  0  0  0  0  0  0  # atno 10764 bound_to 10752
  154.8598  135.4308  154.2378 H   0  0  0  0  0  0  0  0  0  0  0  0  # atno 10765 bound_to 10752
  140.6010  134.4948  157.5205 H   0  0  0  0  0  0  0  0  0  0  0  0  # atno 11005 bound_to 11000
  144.6963  140.3446  143.7193 LP  0  0  0  0  0  0  0  0  0  0  0  0  # atno 17320 bound_to 7965
  145.7299  139.1733  143.2436 LP  0  0  0  0  0  0  0  0  0  0  0  0  # atno 17321 bound_to 7965
  139.9645  143.6126  152.2992 LP  0  0  0  0  0  0  0  0  0  0  0  0  # atno 17342 bound_to 10162
  139.6691  144.7661  151.1817 LP  0  0  0  0  0  0  0  0  0  0  0  0  # atno 17343 bound_to 10162
  157.5731  130.8324  149.8419 LP  0  0  0  0  0  0  0  0  0  0  0  0  # atno 17370 bound_to 10713
  156.0369  130.3749  150.1537 LP  0  0  0  0  0  0  0  0  0  0  0  0  # atno 17371 bound_to 10713
  139.9233  134.8106  156.1146 LP  0  0  0  0  0  0  0  0  0  0  0  0  # atno 17394 bound_to 11000
  141.0872  133.6729  156.2462 LP  0  0  0  0  0  0  0  0  0  0  0  0  # atno 17395 bound_to 11000

$$$$
