AV-unprocessed.smi:1908|AV-procd|sdf|7733|dock5
  -GOLD-   22720 9473D 1   1.00000     0.00000
 Structure written by MMmdl.
 28 28  0  0  0  0  0  0  0  0  1 V2000
  152.5022  143.0204  160.6533 C   0  0  0  0  0  0  0  0  0  0  0  0
  152.5525  143.9037  159.3999 C   0  0  0  0  0  0  0  0  0  0  0  0
  151.6446  145.1358  159.5354 C   0  0  0  0  0  0  0  0  0  0  0  0
  152.1655  143.1160  158.2331 N   0  0  0  0  0  0  0  0  0  0  0  0
  150.9734  142.5263  158.0522 C   0  0  0  0  0  0  0  0  0  0  0  0
  150.0609  142.5802  158.8779 O   0  0  0  0  0  0  0  0  0  0  0  0
  150.8010  141.7310  156.7507 C   0  0  0  0  0  0  0  0  0  0  0  0
  151.5801  140.4849  156.7404 N   0  0  0  0  0  0  0  0  0  0  0  0
  152.2701  140.0794  157.8743 C   0  0  0  0  0  0  0  0  0  0  0  0
  152.9968  138.9385  157.9365 C   0  0  0  0  0  0  0  0  0  0  0  0
  153.0894  138.0576  156.7771 C   0  0  0  0  0  0  0  0  0  0  0  0
  153.7235  137.0058  156.7343 O   0  0  0  0  0  0  0  0  0  0  0  0
  152.3792  138.4984  155.6573 N   0  0  0  0  0  0  0  0  0  0  0  0
  151.6262  139.6713  155.5875 C   0  0  0  0  0  0  0  0  0  0  0  0
  151.0330  139.9644  154.5500 O   0  0  0  0  0  0  0  0  0  0  0  0
  152.4110  137.9190  154.8311 H   0  0  0  0  0  0  0  0  0  0  0  0
  152.8152  143.5773  161.5370 H   0  0  0  0  0  0  0  0  0  0  0  0
  153.1660  142.1608  160.5548 H   0  0  0  0  0  0  0  0  0  0  0  0
  151.4947  142.6456  160.8365 H   0  0  0  0  0  0  0  0  0  0  0  0
  153.5824  144.2435  159.2771 H   0  0  0  0  0  0  0  0  0  0  0  0
  151.9243  145.7341  160.4030 H   0  0  0  0  0  0  0  0  0  0  0  0
  150.5994  144.8480  159.6531 H   0  0  0  0  0  0  0  0  0  0  0  0
  151.7165  145.7790  158.6575 H   0  0  0  0  0  0  0  0  0  0  0  0
  152.8574  143.0139  157.5048 H   0  0  0  0  0  0  0  0  0  0  0  0
  149.7443  141.5172  156.5769 H   0  0  0  0  0  0  0  0  0  0  0  0
  151.1035  142.3722  155.9215 H   0  0  0  0  0  0  0  0  0  0  0  0
  152.2260  140.6990  158.7589 H   0  0  0  0  0  0  0  0  0  0  0  0
  153.5116  138.6753  158.8493 H   0  0  0  0  0  0  0  0  0  0  0  0
  1  2  1  0  0  0  0
  1 17  1  0  0  0  0
  1 18  1  0  0  0  0
  1 19  1  0  0  0  0
  2  3  1  0  0  0  0
  2  4  1  0  0  0  0
  2 20  1  0  0  0  0
  3 21  1  0  0  0  0
  3 22  1  0  0  0  0
  3 23  1  0  0  0  0
  4  5  1  0  0  0  0
  4 24  1  0  0  0  0
  5  6  2  0  0  0  0
  5  7  1  0  0  0  0
  7  8  1  0  0  0  0
  7 25  1  0  0  0  0
  7 26  1  0  0  0  0
  8 14  1  0  0  0  0
  8  9  1  0  0  0  0
  9 10  2  0  0  0  0
  9 27  1  0  0  0  0
 10 11  1  0  0  0  0
 10 28  1  0  0  0  0
 11 12  2  0  0  0  0
 11 13  1  0  0  0  0
 13 16  1  0  0  0  0
 13 14  1  0  0  0  0
 14 15  2  0  0  0  0
M  END
> <s_m_source_file>
AV-unprocessed.smi

> <i_m_source_file_index>
1908

> <i_lp_mmshare_version>
43012

> <i_f3d_flags>
0

> <s_epik_input>
W0NIM11bQ0hdKFtDSDNdKVtOSF1DKD1PKVtDSDJdbjFbY0hdW2NIXWMoPU8pW25IXWMxPU8=

> <s_epik_cmdline>
J2VwaWtfcHl0aG9uJywgJy1waCcsICc3LjAnLCAnLXRuJywgJzgnLCAnLW1hJywgJzIwMCcsICctbWV0YWxfYmluZGluZycsICctaW1hZScsICc8aW5maWxlLm1hZT4nLCAnLW9tYWUnLCAnPG91dGZpbGUubWFlPic=

> <r_lp_tautomer_probability>
0.999537

> <r_epik_Ionization_Penalty>
0.00328918

> <r_epik_Ionization_Penalty_Charging>
0.00328916

> <r_epik_Ionization_Penalty_Neutral>
2.06703e-08

> <r_epik_State_Penalty>
0.00232387

> <r_epik_Charging_Adjusted_Penalty>
0.00561303

> <i_epik_Tot_Q>
0

> <i_epik_Tot_abs_Q>
0

> <r_epik_Metal_State_Penalty>
0.365273

> <b_epik_Metal_Only>
0

> <s_lp_Force_Field>
OPLS_2005

> <r_lp_Energy>
1.74707

> <b_lp_Chiralities_Consistent>
1

> <s_lp_Variant>
AV-unprocessed.smi:1908-1

> <Gold.Version>
5.8.1

> <Gold.Id.Protein>
6NUR|6NUR_protein|mol2

> <Gold.PLP.Fitness>
35.4862

> <Gold.PLP.PLP>
-30.1039

> <Gold.PLP.part.hbond>
-2.6137

> <Gold.PLP.part.metal>
0.0000

> <Gold.PLP.part.buried>
-4.5524

> <Gold.PLP.part.nonpolar>
-23.4231

> <Gold.PLP.part.repulsive>
0.3762

> <Gold.PLP.ligand.clash>
0.0000

> <Gold.PLP.ligand.torsion>
0.1565

> <Gold.PLP.Chemscore.Hbond>
1.8960

> <Gold.PLP.Chemscore.CHOScore>
0.0000

> <Gold.PLP.Chemscore.Metal>
0.0000

> <Gold.Chemscore.Hbonds>
donor molecule, donor type, donor heavy atom, donor atom, acceptor molecule, acceptor atom, score
      P1  H  7989  7998       L1    15  0.96
      P1  H 10752 10765       L1    12  0.60

> <Gold.PLP.Chemscore.Internal.Correction>
0.0073

> <Gold.Rescore>
     Score         DG    S(hbond)    S(metal)    S(lipo)     H(rot)  DE(clash)    DE(int)     intcor
     12.43     -13.73       1.87        0.00      55.49       1.76       0.06       1.24       ----

> <Gold.Chemscore.Fitness>
12.4347

> <Gold.Chemscore.DG>
-13.7347

> <Gold.Chemscore.ZeroCoef>
-5.4800

> <Gold.Chemscore.Hbond>
1.8738

> <Gold.Chemscore.Metal>
0.0000

> <Gold.Chemscore.Lipo>
55.4874

> <Gold.Chemscore.Internal_Hbond>
0.0000

> <Gold.Chemscore.DEClash>
0.0580

> <Gold.Chemscore.DEInternal>
1.2420

> <Gold.Chemscore.Rot>
1.7562

> <Gold.Chemscore.Internal.Correction>
   9.000000E+99

> <Gold.Chemscore.Hbonds>
donor molecule, donor type, donor heavy atom, donor atom, acceptor molecule, acceptor atom, score
      P1  H  7989  7998       L1    15  0.89
      P1  H 10752 10765       L1    12  0.60

> <Gold.Chemscore.Hbond.Weighted>
-6.2584

> <Gold.Chemscore.Metal.Weighted>
-0.0000

> <Gold.Chemscore.Lipo.Weighted>
-6.4920

> <Gold.Chemscore.Internal_Hbond.Weighted>
0.0000

> <Gold.Chemscore.DEClash.Weighted>
0.0580

> <Gold.Chemscore.DEInternal.Weighted>
1.2420

> <Gold.Chemscore.Rot.Weighted>
4.4958

> <Gold.Chemscore.Internal.Correction.Weighted>
   9.000000E+99

> <Gold.Protein.RotatedTorsions>
[ 6907 6896 6895 6894 ] final -118.77 input  -60.11 | X-H torsion
[ 7974 7965 7964 7962 ] final   87.55 input  175.53 | X-H torsion
[ 8008 7997 7996 7995 ] final   44.94 input   59.86 | X-H torsion
[ 10167 10162 10161 10158 ] final -161.28 input  -65.29 | X-H torsion
[ 10718 10713 10712 10709 ] final  -77.92 input   66.30 | X-H torsion
[ 10763 10752 10751 10750 ] final -115.47 input  -60.55 | X-H torsion
[ 11005 11000 10999 10996 ] final -102.98 input  -57.11 | X-H torsion

> <Gold.Protein.ActiveResidues>
 VAL166  LYS551  ARG553  GLY616  TRP617  ASP618  TYR619  PRO620  LYS621  CYS622 
 ASP623  PHE694  ASN695  SER759  ASP760  ASP761  ALA762  ILE779  LEU786  VAL792 
 PHE793  MET794  SER795  GLU796  ALA797  LYS798  CYS799  TRP800  GLU811  SER814 

> <Gold.Protein.RotatedAtoms>
  150.8248  133.8190  159.3123 H   0  0  0  0  0  0  0  0  0  0  0  0  # atno 6907 bound_to 6896
  151.5938  135.1050  160.0054 H   0  0  0  0  0  0  0  0  0  0  0  0  # atno 6908 bound_to 6896
  152.4334  133.7277  159.6626 H   0  0  0  0  0  0  0  0  0  0  0  0  # atno 6909 bound_to 6896
  145.5575  139.2301  143.2478 H   0  0  0  0  0  0  0  0  0  0  0  0  # atno 7974 bound_to 7965
  155.3276  140.3400  155.4240 H   0  0  0  0  0  0  0  0  0  0  0  0  # atno 8008 bound_to 7997
  156.1878  140.1687  156.8188 H   0  0  0  0  0  0  0  0  0  0  0  0  # atno 8009 bound_to 7997
  154.5406  140.0725  156.8487 H   0  0  0  0  0  0  0  0  0  0  0  0  # atno 8010 bound_to 7997
  139.6477  144.0141  152.2139 H   0  0  0  0  0  0  0  0  0  0  0  0  # atno 10167 bound_to 10162
  156.0131  130.4504  150.3418 H   0  0  0  0  0  0  0  0  0  0  0  0  # atno 10718 bound_to 10713
  154.8482  135.4380  154.1668 H   0  0  0  0  0  0  0  0  0  0  0  0  # atno 10763 bound_to 10752
  153.2791  135.6952  153.7409 H   0  0  0  0  0  0  0  0  0  0  0  0  # atno 10764 bound_to 10752
  153.6620  135.3433  155.3105 H   0  0  0  0  0  0  0  0  0  0  0  0  # atno 10765 bound_to 10752
  141.1166  133.8602  157.1428 H   0  0  0  0  0  0  0  0  0  0  0  0  # atno 11005 bound_to 11000
  146.1874  140.6399  142.9161 LP  0  0  0  0  0  0  0  0  0  0  0  0  # atno 17320 bound_to 7965
  144.7499  140.5164  143.6809 LP  0  0  0  0  0  0  0  0  0  0  0  0  # atno 17321 bound_to 7965
  139.9847  144.6403  150.7868 LP  0  0  0  0  0  0  0  0  0  0  0  0  # atno 17342 bound_to 10162
  140.7522  143.2987  151.3137 LP  0  0  0  0  0  0  0  0  0  0  0  0  # atno 17343 bound_to 10162
  157.1513  131.0322  151.2883 LP  0  0  0  0  0  0  0  0  0  0  0  0  # atno 17370 bound_to 10713
  157.4389  130.7533  149.7052 LP  0  0  0  0  0  0  0  0  0  0  0  0  # atno 17371 bound_to 10713
  140.0092  134.9995  157.0359 LP  0  0  0  0  0  0  0  0  0  0  0  0  # atno 17394 bound_to 11000
  140.4628  134.1466  155.7193 LP  0  0  0  0  0  0  0  0  0  0  0  0  # atno 17395 bound_to 11000

$$$$
