AV-unprocessed.smi:664|AV-procd|sdf|3252|dock3
  -GOLD-   22720 0203D 1   1.00000     0.00000
 Structure written by MMmdl.
 31 32  0  0  0  0  0  0  0  0  1 V2000
  148.0195  139.8056  153.7383 C   0  0  0  0  0  0  0  0  0  0  0  0
  149.3232  139.8114  154.4798 C   0  0  0  0  0  0  0  0  0  0  0  0
  150.4541  138.9896  154.0940 C   0  0  0  0  0  0  0  0  0  0  0  0
  151.5945  139.0528  154.8144 C   0  0  0  0  0  0  0  0  0  0  0  0
  151.7192  139.9249  155.9803 C   0  0  0  0  0  0  0  0  0  0  0  0
  152.7412  140.0003  156.6617 O   0  0  0  0  0  0  0  0  0  0  0  0
  150.5900  140.6422  156.2523 N   0  0  0  0  0  0  0  0  0  0  0  0
  150.5234  141.5348  157.4178 C   0  0  0  0  0  0  0  0  0  0  0  0
  151.4723  142.7504  157.2979 C   0  0  1  0  0  0  0  0  0  0  0  0
  150.9719  143.6114  156.2956 O   0  0  0  0  0  0  0  0  0  0  0  0
  151.6823  143.4694  158.6245 C   0  0  0  0  0  0  0  0  0  0  0  0
  151.3211  144.8269  158.7718 C   0  0  0  0  0  0  0  0  0  0  0  0
  151.4878  145.4748  160.0109 C   0  0  0  0  0  0  0  0  0  0  0  0
  152.0134  144.7693  161.1101 C   0  0  0  0  0  0  0  0  0  0  0  0
  152.3731  143.4149  160.9697 C   0  0  0  0  0  0  0  0  0  0  0  0
  153.0078  142.5458  162.3179 Cl  0  0  0  0  0  0  0  0  0  0  0  0
  152.2098  142.7678  159.7298 C   0  0  0  0  0  0  0  0  0  0  0  0
  149.4234  140.5894  155.5068 N   0  0  0  0  0  0  0  0  0  0  0  0
  148.0917  139.2251  152.8183 H   0  0  0  0  0  0  0  0  0  0  0  0
  147.7185  140.8187  153.4697 H   0  0  0  0  0  0  0  0  0  0  0  0
  147.2295  139.3684  154.3495 H   0  0  0  0  0  0  0  0  0  0  0  0
  150.3768  138.3376  153.2364 H   0  0  0  0  0  0  0  0  0  0  0  0
  152.4360  138.4407  154.5255 H   0  0  0  0  0  0  0  0  0  0  0  0
  149.4969  141.8721  157.5731 H   0  0  0  0  0  0  0  0  0  0  0  0
  150.7777  140.9682  158.3160 H   0  0  0  0  0  0  0  0  0  0  0  0
  152.4439  142.4028  156.9447 H   0  0  0  0  0  0  0  0  0  0  0  0
  150.0987  143.8780  156.5396 H   0  0  0  0  0  0  0  0  0  0  0  0
  150.9067  145.3725  157.9367 H   0  0  0  0  0  0  0  0  0  0  0  0
  151.2078  146.5122  160.1195 H   0  0  0  0  0  0  0  0  0  0  0  0
  152.1372  145.2671  162.0606 H   0  0  0  0  0  0  0  0  0  0  0  0
  152.4789  141.7262  159.6319 H   0  0  0  0  0  0  0  0  0  0  0  0
  1  2  1  0  0  0  0
  1 19  1  0  0  0  0
  1 20  1  0  0  0  0
  1 21  1  0  0  0  0
  2 18  2  0  0  0  0
  2  3  1  0  0  0  0
  3  4  2  0  0  0  0
  3 22  1  0  0  0  0
  4  5  1  0  0  0  0
  4 23  1  0  0  0  0
  5  6  2  0  0  0  0
  5  7  1  0  0  0  0
  7  8  1  0  0  0  0
  7 18  1  0  0  0  0
  8  9  1  0  0  0  0
  8 24  1  0  0  0  0
  8 25  1  0  0  0  0
  9 10  1  0  0  0  0
  9 11  1  0  0  0  0
  9 26  1  0  0  0  0
 10 27  1  0  0  0  0
 11 17  1  0  0  0  0
 11 12  2  0  0  0  0
 12 13  1  0  0  0  0
 12 28  1  0  0  0  0
 13 14  2  0  0  0  0
 13 29  1  0  0  0  0
 14 15  1  0  0  0  0
 14 30  1  0  0  0  0
 15 16  1  0  0  0  0
 15 17  2  0  0  0  0
 17 31  1  0  0  0  0
M  END
> <s_m_source_file>
AV-unprocessed.smi

> <i_m_source_file_index>
664

> <i_lp_mmshare_version>
43012

> <i_f3d_flags>
0

> <s_epik_input>
W0NIM11jMVtjSF1bY0hdYyg9TyluKG4xKVtDSDJdW0NASF0oW09IXSljMltjSF1bY0hdW2NIXWMoQ2wpW2NIXTI=

> <s_epik_cmdline>
J2VwaWtfcHl0aG9uJywgJy1waCcsICc3LjAnLCAnLXRuJywgJzgnLCAnLW1hJywgJzIwMCcsICctbWV0YWxfYmluZGluZycsICctaW1hZScsICc8aW5maWxlLm1hZT4nLCAnLW9tYWUnLCAnPG91dGZpbGUubWFlPic=

> <r_lp_tautomer_probability>
1

> <r_epik_Ionization_Penalty>
5.38844e-06

> <r_epik_Ionization_Penalty_Charging>
5.19536e-06

> <r_epik_Ionization_Penalty_Neutral>
1.93084e-07

> <r_epik_State_Penalty>
-0

> <r_epik_Charging_Adjusted_Penalty>
5.19536e-06

> <i_epik_Tot_Q>
0

> <i_epik_Tot_abs_Q>
0

> <r_epik_Metal_State_Penalty>
-0

> <b_epik_Metal_Only>
0

> <s_lp_Force_Field>
OPLS_2005

> <r_lp_Energy>
22.784

> <b_lp_Chiralities_Consistent>
1

> <s_lp_Variant>
AV-unprocessed.smi:664-2

> <Gold.Version>
5.8.1

> <Gold.Id.Protein>
6NUR|6NUR_protein|mol2

> <Gold.PLP.Fitness>
51.3827

> <Gold.PLP.PLP>
-46.5542

> <Gold.PLP.part.hbond>
-1.7908

> <Gold.PLP.part.metal>
0.0000

> <Gold.PLP.part.buried>
-2.5825

> <Gold.PLP.part.nonpolar>
-41.0863

> <Gold.PLP.part.repulsive>
0.0713

> <Gold.PLP.ligand.clash>
0.0000

> <Gold.PLP.ligand.torsion>
0.1281

> <Gold.PLP.Chemscore.Hbond>
1.6880

> <Gold.PLP.Chemscore.CHOScore>
0.0000

> <Gold.PLP.Chemscore.Metal>
0.0000

> <Gold.Chemscore.Hbonds>
donor molecule, donor type, donor heavy atom, donor atom, acceptor molecule, acceptor atom, score
      L1  H    10    27       P1  8028  0.62
      P1  H  7997  8010       L1     6  1.00

> <Gold.PLP.Chemscore.Internal.Correction>
0.0208

> <Gold.Rescore>
     Score         DG    S(hbond)    S(metal)    S(lipo)     H(rot)  DE(clash)    DE(int)     intcor
     19.72     -21.42       1.88        0.00     122.84       1.84       0.42       1.29       ----

> <Gold.Chemscore.Fitness>
19.7187

> <Gold.Chemscore.DG>
-21.4223

> <Gold.Chemscore.ZeroCoef>
-5.4800

> <Gold.Chemscore.Hbond>
1.8804

> <Gold.Chemscore.Metal>
0.0000

> <Gold.Chemscore.Lipo>
122.8402

> <Gold.Chemscore.Internal_Hbond>
0.0000

> <Gold.Chemscore.DEClash>
0.4159

> <Gold.Chemscore.DEInternal>
1.2877

> <Gold.Chemscore.Rot>
1.8400

> <Gold.Chemscore.Internal.Correction>
   9.000000E+99

> <Gold.Chemscore.Hbonds>
donor molecule, donor type, donor heavy atom, donor atom, acceptor molecule, acceptor atom, score
      L1  H    10    27       P1  8028  0.62
      P1  H  7997  8010       L1     6  0.95

> <Gold.Chemscore.Hbond.Weighted>
-6.2805

> <Gold.Chemscore.Metal.Weighted>
-0.0000

> <Gold.Chemscore.Lipo.Weighted>
-14.3723

> <Gold.Chemscore.Internal_Hbond.Weighted>
0.0000

> <Gold.Chemscore.DEClash.Weighted>
0.4159

> <Gold.Chemscore.DEInternal.Weighted>
1.2877

> <Gold.Chemscore.Rot.Weighted>
4.7105

> <Gold.Chemscore.Internal.Correction.Weighted>
   9.000000E+99

> <Gold.Protein.RotatedTorsions>
[ 6907 6896 6895 6894 ] final  117.02 input  -60.11 | X-H torsion
[ 7974 7965 7964 7962 ] final  -96.89 input  175.53 | X-H torsion
[ 8008 7997 7996 7995 ] final   83.62 input   59.86 | X-H torsion
[ 10167 10162 10161 10158 ] final  -12.36 input  -65.29 | X-H torsion
[ 10718 10713 10712 10709 ] final    1.28 input   66.30 | X-H torsion
[ 10763 10752 10751 10750 ] final    1.10 input  -60.55 | X-H torsion
[ 11005 11000 10999 10996 ] final  164.09 input  -57.11 | X-H torsion

> <Gold.Protein.ActiveResidues>
 VAL166  LYS551  ARG553  GLY616  TRP617  ASP618  TYR619  PRO620  LYS621  CYS622 
 ASP623  PHE694  ASN695  SER759  ASP760  ASP761  ALA762  ILE779  LEU786  VAL792 
 PHE793  MET794  SER795  GLU796  ALA797  LYS798  CYS799  TRP800  GLU811  SER814 

> <Gold.Protein.RotatedAtoms>
  152.4640  133.7883  159.6887 H   0  0  0  0  0  0  0  0  0  0  0  0  # atno 6907 bound_to 6896
  150.8596  133.7654  159.3003 H   0  0  0  0  0  0  0  0  0  0  0  0  # atno 6908 bound_to 6896
  151.5223  135.1070  159.9933 H   0  0  0  0  0  0  0  0  0  0  0  0  # atno 6909 bound_to 6896
  145.3410  140.9460  143.2608 H   0  0  0  0  0  0  0  0  0  0  0  0  # atno 7974 bound_to 7965
  155.9263  140.3418  155.6213 H   0  0  0  0  0  0  0  0  0  0  0  0  # atno 8008 bound_to 7997
  155.7212  140.0784  157.2348 H   0  0  0  0  0  0  0  0  0  0  0  0  # atno 8009 bound_to 7997
  154.4077  140.1605  156.2392 H   0  0  0  0  0  0  0  0  0  0  0  0  # atno 8010 bound_to 7997
  140.7159  143.5541  150.9268 H   0  0  0  0  0  0  0  0  0  0  0  0  # atno 10167 bound_to 10162
  156.8459  130.5537  149.5673 H   0  0  0  0  0  0  0  0  0  0  0  0  # atno 10718 bound_to 10713
  153.3122  135.6963  153.7105 H   0  0  0  0  0  0  0  0  0  0  0  0  # atno 10763 bound_to 10752
  153.5977  135.3468  155.2935 H   0  0  0  0  0  0  0  0  0  0  0  0  # atno 10764 bound_to 10752
  154.8578  135.4333  154.2264 H   0  0  0  0  0  0  0  0  0  0  0  0  # atno 10765 bound_to 10752
  140.2424  134.8041  157.3423 H   0  0  0  0  0  0  0  0  0  0  0  0  # atno 11005 bound_to 11000
  144.8790  139.4930  143.6732 LP  0  0  0  0  0  0  0  0  0  0  0  0  # atno 17320 bound_to 7965
  146.3007  139.7419  142.9093 LP  0  0  0  0  0  0  0  0  0  0  0  0  # atno 17321 bound_to 7965
  139.9266  143.6543  152.3085 LP  0  0  0  0  0  0  0  0  0  0  0  0  # atno 17342 bound_to 10162
  139.6979  144.7639  151.1325 LP  0  0  0  0  0  0  0  0  0  0  0  0  # atno 17343 bound_to 10162
  156.0855  130.5854  150.9640 LP  0  0  0  0  0  0  0  0  0  0  0  0  # atno 17370 bound_to 10713
  157.6330  131.0919  150.8403 LP  0  0  0  0  0  0  0  0  0  0  0  0  # atno 17371 bound_to 10713
  140.1640  134.4692  155.7875 LP  0  0  0  0  0  0  0  0  0  0  0  0  # atno 17394 bound_to 11000
  141.2209  133.6913  156.7594 LP  0  0  0  0  0  0  0  0  0  0  0  0  # atno 17395 bound_to 11000

$$$$
