AV-unprocessed.smi:986|AV-procd|sdf|4320|dock4
  -GOLD-   22720 2223D 1   1.00000     0.00000
 Structure written by MMmdl.
 31 31  0  0  0  0  0  0  0  0  1 V2000
  147.6970  141.9300  154.0272 C   0  0  0  0  0  0  0  0  0  0  0  0
  148.0641  140.4408  154.1263 C   0  0  0  0  0  0  0  0  0  0  0  0
  149.5838  140.2387  154.1893 C   0  0  0  0  0  0  0  0  0  0  0  0
  147.5306  139.7051  152.9855 N   0  0  0  0  0  0  0  0  0  0  0  0
  146.5740  138.7606  153.0300 C   0  0  0  0  0  0  0  0  0  0  0  0
  146.0352  138.4062  154.0779 O   0  0  0  0  0  0  0  0  0  0  0  0
  146.1461  138.0984  151.7091 C   0  0  0  0  0  0  0  0  0  0  0  0
  146.4374  136.6670  151.6328 N   0  0  0  0  0  0  0  0  0  0  0  0
  145.5264  135.6970  151.4513 C   0  0  0  0  0  0  0  0  0  0  0  0
  144.3145  135.9037  151.4022 O   0  0  0  0  0  0  0  0  0  0  0  0
  146.0708  134.2810  151.2659 C   0  0  0  0  0  0  0  0  0  0  0  0
  145.0216  133.3861  150.8104 N   0  0  0  0  0  0  0  0  0  0  0  0
  145.0295  132.4526  149.8566 C   0  0  0  0  0  0  0  0  0  0  0  0
  143.8664  131.8365  149.6999 N   0  0  0  0  0  0  0  0  0  0  0  0
  143.1359  132.4818  150.6575 C   0  0  0  0  0  0  0  0  0  0  0  0
  143.7800  133.4219  151.3491 N   0  0  0  0  0  0  0  0  0  0  0  0
  148.0941  142.4876  154.8757 H   0  0  0  0  0  0  0  0  0  0  0  0
  146.6161  142.0735  154.0198 H   0  0  0  0  0  0  0  0  0  0  0  0
  148.0987  142.3778  153.1175 H   0  0  0  0  0  0  0  0  0  0  0  0
  147.6327  140.0331  155.0423 H   0  0  0  0  0  0  0  0  0  0  0  0
  150.0114  140.7467  155.0539 H   0  0  0  0  0  0  0  0  0  0  0  0
  150.0731  140.6319  153.2975 H   0  0  0  0  0  0  0  0  0  0  0  0
  149.8383  139.1813  154.2696 H   0  0  0  0  0  0  0  0  0  0  0  0
  147.9126  139.9393  152.0807 H   0  0  0  0  0  0  0  0  0  0  0  0
  145.0704  138.2307  151.5911 H   0  0  0  0  0  0  0  0  0  0  0  0
  146.6148  138.6263  150.8769 H   0  0  0  0  0  0  0  0  0  0  0  0
  147.4108  136.4020  151.6684 H   0  0  0  0  0  0  0  0  0  0  0  0
  146.8797  134.2813  150.5341 H   0  0  0  0  0  0  0  0  0  0  0  0
  146.4829  133.9082  152.2049 H   0  0  0  0  0  0  0  0  0  0  0  0
  145.9007  132.2248  149.2599 H   0  0  0  0  0  0  0  0  0  0  0  0
  142.0973  132.2543  150.8481 H   0  0  0  0  0  0  0  0  0  0  0  0
  1  2  1  0  0  0  0
  1 17  1  0  0  0  0
  1 18  1  0  0  0  0
  1 19  1  0  0  0  0
  2  3  1  0  0  0  0
  2  4  1  0  0  0  0
  2 20  1  0  0  0  0
  3 21  1  0  0  0  0
  3 22  1  0  0  0  0
  3 23  1  0  0  0  0
  4  5  1  0  0  0  0
  4 24  1  0  0  0  0
  5  6  2  0  0  0  0
  5  7  1  0  0  0  0
  7  8  1  0  0  0  0
  7 25  1  0  0  0  0
  7 26  1  0  0  0  0
  8  9  1  0  0  0  0
  8 27  1  0  0  0  0
  9 10  2  0  0  0  0
  9 11  1  0  0  0  0
 11 12  1  0  0  0  0
 11 28  1  0  0  0  0
 11 29  1  0  0  0  0
 12 16  1  0  0  0  0
 12 13  1  0  0  0  0
 13 14  2  0  0  0  0
 13 30  1  0  0  0  0
 14 15  1  0  0  0  0
 15 16  2  0  0  0  0
 15 31  1  0  0  0  0
M  END
> <s_m_source_file>
AV-unprocessed.smi

> <i_m_source_file_index>
986

> <i_lp_mmshare_version>
43012

> <i_f3d_flags>
0

> <s_epik_input>
W0NIM11bQ0hdKFtDSDNdKVtOSF1DKD1PKVtDSDJdW05IXUMoPU8pW0NIMl1uMVtjSF1uW2NIXW4x

> <s_epik_cmdline>
J2VwaWtfcHl0aG9uJywgJy1waCcsICc3LjAnLCAnLXRuJywgJzgnLCAnLW1hJywgJzIwMCcsICctbWV0YWxfYmluZGluZycsICctaW1hZScsICc8aW5maWxlLm1hZT4nLCAnLW9tYWUnLCAnPG91dGZpbGUubWFlPic=

> <r_lp_tautomer_probability>
1

> <r_epik_Ionization_Penalty>
7.25916e-06

> <r_epik_Ionization_Penalty_Charging>
0

> <r_epik_Ionization_Penalty_Neutral>
7.25916e-06

> <r_epik_State_Penalty>
-0

> <r_epik_Charging_Adjusted_Penalty>
0

> <i_epik_Tot_Q>
0

> <i_epik_Tot_abs_Q>
0

> <r_epik_Metal_State_Penalty>
-0

> <b_epik_Metal_Only>
0

> <s_lp_Force_Field>
OPLS_2005

> <r_lp_Energy>
0.116245

> <b_lp_Chiralities_Consistent>
1

> <s_lp_Variant>
AV-unprocessed.smi:986-1

> <Gold.Version>
5.8.1

> <Gold.Id.Protein>
6NUR|6NUR_protein|mol2

> <Gold.PLP.Fitness>
40.8465

> <Gold.PLP.PLP>
-29.1432

> <Gold.PLP.part.hbond>
-2.8675

> <Gold.PLP.part.metal>
0.0000

> <Gold.PLP.part.buried>
-3.0968

> <Gold.PLP.part.nonpolar>
-25.7746

> <Gold.PLP.part.repulsive>
1.5381

> <Gold.PLP.ligand.clash>
0.0000

> <Gold.PLP.ligand.torsion>
0.3613

> <Gold.PLP.Chemscore.Hbond>
2.6620

> <Gold.PLP.Chemscore.CHOScore>
1.4713

> <Gold.PLP.Chemscore.Metal>
0.0000

> <Gold.Chemscore.Hbonds>
donor molecule, donor type, donor heavy atom, donor atom, acceptor molecule, acceptor atom, score
      L1  H     4    24       P1  7957  0.83
      L1  H     8    27       P1  7948  1.00
      P1  H 10785 10796       L1    14  0.77
      L1  C    15    31       P1 10186  0.18
      L1  C    15    31       P1 10952  0.63

> <Gold.PLP.Chemscore.Internal.Correction>
0.0260

> <Gold.Rescore>
     Score         DG    S(hbond)    S(metal)    S(lipo)     H(rot)  DE(clash)    DE(int)     intcor
      8.66     -10.63       2.67        0.00      34.05       3.03       0.12       1.84       ----

> <Gold.Chemscore.Fitness>
8.6633

> <Gold.Chemscore.DG>
-10.6285

> <Gold.Chemscore.ZeroCoef>
-5.4800

> <Gold.Chemscore.Hbond>
2.6733

> <Gold.Chemscore.Metal>
0.0000

> <Gold.Chemscore.Lipo>
34.0507

> <Gold.Chemscore.Internal_Hbond>
0.0000

> <Gold.Chemscore.DEClash>
0.1214

> <Gold.Chemscore.DEInternal>
1.8437

> <Gold.Chemscore.Rot>
3.0329

> <Gold.Chemscore.Internal.Correction>
   9.000000E+99

> <Gold.Chemscore.Hbonds>
donor molecule, donor type, donor heavy atom, donor atom, acceptor molecule, acceptor atom, score
      L1  H     4    24       P1  7957  0.83
      L1  H     8    27       P1  7948  0.93
      P1  H 10785 10796       L1    14  0.73

> <Gold.Chemscore.Hbond.Weighted>
-8.9288

> <Gold.Chemscore.Metal.Weighted>
-0.0000

> <Gold.Chemscore.Lipo.Weighted>
-3.9839

> <Gold.Chemscore.Internal_Hbond.Weighted>
0.0000

> <Gold.Chemscore.DEClash.Weighted>
0.1214

> <Gold.Chemscore.DEInternal.Weighted>
1.8437

> <Gold.Chemscore.Rot.Weighted>
7.7643

> <Gold.Chemscore.Internal.Correction.Weighted>
   9.000000E+99

> <Gold.Protein.RotatedTorsions>
[ 6907 6896 6895 6894 ] final   45.96 input  -60.11 | X-H torsion
[ 7974 7965 7964 7962 ] final  -26.41 input  175.53 | X-H torsion
[ 8008 7997 7996 7995 ] final -149.95 input   59.86 | X-H torsion
[ 10167 10162 10161 10158 ] final -108.14 input  -65.29 | X-H torsion
[ 10718 10713 10712 10709 ] final   44.34 input   66.30 | X-H torsion
[ 10763 10752 10751 10750 ] final  123.58 input  -60.55 | X-H torsion
[ 11005 11000 10999 10996 ] final   72.45 input  -57.11 | X-H torsion

> <Gold.Protein.ActiveResidues>
 VAL166  LYS551  ARG553  GLY616  TRP617  ASP618  TYR619  PRO620  LYS621  CYS622 
 ASP623  PHE694  ASN695  SER759  ASP760  ASP761  ALA762  ILE779  LEU786  VAL792 
 PHE793  MET794  SER795  GLU796  ALA797  LYS798  CYS799  TRP800  GLU811  SER814 

> <Gold.Protein.RotatedAtoms>
  152.2507  134.8135  160.0446 H   0  0  0  0  0  0  0  0  0  0  0  0  # atno 6907 bound_to 6896
  151.8817  133.3491  159.3776 H   0  0  0  0  0  0  0  0  0  0  0  0  # atno 6908 bound_to 6896
  150.7083  134.4939  159.5573 H   0  0  0  0  0  0  0  0  0  0  0  0  # atno 6909 bound_to 6896
  146.1427  140.5016  142.8645 H   0  0  0  0  0  0  0  0  0  0  0  0  # atno 7974 bound_to 7965
  155.6158  140.0676  157.2693 H   0  0  0  0  0  0  0  0  0  0  0  0  # atno 8008 bound_to 7997
  154.4242  140.1793  156.1368 H   0  0  0  0  0  0  0  0  0  0  0  0  # atno 8009 bound_to 7997
  156.0049  140.3332  155.6886 H   0  0  0  0  0  0  0  0  0  0  0  0  # atno 8010 bound_to 7997
  140.1694  143.4055  152.1366 H   0  0  0  0  0  0  0  0  0  0  0  0  # atno 10167 bound_to 10162
  157.4257  130.7995  149.7557 H   0  0  0  0  0  0  0  0  0  0  0  0  # atno 10718 bound_to 10713
  153.6477  135.3368  155.3090 H   0  0  0  0  0  0  0  0  0  0  0  0  # atno 10763 bound_to 10752
  154.8545  135.4333  154.1937 H   0  0  0  0  0  0  0  0  0  0  0  0  # atno 10764 bound_to 10752
  153.2872  135.7014  153.7402 H   0  0  0  0  0  0  0  0  0  0  0  0  # atno 10765 bound_to 10752
  139.9490  134.7261  156.0908 H   0  0  0  0  0  0  0  0  0  0  0  0  # atno 11005 bound_to 11000
  144.7810  140.5841  143.6605 LP  0  0  0  0  0  0  0  0  0  0  0  0  # atno 17320 bound_to 7965
  145.5010  139.1483  143.3657 LP  0  0  0  0  0  0  0  0  0  0  0  0  # atno 17321 bound_to 7965
  139.5345  144.7195  151.4941 LP  0  0  0  0  0  0  0  0  0  0  0  0  # atno 17342 bound_to 10162
  140.6592  143.8535  150.6869 LP  0  0  0  0  0  0  0  0  0  0  0  0  # atno 17343 bound_to 10162
  155.9896  130.3951  150.3067 LP  0  0  0  0  0  0  0  0  0  0  0  0  # atno 17370 bound_to 10713
  157.1219  131.0249  151.3006 LP  0  0  0  0  0  0  0  0  0  0  0  0  # atno 17371 bound_to 10713
  141.1148  133.6631  156.3067 LP  0  0  0  0  0  0  0  0  0  0  0  0  # atno 17394 bound_to 11000
  140.5764  134.5789  157.5469 LP  0  0  0  0  0  0  0  0  0  0  0  0  # atno 17395 bound_to 11000

$$$$
