AV-unprocessed.smi:2098|AV-procd|sdf|8567|dock4
  -GOLD-   2272011293D 1   1.00000     0.00000
 Structure written by MMmdl.
 37 39  0  0  0  0  0  0  0  0  2 V2000
  151.0683  138.8824  156.7947 O   0  0  0  0  0  0  0  0  0  0  0  0
  152.3168  139.3722  157.2433 C   0  0  2  0  0  0  0  0  0  0  0  0
  153.2150  138.1730  157.5853 C   0  0  0  0  0  0  0  0  0  0  0  0
  154.3784  138.6444  158.2526 O   0  0  0  0  0  0  0  0  0  0  0  0
  154.5241  138.3566  159.5929 C   0  0  0  0  0  0  0  0  0  0  0  0
  155.6884  138.8375  160.2276 C   0  0  0  0  0  0  0  0  0  0  0  0
  155.9179  138.5925  161.5953 C   0  0  0  0  0  0  0  0  0  0  0  0
  154.9803  137.8589  162.3451 C   0  0  0  0  0  0  0  0  0  0  0  0
  155.1990  137.6222  163.6601 F   0  0  0  0  0  0  0  0  0  0  0  0
  153.8148  137.3722  161.7251 C   0  0  0  0  0  0  0  0  0  0  0  0
  153.5849  137.6181  160.3573 C   0  0  0  0  0  0  0  0  0  0  0  0
  152.0956  140.2869  158.4645 C   0  0  0  0  0  0  0  0  0  0  0  0
  151.5181  141.5908  158.1074 N   0  0  0  0  0  0  0  0  0  0  0  0
  150.7752  141.9416  157.0228 C   0  0  0  0  0  0  0  0  0  0  0  0
  150.4798  143.2660  157.1362 N   0  3  0  0  0  0  0  0  0  0  0  0
  151.0406  143.7699  158.3116 C   0  0  0  0  0  0  0  0  0  0  0  0
  151.0144  145.0500  158.8567 C   0  0  0  0  0  0  0  0  0  0  0  0
  151.6887  145.2298  160.0824 C   0  0  0  0  0  0  0  0  0  0  0  0
  152.3533  144.1613  160.7187 C   0  0  0  0  0  0  0  0  0  0  0  0
  152.3749  142.8682  160.1558 C   0  0  0  0  0  0  0  0  0  0  0  0
  151.7077  142.6984  158.9429 C   0  0  0  0  0  0  0  0  0  0  0  0
  150.5092  139.6207  156.6050 H   0  0  0  0  0  0  0  0  0  0  0  0
  152.7749  139.9560  156.4439 H   0  0  0  0  0  0  0  0  0  0  0  0
  152.6787  137.5048  158.2611 H   0  0  0  0  0  0  0  0  0  0  0  0
  153.4662  137.6073  156.6861 H   0  0  0  0  0  0  0  0  0  0  0  0
  156.4136  139.4016  159.6597 H   0  0  0  0  0  0  0  0  0  0  0  0
  156.8131  138.9680  162.0686 H   0  0  0  0  0  0  0  0  0  0  0  0
  153.0941  136.8092  162.2996 H   0  0  0  0  0  0  0  0  0  0  0  0
  152.6786  137.2295  159.9187 H   0  0  0  0  0  0  0  0  0  0  0  0
  151.4671  139.8053  159.2141 H   0  0  0  0  0  0  0  0  0  0  0  0
  153.0500  140.4880  158.9530 H   0  0  0  0  0  0  0  0  0  0  0  0
  150.4755  141.2878  156.2167 H   0  0  0  0  0  0  0  0  0  0  0  0
  150.5044  145.8697  158.3722 H   0  0  0  0  0  0  0  0  0  0  0  0
  151.6944  146.2062  160.5448 H   0  0  0  0  0  0  0  0  0  0  0  0
  152.8562  144.3363  161.6587 H   0  0  0  0  0  0  0  0  0  0  0  0
  152.8821  142.0562  160.6554 H   0  0  0  0  0  0  0  0  0  0  0  0
  149.9352  143.7851  156.4595 H   0  0  0  0  0  0  0  0  0  0  0  0
  1  2  1  0  0  0  0
  1 22  1  0  0  0  0
  2  3  1  0  0  0  0
  2 12  1  0  0  0  0
  2 23  1  0  0  0  0
  3  4  1  0  0  0  0
  3 24  1  0  0  0  0
  3 25  1  0  0  0  0
  4  5  1  0  0  0  0
  5 11  1  0  0  0  0
  5  6  2  0  0  0  0
  6  7  1  0  0  0  0
  6 26  1  0  0  0  0
  7  8  2  0  0  0  0
  7 27  1  0  0  0  0
  8  9  1  0  0  0  0
  8 10  1  0  0  0  0
 10 11  2  0  0  0  0
 10 28  1  0  0  0  0
 11 29  1  0  0  0  0
 12 13  1  0  0  0  0
 12 30  1  0  0  0  0
 12 31  1  0  0  0  0
 13 21  1  0  0  0  0
 13 14  1  0  0  0  0
 14 15  2  0  0  0  0
 14 32  1  0  0  0  0
 15 16  1  0  0  0  0
 15 37  1  0  0  0  0
 16 21  2  0  0  0  0
 16 17  1  0  0  0  0
 17 18  2  0  0  0  0
 17 33  1  0  0  0  0
 18 19  1  0  0  0  0
 18 34  1  0  0  0  0
 19 20  2  0  0  0  0
 19 35  1  0  0  0  0
 20 21  1  0  0  0  0
 20 36  1  0  0  0  0
M  CHG  1  15   1
M  END
> <s_m_source_file>
AV-unprocessed.smi

> <i_m_source_file_index>
2098

> <i_lp_mmshare_version>
43012

> <i_f3d_flags>
0

> <s_epik_input>
W2NIXTFbY0hdW2NIXVtjSF1jKGMxMiluKFtjSF1uMilbQ0gyXVtDQEhdKFtPSF0pW0NIMl1PYzNbY0hdW2NIXWMoRilbY0hdW2NIXTM=

> <s_epik_cmdline>
J2VwaWtfcHl0aG9uJywgJy1waCcsICc3LjAnLCAnLXRuJywgJzgnLCAnLW1hJywgJzIwMCcsICctbWV0YWxfYmluZGluZycsICctaW1hZScsICc8aW5maWxlLm1hZT4nLCAnLW9tYWUnLCAnPG91dGZpbGUubWFlPic=

> <r_lp_tautomer_probability>
1

> <r_epik_Ionization_Penalty>
1.3832

> <r_epik_Ionization_Penalty_Charging>
1.38319

> <r_epik_Ionization_Penalty_Neutral>
2.3993e-06

> <r_epik_State_Penalty>
1.46389

> <r_epik_Charging_Adjusted_Penalty>
2.84709

> <i_epik_Tot_Q>
1

> <i_epik_Tot_abs_Q>
1

> <r_epik_Metal_State_Penalty>
5.50438

> <b_epik_Metal_Only>
0

> <s_lp_Force_Field>
OPLS_2005

> <r_lp_Energy>
20.4389

> <b_lp_Chiralities_Consistent>
1

> <s_lp_Variant>
AV-unprocessed.smi:2098-3

> <Gold.Version>
5.8.1

> <Gold.Id.Protein>
6NUR|6NUR_protein|mol2

> <Gold.PLP.Fitness>
50.0308

> <Gold.PLP.PLP>
-42.6802

> <Gold.PLP.part.hbond>
-2.0000

> <Gold.PLP.part.metal>
0.0000

> <Gold.PLP.part.buried>
-5.5962

> <Gold.PLP.part.nonpolar>
-34.9441

> <Gold.PLP.part.repulsive>
0.0096

> <Gold.PLP.ligand.clash>
0.0000

> <Gold.PLP.ligand.torsion>
0.8341

> <Gold.PLP.Chemscore.Hbond>
3.0000

> <Gold.PLP.Chemscore.CHOScore>
0.0000

> <Gold.PLP.Chemscore.Metal>
0.0000

> <Gold.Chemscore.Hbonds>
donor molecule, donor type, donor heavy atom, donor atom, acceptor molecule, acceptor atom, score
      L1  H    15    37       P1  8028  2.00
      P1  H  7997  8010       L1     4  1.00

> <Gold.PLP.Chemscore.Internal.Correction>
0.0188

> <Gold.Rescore>
     Score         DG    S(hbond)    S(metal)    S(lipo)     H(rot)  DE(clash)    DE(int)     intcor
     16.44     -18.21       1.72        0.00     113.38       2.46       0.01       1.77       ----

> <Gold.Chemscore.Fitness>
16.4381

> <Gold.Chemscore.DG>
-18.2114

> <Gold.Chemscore.ZeroCoef>
-5.4800

> <Gold.Chemscore.Hbond>
1.7245

> <Gold.Chemscore.Metal>
0.0000

> <Gold.Chemscore.Lipo>
113.3768

> <Gold.Chemscore.Internal_Hbond>
0.0000

> <Gold.Chemscore.DEClash>
0.0073

> <Gold.Chemscore.DEInternal>
1.7660

> <Gold.Chemscore.Rot>
2.4584

> <Gold.Chemscore.Internal.Correction>
   9.000000E+99

> <Gold.Chemscore.Hbonds>
donor molecule, donor type, donor heavy atom, donor atom, acceptor molecule, acceptor atom, score
      L1  H    15    37       P1  8028  0.99
      P1  H  7997  8010       L1     4  0.45

> <Gold.Chemscore.Hbond.Weighted>
-5.7599

> <Gold.Chemscore.Metal.Weighted>
-0.0000

> <Gold.Chemscore.Lipo.Weighted>
-13.2651

> <Gold.Chemscore.Internal_Hbond.Weighted>
0.0000

> <Gold.Chemscore.DEClash.Weighted>
0.0073

> <Gold.Chemscore.DEInternal.Weighted>
1.7660

> <Gold.Chemscore.Rot.Weighted>
6.2936

> <Gold.Chemscore.Internal.Correction.Weighted>
   9.000000E+99

> <Gold.Protein.RotatedTorsions>
[ 6907 6896 6895 6894 ] final   49.66 input  -60.11 | X-H torsion
[ 7974 7965 7964 7962 ] final  132.87 input  175.53 | X-H torsion
[ 8008 7997 7996 7995 ] final   10.41 input   59.86 | X-H torsion
[ 10167 10162 10161 10158 ] final   25.52 input  -65.29 | X-H torsion
[ 10718 10713 10712 10709 ] final  140.45 input   66.30 | X-H torsion
[ 10763 10752 10751 10750 ] final    2.98 input  -60.55 | X-H torsion
[ 11005 11000 10999 10996 ] final -113.87 input  -57.11 | X-H torsion

> <Gold.Protein.ActiveResidues>
 VAL166  LYS551  ARG553  GLY616  TRP617  ASP618  TYR619  PRO620  LYS621  CYS622 
 ASP623  PHE694  ASN695  SER759  ASP760  ASP761  ALA762  ILE779  LEU786  VAL792 
 PHE793  MET794  SER795  GLU796  ALA797  LYS798  CYS799  TRP800  GLU811  SER814 

> <Gold.Protein.RotatedAtoms>
  152.2932  134.7697  160.0373 H   0  0  0  0  0  0  0  0  0  0  0  0  # atno 6907 bound_to 6896
  151.8236  133.3393  159.3600 H   0  0  0  0  0  0  0  0  0  0  0  0  # atno 6908 bound_to 6896
  150.7239  134.5479  159.5824 H   0  0  0  0  0  0  0  0  0  0  0  0  # atno 6909 bound_to 6896
  144.9924  139.4394  143.5333 H   0  0  0  0  0  0  0  0  0  0  0  0  # atno 7974 bound_to 7965
  154.7930  140.2839  155.5977 H   0  0  0  0  0  0  0  0  0  0  0  0  # atno 8008 bound_to 7997
  156.2967  140.2601  156.2711 H   0  0  0  0  0  0  0  0  0  0  0  0  # atno 8009 bound_to 7997
  154.9647  140.0377  157.2196 H   0  0  0  0  0  0  0  0  0  0  0  0  # atno 8010 bound_to 7997
  140.5099  144.0177  150.6368 H   0  0  0  0  0  0  0  0  0  0  0  0  # atno 10167 bound_to 10162
  157.4031  131.1019  151.0531 H   0  0  0  0  0  0  0  0  0  0  0  0  # atno 10718 bound_to 10713
  153.2889  135.6947  153.7312 H   0  0  0  0  0  0  0  0  0  0  0  0  # atno 10763 bound_to 10752
  153.6271  135.3417  155.3030 H   0  0  0  0  0  0  0  0  0  0  0  0  # atno 10764 bound_to 10752
  154.8518  135.4400  154.1965 H   0  0  0  0  0  0  0  0  0  0  0  0  # atno 10765 bound_to 10752
  141.0587  133.9570  157.2706 H   0  0  0  0  0  0  0  0  0  0  0  0  # atno 11005 bound_to 11000
  146.3434  139.9263  142.8759 LP  0  0  0  0  0  0  0  0  0  0  0  0  # atno 17320 bound_to 7965
  145.2268  140.9957  143.4014 LP  0  0  0  0  0  0  0  0  0  0  0  0  # atno 17321 bound_to 7965
  140.3497  143.2970  152.0501 LP  0  0  0  0  0  0  0  0  0  0  0  0  # atno 17342 bound_to 10162
  139.4893  144.6383  151.6930 LP  0  0  0  0  0  0  0  0  0  0  0  0  # atno 17343 bound_to 10162
  157.1523  130.6189  149.5586 LP  0  0  0  0  0  0  0  0  0  0  0  0  # atno 17370 bound_to 10713
  155.9829  130.4845  150.6904 LP  0  0  0  0  0  0  0  0  0  0  0  0  # atno 17371 bound_to 10713
  139.9413  135.0190  156.8717 LP  0  0  0  0  0  0  0  0  0  0  0  0  # atno 17394 bound_to 11000
  140.5912  134.0260  155.7500 LP  0  0  0  0  0  0  0  0  0  0  0  0  # atno 17395 bound_to 11000

$$$$
