AV-unprocessed.smi:224|AV-procd|sdf|1715|dock1
  -GOLD-   2262020183D 1   1.00000     0.00000
 Structure written by MMmdl.
 56 59  0  0  0  0  0  0  0  0  2 V2000
  144.7641  131.3569  151.0404 C   0  0  0  0  0  0  0  0  0  0  0  0
  143.4270  132.1085  151.0711 C   0  0  2  0  0  0  0  0  0  0  0  0
  142.8919  132.0934  149.7626 O   0  0  0  0  0  0  0  0  0  0  0  0
  143.6061  133.5673  151.5412 C   0  0  0  0  0  0  0  0  0  0  0  0
  144.2025  133.7007  152.8994 N   0  3  2  0  0  0  0  0  0  0  0  0
  143.7857  134.9626  153.5661 C   0  0  0  0  0  0  0  0  0  0  0  0
  144.2811  135.0185  155.0221 C   0  0  0  0  0  0  0  0  0  0  0  0
  145.7208  134.7834  155.0994 N   0  0  0  0  0  0  0  0  0  0  0  0
  146.5758  135.8402  155.0369 C   0  0  0  0  0  0  0  0  0  0  0  0
  146.0785  137.1015  154.9291 N   0  0  0  0  0  0  0  0  0  0  0  0
  146.9001  138.1504  154.8362 C   0  0  0  0  0  0  0  0  0  0  0  0
  148.2332  138.1662  154.8359 N   0  0  0  0  0  0  0  0  0  0  0  0
  148.7428  136.9086  154.9665 C   0  0  0  0  0  0  0  0  0  0  0  0
  147.9937  135.7017  155.0723 C   0  0  0  0  0  0  0  0  0  0  0  0
  148.8606  134.6221  155.1999 N   0  0  0  0  0  0  0  0  0  0  0  0
  150.0498  135.1571  155.1571 C   0  0  0  0  0  0  0  0  0  0  0  0
  150.0718  136.5266  155.0239 N   0  0  0  0  0  0  0  0  0  0  0  0
  151.2506  137.3759  154.9524 C   0  0  0  0  0  0  0  0  0  0  0  0
  150.9811  138.8407  155.3682 C   0  0  1  0  0  0  0  0  0  0  0  0
  150.3081  139.5042  154.3124 O   0  0  0  0  0  0  0  0  0  0  0  0
  150.1486  138.9869  156.6389 C   0  0  0  0  0  0  0  0  0  0  0  0
  150.6878  140.2714  157.2521 C   0  0  0  0  0  0  0  0  0  0  0  0
  152.0790  140.1708  157.0019 O   0  0  0  0  0  0  0  0  0  0  0  0
  152.2657  139.6265  155.6992 C   0  0  0  0  0  0  0  0  0  0  0  0
  146.1515  133.5391  154.4655 C   0  0  0  0  0  0  0  0  0  0  0  0
  145.6738  133.4397  152.9985 C   0  0  2  0  0  0  0  0  0  0  0  0
  146.5220  134.3141  152.0502 C   0  0  0  0  0  0  0  0  0  0  0  0
  145.2159  131.3216  152.0324 H   0  0  0  0  0  0  0  0  0  0  0  0
  145.4768  131.8359  150.3677 H   0  0  0  0  0  0  0  0  0  0  0  0
  144.6291  130.3281  150.7045 H   0  0  0  0  0  0  0  0  0  0  0  0
  142.7544  131.5632  151.7319 H   0  0  0  0  0  0  0  0  0  0  0  0
  142.2603  132.7911  149.6797 H   0  0  0  0  0  0  0  0  0  0  0  0
  144.2047  134.1260  150.8212 H   0  0  0  0  0  0  0  0  0  0  0  0
  142.6266  134.0483  151.5429 H   0  0  0  0  0  0  0  0  0  0  0  0
  144.1602  135.8165  153.0010 H   0  0  0  0  0  0  0  0  0  0  0  0
  142.6981  135.0403  153.5594 H   0  0  0  0  0  0  0  0  0  0  0  0
  144.0087  135.9658  155.4888 H   0  0  0  0  0  0  0  0  0  0  0  0
  143.7823  134.2442  155.6062 H   0  0  0  0  0  0  0  0  0  0  0  0
  146.4212  139.1144  154.7468 H   0  0  0  0  0  0  0  0  0  0  0  0
  150.9496  134.5631  155.2265 H   0  0  0  0  0  0  0  0  0  0  0  0
  152.0173  136.9407  155.5948 H   0  0  0  0  0  0  0  0  0  0  0  0
  151.6456  137.3364  153.9364 H   0  0  0  0  0  0  0  0  0  0  0  0
  149.5804  139.9854  154.6755 H   0  0  0  0  0  0  0  0  0  0  0  0
  149.0723  139.0109  156.4622 H   0  0  0  0  0  0  0  0  0  0  0  0
  150.3549  138.1618  157.3218 H   0  0  0  0  0  0  0  0  0  0  0  0
  150.2831  141.1500  156.7471 H   0  0  0  0  0  0  0  0  0  0  0  0
  150.4744  140.3535  158.3179 H   0  0  0  0  0  0  0  0  0  0  0  0
  153.1516  138.9906  155.7045 H   0  0  0  0  0  0  0  0  0  0  0  0
  152.4492  140.4338  154.9881 H   0  0  0  0  0  0  0  0  0  0  0  0
  147.2301  133.3996  154.5104 H   0  0  0  0  0  0  0  0  0  0  0  0
  145.7237  132.7164  155.0394 H   0  0  0  0  0  0  0  0  0  0  0  0
  145.8475  132.4043  152.7091 H   0  0  0  0  0  0  0  0  0  0  0  0
  147.5855  134.1322  152.2058 H   0  0  0  0  0  0  0  0  0  0  0  0
  146.3490  135.3786  152.2035 H   0  0  0  0  0  0  0  0  0  0  0  0
  146.3161  134.0923  151.0033 H   0  0  0  0  0  0  0  0  0  0  0  0
  143.7707  132.9708  153.4475 H   0  0  0  0  0  0  0  0  0  0  0  0
  1  2  1  0  0  0  0
  1 28  1  0  0  0  0
  1 29  1  0  0  0  0
  1 30  1  0  0  0  0
  2  3  1  0  0  0  0
  2  4  1  0  0  0  0
  2 31  1  0  0  0  0
  3 32  1  0  0  0  0
  4  5  1  0  0  0  0
  4 33  1  0  0  0  0
  4 34  1  0  0  0  0
  5 26  1  0  0  0  0
  5  6  1  0  0  0  0
  5 56  1  0  0  0  0
  6  7  1  0  0  0  0
  6 35  1  0  0  0  0
  6 36  1  0  0  0  0
  7  8  1  0  0  0  0
  7 37  1  0  0  0  0
  7 38  1  0  0  0  0
  8  9  1  0  0  0  0
  8 25  1  0  0  0  0
  9 14  1  0  0  0  0
  9 10  2  0  0  0  0
 10 11  1  0  0  0  0
 11 12  2  0  0  0  0
 11 39  1  0  0  0  0
 12 13  1  0  0  0  0
 13 17  1  0  0  0  0
 13 14  2  0  0  0  0
 14 15  1  0  0  0  0
 15 16  2  0  0  0  0
 16 17  1  0  0  0  0
 16 40  1  0  0  0  0
 17 18  1  0  0  0  0
 18 19  1  0  0  0  0
 18 41  1  0  0  0  0
 18 42  1  0  0  0  0
 19 24  1  0  0  0  0
 19 20  1  0  0  0  0
 19 21  1  0  0  0  0
 20 43  1  0  0  0  0
 21 22  1  0  0  0  0
 21 44  1  0  0  0  0
 21 45  1  0  0  0  0
 22 23  1  0  0  0  0
 22 46  1  0  0  0  0
 22 47  1  0  0  0  0
 23 24  1  0  0  0  0
 24 48  1  0  0  0  0
 24 49  1  0  0  0  0
 25 26  1  0  0  0  0
 25 50  1  0  0  0  0
 25 51  1  0  0  0  0
 26 27  1  0  0  0  0
 26 52  1  0  0  0  0
 27 53  1  0  0  0  0
 27 54  1  0  0  0  0
 27 55  1  0  0  0  0
M  CHG  1   5   1
M  END
> <s_m_source_file>
AV-unprocessed.smi

> <i_m_source_file_index>
224

> <i_lp_mmshare_version>
43012

> <i_f3d_flags>
0

> <s_epik_input>
W0NIM11bQ0BIXShbT0hdKVtDSDJdTjFbQ0gyXVtDSDJdTihbQ0gyXVtDQEhdMVtDSDNdKWMobltjSF1uMiljKGMyMyluW2NIXW4zW0NIMl1bQ0BAXTQoW09IXSlbQ0gyXVtDSDJdT1tDSDJdNA==

> <s_epik_cmdline>
J2VwaWtfcHl0aG9uJywgJy1waCcsICc3LjAnLCAnLXRuJywgJzgnLCAnLW1hJywgJzIwMCcsICctbWV0YWxfYmluZGluZycsICctaW1hZScsICc8aW5maWxlLm1hZT4nLCAnLW9tYWUnLCAnPG91dGZpbGUubWFlPic=

> <r_lp_tautomer_probability>
1

> <r_epik_Ionization_Penalty>
0.00516958

> <r_epik_Ionization_Penalty_Charging>
0.00509693

> <r_epik_Ionization_Penalty_Neutral>
7.26542e-05

> <r_epik_State_Penalty>
-0

> <r_epik_Charging_Adjusted_Penalty>
0.00509693

> <i_epik_Tot_Q>
1

> <i_epik_Tot_abs_Q>
1

> <r_epik_Metal_State_Penalty>
-0

> <b_epik_Metal_Only>
0

> <s_lp_Force_Field>
OPLS_2005

> <r_lp_Energy>
50.3788

> <b_lp_Chiralities_Consistent>
1

> <s_lp_Variant>
AV-unprocessed.smi:224-9

> <Gold.Version>
5.8.1

> <Gold.Id.Protein>
6NUR|6NUR_protein|mol2

> <Gold.PLP.Fitness>
41.5991

> <Gold.PLP.PLP>
-30.6265

> <Gold.PLP.part.hbond>
-5.0601

> <Gold.PLP.part.metal>
0.0000

> <Gold.PLP.part.buried>
-4.5035

> <Gold.PLP.part.nonpolar>
-24.0275

> <Gold.PLP.part.repulsive>
0.2569

> <Gold.PLP.ligand.clash>
0.0000

> <Gold.PLP.ligand.torsion>
0.9755

> <Gold.PLP.Chemscore.Hbond>
4.1850

> <Gold.PLP.Chemscore.CHOScore>
0.0000

> <Gold.PLP.Chemscore.Metal>
0.0000

> <Gold.Chemscore.Hbonds>
donor molecule, donor type, donor heavy atom, donor atom, acceptor molecule, acceptor atom, score
      L1  H     3    32       P1 10186  0.94
      L1  H     5    56       P1 10957  1.62
      P1  H  7989  7998       L1    20  0.93
      P1  H 10785 10796       L1     3  0.52

> <Gold.PLP.Chemscore.Internal.Correction>
0.3686

> <Gold.Rescore>
     Score         DG    S(hbond)    S(metal)    S(lipo)     H(rot)  DE(clash)    DE(int)     intcor
     10.60     -14.46       2.59        0.00      68.93       3.02       0.19       3.67       ----

> <Gold.Chemscore.Fitness>
10.5967

> <Gold.Chemscore.DG>
-14.4551

> <Gold.Chemscore.ZeroCoef>
-5.4800

> <Gold.Chemscore.Hbond>
2.5896

> <Gold.Chemscore.Metal>
0.0000

> <Gold.Chemscore.Lipo>
68.9310

> <Gold.Chemscore.Internal_Hbond>
0.0000

> <Gold.Chemscore.DEClash>
0.1884

> <Gold.Chemscore.DEInternal>
3.6700

> <Gold.Chemscore.Rot>
3.0231

> <Gold.Chemscore.Internal.Correction>
   9.000000E+99

> <Gold.Chemscore.Hbonds>
donor molecule, donor type, donor heavy atom, donor atom, acceptor molecule, acceptor atom, score
      L1  H     3    32       P1 10186  0.90
      L1  H     5    56       P1 10957  0.63
      P1  H  7989  7998       L1    20  0.38
      P1  H 10785 10796       L1     3  0.43

> <Gold.Chemscore.Hbond.Weighted>
-8.6492

> <Gold.Chemscore.Metal.Weighted>
-0.0000

> <Gold.Chemscore.Lipo.Weighted>
-8.0649

> <Gold.Chemscore.Internal_Hbond.Weighted>
0.0000

> <Gold.Chemscore.DEClash.Weighted>
0.1884

> <Gold.Chemscore.DEInternal.Weighted>
3.6700

> <Gold.Chemscore.Rot.Weighted>
7.7391

> <Gold.Chemscore.Internal.Correction.Weighted>
   9.000000E+99

> <Gold.Protein.RotatedTorsions>
[ 6907 6896 6895 6894 ] final -138.78 input  -60.11 | X-H torsion
[ 7974 7965 7964 7962 ] final   60.03 input  175.53 | X-H torsion
[ 8008 7997 7996 7995 ] final -165.41 input   59.86 | X-H torsion
[ 10167 10162 10161 10158 ] final  158.62 input  -65.29 | X-H torsion
[ 10718 10713 10712 10709 ] final -135.60 input   66.30 | X-H torsion
[ 10763 10752 10751 10750 ] final  -19.32 input  -60.55 | X-H torsion
[ 11005 11000 10999 10996 ] final -148.71 input  -57.11 | X-H torsion

> <Gold.Protein.ActiveResidues>
 VAL166  LYS551  ARG553  GLY616  TRP617  ASP618  TYR619  PRO620  LYS621  CYS622 
 ASP623  PHE694  ASN695  SER759  ASP760  ASP761  ALA762  ILE779  LEU786  VAL792 
 PHE793  MET794  SER795  GLU796  ALA797  LYS798  CYS799  TRP800  GLU811  SER814 

> <Gold.Protein.RotatedAtoms>
  151.0394  133.5720  159.2652 H   0  0  0  0  0  0  0  0  0  0  0  0  # atno 6907 bound_to 6896
  151.2772  135.0702  159.9166 H   0  0  0  0  0  0  0  0  0  0  0  0  # atno 6908 bound_to 6896
  152.5361  134.0114  159.7994 H   0  0  0  0  0  0  0  0  0  0  0  0  # atno 6909 bound_to 6896
  145.9006  139.3578  143.0595 H   0  0  0  0  0  0  0  0  0  0  0  0  # atno 7974 bound_to 7965
  155.8494  140.0961  157.1684 H   0  0  0  0  0  0  0  0  0  0  0  0  # atno 8008 bound_to 7997
  154.3985  140.1386  156.3888 H   0  0  0  0  0  0  0  0  0  0  0  0  # atno 8009 bound_to 7997
  155.7977  140.3454  155.5388 H   0  0  0  0  0  0  0  0  0  0  0  0  # atno 8010 bound_to 7997
  139.4828  144.4808  151.8447 H   0  0  0  0  0  0  0  0  0  0  0  0  # atno 10167 bound_to 10162
  156.2680  130.7249  151.1206 H   0  0  0  0  0  0  0  0  0  0  0  0  # atno 10718 bound_to 10713
  153.6030  135.6999  153.5377 H   0  0  0  0  0  0  0  0  0  0  0  0  # atno 10763 bound_to 10752
  153.3081  135.4109  155.1311 H   0  0  0  0  0  0  0  0  0  0  0  0  # atno 10764 bound_to 10752
  154.8579  135.3665  154.5566 H   0  0  0  0  0  0  0  0  0  0  0  0  # atno 10765 bound_to 10752
  140.7584  134.3326  157.5108 H   0  0  0  0  0  0  0  0  0  0  0  0  # atno 11005 bound_to 11000
  145.8796  140.9371  143.0608 LP  0  0  0  0  0  0  0  0  0  0  0  0  # atno 17320 bound_to 7965
  144.6735  140.0762  143.7471 LP  0  0  0  0  0  0  0  0  0  0  0  0  # atno 17321 bound_to 7965
  140.4283  144.2150  150.5887 LP  0  0  0  0  0  0  0  0  0  0  0  0  # atno 17342 bound_to 10162
  140.4804  143.2381  151.8963 LP  0  0  0  0  0  0  0  0  0  0  0  0  # atno 17343 bound_to 10162
  157.7274  131.0639  150.5867 LP  0  0  0  0  0  0  0  0  0  0  0  0  # atno 17370 bound_to 10713
  156.5961  130.4342  149.5916 LP  0  0  0  0  0  0  0  0  0  0  0  0  # atno 17371 bound_to 10713
  139.8775  134.9186  156.3208 LP  0  0  0  0  0  0  0  0  0  0  0  0  # atno 17394 bound_to 11000
  140.9686  133.7342  156.0502 LP  0  0  0  0  0  0  0  0  0  0  0  0  # atno 17395 bound_to 11000

$$$$
