AV-unprocessed.smi:370|AV-procd|sdf|2439|dock4
  -GOLD-   2262022383D 1   1.00000     0.00000
 Structure written by MMmdl.
 42 43  0  0  0  0  0  0  0  0  3 V2000
  146.9865  134.6521  163.0773 C   0  0  0  0  0  0  0  0  0  0  0  0
  147.5705  134.8064  161.7147 C   0  0  0  0  0  0  0  0  0  0  0  0
  147.8996  133.9075  160.7404 C   0  0  0  0  0  0  0  0  0  0  0  0
  148.4034  134.7302  159.6962 C   0  0  0  0  0  0  0  0  0  0  0  0
  148.8729  134.3031  158.5140 N   0  5  0  0  0  0  0  0  0  0  0  0
  148.4910  134.9134  157.3695 C   0  0  0  0  0  0  0  0  0  0  0  0
  147.8067  135.9352  157.2779 O   0  0  0  0  0  0  0  0  0  0  0  0
  148.9213  134.2922  156.2619 N   0  0  0  0  0  0  0  0  0  0  0  0
  148.6605  134.6949  154.8801 C   0  0  0  0  0  0  0  0  0  0  0  0
  148.2156  133.5254  153.9483 C   0  0  0  0  0  0  0  0  0  0  0  0
  149.4993  132.8406  153.4079 C   0  0  0  0  0  0  0  0  0  0  0  0
  147.4112  132.4623  154.7365 C   0  0  0  0  0  0  0  0  0  0  0  0
  147.3919  134.1035  152.8229 N   0  3  0  0  0  0  0  0  0  0  0  0
  146.9755  133.1548  151.7501 C   0  0  0  0  0  0  0  0  0  0  0  0
  146.2816  133.9018  150.5971 C   0  0  0  0  0  0  0  0  0  0  0  0
  145.1730  134.6415  151.0875 O   0  0  0  0  0  0  0  0  0  0  0  0
  145.5756  135.6170  152.0375 C   0  0  0  0  0  0  0  0  0  0  0  0
  146.2133  134.9146  153.2457 C   0  0  0  0  0  0  0  0  0  0  0  0
  148.3963  136.0136  160.0150 N   0  0  0  0  0  0  0  0  0  0  0  0
  147.8571  136.0717  161.3058 O   0  0  0  0  0  0  0  0  0  0  0  0
  147.6341  134.0416  163.7066 H   0  0  0  0  0  0  0  0  0  0  0  0
  146.0111  134.1685  163.0254 H   0  0  0  0  0  0  0  0  0  0  0  0
  146.8585  135.6196  163.5631 H   0  0  0  0  0  0  0  0  0  0  0  0
  147.7939  132.8333  160.7678 H   0  0  0  0  0  0  0  0  0  0  0  0
  149.4793  133.4611  156.3934 H   0  0  0  0  0  0  0  0  0  0  0  0
  147.9384  135.5095  154.8869 H   0  0  0  0  0  0  0  0  0  0  0  0
  149.5834  135.1310  154.4967 H   0  0  0  0  0  0  0  0  0  0  0  0
  150.1551  132.5068  154.2124 H   0  0  0  0  0  0  0  0  0  0  0  0
  150.0797  133.5170  152.7793 H   0  0  0  0  0  0  0  0  0  0  0  0
  149.2766  131.9442  152.8290 H   0  0  0  0  0  0  0  0  0  0  0  0
  148.0385  131.9467  155.4641 H   0  0  0  0  0  0  0  0  0  0  0  0
  147.0002  131.6963  154.0790 H   0  0  0  0  0  0  0  0  0  0  0  0
  146.5849  132.9039  155.2935 H   0  0  0  0  0  0  0  0  0  0  0  0
  147.8291  132.6363  151.3173 H   0  0  0  0  0  0  0  0  0  0  0  0
  146.3071  132.3970  152.1606 H   0  0  0  0  0  0  0  0  0  0  0  0
  146.9816  134.5688  150.0912 H   0  0  0  0  0  0  0  0  0  0  0  0
  145.9271  133.1913  149.8503 H   0  0  0  0  0  0  0  0  0  0  0  0
  146.2692  136.3279  151.5855 H   0  0  0  0  0  0  0  0  0  0  0  0
  144.6987  136.1829  152.3523 H   0  0  0  0  0  0  0  0  0  0  0  0
  145.4650  134.2749  153.7151 H   0  0  0  0  0  0  0  0  0  0  0  0
  146.4842  135.6728  153.9768 H   0  0  0  0  0  0  0  0  0  0  0  0
  148.0154  134.7516  152.3633 H   0  0  0  0  0  0  0  0  0  0  0  0
  1  2  1  0  0  0  0
  1 21  1  0  0  0  0
  1 22  1  0  0  0  0
  1 23  1  0  0  0  0
  2 20  1  0  0  0  0
  2  3  2  0  0  0  0
  3  4  1  0  0  0  0
  3 24  1  0  0  0  0
  4  5  1  0  0  0  0
  4 19  2  0  0  0  0
  5  6  1  0  0  0  0
  6  7  2  0  0  0  0
  6  8  1  0  0  0  0
  8  9  1  0  0  0  0
  8 25  1  0  0  0  0
  9 10  1  0  0  0  0
  9 26  1  0  0  0  0
  9 27  1  0  0  0  0
 10 11  1  0  0  0  0
 10 12  1  0  0  0  0
 10 13  1  0  0  0  0
 11 28  1  0  0  0  0
 11 29  1  0  0  0  0
 11 30  1  0  0  0  0
 12 31  1  0  0  0  0
 12 32  1  0  0  0  0
 12 33  1  0  0  0  0
 13 18  1  0  0  0  0
 13 14  1  0  0  0  0
 13 42  1  0  0  0  0
 14 15  1  0  0  0  0
 14 34  1  0  0  0  0
 14 35  1  0  0  0  0
 15 16  1  0  0  0  0
 15 36  1  0  0  0  0
 15 37  1  0  0  0  0
 16 17  1  0  0  0  0
 17 18  1  0  0  0  0
 17 38  1  0  0  0  0
 17 39  1  0  0  0  0
 18 40  1  0  0  0  0
 18 41  1  0  0  0  0
 19 20  1  0  0  0  0
M  CHG  1   5  -1
M  CHG  1  13   1
M  END
> <s_m_source_file>
AV-unprocessed.smi

> <i_m_source_file_index>
370

> <i_lp_mmshare_version>
43012

> <i_f3d_flags>
0

> <s_epik_input>
W0NIM11jMVtjSF1jKG5vMSlbTkhdQyg9TylbTkhdW0NIMl1DKFtDSDNdKShbQ0gzXSlOMltDSDJdW0NIMl1PW0NIMl1bQ0gyXTI=

> <s_epik_cmdline>
J2VwaWtfcHl0aG9uJywgJy1waCcsICc3LjAnLCAnLXRuJywgJzgnLCAnLW1hJywgJzIwMCcsICctbWV0YWxfYmluZGluZycsICctaW1hZScsICc8aW5maWxlLm1hZT4nLCAnLW9tYWUnLCAnPG91dGZpbGUubWFlPic=

> <r_epik_Ionization_Penalty>
6.73014

> <r_epik_Ionization_Penalty_Charging>
6.73004

> <r_epik_Ionization_Penalty_Neutral>
9.76201e-05

> <r_epik_State_Penalty>
6.93052

> <r_epik_Charging_Adjusted_Penalty>
13.6606

> <i_epik_Tot_Q>
0

> <i_epik_Tot_abs_Q>
2

> <r_epik_Metal_State_Penalty>
2.86736

> <b_epik_Metal_Only>
1

> <s_lp_Force_Field>
OPLS_2005

> <r_lp_Energy>
13.9603

> <b_lp_Chiralities_Consistent>
1

> <s_lp_Variant>
AV-unprocessed.smi:370-4

> <Gold.Version>
5.8.1

> <Gold.Id.Protein>
6NUR|6NUR_protein|mol2

> <Gold.PLP.Fitness>
42.9451

> <Gold.PLP.PLP>
-27.7979

> <Gold.PLP.part.hbond>
-4.6904

> <Gold.PLP.part.metal>
0.0000

> <Gold.PLP.part.buried>
-3.9956

> <Gold.PLP.part.nonpolar>
-19.2347

> <Gold.PLP.part.repulsive>
0.1910

> <Gold.PLP.ligand.clash>
0.0000

> <Gold.PLP.ligand.torsion>
0.9879

> <Gold.PLP.Chemscore.Hbond>
5.6688

> <Gold.PLP.Chemscore.CHOScore>
0.0000

> <Gold.PLP.Chemscore.Metal>
0.0000

> <Gold.Chemscore.Hbonds>
donor molecule, donor type, donor heavy atom, donor atom, acceptor molecule, acceptor atom, score
      L1  H    13    42       P1  7948  2.00
      P1  H  6896  6909       L1     5  0.60

> <Gold.PLP.Chemscore.Internal.Correction>
0.1166

> <Gold.Rescore>
     Score         DG    S(hbond)    S(metal)    S(lipo)     H(rot)  DE(clash)    DE(int)     intcor
     13.35     -15.89       2.23        0.00      59.75       1.57       0.06       2.48       ----

> <Gold.Chemscore.Fitness>
13.3470

> <Gold.Chemscore.DG>
-15.8873

> <Gold.Chemscore.ZeroCoef>
-5.4800

> <Gold.Chemscore.Hbond>
2.2263

> <Gold.Chemscore.Metal>
0.0000

> <Gold.Chemscore.Lipo>
59.7507

> <Gold.Chemscore.Internal_Hbond>
0.0000

> <Gold.Chemscore.DEClash>
0.0643

> <Gold.Chemscore.DEInternal>
2.4761

> <Gold.Chemscore.Rot>
1.5701

> <Gold.Chemscore.Internal.Correction>
   9.000000E+99

> <Gold.Chemscore.Hbonds>
donor molecule, donor type, donor heavy atom, donor atom, acceptor molecule, acceptor atom, score
      L1  H    13    42       P1  7948  0.55

> <Gold.Chemscore.Hbond.Weighted>
-7.4359

> <Gold.Chemscore.Metal.Weighted>
-0.0000

> <Gold.Chemscore.Lipo.Weighted>
-6.9908

> <Gold.Chemscore.Internal_Hbond.Weighted>
0.0000

> <Gold.Chemscore.DEClash.Weighted>
0.0643

> <Gold.Chemscore.DEInternal.Weighted>
2.4761

> <Gold.Chemscore.Rot.Weighted>
4.0194

> <Gold.Chemscore.Internal.Correction.Weighted>
   9.000000E+99

> <Gold.Protein.RotatedTorsions>
[ 6907 6896 6895 6894 ] final   26.45 input  -60.11 | X-H torsion
[ 7974 7965 7964 7962 ] final  -67.76 input  175.53 | X-H torsion
[ 8008 7997 7996 7995 ] final   15.76 input   59.86 | X-H torsion
[ 10167 10162 10161 10158 ] final    5.51 input  -65.29 | X-H torsion
[ 10718 10713 10712 10709 ] final -133.51 input   66.30 | X-H torsion
[ 10763 10752 10751 10750 ] final -122.78 input  -60.55 | X-H torsion
[ 11005 11000 10999 10996 ] final   32.77 input  -57.11 | X-H torsion

> <Gold.Protein.ActiveResidues>
 VAL166  LYS551  ARG553  GLY616  TRP617  ASP618  TYR619  PRO620  LYS621  CYS622 
 ASP623  PHE694  ASN695  SER759  ASP760  ASP761  ALA762  ILE779  LEU786  VAL792 
 PHE793  MET794  SER795  GLU796  ALA797  LYS798  CYS799  TRP800  GLU811  SER814 

> <Gold.Protein.RotatedAtoms>
  151.9877  134.9996  160.0559 H   0  0  0  0  0  0  0  0  0  0  0  0  # atno 6907 bound_to 6896
  152.1638  133.4594  159.4882 H   0  0  0  0  0  0  0  0  0  0  0  0  # atno 6908 bound_to 6896
  150.6891  134.1956  159.4345 H   0  0  0  0  0  0  0  0  0  0  0  0  # atno 6909 bound_to 6896
  145.7250  140.9022  143.0610 H   0  0  0  0  0  0  0  0  0  0  0  0  # atno 7974 bound_to 7965
  154.8672  140.2953  155.5503 H   0  0  0  0  0  0  0  0  0  0  0  0  # atno 8008 bound_to 7997
  156.3021  140.2467  156.3588 H   0  0  0  0  0  0  0  0  0  0  0  0  # atno 8009 bound_to 7997
  154.8855  140.0396  157.1797 H   0  0  0  0  0  0  0  0  0  0  0  0  # atno 8010 bound_to 7997
  140.6478  143.7619  150.7527 H   0  0  0  0  0  0  0  0  0  0  0  0  # atno 10167 bound_to 10162
  156.2457  130.7123  151.1002 H   0  0  0  0  0  0  0  0  0  0  0  0  # atno 10718 bound_to 10713
  154.8696  135.4121  154.2838 H   0  0  0  0  0  0  0  0  0  0  0  0  # atno 10763 bound_to 10752
  153.3726  135.7008  153.6632 H   0  0  0  0  0  0  0  0  0  0  0  0  # atno 10764 bound_to 10752
  153.5487  135.3633  155.2722 H   0  0  0  0  0  0  0  0  0  0  0  0  # atno 10765 bound_to 10752
  140.2701  134.3092  155.7830 H   0  0  0  0  0  0  0  0  0  0  0  0  # atno 11005 bound_to 11000
  144.6907  139.9254  143.7469 LP  0  0  0  0  0  0  0  0  0  0  0  0  # atno 17320 bound_to 7965
  146.0590  139.3585  143.0593 LP  0  0  0  0  0  0  0  0  0  0  0  0  # atno 17321 bound_to 7965
  140.1263  143.4566  152.2282 LP  0  0  0  0  0  0  0  0  0  0  0  0  # atno 17342 bound_to 10162
  139.5690  144.7452  151.3942 LP  0  0  0  0  0  0  0  0  0  0  0  0  # atno 17343 bound_to 10162
  157.7194  131.0691  150.6198 LP  0  0  0  0  0  0  0  0  0  0  0  0  # atno 17370 bound_to 10713
  156.6274  130.4422  149.5799 LP  0  0  0  0  0  0  0  0  0  0  0  0  # atno 17371 bound_to 10713
  141.2178  133.7461  156.9321 LP  0  0  0  0  0  0  0  0  0  0  0  0  # atno 17394 bound_to 11000
  140.1382  134.9311  157.2430 LP  0  0  0  0  0  0  0  0  0  0  0  0  # atno 17395 bound_to 11000

$$$$
