#       Name:                AV-unprocessed.smi:772
#       Creating user name   scv26
#       Creation time:       Fri Mar 27 01:10:32 2020


#       File generated by GOLD software.
#

@<TRIPOS>MOLECULE
AV-unprocessed.smi:772
    49    50     1
SMALL
NO_CHARGES


@<TRIPOS>ATOM
      1 ****        -1.3146   4.6806   1.9700 C.3            1 S1                 0.0000
      2 ****        -1.8837   3.7439   0.9259 C.ar           1 S1                 0.0000
      3 ****        -3.0310   2.9573   1.1631 C.ar           1 S1                 0.0000
      4 ****        -3.4980   2.0977   0.1475 C.ar           1 S1                 0.0000
      5 ****        -2.8089   2.0407  -1.0836 C.ar           1 S1                 0.0000
      6 ****        -3.2680   1.0944  -2.1789 C.3            1 S1                 0.0000
      7 ****        -2.8891  -0.3769  -1.9200 C.3            1 S1                 0.0000
      8 ****        -1.4443  -0.5725  -1.8241 N.am           1 S1                 0.0000
      9 ****        -0.7239  -0.5907  -0.6884 C.2            1 S1                 0.0000
     10 ****        -1.2412  -0.4332   0.4185 O.2            1 S1                 0.0000
     11 ****         0.6127  -0.7433  -0.8667 N.am           1 S1                 0.0000
     12 ****         1.2750  -1.1591  -2.1132 C.3            1 S1                 0.0000
     13 ****         1.5369  -2.6717  -2.0573 C.3            1 S1                 0.0000
     14 ****         2.6700  -3.0846  -0.6953 S.3            1 S1                 0.0000
     15 ****         1.8611  -2.1959   0.6827 C.3            1 S1                 0.0000
     16 ****         2.6749  -2.2854   1.9985 C.3            1 S1                 0.0000
     17 ****         4.0856  -1.6740   1.9042 C.3            1 S1                 0.0000
     18 ****         2.7364  -3.7237   2.5402 C.3            1 S1                 0.0000
     19 ****         1.5445  -0.7413   0.2679 C.3            1 S1                 0.0000
     20 ****        -1.6717   2.8569  -1.2666 C.ar           1 S1                 0.0000
     21 ****        -1.2552   3.6658  -0.2684 N.pl3          1 S1                 1.0000
     22 ****        -1.9791   4.7596   2.8309 H              1 S1                 0.0000
     23 ****        -1.1779   5.6791   1.5540 H              1 S1                 0.0000
     24 ****        -0.3477   4.3156   2.3174 H              1 S1                 0.0000
     25 ****        -3.5450   3.0042   2.1122 H              1 S1                 0.0000
     26 ****        -4.3678   1.4799   0.3174 H              1 S1                 0.0000
     27 ****        -4.3506   1.1795  -2.2797 H              1 S1                 0.0000
     28 ****        -2.8499   1.4195  -3.1327 H              1 S1                 0.0000
     29 ****        -3.3875  -0.7446  -1.0216 H              1 S1                 0.0000
     30 ****        -3.2551  -0.9940  -2.7407 H              1 S1                 0.0000
     31 ****        -0.9479  -0.7012  -2.6938 H              1 S1                 0.0000
     32 ****         0.7020  -0.9140  -3.0075 H              1 S1                 0.0000
     33 ****         2.2178  -0.6229  -2.2302 H              1 S1                 0.0000
     34 ****         0.6021  -3.2169  -1.9227 H              1 S1                 0.0000
     35 ****         1.9769  -3.0168  -2.9929 H              1 S1                 0.0000
     36 ****         0.9088  -2.6994   0.8562 H              1 S1                 0.0000
     37 ****         2.1316  -1.7049   2.7451 H              1 S1                 0.0000
     38 ****         4.7105  -2.2039   1.1854 H              1 S1                 0.0000
     39 ****         4.5920  -1.7190   2.8688 H              1 S1                 0.0000
     40 ****         4.0531  -0.6254   1.6106 H              1 S1                 0.0000
     41 ****         3.2973  -4.3819   1.8765 H              1 S1                 0.0000
     42 ****         1.7372  -4.1434   2.6597 H              1 S1                 0.0000
     43 ****         3.2209  -3.7529   3.5166 H              1 S1                 0.0000
     44 ****         2.4562  -0.2125  -0.0110 H              1 S1                 0.0000
     45 ****         1.1395  -0.1862   1.1154 H              1 S1                 0.0000
     46 ****        -1.0770   2.8759  -2.1682 H              1 S1                 0.0000
     47 ****        -0.4263   4.2408  -0.4210 H              1 S1                 0.0000
     48 ****        -2.2275  -0.2858   0.4931 LP             1 S1                 0.0000
     49 ****        -0.6749  -0.4527   1.2424 LP             1 S1                 0.0000
@<TRIPOS>BOND
    1    1    2 1     
    2    1   22 1     
    3    1   23 1     
    4    1   24 1     
    5    2   21 ar    
    6    2    3 ar    
    7    3    4 ar    
    8    3   25 1     
    9    4    5 ar    
   10    4   26 1     
   11    5    6 1     
   12    5   20 ar    
   13    6    7 1     
   14    6   27 1     
   15    6   28 1     
   16    7    8 1     
   17    7   29 1     
   18    7   30 1     
   19    8    9 am    
   20    8   31 1     
   21    9   10 2     
   22    9   11 am    
   23   11   19 1     
   24   11   12 1     
   25   12   13 1     
   26   12   32 1     
   27   12   33 1     
   28   13   14 1     
   29   13   34 1     
   30   13   35 1     
   31   14   15 1     
   32   15   16 1     
   33   15   19 1     
   34   15   36 1     
   35   16   17 1     
   36   16   18 1     
   37   16   37 1     
   38   17   38 1     
   39   17   39 1     
   40   17   40 1     
   41   18   41 1     
   42   18   42 1     
   43   18   43 1     
   44   19   44 1     
   45   19   45 1     
   46   20   21 ar    
   47   20   46 1     
   48   21   47 1     
   49   10   48 1     
   50   10   49 1     
@<TRIPOS>SUBSTRUCTURE
      1 S1             1
@<TRIPOS>SET
LONE_PAIRS      STATIC     ATOMS    <user>   **** ""
2 48 49
DONOR_HYDROGENS      STATIC     ATOMS    <user>   **** ""
2 31 47
ATOM$BLUE        STATIC     ATOMS    COLORGROUP SYSTEM
2 48 49
ATOM$RED        STATIC     ATOMS    COLORGROUP SYSTEM
2 31 47
