AV-unprocessed.smi:2061|AV-procd|sdf|8376|dock9
  -GOLD-   2272011 53D 1   1.00000     0.00000
 Structure written by MMmdl.
 44 45  0  0  0  0  0  0  0  0  2 V2000
  145.8537  136.3643  162.0725 C   0  0  0  0  0  0  0  0  0  0  0  0
  146.9248  136.5510  161.0530 C   0  0  0  0  0  0  0  0  0  0  0  0
  148.1119  135.9139  160.8272 C   0  0  0  0  0  0  0  0  0  0  0  0
  148.6352  136.5939  159.6935 C   0  0  0  0  0  0  0  0  0  0  0  0
  149.8078  136.3393  159.0928 N   0  5  0  0  0  0  0  0  0  0  0  0
  150.3861  137.2732  158.3029 C   0  0  0  0  0  0  0  0  0  0  0  0
  149.9830  138.4235  158.1148 O   0  0  0  0  0  0  0  0  0  0  0  0
  151.4984  136.8458  157.6878 N   0  0  0  0  0  0  0  0  0  0  0  0
  152.3191  137.6245  156.7628 C   0  0  0  0  0  0  0  0  0  0  0  0
  151.5516  138.0879  155.4892 C   0  0  2  0  0  0  0  0  0  0  0  0
  152.5725  138.3029  154.3423 C   0  0  0  0  0  0  0  0  0  0  0  0
  150.6912  139.2733  155.7180 N   0  0  0  0  0  0  0  0  0  0  0  0
  151.4715  140.4912  155.9666 C   0  0  0  0  0  0  0  0  0  0  0  0
  150.6066  141.7494  156.1819 C   0  0  2  0  0  0  0  0  0  0  0  0
  149.9081  141.7826  157.5521 C   0  0  0  0  0  0  0  0  0  0  0  0
  149.6814  141.9074  155.1087 O   0  0  0  0  0  0  0  0  0  0  0  0
  148.8789  140.7625  154.8421 C   0  0  1  0  0  0  0  0  0  0  0  0
  147.9948  141.0751  153.6301 C   0  0  0  0  0  0  0  0  0  0  0  0
  149.7845  139.5420  154.5979 C   0  0  0  0  0  0  0  0  0  0  0  0
  147.8437  137.5690  159.2791 N   0  0  0  0  0  0  0  0  0  0  0  0
  146.7412  137.5438  160.1415 O   0  0  0  0  0  0  0  0  0  0  0  0
  146.1854  136.7196  163.0480 H   0  0  0  0  0  0  0  0  0  0  0  0
  145.5906  135.3108  162.1669 H   0  0  0  0  0  0  0  0  0  0  0  0
  144.9521  136.9140  161.8009 H   0  0  0  0  0  0  0  0  0  0  0  0
  148.5379  135.0910  161.3809 H   0  0  0  0  0  0  0  0  0  0  0  0
  151.7935  135.8982  157.8716 H   0  0  0  0  0  0  0  0  0  0  0  0
  152.7152  138.4634  157.3332 H   0  0  0  0  0  0  0  0  0  0  0  0
  153.1767  137.0149  156.4773 H   0  0  0  0  0  0  0  0  0  0  0  0
  150.9052  137.2627  155.1865 H   0  0  0  0  0  0  0  0  0  0  0  0
  153.2389  137.4511  154.2122 H   0  0  0  0  0  0  0  0  0  0  0  0
  153.1943  139.1791  154.5277 H   0  0  0  0  0  0  0  0  0  0  0  0
  152.0886  138.4298  153.3751 H   0  0  0  0  0  0  0  0  0  0  0  0
  152.1003  140.3774  156.8476 H   0  0  0  0  0  0  0  0  0  0  0  0
  152.1439  140.6656  155.1251 H   0  0  0  0  0  0  0  0  0  0  0  0
  151.2659  142.6169  156.1430 H   0  0  0  0  0  0  0  0  0  0  0  0
  150.6408  141.7892  158.3595 H   0  0  0  0  0  0  0  0  0  0  0  0
  149.2642  140.9169  157.7058 H   0  0  0  0  0  0  0  0  0  0  0  0
  149.2957  142.6786  157.6545 H   0  0  0  0  0  0  0  0  0  0  0  0
  148.2293  140.5670  155.6958 H   0  0  0  0  0  0  0  0  0  0  0  0
  147.3504  140.2300  153.3862 H   0  0  0  0  0  0  0  0  0  0  0  0
  148.5976  141.3019  152.7502 H   0  0  0  0  0  0  0  0  0  0  0  0
  147.3543  141.9351  153.8263 H   0  0  0  0  0  0  0  0  0  0  0  0
  150.3611  139.6864  153.6826 H   0  0  0  0  0  0  0  0  0  0  0  0
  149.1237  138.6956  154.4257 H   0  0  0  0  0  0  0  0  0  0  0  0
  1  2  1  0  0  0  0
  1 22  1  0  0  0  0
  1 23  1  0  0  0  0
  1 24  1  0  0  0  0
  2 21  1  0  0  0  0
  2  3  2  0  0  0  0
  3  4  1  0  0  0  0
  3 25  1  0  0  0  0
  4  5  1  0  0  0  0
  4 20  2  0  0  0  0
  5  6  1  0  0  0  0
  6  7  2  0  0  0  0
  6  8  1  0  0  0  0
  8  9  1  0  0  0  0
  8 26  1  0  0  0  0
  9 10  1  0  0  0  0
  9 27  1  0  0  0  0
  9 28  1  0  0  0  0
 10 11  1  0  0  0  0
 10 12  1  0  0  0  0
 10 29  1  0  0  0  0
 11 30  1  0  0  0  0
 11 31  1  0  0  0  0
 11 32  1  0  0  0  0
 12 19  1  0  0  0  0
 12 13  1  0  0  0  0
 13 14  1  0  0  0  0
 13 33  1  0  0  0  0
 13 34  1  0  0  0  0
 14 15  1  0  0  0  0
 14 16  1  0  0  0  0
 14 35  1  0  0  0  0
 15 36  1  0  0  0  0
 15 37  1  0  0  0  0
 15 38  1  0  0  0  0
 16 17  1  0  0  0  0
 17 18  1  0  0  0  0
 17 19  1  0  0  0  0
 17 39  1  0  0  0  0
 18 40  1  0  0  0  0
 18 41  1  0  0  0  0
 18 42  1  0  0  0  0
 19 43  1  0  0  0  0
 19 44  1  0  0  0  0
 20 21  1  0  0  0  0
M  CHG  1   5  -1
M  END
> <s_m_source_file>
AV-unprocessed.smi

> <i_m_source_file_index>
2061

> <i_lp_mmshare_version>
43012

> <i_f3d_flags>
0

> <s_epik_input>
W0NIM11jMVtjSF1jKG5vMSlbTkhdQyg9TylbTkhdW0NIMl1bQ0BIXShbQ0gzXSlOMltDSDJdW0NAQEhdKFtDSDNdKU9bQ0BASF0oW0NIM10pW0NIMl0y

> <s_epik_cmdline>
J2VwaWtfcHl0aG9uJywgJy1waCcsICc3LjAnLCAnLXRuJywgJzgnLCAnLW1hJywgJzIwMCcsICctbWV0YWxfYmluZGluZycsICctaW1hZScsICc8aW5maWxlLm1hZT4nLCAnLW9tYWUnLCAnPG91dGZpbGUubWFlPic=

> <r_epik_Ionization_Penalty>
6.88367

> <r_epik_Ionization_Penalty_Charging>
6.57198

> <r_epik_Ionization_Penalty_Neutral>
0.311681

> <r_epik_State_Penalty>
6.77619

> <r_epik_Charging_Adjusted_Penalty>
13.3482

> <i_epik_Tot_Q>
-1

> <i_epik_Tot_abs_Q>
1

> <r_epik_Metal_State_Penalty>
2.70524

> <b_epik_Metal_Only>
1

> <s_lp_Force_Field>
OPLS_2005

> <r_lp_Energy>
24.3932

> <b_lp_Chiralities_Consistent>
1

> <s_lp_Variant>
AV-unprocessed.smi:2061-17

> <Gold.Version>
5.8.1

> <Gold.Id.Protein>
6NUR|6NUR_protein|mol2

> <Gold.PLP.Fitness>
40.7565

> <Gold.PLP.PLP>
-33.0785

> <Gold.PLP.part.hbond>
-3.2491

> <Gold.PLP.part.metal>
0.0000

> <Gold.PLP.part.buried>
-4.6320

> <Gold.PLP.part.nonpolar>
-26.3749

> <Gold.PLP.part.repulsive>
1.2477

> <Gold.PLP.ligand.clash>
0.0000

> <Gold.PLP.ligand.torsion>
0.3878

> <Gold.PLP.Chemscore.Hbond>
2.8000

> <Gold.PLP.Chemscore.CHOScore>
0.0000

> <Gold.PLP.Chemscore.Metal>
0.0000

> <Gold.Chemscore.Hbonds>
donor molecule, donor type, donor heavy atom, donor atom, acceptor molecule, acceptor atom, score
      P1  H  6896  6907       L1     5  2.00
      P1  H  6934  6947       L1    21  0.70

> <Gold.PLP.Chemscore.Internal.Correction>
0.0536

> <Gold.Rescore>
     Score         DG    S(hbond)    S(metal)    S(lipo)     H(rot)  DE(clash)    DE(int)     intcor
     10.81     -14.87       1.05        0.00      83.46       1.52       0.43       3.63       ----

> <Gold.Chemscore.Fitness>
10.8143

> <Gold.Chemscore.DG>
-14.8687

> <Gold.Chemscore.ZeroCoef>
-5.4800

> <Gold.Chemscore.Hbond>
1.0518

> <Gold.Chemscore.Metal>
0.0000

> <Gold.Chemscore.Lipo>
83.4570

> <Gold.Chemscore.Internal_Hbond>
0.0000

> <Gold.Chemscore.DEClash>
0.4257

> <Gold.Chemscore.DEInternal>
3.6288

> <Gold.Chemscore.Rot>
1.5190

> <Gold.Chemscore.Internal.Correction>
   9.000000E+99

> <Gold.Chemscore.Hbonds>
donor molecule, donor type, donor heavy atom, donor atom, acceptor molecule, acceptor atom, score
      P1  H  6896  6907       L1     5  0.91
      P1  H  6934  6947       L1    21  0.05

> <Gold.Chemscore.Hbond.Weighted>
-3.5129

> <Gold.Chemscore.Metal.Weighted>
-0.0000

> <Gold.Chemscore.Lipo.Weighted>
-9.7645

> <Gold.Chemscore.Internal_Hbond.Weighted>
0.0000

> <Gold.Chemscore.DEClash.Weighted>
0.4257

> <Gold.Chemscore.DEInternal.Weighted>
3.6288

> <Gold.Chemscore.Rot.Weighted>
3.8886

> <Gold.Chemscore.Internal.Correction.Weighted>
   9.000000E+99

> <Gold.Protein.RotatedTorsions>
[ 6907 6896 6895 6894 ] final  -36.36 input  -60.11 | X-H torsion
[ 7974 7965 7964 7962 ] final -121.85 input  175.53 | X-H torsion
[ 8008 7997 7996 7995 ] final    4.78 input   59.86 | X-H torsion
[ 10167 10162 10161 10158 ] final  -56.73 input  -65.29 | X-H torsion
[ 10718 10713 10712 10709 ] final   28.16 input   66.30 | X-H torsion
[ 10763 10752 10751 10750 ] final  -86.59 input  -60.55 | X-H torsion
[ 11005 11000 10999 10996 ] final  140.57 input  -57.11 | X-H torsion

> <Gold.Protein.ActiveResidues>
 VAL166  LYS551  ARG553  GLY616  TRP617  ASP618  TYR619  PRO620  LYS621  CYS622 
 ASP623  PHE694  ASN695  SER759  ASP760  ASP761  ALA762  ILE779  LEU786  VAL792 
 PHE793  MET794  SER795  GLU796  ALA797  LYS798  CYS799  TRP800  GLU811  SER814 

> <Gold.Protein.RotatedAtoms>
  151.0282  134.9519  159.8096 H   0  0  0  0  0  0  0  0  0  0  0  0  # atno 6907 bound_to 6896
  152.5340  134.2815  159.9019 H   0  0  0  0  0  0  0  0  0  0  0  0  # atno 6908 bound_to 6896
  151.2824  133.4161  159.2662 H   0  0  0  0  0  0  0  0  0  0  0  0  # atno 6909 bound_to 6896
  145.0358  140.8105  143.4296 H   0  0  0  0  0  0  0  0  0  0  0  0  # atno 7974 bound_to 7965
  154.7202  140.2710  155.6548 H   0  0  0  0  0  0  0  0  0  0  0  0  # atno 8008 bound_to 7997
  156.2821  140.2736  156.1796 H   0  0  0  0  0  0  0  0  0  0  0  0  # atno 8009 bound_to 7997
  155.0517  140.0371  157.2536 H   0  0  0  0  0  0  0  0  0  0  0  0  # atno 8010 bound_to 7997
  140.6300  143.2455  151.5266 H   0  0  0  0  0  0  0  0  0  0  0  0  # atno 10167 bound_to 10162
  157.2297  130.7018  149.6308 H   0  0  0  0  0  0  0  0  0  0  0  0  # atno 10718 bound_to 10713
  154.6241  135.5444  153.7608 H   0  0  0  0  0  0  0  0  0  0  0  0  # atno 10763 bound_to 10752
  153.0252  135.6420  154.1397 H   0  0  0  0  0  0  0  0  0  0  0  0  # atno 10764 bound_to 10752
  154.1330  135.2913  155.3160 H   0  0  0  0  0  0  0  0  0  0  0  0  # atno 10765 bound_to 10752
  140.0337  134.9339  157.0711 H   0  0  0  0  0  0  0  0  0  0  0  0  # atno 11005 bound_to 11000
  145.1711  139.2404  143.5341 LP  0  0  0  0  0  0  0  0  0  0  0  0  # atno 17320 bound_to 7965
  146.3504  140.1462  142.8593 LP  0  0  0  0  0  0  0  0  0  0  0  0  # atno 17321 bound_to 7965
  139.5515  144.2383  152.1539 LP  0  0  0  0  0  0  0  0  0  0  0  0  # atno 17342 bound_to 10162
  140.1624  144.5013  150.6625 LP  0  0  0  0  0  0  0  0  0  0  0  0  # atno 17343 bound_to 10162
  155.9676  130.4493  150.5651 LP  0  0  0  0  0  0  0  0  0  0  0  0  # atno 17370 bound_to 10713
  157.3490  131.0730  151.1728 LP  0  0  0  0  0  0  0  0  0  0  0  0  # atno 17371 bound_to 10713
  140.4183  134.1908  155.7164 LP  0  0  0  0  0  0  0  0  0  0  0  0  # atno 17394 bound_to 11000
  141.1845  133.8342  157.1137 LP  0  0  0  0  0  0  0  0  0  0  0  0  # atno 17395 bound_to 11000

$$$$
