AV-unprocessed.smi:962|AV-procd|sdf|4275|dock7
  -GOLD-   22720 2183D 1   1.00000     0.00000
 Structure written by MMmdl.
 42 43  0  0  0  0  0  0  0  0  1 V2000
  150.3268  144.0187  158.7043 C   0  0  0  0  0  0  0  0  0  0  0  0
  151.8584  144.1393  158.8541 C   0  0  0  0  0  0  0  0  0  0  0  0
  152.4581  144.3578  157.4509 C   0  0  0  0  0  0  0  0  0  0  0  0
  152.1547  145.3585  159.7493 C   0  0  0  0  0  0  0  0  0  0  0  0
  152.4478  142.8874  159.4713 C   0  0  0  0  0  0  0  0  0  0  0  0
  153.0856  142.7579  160.6841 C   0  0  0  0  0  0  0  0  0  0  0  0
  153.5607  141.1148  161.0100 S   0  0  0  0  0  0  0  0  0  0  0  0
  152.8783  140.6449  159.4592 C   0  0  0  0  0  0  0  0  0  0  0  0
  152.8123  139.2284  158.9855 C   0  0  0  0  0  0  0  0  0  0  0  0
  152.5241  139.0862  157.4773 C   0  0  0  0  0  0  0  0  0  0  0  0
  151.2834  139.7518  157.0847 N   0  0  0  0  0  0  0  0  0  0  0  0
  150.9459  140.1003  155.8296 C   0  0  0  0  0  0  0  0  0  0  0  0
  151.6181  139.7963  154.8433 O   0  0  0  0  0  0  0  0  0  0  0  0
  149.8075  140.8219  155.7458 N   0  0  0  0  0  0  0  0  0  0  0  0
  148.9192  141.1847  156.8542 C   0  0  0  0  0  0  0  0  0  0  0  0
  147.9749  142.2503  156.2973 C   0  0  0  0  0  0  0  0  0  0  0  0
  147.9481  141.9785  154.8000 C   0  0  0  0  0  0  0  0  0  0  0  0
  149.3388  141.4213  154.4979 C   0  0  0  0  0  0  0  0  0  0  0  0
  152.3522  141.6693  158.7858 N   0  0  0  0  0  0  0  0  0  0  0  0
  149.8991  144.9199  158.2636 H   0  0  0  0  0  0  0  0  0  0  0  0
  149.8404  143.8685  159.6691 H   0  0  0  0  0  0  0  0  0  0  0  0
  150.0521  143.1829  158.0593 H   0  0  0  0  0  0  0  0  0  0  0  0
  152.2644  143.5030  156.8015 H   0  0  0  0  0  0  0  0  0  0  0  0
  153.5390  144.4976  157.4919 H   0  0  0  0  0  0  0  0  0  0  0  0
  152.0357  145.2404  156.9696 H   0  0  0  0  0  0  0  0  0  0  0  0
  151.7253  146.2705  159.3329 H   0  0  0  0  0  0  0  0  0  0  0  0
  153.2266  145.5271  159.8580 H   0  0  0  0  0  0  0  0  0  0  0  0
  151.7400  145.2257  160.7492 H   0  0  0  0  0  0  0  0  0  0  0  0
  153.2954  143.5241  161.4153 H   0  0  0  0  0  0  0  0  0  0  0  0
  153.7491  138.7287  159.2342 H   0  0  0  0  0  0  0  0  0  0  0  0
  152.0332  138.7186  159.5531 H   0  0  0  0  0  0  0  0  0  0  0  0
  153.3653  139.4839  156.9071 H   0  0  0  0  0  0  0  0  0  0  0  0
  152.4539  138.0312  157.2129 H   0  0  0  0  0  0  0  0  0  0  0  0
  150.6622  140.0297  157.8306 H   0  0  0  0  0  0  0  0  0  0  0  0
  148.3595  140.3012  157.1650 H   0  0  0  0  0  0  0  0  0  0  0  0
  149.4672  141.5648  157.7180 H   0  0  0  0  0  0  0  0  0  0  0  0
  146.9844  142.2189  156.7520 H   0  0  0  0  0  0  0  0  0  0  0  0
  148.3942  143.2408  156.4796 H   0  0  0  0  0  0  0  0  0  0  0  0
  147.1948  141.2205  154.5806 H   0  0  0  0  0  0  0  0  0  0  0  0
  147.7105  142.8656  154.2121 H   0  0  0  0  0  0  0  0  0  0  0  0
  150.0198  142.2250  154.2134 H   0  0  0  0  0  0  0  0  0  0  0  0
  149.3090  140.6974  153.6821 H   0  0  0  0  0  0  0  0  0  0  0  0
  1  2  1  0  0  0  0
  1 20  1  0  0  0  0
  1 21  1  0  0  0  0
  1 22  1  0  0  0  0
  2  3  1  0  0  0  0
  2  4  1  0  0  0  0
  2  5  1  0  0  0  0
  3 23  1  0  0  0  0
  3 24  1  0  0  0  0
  3 25  1  0  0  0  0
  4 26  1  0  0  0  0
  4 27  1  0  0  0  0
  4 28  1  0  0  0  0
  5 19  1  0  0  0  0
  5  6  2  0  0  0  0
  6  7  1  0  0  0  0
  6 29  1  0  0  0  0
  7  8  1  0  0  0  0
  8  9  1  0  0  0  0
  8 19  2  0  0  0  0
  9 10  1  0  0  0  0
  9 30  1  0  0  0  0
  9 31  1  0  0  0  0
 10 11  1  0  0  0  0
 10 32  1  0  0  0  0
 10 33  1  0  0  0  0
 11 12  1  0  0  0  0
 11 34  1  0  0  0  0
 12 13  2  0  0  0  0
 12 14  1  0  0  0  0
 14 18  1  0  0  0  0
 14 15  1  0  0  0  0
 15 16  1  0  0  0  0
 15 35  1  0  0  0  0
 15 36  1  0  0  0  0
 16 17  1  0  0  0  0
 16 37  1  0  0  0  0
 16 38  1  0  0  0  0
 17 18  1  0  0  0  0
 17 39  1  0  0  0  0
 17 40  1  0  0  0  0
 18 41  1  0  0  0  0
 18 42  1  0  0  0  0
M  END
> <s_m_source_file>
AV-unprocessed.smi

> <i_m_source_file_index>
962

> <i_lp_mmshare_version>
43012

> <i_f3d_flags>
0

> <s_epik_input>
W0NIM11DKFtDSDNdKShbQ0gzXSljMVtjSF1zYyhuMSlbQ0gyXVtDSDJdW05IXUMoPU8pTjJbQ0gyXVtDSDJdW0NIMl1bQ0gyXTI=

> <s_epik_cmdline>
J2VwaWtfcHl0aG9uJywgJy1waCcsICc3LjAnLCAnLXRuJywgJzgnLCAnLW1hJywgJzIwMCcsICctbWV0YWxfYmluZGluZycsICctaW1hZScsICc8aW5maWxlLm1hZT4nLCAnLW9tYWUnLCAnPG91dGZpbGUubWFlPic=

> <r_epik_Ionization_Penalty>
0.00160156

> <r_epik_Ionization_Penalty_Charging>
0

> <r_epik_Ionization_Penalty_Neutral>
0.00160156

> <r_epik_State_Penalty>
0.00103428

> <r_epik_Charging_Adjusted_Penalty>
0.00103428

> <i_epik_Tot_Q>
0

> <i_epik_Tot_abs_Q>
0

> <r_epik_Metal_State_Penalty>
-0

> <b_epik_Metal_Only>
0

> <s_lp_Force_Field>
OPLS_2005

> <r_lp_Energy>
25.7371

> <b_lp_Chiralities_Consistent>
1

> <s_lp_Variant>
AV-unprocessed.smi:962-1

> <Gold.Version>
5.8.1

> <Gold.Id.Protein>
6NUR|6NUR_protein|mol2

> <Gold.PLP.Fitness>
44.7941

> <Gold.PLP.PLP>
-42.6153

> <Gold.PLP.part.hbond>
-1.0000

> <Gold.PLP.part.metal>
0.0000

> <Gold.PLP.part.buried>
-3.7698

> <Gold.PLP.part.nonpolar>
-37.9307

> <Gold.PLP.part.repulsive>
0.1266

> <Gold.PLP.ligand.clash>
0.0000

> <Gold.PLP.ligand.torsion>
0.4272

> <Gold.PLP.Chemscore.Hbond>
1.0000

> <Gold.PLP.Chemscore.CHOScore>
0.0000

> <Gold.PLP.Chemscore.Metal>
0.0000

> <Gold.Chemscore.Hbonds>
donor molecule, donor type, donor heavy atom, donor atom, acceptor molecule, acceptor atom, score
      P1  H  7989  7998       L1    13  1.00

> <Gold.PLP.Chemscore.Internal.Correction>
0.0333

> <Gold.Rescore>
     Score         DG    S(hbond)    S(metal)    S(lipo)     H(rot)  DE(clash)    DE(int)     intcor
     16.87     -18.70       1.00        0.00     115.45       1.41       0.03       1.81       ----

> <Gold.Chemscore.Fitness>
16.8676

> <Gold.Chemscore.DG>
-18.7004

> <Gold.Chemscore.ZeroCoef>
-5.4800

> <Gold.Chemscore.Hbond>
0.9985

> <Gold.Chemscore.Metal>
0.0000

> <Gold.Chemscore.Lipo>
115.4513

> <Gold.Chemscore.Internal_Hbond>
0.0000

> <Gold.Chemscore.DEClash>
0.0275

> <Gold.Chemscore.DEInternal>
1.8053

> <Gold.Chemscore.Rot>
1.4149

> <Gold.Chemscore.Internal.Correction>
   9.000000E+99

> <Gold.Chemscore.Hbonds>
donor molecule, donor type, donor heavy atom, donor atom, acceptor molecule, acceptor atom, score
      P1  H  7989  7998       L1    13  0.95

> <Gold.Chemscore.Hbond.Weighted>
-3.3348

> <Gold.Chemscore.Metal.Weighted>
-0.0000

> <Gold.Chemscore.Lipo.Weighted>
-13.5078

> <Gold.Chemscore.Internal_Hbond.Weighted>
0.0000

> <Gold.Chemscore.DEClash.Weighted>
0.0275

> <Gold.Chemscore.DEInternal.Weighted>
1.8053

> <Gold.Chemscore.Rot.Weighted>
3.6222

> <Gold.Chemscore.Internal.Correction.Weighted>
   9.000000E+99

> <Gold.Protein.RotatedTorsions>
[ 6907 6896 6895 6894 ] final  163.60 input  -60.11 | X-H torsion
[ 7974 7965 7964 7962 ] final  -27.86 input  175.53 | X-H torsion
[ 8008 7997 7996 7995 ] final  -94.65 input   59.86 | X-H torsion
[ 10167 10162 10161 10158 ] final  -81.36 input  -65.29 | X-H torsion
[ 10718 10713 10712 10709 ] final   20.46 input   66.30 | X-H torsion
[ 10763 10752 10751 10750 ] final -109.25 input  -60.55 | X-H torsion
[ 11005 11000 10999 10996 ] final -171.08 input  -57.11 | X-H torsion

> <Gold.Protein.ActiveResidues>
 VAL166  LYS551  ARG553  GLY616  TRP617  ASP618  TYR619  PRO620  LYS621  CYS622 
 ASP623  PHE694  ASN695  SER759  ASP760  ASP761  ALA762  ILE779  LEU786  VAL792 
 PHE793  MET794  SER795  GLU796  ALA797  LYS798  CYS799  TRP800  GLU811  SER814 

> <Gold.Protein.RotatedAtoms>
  151.9226  133.3589  159.3902 H   0  0  0  0  0  0  0  0  0  0  0  0  # atno 6907 bound_to 6896
  150.7034  134.4619  159.5394 H   0  0  0  0  0  0  0  0  0  0  0  0  # atno 6908 bound_to 6896
  152.2245  134.8381  160.0532 H   0  0  0  0  0  0  0  0  0  0  0  0  # atno 6909 bound_to 6896
  146.1328  140.5207  142.8686 H   0  0  0  0  0  0  0  0  0  0  0  0  # atno 7974 bound_to 7965
  154.7512  140.0487  157.0894 H   0  0  0  0  0  0  0  0  0  0  0  0  # atno 8008 bound_to 7997
  155.0055  140.3130  155.4831 H   0  0  0  0  0  0  0  0  0  0  0  0  # atno 8009 bound_to 7997
  156.2885  140.2193  156.5167 H   0  0  0  0  0  0  0  0  0  0  0  0  # atno 8010 bound_to 7997
  140.4419  143.2512  151.8614 H   0  0  0  0  0  0  0  0  0  0  0  0  # atno 10167 bound_to 10162
  157.1248  130.6565  149.5934 H   0  0  0  0  0  0  0  0  0  0  0  0  # atno 10718 bound_to 10713
  154.8182  135.4608  154.0703 H   0  0  0  0  0  0  0  0  0  0  0  0  # atno 10763 bound_to 10752
  153.2079  135.6878  153.8157 H   0  0  0  0  0  0  0  0  0  0  0  0  # atno 10764 bound_to 10752
  153.7618  135.3283  155.3315 H   0  0  0  0  0  0  0  0  0  0  0  0  # atno 10765 bound_to 10752
  140.5123  134.5790  157.5022 H   0  0  0  0  0  0  0  0  0  0  0  0  # atno 11005 bound_to 11000
  144.7708  140.5634  143.6671 LP  0  0  0  0  0  0  0  0  0  0  0  0  # atno 17320 bound_to 7965
  145.5222  139.1476  143.3546 LP  0  0  0  0  0  0  0  0  0  0  0  0  # atno 17321 bound_to 7965
  139.4790  144.5219  151.8789 LP  0  0  0  0  0  0  0  0  0  0  0  0  # atno 17342 bound_to 10162
  140.4308  144.2118  150.5888 LP  0  0  0  0  0  0  0  0  0  0  0  0  # atno 17343 bound_to 10162
  155.9820  130.4832  150.6861 LP  0  0  0  0  0  0  0  0  0  0  0  0  # atno 17370 bound_to 10713
  157.4445  131.0865  151.0910 LP  0  0  0  0  0  0  0  0  0  0  0  0  # atno 17371 bound_to 10713
  139.9652  134.7385  156.0153 LP  0  0  0  0  0  0  0  0  0  0  0  0  # atno 17394 bound_to 11000
  141.1379  133.6571  156.3646 LP  0  0  0  0  0  0  0  0  0  0  0  0  # atno 17395 bound_to 11000

$$$$
