#       Name:                AV-unprocessed.smi:3263
#       Creating user name   scv26
#       Creation time:       Fri Mar 27 18:39:15 2020


#       File generated by GOLD software.
#

@<TRIPOS>MOLECULE
AV-unprocessed.smi:3263
    44    46     1
SMALL
NO_CHARGES


@<TRIPOS>ATOM
      1 ****         0.3058   0.7806  -0.8390 O.2            1 S1                 0.0000
      2 ****        -0.1973  -0.3393  -0.7456 C.2            1 S1                 0.0000
      3 ****        -1.7204  -0.5246  -0.7534 C.3            1 S1                 0.0000
      4 ****        -2.5034   0.6523  -0.1256 C.3            1 S1                 0.0000
      5 ****        -2.5293   1.9381  -0.9886 C.3            1 S1                 0.0000
      6 ****        -4.0327   2.2332  -1.1347 C.3            1 S1                 0.0000
      7 ****        -4.6037   2.6806   0.2235 C.3            1 S1                 0.0000
      8 ****        -4.6153   1.3709   1.0340 C.3            1 S1                 0.0000
      9 ****        -4.0116   0.3549   0.0453 C.3            1 S1                 0.0000
     10 ****        -4.6076   0.8301  -1.2764 C.3            1 S1                 0.0000
     11 ****         0.5329  -1.4593  -0.6298 N.am           1 S1                 0.0000
     12 ****         1.9901  -1.5074  -0.5952 C.3            1 S1                 0.0000
     13 ****         2.5398  -1.1019   0.7833 C.3            1 S1                 0.0000
     14 ****         4.0541  -1.1544   0.8362 C.ar           1 S1                 0.0000
     15 ****         4.8509   0.0001   0.6753 C.ar           1 S1                 0.0000
     16 ****         6.2554  -0.1190   0.7299 C.ar           1 S1                 0.0000
     17 ****         6.8329  -1.3879   0.9427 C.ar           1 S1                 0.0000
     18 ****         5.9898  -2.5075   1.0953 C.ar           1 S1                 0.0000
     19 ****         4.6486  -2.3529   1.0360 N.pl3          1 S1                 1.0000
     20 ****        -2.0439  -0.6966  -1.7803 H              1 S1                 0.0000
     21 ****        -1.9556  -1.4366  -0.2027 H              1 S1                 0.0000
     22 ****        -2.0677   0.8685   0.8515 H              1 S1                 0.0000
     23 ****        -1.9880   2.7616  -0.5216 H              1 S1                 0.0000
     24 ****        -2.0858   1.7673  -1.9704 H              1 S1                 0.0000
     25 ****        -4.2671   2.9129  -1.9545 H              1 S1                 0.0000
     26 ****        -3.9940   3.4542   0.6917 H              1 S1                 0.0000
     27 ****        -5.6156   3.0720   0.1123 H              1 S1                 0.0000
     28 ****        -4.0432   1.4465   1.9594 H              1 S1                 0.0000
     29 ****        -5.6368   1.0935   1.2972 H              1 S1                 0.0000
     30 ****        -4.2344  -0.6805   0.3051 H              1 S1                 0.0000
     31 ****        -5.6989   0.8095  -1.2920 H              1 S1                 0.0000
     32 ****        -4.2289   0.2914  -2.1463 H              1 S1                 0.0000
     33 ****         0.0427  -2.3399  -0.5625 H              1 S1                 0.0000
     34 ****         2.2999  -2.5243  -0.8377 H              1 S1                 0.0000
     35 ****         2.4006  -0.8631  -1.3749 H              1 S1                 0.0000
     36 ****         2.2159  -0.0921   1.0388 H              1 S1                 0.0000
     37 ****         2.1353  -1.7577   1.5555 H              1 S1                 0.0000
     38 ****         4.3935   0.9651   0.5110 H              1 S1                 0.0000
     39 ****         6.8822   0.7525   0.6096 H              1 S1                 0.0000
     40 ****         7.9063  -1.5004   0.9881 H              1 S1                 0.0000
     41 ****         6.3448  -3.5141   1.2617 H              1 S1                 0.0000
     42 ****         4.0580  -3.1771   1.1488 H              1 S1                 0.0000
     43 ****        -0.2802   1.5867  -0.9216 LP             1 S1                 0.0000
     44 ****         1.3005   0.8841  -0.8323 LP             1 S1                 0.0000
@<TRIPOS>BOND
    1    1    2 2     
    2    2    3 1     
    3    2   11 am    
    4    3    4 1     
    5    3   20 1     
    6    3   21 1     
    7    4    9 1     
    8    4    5 1     
    9    4   22 1     
   10    5    6 1     
   11    5   23 1     
   12    5   24 1     
   13    6   10 1     
   14    6    7 1     
   15    6   25 1     
   16    7    8 1     
   17    7   26 1     
   18    7   27 1     
   19    8    9 1     
   20    8   28 1     
   21    8   29 1     
   22    9   10 1     
   23    9   30 1     
   24   10   31 1     
   25   10   32 1     
   26   11   12 1     
   27   11   33 1     
   28   12   13 1     
   29   12   34 1     
   30   12   35 1     
   31   13   14 1     
   32   13   36 1     
   33   13   37 1     
   34   14   19 ar    
   35   14   15 ar    
   36   15   16 ar    
   37   15   38 1     
   38   16   17 ar    
   39   16   39 1     
   40   17   18 ar    
   41   17   40 1     
   42   18   19 ar    
   43   18   41 1     
   44   19   42 1     
   45    1   43 1     
   46    1   44 1     
@<TRIPOS>SUBSTRUCTURE
      1 S1             1
@<TRIPOS>SET
LONE_PAIRS      STATIC     ATOMS    <user>   **** ""
2 43 44
DONOR_HYDROGENS      STATIC     ATOMS    <user>   **** ""
2 33 42
ATOM$BLUE        STATIC     ATOMS    COLORGROUP SYSTEM
2 43 44
ATOM$RED        STATIC     ATOMS    COLORGROUP SYSTEM
2 33 42
