#       Name:                AV-unprocessed.smi:1173
#       Creating user name   scv26
#       Creation time:       Fri Mar 27 03:53:15 2020


#       File generated by GOLD software.
#

@<TRIPOS>MOLECULE
AV-unprocessed.smi:1173
    45    46     1
SMALL
NO_CHARGES


@<TRIPOS>ATOM
      1 ****         1.4022   1.6179  -2.0052 C.3            1 S1                 0.0000
      2 ****         2.2767   0.5671  -1.4707 N.am           1 S1                 0.0000
      3 ****         3.7262   0.7824  -1.6142 C.3            1 S1                 0.0000
      4 ****         4.3236   0.0668  -2.8340 C.2            1 S1                 0.0000
      5 ****         5.6467  -0.1116  -2.8330 N.am           1 S1                 0.0000
      6 ****         3.6157  -0.3040  -3.7692 O.2            1 S1                 0.0000
      7 ****         1.7967  -0.5427  -0.8541 C.2            1 S1                 0.0000
      8 ****         2.5174  -1.3951  -0.3334 O.2            1 S1                 0.0000
      9 ****         0.3086  -0.7321  -0.8136 C.ar           1 S1                 0.0000
     10 ****        -0.3092  -0.4741   0.3610 N.ar           1 S1                 0.0000
     11 ****        -1.6361  -0.6416   0.4312 C.ar           1 S1                 0.0000
     12 ****        -2.2599  -0.3660   1.6554 N.pl3          1 S1                 0.0000
     13 ****        -1.4888  -0.1833   2.8881 C.3            1 S1                 0.0000
     14 ****        -2.2172   0.7635   3.8568 C.3            1 S1                 0.0000
     15 ****        -3.5311   0.2806   4.1062 O.3            1 S1                 0.0000
     16 ****        -4.3047   0.2355   2.9140 C.3            1 S1                 0.0000
     17 ****        -3.6567  -0.7304   1.9075 C.3            1 S1                 0.0000
     18 ****        -2.4092  -1.0529  -0.5825 N.ar           1 S1                 0.0000
     19 ****        -1.8106  -1.3278  -1.7607 C.ar           1 S1                 0.0000
     20 ****        -0.4214  -1.1862  -1.9380 C.ar           1 S1                 0.0000
     21 ****         0.3178  -1.5745  -3.4529 Cl             1 S1                 0.0000
     22 ****         0.8271   1.2492  -2.8545 H              1 S1                 0.0000
     23 ****         1.9618   2.4851  -2.3562 H              1 S1                 0.0000
     24 ****         0.7058   1.9730  -1.2442 H              1 S1                 0.0000
     25 ****         3.9506   1.8459  -1.7003 H              1 S1                 0.0000
     26 ****         4.2482   0.4560  -0.7126 H              1 S1                 0.0000
     27 ****         6.0953  -0.5735  -3.6108 H              1 S1                 0.0000
     28 ****         6.1963   0.2199  -2.0533 H              1 S1                 0.0000
     29 ****        -1.3439  -1.1578   3.3556 H              1 S1                 0.0000
     30 ****        -0.4973   0.2256   2.6954 H              1 S1                 0.0000
     31 ****        -1.6763   0.8203   4.8016 H              1 S1                 0.0000
     32 ****        -2.2589   1.7765   3.4531 H              1 S1                 0.0000
     33 ****        -5.3125  -0.1002   3.1587 H              1 S1                 0.0000
     34 ****        -4.3981   1.2359   2.4880 H              1 S1                 0.0000
     35 ****        -4.2531  -0.7195   0.9955 H              1 S1                 0.0000
     36 ****        -3.6862  -1.7497   2.2941 H              1 S1                 0.0000
     37 ****        -2.4456  -1.6690  -2.5648 H              1 S1                 0.0000
     38 ****         2.6294  -0.1411  -3.7449 LP             1 S1                 0.0000
     39 ****         4.0266  -0.7684  -4.5538 LP             1 S1                 0.0000
     40 ****         3.5115  -1.2883  -0.3518 LP             1 S1                 0.0000
     41 ****         2.1084  -2.1940   0.1076 LP             1 S1                 0.0000
     42 ****         0.2115  -0.1660   1.1572 LP             1 S1                 0.0000
     43 ****        -3.9807   0.8863   4.7626 LP             1 S1                 0.0000
     44 ****        -3.4712  -0.6410   4.4897 LP             1 S1                 0.0000
     45 ****        -3.3978  -1.1531  -0.4701 LP             1 S1                 0.0000
@<TRIPOS>BOND
    1    1    2 1     
    2    1   22 1     
    3    1   23 1     
    4    1   24 1     
    5    2    3 1     
    6    2    7 am    
    7    3    4 1     
    8    3   25 1     
    9    3   26 1     
   10    4    5 am    
   11    4    6 2     
   12    5   27 1     
   13    5   28 1     
   14    7    8 2     
   15    7    9 1     
   16    9   20 ar    
   17    9   10 ar    
   18   10   11 ar    
   19   11   12 1     
   20   11   18 ar    
   21   12   17 1     
   22   12   13 1     
   23   13   14 1     
   24   13   29 1     
   25   13   30 1     
   26   14   15 1     
   27   14   31 1     
   28   14   32 1     
   29   15   16 1     
   30   16   17 1     
   31   16   33 1     
   32   16   34 1     
   33   17   35 1     
   34   17   36 1     
   35   18   19 ar    
   36   19   20 ar    
   37   19   37 1     
   38   20   21 1     
   39    6   38 1     
   40    6   39 1     
   41    8   40 1     
   42    8   41 1     
   43   10   42 1     
   44   15   43 1     
   45   15   44 1     
   46   18   45 1     
@<TRIPOS>SUBSTRUCTURE
      1 S1             1
@<TRIPOS>SET
LONE_PAIRS      STATIC     ATOMS    <user>   **** ""
8 38 39 40 41 42 43 44 45
DONOR_HYDROGENS      STATIC     ATOMS    <user>   **** ""
2 27 28
ATOM$BLUE        STATIC     ATOMS    COLORGROUP SYSTEM
8 38 39 40 41 42 43 44 45
ATOM$RED        STATIC     ATOMS    COLORGROUP SYSTEM
2 27 28
