AV-unprocessed.smi:460|AV-procd|sdf|2627|dock7
  -GOLD-   2262023 33D 1   1.00000     0.00000
 Structure written by MMmdl.
 46 48  0  0  0  0  0  0  0  0  1 V2000
  151.3000  137.0598  154.9941 C   0  0  0  0  0  0  0  0  0  0  0  0
  151.3645  138.1249  156.1002 C   0  0  0  0  0  0  0  0  0  0  0  0
  151.9057  139.4997  155.6519 C   0  0  1  0  0  0  0  0  0  0  0  0
  151.0538  140.0132  154.6459 O   0  0  0  0  0  0  0  0  0  0  0  0
  152.1043  140.4673  156.7899 C   0  0  0  0  0  0  0  0  0  0  0  0
  151.4725  141.6428  156.8491 N   0  0  0  0  0  0  0  0  0  0  0  0
  151.9334  142.1819  158.0331 C   0  0  0  0  0  0  0  0  0  0  0  0
  151.6473  143.4201  158.6515 C   0  0  0  0  0  0  0  0  0  0  0  0
  152.2537  143.7625  159.8780 C   0  0  0  0  0  0  0  0  0  0  0  0
  153.1502  142.8723  160.5036 C   0  0  0  0  0  0  0  0  0  0  0  0
  153.4447  141.6320  159.9061 C   0  0  0  0  0  0  0  0  0  0  0  0
  152.8402  141.2966  158.6796 C   0  0  0  0  0  0  0  0  0  0  0  0
  152.9220  140.1901  157.8385 N   0  0  0  0  0  0  0  0  0  0  0  0
  153.7404  139.0052  158.0630 C   0  0  0  0  0  0  0  0  0  0  0  0
  153.7423  138.5804  159.5390 C   0  0  0  0  0  0  0  0  0  0  0  0
  154.5185  137.3979  159.6662 O   0  0  0  0  0  0  0  0  0  0  0  0
  154.8418  136.9409  160.9247 C   0  0  0  0  0  0  0  0  0  0  0  0
  154.5777  137.6621  162.1154 C   0  0  0  0  0  0  0  0  0  0  0  0
  154.9424  137.1296  163.3655 C   0  0  0  0  0  0  0  0  0  0  0  0
  155.5720  135.8750  163.4382 C   0  0  0  0  0  0  0  0  0  0  0  0
  155.8373  135.1513  162.2613 C   0  0  0  0  0  0  0  0  0  0  0  0
  155.4747  135.6789  160.9962 C   0  0  0  0  0  0  0  0  0  0  0  0
  155.6996  135.0275  159.8006 O   0  0  0  0  0  0  0  0  0  0  0  0
  156.4258  133.8082  159.8228 C   0  0  0  0  0  0  0  0  0  0  0  0
  150.9522  136.1082  155.3965 H   0  0  0  0  0  0  0  0  0  0  0  0
  152.2801  136.8908  154.5475 H   0  0  0  0  0  0  0  0  0  0  0  0
  150.6126  137.3483  154.1988 H   0  0  0  0  0  0  0  0  0  0  0  0
  150.3619  138.2510  156.5091 H   0  0  0  0  0  0  0  0  0  0  0  0
  151.9741  137.7491  156.9229 H   0  0  0  0  0  0  0  0  0  0  0  0
  152.8656  139.3482  155.1587 H   0  0  0  0  0  0  0  0  0  0  0  0
  150.1654  139.9902  154.9669 H   0  0  0  0  0  0  0  0  0  0  0  0
  150.9629  144.1092  158.1792 H   0  0  0  0  0  0  0  0  0  0  0  0
  152.0311  144.7130  160.3403 H   0  0  0  0  0  0  0  0  0  0  0  0
  153.6139  143.1424  161.4410 H   0  0  0  0  0  0  0  0  0  0  0  0
  154.1359  140.9510  160.3798 H   0  0  0  0  0  0  0  0  0  0  0  0
  153.3493  138.1957  157.4459 H   0  0  0  0  0  0  0  0  0  0  0  0
  154.7564  139.1849  157.7142 H   0  0  0  0  0  0  0  0  0  0  0  0
  154.1644  139.3785  160.1509 H   0  0  0  0  0  0  0  0  0  0  0  0
  152.7193  138.4009  159.8731 H   0  0  0  0  0  0  0  0  0  0  0  0
  154.0986  138.6292  162.0949 H   0  0  0  0  0  0  0  0  0  0  0  0
  154.7395  137.6852  164.2691 H   0  0  0  0  0  0  0  0  0  0  0  0
  155.8530  135.4667  164.3981 H   0  0  0  0  0  0  0  0  0  0  0  0
  156.3227  134.1921  162.3556 H   0  0  0  0  0  0  0  0  0  0  0  0
  156.4935  133.4137  158.8090 H   0  0  0  0  0  0  0  0  0  0  0  0
  155.9256  133.0573  160.4358 H   0  0  0  0  0  0  0  0  0  0  0  0
  157.4429  133.9565  160.1879 H   0  0  0  0  0  0  0  0  0  0  0  0
  1  2  1  0  0  0  0
  1 25  1  0  0  0  0
  1 26  1  0  0  0  0
  1 27  1  0  0  0  0
  2  3  1  0  0  0  0
  2 28  1  0  0  0  0
  2 29  1  0  0  0  0
  3  4  1  0  0  0  0
  3  5  1  0  0  0  0
  3 30  1  0  0  0  0
  4 31  1  0  0  0  0
  5 13  1  0  0  0  0
  5  6  2  0  0  0  0
  6  7  1  0  0  0  0
  7 12  2  0  0  0  0
  7  8  1  0  0  0  0
  8  9  2  0  0  0  0
  8 32  1  0  0  0  0
  9 10  1  0  0  0  0
  9 33  1  0  0  0  0
 10 11  2  0  0  0  0
 10 34  1  0  0  0  0
 11 12  1  0  0  0  0
 11 35  1  0  0  0  0
 12 13  1  0  0  0  0
 13 14  1  0  0  0  0
 14 15  1  0  0  0  0
 14 36  1  0  0  0  0
 14 37  1  0  0  0  0
 15 16  1  0  0  0  0
 15 38  1  0  0  0  0
 15 39  1  0  0  0  0
 16 17  1  0  0  0  0
 17 22  1  0  0  0  0
 17 18  2  0  0  0  0
 18 19  1  0  0  0  0
 18 40  1  0  0  0  0
 19 20  2  0  0  0  0
 19 41  1  0  0  0  0
 20 21  1  0  0  0  0
 20 42  1  0  0  0  0
 21 22  2  0  0  0  0
 21 43  1  0  0  0  0
 22 23  1  0  0  0  0
 23 24  1  0  0  0  0
 24 44  1  0  0  0  0
 24 45  1  0  0  0  0
 24 46  1  0  0  0  0
M  END
> <s_m_source_file>
AV-unprocessed.smi

> <i_m_source_file_index>
460

> <i_lp_mmshare_version>
43012

> <i_f3d_flags>
0

> <s_epik_input>
W2NIXTFbY0hdW2NIXVtjSF1jKGMxMiluKGMobjIpW0NAQEhdKFtPSF0pW0NIMl1bQ0gzXSlbQ0gyXVtDSDJdT2MzW2NIXVtjSF1bY0hdW2NIXWMzT1tDSDNd

> <s_epik_cmdline>
J2VwaWtfcHl0aG9uJywgJy1waCcsICc3LjAnLCAnLXRuJywgJzgnLCAnLW1hJywgJzIwMCcsICctbWV0YWxfYmluZGluZycsICctaW1hZScsICc8aW5maWxlLm1hZT4nLCAnLW9tYWUnLCAnPG91dGZpbGUubWFlPic=

> <r_lp_tautomer_probability>
1

> <r_epik_Ionization_Penalty>
0.0507825

> <r_epik_Ionization_Penalty_Charging>
0

> <r_epik_Ionization_Penalty_Neutral>
0.0507825

> <r_epik_State_Penalty>
0.0434615

> <r_epik_Charging_Adjusted_Penalty>
0.0434615

> <i_epik_Tot_Q>
0

> <i_epik_Tot_abs_Q>
0

> <r_epik_Metal_State_Penalty>
4.50935e-05

> <b_epik_Metal_Only>
0

> <s_lp_Force_Field>
OPLS_2005

> <r_lp_Energy>
20.6013

> <b_lp_Chiralities_Consistent>
1

> <s_lp_Variant>
AV-unprocessed.smi:460-2

> <Gold.Version>
5.8.1

> <Gold.Id.Protein>
6NUR|6NUR_protein|mol2

> <Gold.PLP.Fitness>
50.2771

> <Gold.PLP.PLP>
-45.1318

> <Gold.PLP.part.hbond>
-1.9852

> <Gold.PLP.part.metal>
0.0000

> <Gold.PLP.part.buried>
-5.1462

> <Gold.PLP.part.nonpolar>
-38.9560

> <Gold.PLP.part.repulsive>
0.0435

> <Gold.PLP.ligand.clash>
0.0000

> <Gold.PLP.ligand.torsion>
0.4243

> <Gold.PLP.Chemscore.Hbond>
1.9425

> <Gold.PLP.Chemscore.CHOScore>
0.0000

> <Gold.PLP.Chemscore.Metal>
0.0000

> <Gold.Chemscore.Hbonds>
donor molecule, donor type, donor heavy atom, donor atom, acceptor molecule, acceptor atom, score
      P1  H  7989  7998       L1     4  1.00

> <Gold.PLP.Chemscore.Internal.Correction>
0.1664

> <Gold.Rescore>
     Score         DG    S(hbond)    S(metal)    S(lipo)     H(rot)  DE(clash)    DE(int)     intcor
     18.30     -18.70       1.03        0.00     135.13       2.36       0.03       0.37       ----

> <Gold.Chemscore.Fitness>
18.3012

> <Gold.Chemscore.DG>
-18.7032

> <Gold.Chemscore.ZeroCoef>
-5.4800

> <Gold.Chemscore.Hbond>
1.0335

> <Gold.Chemscore.Metal>
0.0000

> <Gold.Chemscore.Lipo>
135.1266

> <Gold.Chemscore.Internal_Hbond>
0.0000

> <Gold.Chemscore.DEClash>
0.0291

> <Gold.Chemscore.DEInternal>
0.3729

> <Gold.Chemscore.Rot>
2.3587

> <Gold.Chemscore.Internal.Correction>
   9.000000E+99

> <Gold.Chemscore.Hbonds>
donor molecule, donor type, donor heavy atom, donor atom, acceptor molecule, acceptor atom, score
      P1  H  7989  7998       L1     4  0.92

> <Gold.Chemscore.Hbond.Weighted>
-3.4517

> <Gold.Chemscore.Metal.Weighted>
-0.0000

> <Gold.Chemscore.Lipo.Weighted>
-15.8098

> <Gold.Chemscore.Internal_Hbond.Weighted>
0.0000

> <Gold.Chemscore.DEClash.Weighted>
0.0291

> <Gold.Chemscore.DEInternal.Weighted>
0.3729

> <Gold.Chemscore.Rot.Weighted>
6.0384

> <Gold.Chemscore.Internal.Correction.Weighted>
   9.000000E+99

> <Gold.Protein.RotatedTorsions>
[ 6907 6896 6895 6894 ] final  -33.16 input  -60.11 | X-H torsion
[ 7974 7965 7964 7962 ] final -130.07 input  175.53 | X-H torsion
[ 8008 7997 7996 7995 ] final  -63.95 input   59.86 | X-H torsion
[ 10167 10162 10161 10158 ] final -153.43 input  -65.29 | X-H torsion
[ 10718 10713 10712 10709 ] final -158.52 input   66.30 | X-H torsion
[ 10763 10752 10751 10750 ] final -150.11 input  -60.55 | X-H torsion
[ 11005 11000 10999 10996 ] final   87.60 input  -57.11 | X-H torsion

> <Gold.Protein.ActiveResidues>
 VAL166  LYS551  ARG553  GLY616  TRP617  ASP618  TYR619  PRO620  LYS621  CYS622 
 ASP623  PHE694  ASN695  SER759  ASP760  ASP761  ALA762  ILE779  LEU786  VAL792 
 PHE793  MET794  SER795  GLU796  ALA797  LYS798  CYS799  TRP800  GLU811  SER814 

> <Gold.Protein.RotatedAtoms>
  151.0692  134.9787  159.8299 H   0  0  0  0  0  0  0  0  0  0  0  0  # atno 6907 bound_to 6896
  152.5406  134.2320  159.8838 H   0  0  0  0  0  0  0  0  0  0  0  0  # atno 6908 bound_to 6896
  151.2344  133.4390  159.2638 H   0  0  0  0  0  0  0  0  0  0  0  0  # atno 6909 bound_to 6896
  144.9511  140.7345  143.4787 H   0  0  0  0  0  0  0  0  0  0  0  0  # atno 7974 bound_to 7965
  154.4584  140.0964  156.6822 H   0  0  0  0  0  0  0  0  0  0  0  0  # atno 8008 bound_to 7997
  155.5069  140.3475  155.4363 H   0  0  0  0  0  0  0  0  0  0  0  0  # atno 8009 bound_to 7997
  156.0822  140.1376  156.9687 H   0  0  0  0  0  0  0  0  0  0  0  0  # atno 8010 bound_to 7997
  139.7098  143.9127  152.2463 H   0  0  0  0  0  0  0  0  0  0  0  0  # atno 10167 bound_to 10162
  156.5554  130.8623  151.2793 H   0  0  0  0  0  0  0  0  0  0  0  0  # atno 10718 bound_to 10713
  154.8138  135.3292  154.7232 H   0  0  0  0  0  0  0  0  0  0  0  0  # atno 10763 bound_to 10752
  153.7876  135.6913  153.4881 H   0  0  0  0  0  0  0  0  0  0  0  0  # atno 10764 bound_to 10752
  153.1938  135.4541  155.0129 H   0  0  0  0  0  0  0  0  0  0  0  0  # atno 10765 bound_to 10752
  139.8916  134.8433  156.2882 H   0  0  0  0  0  0  0  0  0  0  0  0  # atno 11005 bound_to 11000
  145.2843  139.1907  143.4774 LP  0  0  0  0  0  0  0  0  0  0  0  0  # atno 17320 bound_to 7965
  146.3321  140.2810  142.8610 LP  0  0  0  0  0  0  0  0  0  0  0  0  # atno 17321 bound_to 7965
  139.8993  144.6921  150.8683 LP  0  0  0  0  0  0  0  0  0  0  0  0  # atno 17342 bound_to 10162
  140.7730  143.3526  151.1984 LP  0  0  0  0  0  0  0  0  0  0  0  0  # atno 17343 bound_to 10162
  157.7379  130.9804  150.2222 LP  0  0  0  0  0  0  0  0  0  0  0  0  # atno 17370 bound_to 10713
  156.2847  130.3738  149.7900 LP  0  0  0  0  0  0  0  0  0  0  0  0  # atno 17371 bound_to 10713
  140.9993  133.7161  156.0936 LP  0  0  0  0  0  0  0  0  0  0  0  0  # atno 17394 bound_to 11000
  140.7519  134.4035  157.5540 LP  0  0  0  0  0  0  0  0  0  0  0  0  # atno 17395 bound_to 11000

$$$$
