AV-unprocessed.smi:1940|AV-procd|sdf|7842|dock3
  -GOLD-   22720 9583D 1   1.00000     0.00000
 Structure written by MMmdl.
 50 52  0  0  0  0  0  0  0  0  2 V2000
  144.7313  137.4160  152.9518 C   0  0  0  0  0  0  0  0  0  0  0  0
  145.7583  137.4578  151.8108 C   0  0  1  0  0  0  0  0  0  0  0  0
  147.0700  137.7918  152.3650 N   0  0  0  0  0  0  0  0  0  0  0  0
  147.3425  138.8261  153.1738 C   0  0  0  0  0  0  0  0  0  0  0  0
  146.5006  139.6418  153.5482 O   0  0  0  0  0  0  0  0  0  0  0  0
  148.6476  138.8593  153.4941 N   0  0  0  0  0  0  0  0  0  0  0  0
  149.3236  139.7769  154.3427 C   0  0  0  0  0  0  0  0  0  0  0  0
  150.5768  139.3912  154.8660 C   0  0  0  0  0  0  0  0  0  0  0  0
  151.2764  140.2649  155.7236 C   0  0  0  0  0  0  0  0  0  0  0  0
  150.7035  141.5136  156.0557 C   0  0  0  0  0  0  0  0  0  0  0  0
  151.3207  142.4464  156.8986 N   0  0  0  0  0  0  0  0  0  0  0  0
  151.2080  143.8185  156.4108 C   0  0  0  0  0  0  0  0  0  0  0  0
  152.0685  144.7712  157.2585 C   0  0  0  0  0  0  0  0  0  0  0  0
  151.7196  144.6472  158.7505 C   0  0  0  0  0  0  0  0  0  0  0  0
  151.8237  143.1810  159.2009 C   0  0  0  0  0  0  0  0  0  0  0  0
  150.9680  142.2691  158.3048 C   0  0  0  0  0  0  0  0  0  0  0  0
  149.4956  141.8408  155.5484 N   0  3  0  0  0  0  0  0  0  0  0  0
  148.7945  141.0351  154.7217 C   0  0  0  0  0  0  0  0  0  0  0  0
  145.8274  136.1201  151.0477 C   0  0  2  0  0  0  0  0  0  0  0  0
  144.4945  135.6474  150.4610 C   0  0  0  0  0  0  0  0  0  0  0  0
  144.7055  134.1534  150.3846 C   0  0  0  0  0  0  0  0  0  0  0  0
  145.4729  133.8893  151.6750 C   0  0  0  0  0  0  0  0  0  0  0  0
  146.2371  135.0671  151.9193 O   0  0  0  0  0  0  0  0  0  0  0  0
  143.7327  137.1945  152.5745 H   0  0  0  0  0  0  0  0  0  0  0  0
  144.6798  138.3747  153.4688 H   0  0  0  0  0  0  0  0  0  0  0  0
  144.9847  136.6530  153.6884 H   0  0  0  0  0  0  0  0  0  0  0  0
  145.4386  138.2301  151.1091 H   0  0  0  0  0  0  0  0  0  0  0  0
  147.8318  137.1821  152.1060 H   0  0  0  0  0  0  0  0  0  0  0  0
  149.2327  138.1725  153.0411 H   0  0  0  0  0  0  0  0  0  0  0  0
  151.0059  138.4334  154.6094 H   0  0  0  0  0  0  0  0  0  0  0  0
  152.2383  139.9752  156.1207 H   0  0  0  0  0  0  0  0  0  0  0  0
  151.5220  143.8657  155.3672 H   0  0  0  0  0  0  0  0  0  0  0  0
  150.1642  144.1341  156.4453 H   0  0  0  0  0  0  0  0  0  0  0  0
  153.1239  144.5380  157.1107 H   0  0  0  0  0  0  0  0  0  0  0  0
  151.9290  145.7996  156.9245 H   0  0  0  0  0  0  0  0  0  0  0  0
  152.3835  145.2734  159.3472 H   0  0  0  0  0  0  0  0  0  0  0  0
  150.7063  145.0128  158.9225 H   0  0  0  0  0  0  0  0  0  0  0  0
  152.8654  142.8597  159.1594 H   0  0  0  0  0  0  0  0  0  0  0  0
  151.5109  143.0841  160.2408 H   0  0  0  0  0  0  0  0  0  0  0  0
  149.9110  142.4978  158.4488 H   0  0  0  0  0  0  0  0  0  0  0  0
  151.1121  141.2266  158.5920 H   0  0  0  0  0  0  0  0  0  0  0  0
  147.8376  141.4271  154.4113 H   0  0  0  0  0  0  0  0  0  0  0  0
  146.5623  136.1839  150.2433 H   0  0  0  0  0  0  0  0  0  0  0  0
  143.6721  135.8722  151.1421 H   0  0  0  0  0  0  0  0  0  0  0  0
  144.2705  136.0977  149.4936 H   0  0  0  0  0  0  0  0  0  0  0  0
  143.7755  133.5888  150.3166 H   0  0  0  0  0  0  0  0  0  0  0  0
  145.3234  133.9050  149.5206 H   0  0  0  0  0  0  0  0  0  0  0  0
  144.7806  133.7483  152.5059 H   0  0  0  0  0  0  0  0  0  0  0  0
  146.1091  133.0066  151.6095 H   0  0  0  0  0  0  0  0  0  0  0  0
  149.0905  142.7418  155.8040 H   0  0  0  0  0  0  0  0  0  0  0  0
  1  2  1  0  0  0  0
  1 24  1  0  0  0  0
  1 25  1  0  0  0  0
  1 26  1  0  0  0  0
  2  3  1  0  0  0  0
  2 19  1  0  0  0  0
  2 27  1  0  0  0  0
  3  4  1  0  0  0  0
  3 28  1  0  0  0  0
  4  5  2  0  0  0  0
  4  6  1  0  0  0  0
  6  7  1  0  0  0  0
  6 29  1  0  0  0  0
  7 18  1  0  0  0  0
  7  8  2  0  0  0  0
  8  9  1  0  0  0  0
  8 30  1  0  0  0  0
  9 10  2  0  0  0  0
  9 31  1  0  0  0  0
 10 11  1  0  0  0  0
 10 17  1  0  0  0  0
 11 16  1  0  0  0  0
 11 12  1  0  0  0  0
 12 13  1  0  0  0  0
 12 32  1  0  0  0  0
 12 33  1  0  0  0  0
 13 14  1  0  0  0  0
 13 34  1  0  0  0  0
 13 35  1  0  0  0  0
 14 15  1  0  0  0  0
 14 36  1  0  0  0  0
 14 37  1  0  0  0  0
 15 16  1  0  0  0  0
 15 38  1  0  0  0  0
 15 39  1  0  0  0  0
 16 40  1  0  0  0  0
 16 41  1  0  0  0  0
 17 18  2  0  0  0  0
 17 50  1  0  0  0  0
 18 42  1  0  0  0  0
 19 23  1  0  0  0  0
 19 20  1  0  0  0  0
 19 43  1  0  0  0  0
 20 21  1  0  0  0  0
 20 44  1  0  0  0  0
 20 45  1  0  0  0  0
 21 22  1  0  0  0  0
 21 46  1  0  0  0  0
 21 47  1  0  0  0  0
 22 23  1  0  0  0  0
 22 48  1  0  0  0  0
 22 49  1  0  0  0  0
M  CHG  1  17   1
M  END
> <s_m_source_file>
AV-unprocessed.smi

> <i_m_source_file_index>
1940

> <i_lp_mmshare_version>
43012

> <i_f3d_flags>
0

> <s_epik_input>
TzFbQ0gyXVtDSDJdW0NIMl1bQ0BIXTFbQ0BIXShbQ0gzXSlbTkhdQyg9TylbTkhdYzJbY0hdW2NIXWMobltjSF0yKU4zW0NIMl1bQ0gyXVtDSDJdW0NIMl1bQ0gyXTM=

> <s_epik_cmdline>
J2VwaWtfcHl0aG9uJywgJy1waCcsICc3LjAnLCAnLXRuJywgJzgnLCAnLW1hJywgJzIwMCcsICctbWV0YWxfYmluZGluZycsICctaW1hZScsICc8aW5maWxlLm1hZT4nLCAnLW9tYWUnLCAnPG91dGZpbGUubWFlPic=

> <r_lp_tautomer_probability>
0.999994

> <r_epik_Ionization_Penalty>
1.10603

> <r_epik_Ionization_Penalty_Charging>
1.10601

> <r_epik_Ionization_Penalty_Neutral>
1.929e-05

> <r_epik_State_Penalty>
1.16358

> <r_epik_Charging_Adjusted_Penalty>
2.26959

> <i_epik_Tot_Q>
1

> <i_epik_Tot_abs_Q>
1

> <r_epik_Metal_State_Penalty>
1.25013

> <b_epik_Metal_Only>
0

> <s_lp_Force_Field>
OPLS_2005

> <r_lp_Energy>
42.9594

> <b_lp_Chiralities_Consistent>
1

> <s_lp_Variant>
AV-unprocessed.smi:1940-6

> <Gold.Version>
5.8.1

> <Gold.Id.Protein>
6NUR|6NUR_protein|mol2

> <Gold.PLP.Fitness>
50.1192

> <Gold.PLP.PLP>
-41.5480

> <Gold.PLP.part.hbond>
-3.7259

> <Gold.PLP.part.metal>
0.0000

> <Gold.PLP.part.buried>
1.3455

> <Gold.PLP.part.nonpolar>
-41.6496

> <Gold.PLP.part.repulsive>
1.6667

> <Gold.PLP.ligand.clash>
0.0000

> <Gold.PLP.ligand.torsion>
0.7452

> <Gold.PLP.Chemscore.Hbond>
3.3000

> <Gold.PLP.Chemscore.CHOScore>
0.0000

> <Gold.PLP.Chemscore.Metal>
0.0000

> <Gold.Chemscore.Hbonds>
donor molecule, donor type, donor heavy atom, donor atom, acceptor molecule, acceptor atom, score
      L1  H     3    28       P1  7948  0.86
      L1  H     6    29       P1  7948  0.34
      L1  H    17    50       P1  8028  2.00

> <Gold.PLP.Chemscore.Internal.Correction>
0.1616

> <Gold.Rescore>
     Score         DG    S(hbond)    S(metal)    S(lipo)     H(rot)  DE(clash)    DE(int)     intcor
     17.37     -23.41       2.30        0.00     117.17       1.36       3.06       2.98       ----

> <Gold.Chemscore.Fitness>
17.3676

> <Gold.Chemscore.DG>
-23.4091

> <Gold.Chemscore.ZeroCoef>
-5.4800

> <Gold.Chemscore.Hbond>
2.3036

> <Gold.Chemscore.Metal>
0.0000

> <Gold.Chemscore.Lipo>
117.1728

> <Gold.Chemscore.Internal_Hbond>
0.0000

> <Gold.Chemscore.DEClash>
3.0602

> <Gold.Chemscore.DEInternal>
2.9812

> <Gold.Chemscore.Rot>
1.3571

> <Gold.Chemscore.Internal.Correction>
   9.000000E+99

> <Gold.Chemscore.Hbonds>
donor molecule, donor type, donor heavy atom, donor atom, acceptor molecule, acceptor atom, score
      L1  H     3    28       P1  7948  0.84
      L1  H     6    29       P1  7948  0.33
      L1  H    17    50       P1  8028  0.94

> <Gold.Chemscore.Hbond.Weighted>
-7.6939

> <Gold.Chemscore.Metal.Weighted>
-0.0000

> <Gold.Chemscore.Lipo.Weighted>
-13.7092

> <Gold.Chemscore.Internal_Hbond.Weighted>
0.0000

> <Gold.Chemscore.DEClash.Weighted>
3.0602

> <Gold.Chemscore.DEInternal.Weighted>
2.9812

> <Gold.Chemscore.Rot.Weighted>
3.4741

> <Gold.Chemscore.Internal.Correction.Weighted>
   9.000000E+99

> <Gold.Protein.RotatedTorsions>
[ 6907 6896 6895 6894 ] final -127.10 input  -60.11 | X-H torsion
[ 7974 7965 7964 7962 ] final  -70.42 input  175.53 | X-H torsion
[ 8008 7997 7996 7995 ] final  -81.88 input   59.86 | X-H torsion
[ 10167 10162 10161 10158 ] final  112.17 input  -65.29 | X-H torsion
[ 10718 10713 10712 10709 ] final  -76.52 input   66.30 | X-H torsion
[ 10763 10752 10751 10750 ] final  -76.74 input  -60.55 | X-H torsion
[ 11005 11000 10999 10996 ] final  120.25 input  -57.11 | X-H torsion

> <Gold.Protein.ActiveResidues>
 VAL166  LYS551  ARG553  GLY616  TRP617  ASP618  TYR619  PRO620  LYS621  CYS622 
 ASP623  PHE694  ASN695  SER759  ASP760  ASP761  ALA762  ILE779  LEU786  VAL792 
 PHE793  MET794  SER795  GLU796  ALA797  LYS798  CYS799  TRP800  GLU811  SER814 

> <Gold.Protein.RotatedAtoms>
  150.9038  133.7085  159.2871 H   0  0  0  0  0  0  0  0  0  0  0  0  # atno 6907 bound_to 6896
  151.4594  135.1035  159.9730 H   0  0  0  0  0  0  0  0  0  0  0  0  # atno 6908 bound_to 6896
  152.4892  133.8404  159.7205 H   0  0  0  0  0  0  0  0  0  0  0  0  # atno 6909 bound_to 6896
  145.6912  140.9152  143.0781 H   0  0  0  0  0  0  0  0  0  0  0  0  # atno 7974 bound_to 7965
  154.6029  140.0641  156.9392 H   0  0  0  0  0  0  0  0  0  0  0  0  # atno 8008 bound_to 7997
  155.2102  140.3322  155.4311 H   0  0  0  0  0  0  0  0  0  0  0  0  # atno 8009 bound_to 7997
  156.2329  140.1849  156.7178 H   0  0  0  0  0  0  0  0  0  0  0  0  # atno 8010 bound_to 7997
  139.6556  144.7129  151.1964 H   0  0  0  0  0  0  0  0  0  0  0  0  # atno 10167 bound_to 10162
  156.0172  130.4467  150.3206 H   0  0  0  0  0  0  0  0  0  0  0  0  # atno 10718 bound_to 10713
  154.5038  135.5787  153.6551 H   0  0  0  0  0  0  0  0  0  0  0  0  # atno 10763 bound_to 10752
  152.9883  135.6142  154.2968 H   0  0  0  0  0  0  0  0  0  0  0  0  # atno 10764 bound_to 10752
  154.2878  135.2849  155.2648 H   0  0  0  0  0  0  0  0  0  0  0  0  # atno 10765 bound_to 10752
  139.9178  134.9633  156.7778 H   0  0  0  0  0  0  0  0  0  0  0  0  # atno 11005 bound_to 11000
  144.6996  139.8824  143.7448 LP  0  0  0  0  0  0  0  0  0  0  0  0  # atno 17320 bound_to 7965
  146.0880  139.3869  143.0423 LP  0  0  0  0  0  0  0  0  0  0  0  0  # atno 17321 bound_to 7965
  140.7557  143.6078  150.8635 LP  0  0  0  0  0  0  0  0  0  0  0  0  # atno 17342 bound_to 10162
  139.9731  143.6035  152.2967 LP  0  0  0  0  0  0  0  0  0  0  0  0  # atno 17343 bound_to 10162
  157.1306  131.0270  151.2971 LP  0  0  0  0  0  0  0  0  0  0  0  0  # atno 17370 bound_to 10713
  157.4554  130.7622  149.7188 LP  0  0  0  0  0  0  0  0  0  0  0  0  # atno 17371 bound_to 10713
  140.6569  133.9680  155.7784 LP  0  0  0  0  0  0  0  0  0  0  0  0  # atno 17394 bound_to 11000
  141.0670  134.0262  157.3580 LP  0  0  0  0  0  0  0  0  0  0  0  0  # atno 17395 bound_to 11000

$$$$
