AV-unprocessed.smi:1285|AV-procd|sdf|5371|dock3
  -GOLD-   22720 4513D 1   1.00000     0.00000
 Structure written by MMmdl.
 47 48  0  0  0  0  0  0  0  0  2 V2000
  146.0653  138.1710  156.1140 C   0  0  0  0  0  0  0  0  0  0  0  0
  146.8083  139.0273  155.0731 C   0  0  0  0  0  0  0  0  0  0  0  0
  147.6676  138.2373  154.0377 C   0  0  1  0  0  0  0  0  0  0  0  0
  148.4038  139.2853  153.1607 C   0  0  0  0  0  0  0  0  0  0  0  0
  148.7306  137.3698  154.7822 C   0  0  0  0  0  0  0  0  0  0  0  0
  149.9440  138.1132  155.1141 N   0  0  0  0  0  0  0  0  0  0  0  0
  151.2022  137.6603  154.9973 C   0  0  0  0  0  0  0  0  0  0  0  0
  151.4848  136.5665  154.5071 O   0  0  0  0  0  0  0  0  0  0  0  0
  152.2953  138.5754  155.5671 C   0  0  2  0  0  0  0  0  0  0  0  0
  153.1148  137.9095  156.6885 C   0  0  0  0  0  0  0  0  0  0  0  0
  151.6936  139.8233  156.0171 N   0  0  0  0  0  0  0  0  0  0  0  0
  151.6858  140.4077  157.2186 C   0  0  0  0  0  0  0  0  0  0  0  0
  150.9781  141.5272  157.2667 N   0  0  0  0  0  0  0  0  0  0  0  0
  150.5437  141.5780  155.9729 C   0  0  0  0  0  0  0  0  0  0  0  0
  150.9340  140.5760  155.1852 N   0  0  0  0  0  0  0  0  0  0  0  0
  146.7756  137.3702  153.1839 N   0  3  0  0  0  0  0  0  0  0  0  0
  146.1646  136.1913  153.8612 C   0  0  0  0  0  0  0  0  0  0  0  0
  145.4447  135.2942  152.8397 C   0  0  0  0  0  0  0  0  0  0  0  0
  144.4607  136.0470  152.1449 O   0  0  0  0  0  0  0  0  0  0  0  0
  145.0381  137.1234  151.4198 C   0  0  0  0  0  0  0  0  0  0  0  0
  145.7318  138.0866  152.3966 C   0  0  0  0  0  0  0  0  0  0  0  0
  145.4884  138.8073  156.7855 H   0  0  0  0  0  0  0  0  0  0  0  0
  146.7515  137.5900  156.7297 H   0  0  0  0  0  0  0  0  0  0  0  0
  145.3647  137.4805  155.6451 H   0  0  0  0  0  0  0  0  0  0  0  0
  146.0559  139.6178  154.5499 H   0  0  0  0  0  0  0  0  0  0  0  0
  147.4189  139.7658  155.5918 H   0  0  0  0  0  0  0  0  0  0  0  0
  148.8662  140.0659  153.7664 H   0  0  0  0  0  0  0  0  0  0  0  0
  147.7262  139.7801  152.4647 H   0  0  0  0  0  0  0  0  0  0  0  0
  149.2078  138.8378  152.5760 H   0  0  0  0  0  0  0  0  0  0  0  0
  148.3148  136.9279  155.6879 H   0  0  0  0  0  0  0  0  0  0  0  0
  149.0433  136.5322  154.1598 H   0  0  0  0  0  0  0  0  0  0  0  0
  149.8152  139.0253  155.5287 H   0  0  0  0  0  0  0  0  0  0  0  0
  152.9852  138.8071  154.7530 H   0  0  0  0  0  0  0  0  0  0  0  0
  153.5821  136.9876  156.3402 H   0  0  0  0  0  0  0  0  0  0  0  0
  152.4983  137.6635  157.5539 H   0  0  0  0  0  0  0  0  0  0  0  0
  153.9123  138.5702  157.0299 H   0  0  0  0  0  0  0  0  0  0  0  0
  152.1979  139.9992  158.0778 H   0  0  0  0  0  0  0  0  0  0  0  0
  149.9136  142.3732  155.6025 H   0  0  0  0  0  0  0  0  0  0  0  0
  146.9144  135.5809  154.3610 H   0  0  0  0  0  0  0  0  0  0  0  0
  145.4553  136.5187  154.6217 H   0  0  0  0  0  0  0  0  0  0  0  0
  146.1548  134.8610  152.1333 H   0  0  0  0  0  0  0  0  0  0  0  0
  144.9570  134.4627  153.3488 H   0  0  0  0  0  0  0  0  0  0  0  0
  145.7414  136.7460  150.6755 H   0  0  0  0  0  0  0  0  0  0  0  0
  144.2489  137.6436  150.8767 H   0  0  0  0  0  0  0  0  0  0  0  0
  144.9813  138.5153  153.0610 H   0  0  0  0  0  0  0  0  0  0  0  0
  146.1564  138.9060  151.8202 H   0  0  0  0  0  0  0  0  0  0  0  0
  147.4001  136.9766  152.4945 H   0  0  0  0  0  0  0  0  0  0  0  0
  1  2  1  0  0  0  0
  1 22  1  0  0  0  0
  1 23  1  0  0  0  0
  1 24  1  0  0  0  0
  2  3  1  0  0  0  0
  2 25  1  0  0  0  0
  2 26  1  0  0  0  0
  3  4  1  0  0  0  0
  3  5  1  0  0  0  0
  3 16  1  0  0  0  0
  4 27  1  0  0  0  0
  4 28  1  0  0  0  0
  4 29  1  0  0  0  0
  5  6  1  0  0  0  0
  5 30  1  0  0  0  0
  5 31  1  0  0  0  0
  6  7  1  0  0  0  0
  6 32  1  0  0  0  0
  7  8  2  0  0  0  0
  7  9  1  0  0  0  0
  9 10  1  0  0  0  0
  9 11  1  0  0  0  0
  9 33  1  0  0  0  0
 10 34  1  0  0  0  0
 10 35  1  0  0  0  0
 10 36  1  0  0  0  0
 11 15  1  0  0  0  0
 11 12  1  0  0  0  0
 12 13  2  0  0  0  0
 12 37  1  0  0  0  0
 13 14  1  0  0  0  0
 14 15  2  0  0  0  0
 14 38  1  0  0  0  0
 16 21  1  0  0  0  0
 16 17  1  0  0  0  0
 16 47  1  0  0  0  0
 17 18  1  0  0  0  0
 17 39  1  0  0  0  0
 17 40  1  0  0  0  0
 18 19  1  0  0  0  0
 18 41  1  0  0  0  0
 18 42  1  0  0  0  0
 19 20  1  0  0  0  0
 20 21  1  0  0  0  0
 20 43  1  0  0  0  0
 20 44  1  0  0  0  0
 21 45  1  0  0  0  0
 21 46  1  0  0  0  0
M  CHG  1  16   1
M  END
> <s_m_source_file>
AV-unprocessed.smi

> <i_m_source_file_index>
1285

> <i_lp_mmshare_version>
43012

> <i_f3d_flags>
0

> <s_epik_input>
W0NIMl0xW0NIMl1PW0NIMl1bQ0gyXU4xW0NAQF0oW0NIM10pKFtDSDJdW0NIM10pW0NIMl1bTkhdQyg9TylbQ0BIXShbQ0gzXSluMltjSF1uW2NIXW4y

> <s_epik_cmdline>
J2VwaWtfcHl0aG9uJywgJy1waCcsICc3LjAnLCAnLXRuJywgJzgnLCAnLW1hJywgJzIwMCcsICctbWV0YWxfYmluZGluZycsICctaW1hZScsICc8aW5maWxlLm1hZT4nLCAnLW9tYWUnLCAnPG91dGZpbGUubWFlPic=

> <r_lp_tautomer_probability>
1

> <r_epik_Ionization_Penalty>
0.569304

> <r_epik_Ionization_Penalty_Charging>
0.569295

> <r_epik_Ionization_Penalty_Neutral>
8.22697e-06

> <r_epik_State_Penalty>
0.581114

> <r_epik_Charging_Adjusted_Penalty>
1.15041

> <i_epik_Tot_Q>
1

> <i_epik_Tot_abs_Q>
1

> <r_epik_Metal_State_Penalty>
0.581117

> <b_epik_Metal_Only>
0

> <s_lp_Force_Field>
OPLS_2005

> <r_lp_Energy>
33.7003

> <b_lp_Chiralities_Consistent>
1

> <s_lp_Variant>
AV-unprocessed.smi:1285-5

> <Gold.Version>
5.8.1

> <Gold.Id.Protein>
6NUR|6NUR_protein|mol2

> <Gold.PLP.Fitness>
35.9739

> <Gold.PLP.PLP>
-22.1135

> <Gold.PLP.part.hbond>
-3.0000

> <Gold.PLP.part.metal>
0.0000

> <Gold.PLP.part.buried>
0.2049

> <Gold.PLP.part.nonpolar>
-19.8631

> <Gold.PLP.part.repulsive>
1.1657

> <Gold.PLP.ligand.clash>
0.0046

> <Gold.PLP.ligand.torsion>
0.6959

> <Gold.PLP.Chemscore.Hbond>
3.9760

> <Gold.PLP.Chemscore.CHOScore>
0.9910

> <Gold.PLP.Chemscore.Metal>
0.0000

> <Gold.Chemscore.Hbonds>
donor molecule, donor type, donor heavy atom, donor atom, acceptor molecule, acceptor atom, score
      L1  H    16    47       P1  7948  2.00
      P1  H  7989  7998       L1    15  0.94
      P1  H 10752 10763       L1     8  1.00
      L1  C    14    38       P1  8028  0.92

> <Gold.PLP.Chemscore.Internal.Correction>
0.3559

> <Gold.Rescore>
     Score         DG    S(hbond)    S(metal)    S(lipo)     H(rot)  DE(clash)    DE(int)     intcor
      8.57     -12.67       2.83        0.00      41.05       2.76       1.71       2.39       ----

> <Gold.Chemscore.Fitness>
8.5652

> <Gold.Chemscore.DG>
-12.6695

> <Gold.Chemscore.ZeroCoef>
-5.4800

> <Gold.Chemscore.Hbond>
2.8291

> <Gold.Chemscore.Metal>
0.0000

> <Gold.Chemscore.Lipo>
41.0512

> <Gold.Chemscore.Internal_Hbond>
0.0000

> <Gold.Chemscore.DEClash>
1.7096

> <Gold.Chemscore.DEInternal>
2.3946

> <Gold.Chemscore.Rot>
2.7589

> <Gold.Chemscore.Internal.Correction>
   9.000000E+99

> <Gold.Chemscore.Hbonds>
donor molecule, donor type, donor heavy atom, donor atom, acceptor molecule, acceptor atom, score
      L1  H    16    47       P1  7948  0.99
      P1  H  7989  7998       L1    15  0.83
      P1  H 10752 10763       L1     8  1.00

> <Gold.Chemscore.Hbond.Weighted>
-9.4492

> <Gold.Chemscore.Metal.Weighted>
-0.0000

> <Gold.Chemscore.Lipo.Weighted>
-4.8030

> <Gold.Chemscore.Internal_Hbond.Weighted>
0.0000

> <Gold.Chemscore.DEClash.Weighted>
1.7096

> <Gold.Chemscore.DEInternal.Weighted>
2.3946

> <Gold.Chemscore.Rot.Weighted>
7.0627

> <Gold.Chemscore.Internal.Correction.Weighted>
   9.000000E+99

> <Gold.Protein.RotatedTorsions>
[ 6907 6896 6895 6894 ] final  106.75 input  -60.11 | X-H torsion
[ 7974 7965 7964 7962 ] final  111.20 input  175.53 | X-H torsion
[ 8008 7997 7996 7995 ] final  -49.39 input   59.86 | X-H torsion
[ 10167 10162 10161 10158 ] final   77.08 input  -65.29 | X-H torsion
[ 10718 10713 10712 10709 ] final  -49.15 input   66.30 | X-H torsion
[ 10763 10752 10751 10750 ] final   37.88 input  -60.55 | X-H torsion
[ 11005 11000 10999 10996 ] final  -10.98 input  -57.11 | X-H torsion

> <Gold.Protein.ActiveResidues>
 VAL166  LYS551  ARG553  GLY616  TRP617  ASP618  TYR619  PRO620  LYS621  CYS622 
 ASP623  PHE694  ASN695  SER759  ASP760  ASP761  ALA762  ILE779  LEU786  VAL792 
 PHE793  MET794  SER795  GLU796  ALA797  LYS798  CYS799  TRP800  GLU811  SER814 

> <Gold.Protein.RotatedAtoms>
  152.5182  133.9335  159.7591 H   0  0  0  0  0  0  0  0  0  0  0  0  # atno 6907 bound_to 6896
  150.9681  133.6365  159.2749 H   0  0  0  0  0  0  0  0  0  0  0  0  # atno 6908 bound_to 6896
  151.3586  135.0905  159.9480 H   0  0  0  0  0  0  0  0  0  0  0  0  # atno 6909 bound_to 6896
  145.2453  139.2762  143.4096 H   0  0  0  0  0  0  0  0  0  0  0  0  # atno 7974 bound_to 7965
  154.4043  140.1298  156.4496 H   0  0  0  0  0  0  0  0  0  0  0  0  # atno 8008 bound_to 7997
  155.7380  140.3490  155.5070 H   0  0  0  0  0  0  0  0  0  0  0  0  # atno 8009 bound_to 7997
  155.9066  140.1028  157.1301 H   0  0  0  0  0  0  0  0  0  0  0  0  # atno 8010 bound_to 7997
  139.9854  144.5796  150.7864 H   0  0  0  0  0  0  0  0  0  0  0  0  # atno 10167 bound_to 10162
  156.1921  130.4153  149.9358 H   0  0  0  0  0  0  0  0  0  0  0  0  # atno 10718 bound_to 10713
  153.0021  135.6265  154.2215 H   0  0  0  0  0  0  0  0  0  0  0  0  # atno 10763 bound_to 10752
  154.1958  135.2806  155.3009 H   0  0  0  0  0  0  0  0  0  0  0  0  # atno 10764 bound_to 10752
  154.5723  135.5673  153.7166 H   0  0  0  0  0  0  0  0  0  0  0  0  # atno 10765 bound_to 10752
  140.7504  133.8597  155.9040 H   0  0  0  0  0  0  0  0  0  0  0  0  # atno 11005 bound_to 11000
  146.3317  140.2828  142.8611 LP  0  0  0  0  0  0  0  0  0  0  0  0  # atno 17320 bound_to 7965
  144.9552  140.8219  143.5547 LP  0  0  0  0  0  0  0  0  0  0  0  0  # atno 17321 bound_to 7965
  140.7474  143.2906  151.3342 LP  0  0  0  0  0  0  0  0  0  0  0  0  # atno 17342 bound_to 10162
  139.6379  144.0595  152.2531 LP  0  0  0  0  0  0  0  0  0  0  0  0  # atno 17343 bound_to 10162
  156.7095  130.8964  151.3608 LP  0  0  0  0  0  0  0  0  0  0  0  0  # atno 17370 bound_to 10713
  157.6935  130.9258  150.0579 LP  0  0  0  0  0  0  0  0  0  0  0  0  # atno 17371 bound_to 10713
  140.9756  134.1474  157.4539 LP  0  0  0  0  0  0  0  0  0  0  0  0  # atno 17394 bound_to 11000
  139.8788  134.9993  156.5948 LP  0  0  0  0  0  0  0  0  0  0  0  0  # atno 17395 bound_to 11000

$$$$
