#       Name:                AV-unprocessed.smi:1007
#       Creating user name   scv26
#       Creation time:       Fri Mar 27 02:34:28 2020


#       File generated by GOLD software.
#

@<TRIPOS>MOLECULE
AV-unprocessed.smi:1007
    62    64     1
SMALL
NO_CHARGES


@<TRIPOS>ATOM
      1 ****        -6.7189   1.9989   0.1928 C.3            1 S1                 0.0000
      2 ****        -5.6658   1.9051   1.1362 O.3            1 S1                 0.0000
      3 ****        -5.3764   0.5646   1.4965 C.3            1 S1                 0.0000
      4 ****        -4.2472   0.5626   2.5381 C.3            1 S1                 0.0000
      5 ****        -2.9766   1.1110   2.0009 N.4            1 S1                 1.0000
      6 ****        -2.2600   0.1779   1.0907 C.3            1 S1                 0.0000
      7 ****        -0.9833   0.8444   0.5393 C.3            1 S1                 0.0000
      8 ****        -0.0694   1.3076   1.5870 N.3            1 S1                 0.0000
      9 ****         0.6148   0.2384   2.3239 C.3            1 S1                 0.0000
     10 ****         1.6058  -0.6041   1.4975 C.3            1 S1                 0.0000
     11 ****         2.1015  -1.6345   2.3285 O.3            1 S1                 0.0000
     12 ****         2.7929   0.2253   0.9672 C.3            1 S1                 0.0000
     13 ****         3.7226  -0.5741   0.1599 N.pl3          1 S1                 0.0000
     14 ****         4.8975  -1.1665   0.5057 C.2            1 S1                 0.0000
     15 ****         5.3755  -1.8038  -0.5991 N.pl3          1 S1                 1.0000
     16 ****         4.4926  -1.6148  -1.6649 C.ar           1 S1                 0.0000
     17 ****         4.5392  -2.0648  -2.9791 C.ar           1 S1                 0.0000
     18 ****         3.4684  -1.6970  -3.8253 C.ar           1 S1                 0.0000
     19 ****         3.4860  -2.1766  -5.2667 C.3            1 S1                 0.0000
     20 ****         2.3978  -0.8990  -3.3442 C.ar           1 S1                 0.0000
     21 ****         1.2529  -0.5079  -4.2631 C.3            1 S1                 0.0000
     22 ****         2.3693  -0.4506  -2.0043 C.ar           1 S1                 0.0000
     23 ****         3.4307  -0.8247  -1.1844 C.ar           1 S1                 0.0000
     24 ****        -0.7991   2.2211   2.4659 C.3            1 S1                 0.0000
     25 ****        -2.0712   1.5956   3.0743 C.3            1 S1                 0.0000
     26 ****        -6.9003   3.0456  -0.0511 H              1 S1                 0.0000
     27 ****        -7.6444   1.5814   0.5914 H              1 S1                 0.0000
     28 ****        -6.4682   1.4766  -0.7315 H              1 S1                 0.0000
     29 ****        -6.2664   0.1060   1.9302 H              1 S1                 0.0000
     30 ****        -5.1122  -0.0238   0.6177 H              1 S1                 0.0000
     31 ****        -4.5723   1.1602   3.3910 H              1 S1                 0.0000
     32 ****        -4.0795  -0.4467   2.9168 H              1 S1                 0.0000
     33 ****        -2.0208  -0.7480   1.6150 H              1 S1                 0.0000
     34 ****        -2.9009  -0.0955   0.2536 H              1 S1                 0.0000
     35 ****        -0.4742   0.1668  -0.1442 H              1 S1                 0.0000
     36 ****        -1.2760   1.6993  -0.0720 H              1 S1                 0.0000
     37 ****         1.1671   0.6819   3.1539 H              1 S1                 0.0000
     38 ****        -0.1173  -0.4253   2.7834 H              1 S1                 0.0000
     39 ****         1.0908  -1.0905   0.6698 H              1 S1                 0.0000
     40 ****         1.3751  -2.1630   2.6227 H              1 S1                 0.0000
     41 ****         2.4502   1.0655   0.3623 H              1 S1                 0.0000
     42 ****         3.3589   0.6533   1.7959 H              1 S1                 0.0000
     43 ****         5.3618  -1.1415   1.4811 H              1 S1                 0.0000
     44 ****         5.3575  -2.6714  -3.3386 H              1 S1                 0.0000
     45 ****         3.4981  -1.3291  -5.9523 H              1 S1                 0.0000
     46 ****         2.6049  -2.7824  -5.4795 H              1 S1                 0.0000
     47 ****         4.3663  -2.7857  -5.4743 H              1 S1                 0.0000
     48 ****         0.5222   0.1158  -3.7471 H              1 S1                 0.0000
     49 ****         0.7351  -1.3949  -4.6286 H              1 S1                 0.0000
     50 ****         1.6239   0.0551  -5.1199 H              1 S1                 0.0000
     51 ****         1.5557   0.1566  -1.6363 H              1 S1                 0.0000
     52 ****        -0.1425   2.5738   3.2623 H              1 S1                 0.0000
     53 ****        -1.0800   3.1101   1.8993 H              1 S1                 0.0000
     54 ****        -2.5873   2.3471   3.6728 H              1 S1                 0.0000
     55 ****        -1.8198   0.7760   3.7486 H              1 S1                 0.0000
     56 ****        -3.2228   1.9252   1.4554 H              1 S1                 0.0000
     57 ****         6.2389  -2.3310  -0.6197 H              1 S1                 0.0000
     58 ****        -5.9271   2.4090   1.9594 LP             1 S1                 0.0000
     59 ****        -4.8439   2.3154   0.7410 LP             1 S1                 0.0000
     60 ****         0.6846   1.7901   1.1413 LP             1 S1                 0.0000
     61 ****         2.5682  -1.2351   3.1175 LP             1 S1                 0.0000
     62 ****         2.7438  -2.2023   1.8136 LP             1 S1                 0.0000
@<TRIPOS>BOND
    1    1    2 1     
    2    1   26 1     
    3    1   27 1     
    4    1   28 1     
    5    2    3 1     
    6    3    4 1     
    7    3   29 1     
    8    3   30 1     
    9    4    5 1     
   10    4   31 1     
   11    4   32 1     
   12    5   25 1     
   13    5    6 1     
   14    5   56 1     
   15    6    7 1     
   16    6   33 1     
   17    6   34 1     
   18    7    8 1     
   19    7   35 1     
   20    7   36 1     
   21    8    9 1     
   22    8   24 1     
   23    9   10 1     
   24    9   37 1     
   25    9   38 1     
   26   10   11 1     
   27   10   12 1     
   28   10   39 1     
   29   11   40 1     
   30   12   13 1     
   31   12   41 1     
   32   12   42 1     
   33   13   23 1     
   34   13   14 1     
   35   14   15 2     
   36   14   43 1     
   37   15   16 1     
   38   15   57 1     
   39   16   23 ar    
   40   16   17 ar    
   41   17   18 ar    
   42   17   44 1     
   43   18   19 1     
   44   18   20 ar    
   45   19   45 1     
   46   19   46 1     
   47   19   47 1     
   48   20   21 1     
   49   20   22 ar    
   50   21   48 1     
   51   21   49 1     
   52   21   50 1     
   53   22   23 ar    
   54   22   51 1     
   55   24   25 1     
   56   24   52 1     
   57   24   53 1     
   58   25   54 1     
   59   25   55 1     
   60    2   58 1     
   61    2   59 1     
   62    8   60 1     
   63   11   61 1     
   64   11   62 1     
@<TRIPOS>SUBSTRUCTURE
      1 S1             1
@<TRIPOS>SET
LONE_PAIRS      STATIC     ATOMS    <user>   **** ""
5 58 59 60 61 62
DONOR_HYDROGENS      STATIC     ATOMS    <user>   **** ""
3 56 40 57
ATOM$BLUE        STATIC     ATOMS    COLORGROUP SYSTEM
5 58 59 60 61 62
ATOM$RED        STATIC     ATOMS    COLORGROUP SYSTEM
3 56 40 57
