AV-unprocessed.smi:1812|AV-procd|sdf|7336|dock7
  -GOLD-   22720 8593D 1   1.00000     0.00000
 Structure written by MMmdl.
 34 36  0  0  0  0  0  0  0  0  1 V2000
  145.5994  138.4827  153.5024 O   0  0  0  0  0  0  0  0  0  0  0  0
  146.5697  137.9034  153.0133 C   0  0  0  0  0  0  0  0  0  0  0  0
  146.4640  136.8299  152.2172 N   0  0  0  0  0  0  0  0  0  0  0  0
  145.2067  136.2145  151.8074 C   0  0  0  0  0  0  0  0  0  0  0  0
  145.4425  135.0094  150.8820 C   0  0  2  0  0  0  0  0  0  0  0  0
  144.1996  134.1475  150.6669 C   0  0  0  0  0  0  0  0  0  0  0  0
  144.8133  132.8118  150.3152 C   0  0  0  0  0  0  0  0  0  0  0  0
  146.0171  132.7696  151.2513 C   0  0  0  0  0  0  0  0  0  0  0  0
  146.4108  134.1259  151.4448 O   0  0  0  0  0  0  0  0  0  0  0  0
  147.8560  138.2508  153.1940 N   0  0  0  0  0  0  0  0  0  0  0  0
  148.3774  139.3267  153.9603 C   0  0  0  0  0  0  0  0  0  0  0  0
  147.6474  140.3744  154.3668 N   0  0  0  0  0  0  0  0  0  0  0  0
  148.4030  141.2792  155.0991 N   0  0  0  0  0  0  0  0  0  0  0  0
  149.6777  140.8915  155.2264 C   0  0  0  0  0  0  0  0  0  0  0  0
  150.6846  141.7006  155.9740 C   0  0  0  0  0  0  0  0  0  0  0  0
  151.4952  141.1089  157.1066 C   0  0  0  0  0  0  0  0  0  0  0  0
  150.4257  142.1300  157.4000 C   0  0  0  0  0  0  0  0  0  0  0  0
  150.0642  139.3619  154.4444 S   0  0  0  0  0  0  0  0  0  0  0  0
  147.3107  136.4173  151.8542 H   0  0  0  0  0  0  0  0  0  0  0  0
  144.6691  135.9003  152.7024 H   0  0  0  0  0  0  0  0  0  0  0  0
  144.5765  136.9547  151.3114 H   0  0  0  0  0  0  0  0  0  0  0  0
  145.8132  135.3383  149.9095 H   0  0  0  0  0  0  0  0  0  0  0  0
  143.6237  134.0612  151.5897 H   0  0  0  0  0  0  0  0  0  0  0  0
  143.5430  134.5359  149.8879 H   0  0  0  0  0  0  0  0  0  0  0  0
  144.1315  131.9728  150.4567 H   0  0  0  0  0  0  0  0  0  0  0  0
  145.1441  132.8141  149.2757 H   0  0  0  0  0  0  0  0  0  0  0  0
  145.7331  132.3524  152.2183 H   0  0  0  0  0  0  0  0  0  0  0  0
  146.8345  132.1697  150.8508 H   0  0  0  0  0  0  0  0  0  0  0  0
  148.5438  137.6800  152.7252 H   0  0  0  0  0  0  0  0  0  0  0  0
  151.1785  142.4076  155.3104 H   0  0  0  0  0  0  0  0  0  0  0  0
  151.2946  140.0816  157.4036 H   0  0  0  0  0  0  0  0  0  0  0  0
  152.5317  141.4266  157.2005 H   0  0  0  0  0  0  0  0  0  0  0  0
  150.7488  143.1279  157.6897 H   0  0  0  0  0  0  0  0  0  0  0  0
  149.5131  141.7776  157.8766 H   0  0  0  0  0  0  0  0  0  0  0  0
  1  2  2  0  0  0  0
  2  3  1  0  0  0  0
  2 10  1  0  0  0  0
  3  4  1  0  0  0  0
  3 19  1  0  0  0  0
  4  5  1  0  0  0  0
  4 20  1  0  0  0  0
  4 21  1  0  0  0  0
  5  9  1  0  0  0  0
  5  6  1  0  0  0  0
  5 22  1  0  0  0  0
  6  7  1  0  0  0  0
  6 23  1  0  0  0  0
  6 24  1  0  0  0  0
  7  8  1  0  0  0  0
  7 25  1  0  0  0  0
  7 26  1  0  0  0  0
  8  9  1  0  0  0  0
  8 27  1  0  0  0  0
  8 28  1  0  0  0  0
 10 11  1  0  0  0  0
 10 29  1  0  0  0  0
 11 18  1  0  0  0  0
 11 12  2  0  0  0  0
 12 13  1  0  0  0  0
 13 14  2  0  0  0  0
 14 15  1  0  0  0  0
 14 18  1  0  0  0  0
 15 17  1  0  0  0  0
 15 16  1  0  0  0  0
 15 30  1  0  0  0  0
 16 17  1  0  0  0  0
 16 31  1  0  0  0  0
 16 32  1  0  0  0  0
 17 33  1  0  0  0  0
 17 34  1  0  0  0  0
M  END
> <s_m_source_file>
AV-unprocessed.smi

> <i_m_source_file_index>
1812

> <i_lp_mmshare_version>
43012

> <i_f3d_flags>
0

> <s_epik_input>
TzFbQ0gyXVtDSDJdW0NIMl1bQ0BIXTFbQ0gyXVtOSF1DKD1PKVtOSF1jMm5uYyhzMilbQ0hdM1tDSDJdW0NIMl0z

> <s_epik_cmdline>
J2VwaWtfcHl0aG9uJywgJy1waCcsICc3LjAnLCAnLXRuJywgJzgnLCAnLW1hJywgJzIwMCcsICctbWV0YWxfYmluZGluZycsICctaW1hZScsICc8aW5maWxlLm1hZT4nLCAnLW9tYWUnLCAnPG91dGZpbGUubWFlPic=

> <r_lp_tautomer_probability>
1

> <r_epik_Ionization_Penalty>
0.000281817

> <r_epik_Ionization_Penalty_Charging>
0

> <r_epik_Ionization_Penalty_Neutral>
0.000281817

> <r_epik_State_Penalty>
-0

> <r_epik_Charging_Adjusted_Penalty>
0

> <i_epik_Tot_Q>
0

> <i_epik_Tot_abs_Q>
0

> <r_epik_Metal_State_Penalty>
0.157535

> <b_epik_Metal_Only>
0

> <s_lp_Force_Field>
OPLS_2005

> <r_lp_Energy>
14.57

> <b_lp_Chiralities_Consistent>
1

> <s_lp_Variant>
AV-unprocessed.smi:1812-1

> <Gold.Version>
5.8.1

> <Gold.Id.Protein>
6NUR|6NUR_protein|mol2

> <Gold.PLP.Fitness>
35.2185

> <Gold.PLP.PLP>
-29.5499

> <Gold.PLP.part.hbond>
-2.4988

> <Gold.PLP.part.metal>
0.0000

> <Gold.PLP.part.buried>
-4.0952

> <Gold.PLP.part.nonpolar>
-24.1330

> <Gold.PLP.part.repulsive>
1.2771

> <Gold.PLP.ligand.clash>
0.0000

> <Gold.PLP.ligand.torsion>
0.1973

> <Gold.PLP.Chemscore.Hbond>
1.9760

> <Gold.PLP.Chemscore.CHOScore>
0.0000

> <Gold.PLP.Chemscore.Metal>
0.0000

> <Gold.Chemscore.Hbonds>
donor molecule, donor type, donor heavy atom, donor atom, acceptor molecule, acceptor atom, score
      L1  H     3    19       P1  7948  1.00
      L1  H    10    29       P1  7948  1.00

> <Gold.PLP.Chemscore.Internal.Correction>
0.1352

> <Gold.Rescore>
     Score         DG    S(hbond)    S(metal)    S(lipo)     H(rot)  DE(clash)    DE(int)     intcor
     14.46     -15.95       1.94        0.00      66.23       1.47       0.12       1.36       ----

> <Gold.Chemscore.Fitness>
14.4621

> <Gold.Chemscore.DG>
-15.9485

> <Gold.Chemscore.ZeroCoef>
-5.4800

> <Gold.Chemscore.Hbond>
1.9427

> <Gold.Chemscore.Metal>
0.0000

> <Gold.Chemscore.Lipo>
66.2328

> <Gold.Chemscore.Internal_Hbond>
0.0000

> <Gold.Chemscore.DEClash>
0.1245

> <Gold.Chemscore.DEInternal>
1.3619

> <Gold.Chemscore.Rot>
1.4725

> <Gold.Chemscore.Internal.Correction>
   9.000000E+99

> <Gold.Chemscore.Hbonds>
donor molecule, donor type, donor heavy atom, donor atom, acceptor molecule, acceptor atom, score
      L1  H     3    19       P1  7948  0.96
      L1  H    10    29       P1  7948  0.95

> <Gold.Chemscore.Hbond.Weighted>
-6.4888

> <Gold.Chemscore.Metal.Weighted>
-0.0000

> <Gold.Chemscore.Lipo.Weighted>
-7.7492

> <Gold.Chemscore.Internal_Hbond.Weighted>
0.0000

> <Gold.Chemscore.DEClash.Weighted>
0.1245

> <Gold.Chemscore.DEInternal.Weighted>
1.3619

> <Gold.Chemscore.Rot.Weighted>
3.7695

> <Gold.Chemscore.Internal.Correction.Weighted>
   9.000000E+99

> <Gold.Protein.RotatedTorsions>
[ 6907 6896 6895 6894 ] final  -42.75 input  -60.11 | X-H torsion
[ 7974 7965 7964 7962 ] final -144.75 input  175.53 | X-H torsion
[ 8008 7997 7996 7995 ] final   81.76 input   59.86 | X-H torsion
[ 10167 10162 10161 10158 ] final  104.77 input  -65.29 | X-H torsion
[ 10718 10713 10712 10709 ] final   51.98 input   66.30 | X-H torsion
[ 10763 10752 10751 10750 ] final   -0.39 input  -60.55 | X-H torsion
[ 11005 11000 10999 10996 ] final   -0.59 input  -57.11 | X-H torsion

> <Gold.Protein.ActiveResidues>
 VAL166  LYS551  ARG553  GLY616  TRP617  ASP618  TYR619  PRO620  LYS621  CYS622 
 ASP623  PHE694  ASN695  SER759  ASP760  ASP761  ALA762  ILE779  LEU786  VAL792 
 PHE793  MET794  SER795  GLU796  ALA797  LYS798  CYS799  TRP800  GLU811  SER814 

> <Gold.Protein.RotatedAtoms>
  150.9517  134.8916  159.7675 H   0  0  0  0  0  0  0  0  0  0  0  0  # atno 6907 bound_to 6896
  152.5122  134.3797  159.9357 H   0  0  0  0  0  0  0  0  0  0  0  0  # atno 6908 bound_to 6896
  151.3813  133.3780  159.2745 H   0  0  0  0  0  0  0  0  0  0  0  0  # atno 6909 bound_to 6896
  144.8276  140.5671  143.5537 H   0  0  0  0  0  0  0  0  0  0  0  0  # atno 7974 bound_to 7965
  155.9015  140.3433  155.6030 H   0  0  0  0  0  0  0  0  0  0  0  0  # atno 8008 bound_to 7997
  155.7494  140.0818  157.2227 H   0  0  0  0  0  0  0  0  0  0  0  0  # atno 8009 bound_to 7997
  154.4044  140.1556  156.2694 H   0  0  0  0  0  0  0  0  0  0  0  0  # atno 8010 bound_to 7997
  139.7149  144.7070  151.0967 H   0  0  0  0  0  0  0  0  0  0  0  0  # atno 10167 bound_to 10162
  157.5032  130.8451  149.8342 H   0  0  0  0  0  0  0  0  0  0  0  0  # atno 10718 bound_to 10713
  153.3313  135.6975  153.6945 H   0  0  0  0  0  0  0  0  0  0  0  0  # atno 10763 bound_to 10752
  153.5747  135.3509  155.2852 H   0  0  0  0  0  0  0  0  0  0  0  0  # atno 10764 bound_to 10752
  154.8618  135.4280  154.2503 H   0  0  0  0  0  0  0  0  0  0  0  0  # atno 10765 bound_to 10752
  140.6380  133.9515  155.8310 H   0  0  0  0  0  0  0  0  0  0  0  0  # atno 11005 bound_to 11000
  145.4967  139.1485  143.3680 LP  0  0  0  0  0  0  0  0  0  0  0  0  # atno 17320 bound_to 7965
  146.2580  140.5106  142.8865 LP  0  0  0  0  0  0  0  0  0  0  0  0  # atno 17321 bound_to 7965
  140.7741  143.5243  150.9499 LP  0  0  0  0  0  0  0  0  0  0  0  0  # atno 17342 bound_to 10162
  139.8929  143.6931  152.3142 LP  0  0  0  0  0  0  0  0  0  0  0  0  # atno 17343 bound_to 10162
  156.0242  130.3785  150.1872 LP  0  0  0  0  0  0  0  0  0  0  0  0  # atno 17370 bound_to 10713
  157.0062  130.9937  151.3378 LP  0  0  0  0  0  0  0  0  0  0  0  0  # atno 17371 bound_to 10713
  141.0628  134.0322  157.3636 LP  0  0  0  0  0  0  0  0  0  0  0  0  # atno 17394 bound_to 11000
  139.9091  135.0186  156.7614 LP  0  0  0  0  0  0  0  0  0  0  0  0  # atno 17395 bound_to 11000

$$$$
