AV-unprocessed.smi:2140|AV-procd|sdf|8715|dock1
  -GOLD-   2272011483D 1   1.00000     0.00000
 Structure written by MMmdl.
 39 40  0  0  0  0  0  0  0  0  1 V2000
  147.1629  139.7216  152.1015 C   0  0  0  0  0  0  0  0  0  0  0  0
  146.9543  139.6438  153.6357 C   0  0  1  0  0  0  0  0  0  0  0  0
  146.1380  138.3603  153.9676 C   0  0  0  0  0  0  0  0  0  0  0  0
  146.4501  137.2300  153.0970 N   0  0  0  0  0  0  0  0  0  0  0  0
  145.5679  136.3079  152.6871 C   0  0  0  0  0  0  0  0  0  0  0  0
  144.3811  136.3121  153.0133 O   0  0  0  0  0  0  0  0  0  0  0  0
  146.1470  135.4129  151.8688 N   0  0  0  0  0  0  0  0  0  0  0  0
  145.5554  134.2924  151.2259 C   0  0  0  0  0  0  0  0  0  0  0  0
  144.1717  133.9939  151.2598 C   0  0  0  0  0  0  0  0  0  0  0  0
  143.7090  132.8404  150.5974 C   0  0  0  0  0  0  0  0  0  0  0  0
  144.6455  132.0251  149.9327 C   0  0  0  0  0  0  0  0  0  0  0  0
  145.9687  132.2898  149.9044 N   0  0  0  0  0  0  0  0  0  0  0  0
  146.4049  133.3965  150.5426 C   0  0  0  0  0  0  0  0  0  0  0  0
  148.2245  139.7389  154.3925 N   0  0  0  0  0  0  0  0  0  0  0  0
  149.2466  138.8086  153.8989 C   0  0  0  0  0  0  0  0  0  0  0  0
  150.5749  138.9193  154.6669 C   0  0  0  0  0  0  0  0  0  0  0  0
  151.0597  140.2525  154.5916 O   0  0  0  0  0  0  0  0  0  0  0  0
  150.1338  141.1866  155.1285 C   0  0  0  0  0  0  0  0  0  0  0  0
  148.7974  141.0902  154.3713 C   0  0  0  0  0  0  0  0  0  0  0  0
  146.2332  139.5999  151.5471 H   0  0  0  0  0  0  0  0  0  0  0  0
  147.8528  138.9503  151.7576 H   0  0  0  0  0  0  0  0  0  0  0  0
  147.5533  140.6883  151.7867 H   0  0  0  0  0  0  0  0  0  0  0  0
  146.3372  140.4993  153.9146 H   0  0  0  0  0  0  0  0  0  0  0  0
  146.3291  138.0564  154.9972 H   0  0  0  0  0  0  0  0  0  0  0  0
  145.0642  138.5258  153.8909 H   0  0  0  0  0  0  0  0  0  0  0  0
  147.4045  137.1529  152.7775 H   0  0  0  0  0  0  0  0  0  0  0  0
  147.1110  135.5907  151.6276 H   0  0  0  0  0  0  0  0  0  0  0  0
  143.4633  134.6127  151.7882 H   0  0  0  0  0  0  0  0  0  0  0  0
  142.6599  132.5841  150.6027 H   0  0  0  0  0  0  0  0  0  0  0  0
  144.3238  131.1335  149.4150 H   0  0  0  0  0  0  0  0  0  0  0  0
  147.4696  133.5751  150.5010 H   0  0  0  0  0  0  0  0  0  0  0  0
  148.9085  137.7786  153.9969 H   0  0  0  0  0  0  0  0  0  0  0  0
  149.4260  138.9845  152.8371 H   0  0  0  0  0  0  0  0  0  0  0  0
  150.4437  138.6283  155.7105 H   0  0  0  0  0  0  0  0  0  0  0  0
  151.3173  138.2461  154.2383 H   0  0  0  0  0  0  0  0  0  0  0  0
  149.9892  140.9969  156.1933 H   0  0  0  0  0  0  0  0  0  0  0  0
  150.5489  142.1904  155.0365 H   0  0  0  0  0  0  0  0  0  0  0  0
  148.9413  141.4147  153.3396 H   0  0  0  0  0  0  0  0  0  0  0  0
  148.1218  141.8043  154.8370 H   0  0  0  0  0  0  0  0  0  0  0  0
  1  2  1  0  0  0  0
  1 20  1  0  0  0  0
  1 21  1  0  0  0  0
  1 22  1  0  0  0  0
  2  3  1  0  0  0  0
  2 14  1  0  0  0  0
  2 23  1  0  0  0  0
  3  4  1  0  0  0  0
  3 24  1  0  0  0  0
  3 25  1  0  0  0  0
  4  5  1  0  0  0  0
  4 26  1  0  0  0  0
  5  6  2  0  0  0  0
  5  7  1  0  0  0  0
  7  8  1  0  0  0  0
  7 27  1  0  0  0  0
  8 13  1  0  0  0  0
  8  9  2  0  0  0  0
  9 10  1  0  0  0  0
  9 28  1  0  0  0  0
 10 11  2  0  0  0  0
 10 29  1  0  0  0  0
 11 12  1  0  0  0  0
 11 30  1  0  0  0  0
 12 13  2  0  0  0  0
 13 31  1  0  0  0  0
 14 19  1  0  0  0  0
 14 15  1  0  0  0  0
 15 16  1  0  0  0  0
 15 32  1  0  0  0  0
 15 33  1  0  0  0  0
 16 17  1  0  0  0  0
 16 34  1  0  0  0  0
 16 35  1  0  0  0  0
 17 18  1  0  0  0  0
 18 19  1  0  0  0  0
 18 36  1  0  0  0  0
 18 37  1  0  0  0  0
 19 38  1  0  0  0  0
 19 39  1  0  0  0  0
M  END
> <s_m_source_file>
AV-unprocessed.smi

> <i_m_source_file_index>
2140

> <i_lp_mmshare_version>
43012

> <i_f3d_flags>
0

> <s_epik_input>
W0NIMl0xW0NIMl1PW0NIMl1bQ0gyXU4xW0NASF0oW0NIM10pW0NIMl1bTkhdQyg9TylbTkhdYzJbY0hdW2NIXVtjSF1uW2NIXTI=

> <s_epik_cmdline>
J2VwaWtfcHl0aG9uJywgJy1waCcsICc3LjAnLCAnLXRuJywgJzgnLCAnLW1hJywgJzIwMCcsICctbWV0YWxfYmluZGluZycsICctaW1hZScsICc8aW5maWxlLm1hZT4nLCAnLW9tYWUnLCAnPG91dGZpbGUubWFlPic=

> <r_epik_Ionization_Penalty>
0.270748

> <r_epik_Ionization_Penalty_Charging>
0

> <r_epik_Ionization_Penalty_Neutral>
0.270748

> <r_epik_State_Penalty>
0.268258

> <r_epik_Charging_Adjusted_Penalty>
0.268258

> <i_epik_Tot_Q>
0

> <i_epik_Tot_abs_Q>
0

> <r_epik_Metal_State_Penalty>
0.264828

> <b_epik_Metal_Only>
0

> <s_lp_Force_Field>
OPLS_2005

> <r_lp_Energy>
31.3995

> <b_lp_Chiralities_Consistent>
1

> <s_lp_Variant>
AV-unprocessed.smi:2140-2

> <Gold.Version>
5.8.1

> <Gold.Id.Protein>
6NUR|6NUR_protein|mol2

> <Gold.PLP.Fitness>
39.8004

> <Gold.PLP.PLP>
-32.1288

> <Gold.PLP.part.hbond>
-3.0000

> <Gold.PLP.part.metal>
0.0000

> <Gold.PLP.part.buried>
-1.2118

> <Gold.PLP.part.nonpolar>
-28.3915

> <Gold.PLP.part.repulsive>
0.5177

> <Gold.PLP.ligand.clash>
0.0000

> <Gold.PLP.ligand.torsion>
0.6898

> <Gold.PLP.Chemscore.Hbond>
3.0000

> <Gold.PLP.Chemscore.CHOScore>
0.0000

> <Gold.PLP.Chemscore.Metal>
0.0000

> <Gold.Chemscore.Hbonds>
donor molecule, donor type, donor heavy atom, donor atom, acceptor molecule, acceptor atom, score
      L1  H     4    26       P1  7948  1.00
      L1  H     7    27       P1  7948  1.00
      P1  H  7989  7998       L1    17  0.62

> <Gold.PLP.Chemscore.Internal.Correction>
0.0511

> <Gold.Rescore>
     Score         DG    S(hbond)    S(metal)    S(lipo)     H(rot)  DE(clash)    DE(int)     intcor
     18.89     -21.11       2.86        0.00      84.06       1.47       0.27       1.95       ----

> <Gold.Chemscore.Fitness>
18.8946

> <Gold.Chemscore.DG>
-21.1147

> <Gold.Chemscore.ZeroCoef>
-5.4800

> <Gold.Chemscore.Hbond>
2.8646

> <Gold.Chemscore.Metal>
0.0000

> <Gold.Chemscore.Lipo>
84.0594

> <Gold.Chemscore.Internal_Hbond>
0.0000

> <Gold.Chemscore.DEClash>
0.2652

> <Gold.Chemscore.DEInternal>
1.9549

> <Gold.Chemscore.Rot>
1.4719

> <Gold.Chemscore.Internal.Correction>
   9.000000E+99

> <Gold.Chemscore.Hbonds>
donor molecule, donor type, donor heavy atom, donor atom, acceptor molecule, acceptor atom, score
      L1  H     4    26       P1  7948  0.93
      L1  H     7    27       P1  7948  0.99
      P1  H  7989  7998       L1    17  0.34

> <Gold.Chemscore.Hbond.Weighted>
-9.5679

> <Gold.Chemscore.Metal.Weighted>
-0.0000

> <Gold.Chemscore.Lipo.Weighted>
-9.8350

> <Gold.Chemscore.Internal_Hbond.Weighted>
0.0000

> <Gold.Chemscore.DEClash.Weighted>
0.2652

> <Gold.Chemscore.DEInternal.Weighted>
1.9549

> <Gold.Chemscore.Rot.Weighted>
3.7681

> <Gold.Chemscore.Internal.Correction.Weighted>
   9.000000E+99

> <Gold.Protein.RotatedTorsions>
[ 6907 6896 6895 6894 ] final -136.06 input  -60.11 | X-H torsion
[ 7974 7965 7964 7962 ] final  -58.81 input  175.53 | X-H torsion
[ 8008 7997 7996 7995 ] final  172.67 input   59.86 | X-H torsion
[ 10167 10162 10161 10158 ] final   81.17 input  -65.29 | X-H torsion
[ 10718 10713 10712 10709 ] final   14.03 input   66.30 | X-H torsion
[ 10763 10752 10751 10750 ] final    6.57 input  -60.55 | X-H torsion
[ 11005 11000 10999 10996 ] final  119.14 input  -57.11 | X-H torsion

> <Gold.Protein.ActiveResidues>
 VAL166  LYS551  ARG553  GLY616  TRP617  ASP618  TYR619  PRO620  LYS621  CYS622 
 ASP623  PHE694  ASN695  SER759  ASP760  ASP761  ALA762  ILE779  LEU786  VAL792 
 PHE793  MET794  SER795  GLU796  ALA797  LYS798  CYS799  TRP800  GLU811  SER814 

> <Gold.Protein.RotatedAtoms>
  151.0055  133.6015  159.2689 H   0  0  0  0  0  0  0  0  0  0  0  0  # atno 6907 bound_to 6896
  151.3186  135.0812  159.9307 H   0  0  0  0  0  0  0  0  0  0  0  0  # atno 6908 bound_to 6896
  152.5285  133.9706  159.7814 H   0  0  0  0  0  0  0  0  0  0  0  0  # atno 6909 bound_to 6896
  145.8349  140.8456  143.0064 H   0  0  0  0  0  0  0  0  0  0  0  0  # atno 7974 bound_to 7965
  156.1151  140.1480  156.9283 H   0  0  0  0  0  0  0  0  0  0  0  0  # atno 8008 bound_to 7997
  154.4795  140.0884  156.7385 H   0  0  0  0  0  0  0  0  0  0  0  0  # atno 8009 bound_to 7997
  155.4527  140.3435  155.4305 H   0  0  0  0  0  0  0  0  0  0  0  0  # atno 8010 bound_to 7997
  139.9420  144.6083  150.8242 H   0  0  0  0  0  0  0  0  0  0  0  0  # atno 10167 bound_to 10162
  157.0333  130.6201  149.5739 H   0  0  0  0  0  0  0  0  0  0  0  0  # atno 10718 bound_to 10713
  153.2462  135.6909  153.7729 H   0  0  0  0  0  0  0  0  0  0  0  0  # atno 10763 bound_to 10752
  153.6840  135.3324  155.3186 H   0  0  0  0  0  0  0  0  0  0  0  0  # atno 10764 bound_to 10752
  154.8376  135.4529  154.1402 H   0  0  0  0  0  0  0  0  0  0  0  0  # atno 10765 bound_to 10752
  139.9135  134.9626  156.7609 H   0  0  0  0  0  0  0  0  0  0  0  0  # atno 11005 bound_to 11000
  144.6737  140.0726  143.7472 LP  0  0  0  0  0  0  0  0  0  0  0  0  # atno 17320 bound_to 7965
  145.9530  139.2747  143.1201 LP  0  0  0  0  0  0  0  0  0  0  0  0  # atno 17321 bound_to 7965
  140.7608  143.3159  151.2733 LP  0  0  0  0  0  0  0  0  0  0  0  0  # atno 17342 bound_to 10162
  139.6697  144.0042  152.2745 LP  0  0  0  0  0  0  0  0  0  0  0  0  # atno 17343 bound_to 10162
  156.0062  130.5149  150.7838 LP  0  0  0  0  0  0  0  0  0  0  0  0  # atno 17370 bound_to 10713
  157.5161  131.0928  151.0137 LP  0  0  0  0  0  0  0  0  0  0  0  0  # atno 17371 bound_to 10713
  140.6698  133.9570  155.7850 LP  0  0  0  0  0  0  0  0  0  0  0  0  # atno 17394 bound_to 11000
  141.0586  134.0380  157.3689 LP  0  0  0  0  0  0  0  0  0  0  0  0  # atno 17395 bound_to 11000

$$$$
