AV-unprocessed.smi:1612|AV-procd|sdf|6476|dock8
  -GOLD-   22720 7133D 1   1.00000     0.00000
 Structure written by MMmdl.
 37 38  0  0  0  0  0  0  0  0  1 V2000
  148.3021  141.6539  155.4311 C   0  0  0  0  0  0  0  0  0  0  0  0
  149.4613  141.1424  154.5591 C   0  0  2  0  0  0  0  0  0  0  0  0
  148.8863  140.3732  153.4555 N   0  0  0  0  0  0  0  0  0  0  0  0
  147.8954  139.4762  153.5742 C   0  0  0  0  0  0  0  0  0  0  0  0
  147.3723  139.1834  154.6501 O   0  0  0  0  0  0  0  0  0  0  0  0
  147.5612  138.9594  152.3787 N   0  0  0  0  0  0  0  0  0  0  0  0
  146.5691  137.9847  152.0901 C   0  0  0  0  0  0  0  0  0  0  0  0
  145.5583  137.8519  153.0690 C   0  0  0  0  0  0  0  0  0  0  0  0
  144.5263  136.9132  152.8765 C   0  0  0  0  0  0  0  0  0  0  0  0
  144.5316  136.1297  151.7087 C   0  0  0  0  0  0  0  0  0  0  0  0
  145.5746  136.3245  150.7846 C   0  0  0  0  0  0  0  0  0  0  0  0
  146.5642  137.2243  150.9666 N   0  0  0  0  0  0  0  0  0  0  0  0
  150.3592  140.2429  155.4376 C   0  0  0  0  0  0  0  0  0  0  0  0
  150.4900  139.0529  155.1432 O   0  0  0  0  0  0  0  0  0  0  0  0
  150.9660  140.7772  156.5192 N   0  0  0  0  0  0  0  0  0  0  0  0
  151.8441  140.0129  157.4038 C   0  0  0  0  0  0  0  0  0  0  0  0
  152.5110  141.0409  158.3173 C   0  0  0  0  0  0  0  0  0  0  0  0
  151.5252  142.1999  158.3520 C   0  0  0  0  0  0  0  0  0  0  0  0
  150.8566  142.1620  156.9774 C   0  0  0  0  0  0  0  0  0  0  0  0
  148.6672  142.2475  156.2700 H   0  0  0  0  0  0  0  0  0  0  0  0
  147.7066  140.8350  155.8381 H   0  0  0  0  0  0  0  0  0  0  0  0
  147.6327  142.2913  154.8526 H   0  0  0  0  0  0  0  0  0  0  0  0
  150.0115  141.9887  154.1471 H   0  0  0  0  0  0  0  0  0  0  0  0
  149.2542  140.5586  152.5341 H   0  0  0  0  0  0  0  0  0  0  0  0
  148.0753  139.3043  151.5815 H   0  0  0  0  0  0  0  0  0  0  0  0
  145.5696  138.4615  153.9610 H   0  0  0  0  0  0  0  0  0  0  0  0
  143.7448  136.7965  153.6128 H   0  0  0  0  0  0  0  0  0  0  0  0
  143.7574  135.3994  151.5253 H   0  0  0  0  0  0  0  0  0  0  0  0
  145.6152  135.7435  149.8751 H   0  0  0  0  0  0  0  0  0  0  0  0
  151.2402  139.3163  157.9871 H   0  0  0  0  0  0  0  0  0  0  0  0
  152.5865  139.4366  156.8493 H   0  0  0  0  0  0  0  0  0  0  0  0
  152.7356  140.6443  159.3079 H   0  0  0  0  0  0  0  0  0  0  0  0
  153.4486  141.3735  157.8697 H   0  0  0  0  0  0  0  0  0  0  0  0
  150.7790  142.0201  159.1272 H   0  0  0  0  0  0  0  0  0  0  0  0
  152.0029  143.1568  158.5638 H   0  0  0  0  0  0  0  0  0  0  0  0
  151.3884  142.8106  156.2795 H   0  0  0  0  0  0  0  0  0  0  0  0
  149.8207  142.4985  157.0380 H   0  0  0  0  0  0  0  0  0  0  0  0
  1  2  1  0  0  0  0
  1 20  1  0  0  0  0
  1 21  1  0  0  0  0
  1 22  1  0  0  0  0
  2  3  1  0  0  0  0
  2 13  1  0  0  0  0
  2 23  1  0  0  0  0
  3  4  1  0  0  0  0
  3 24  1  0  0  0  0
  4  5  2  0  0  0  0
  4  6  1  0  0  0  0
  6  7  1  0  0  0  0
  6 25  1  0  0  0  0
  7 12  1  0  0  0  0
  7  8  2  0  0  0  0
  8  9  1  0  0  0  0
  8 26  1  0  0  0  0
  9 10  2  0  0  0  0
  9 27  1  0  0  0  0
 10 11  1  0  0  0  0
 10 28  1  0  0  0  0
 11 12  2  0  0  0  0
 11 29  1  0  0  0  0
 13 14  2  0  0  0  0
 13 15  1  0  0  0  0
 15 19  1  0  0  0  0
 15 16  1  0  0  0  0
 16 17  1  0  0  0  0
 16 30  1  0  0  0  0
 16 31  1  0  0  0  0
 17 18  1  0  0  0  0
 17 32  1  0  0  0  0
 17 33  1  0  0  0  0
 18 19  1  0  0  0  0
 18 34  1  0  0  0  0
 18 35  1  0  0  0  0
 19 36  1  0  0  0  0
 19 37  1  0  0  0  0
M  END
> <s_m_source_file>
AV-unprocessed.smi

> <i_m_source_file_index>
1612

> <i_lp_mmshare_version>
43012

> <i_f3d_flags>
0

> <s_epik_input>
W0NIMl0xW0NIMl1bQ0gyXVtDSDJdTjFDKD1PKVtDQEhdKFtDSDNdKVtOSF1DKD1PKVtOSF1jMltjSF1bY0hdW2NIXVtjSF1uMg==

> <s_epik_cmdline>
J2VwaWtfcHl0aG9uJywgJy1waCcsICc3LjAnLCAnLXRuJywgJzgnLCAnLW1hJywgJzIwMCcsICctbWV0YWxfYmluZGluZycsICctaW1hZScsICc8aW5maWxlLm1hZT4nLCAnLW9tYWUnLCAnPG91dGZpbGUubWFlPic=

> <r_lp_tautomer_probability>
1

> <r_epik_Ionization_Penalty>
3.95281e-05

> <r_epik_Ionization_Penalty_Charging>
0

> <r_epik_Ionization_Penalty_Neutral>
3.95281e-05

> <r_epik_State_Penalty>
-0

> <r_epik_Charging_Adjusted_Penalty>
0

> <i_epik_Tot_Q>
0

> <i_epik_Tot_abs_Q>
0

> <r_epik_Metal_State_Penalty>
-0

> <b_epik_Metal_Only>
0

> <s_lp_Force_Field>
OPLS_2005

> <r_lp_Energy>
30.1614

> <b_lp_Chiralities_Consistent>
1

> <s_lp_Variant>
AV-unprocessed.smi:1612-1

> <Gold.Version>
5.8.1

> <Gold.Id.Protein>
6NUR|6NUR_protein|mol2

> <Gold.PLP.Fitness>
39.1940

> <Gold.PLP.PLP>
-28.1468

> <Gold.PLP.part.hbond>
-3.6419

> <Gold.PLP.part.metal>
0.0000

> <Gold.PLP.part.buried>
0.9863

> <Gold.PLP.part.nonpolar>
-28.5894

> <Gold.PLP.part.repulsive>
3.5245

> <Gold.PLP.ligand.clash>
0.0000

> <Gold.PLP.ligand.torsion>
0.2886

> <Gold.PLP.Chemscore.Hbond>
2.8713

> <Gold.PLP.Chemscore.CHOScore>
1.0000

> <Gold.PLP.Chemscore.Metal>
0.0000

> <Gold.Chemscore.Hbonds>
donor molecule, donor type, donor heavy atom, donor atom, acceptor molecule, acceptor atom, score
      L1  H     3    24       P1  7957  0.93
      L1  H     6    25       P1  7957  0.86
      P1  H  7954  7966       L1    12  1.00
      L1  C    11    29       P1  7921  1.00

> <Gold.PLP.Chemscore.Internal.Correction>
0.0105

> <Gold.Rescore>
     Score         DG    S(hbond)    S(metal)    S(lipo)     H(rot)  DE(clash)    DE(int)     intcor
     11.67     -18.52       2.73        0.00      62.00       1.30       2.45       4.40       ----

> <Gold.Chemscore.Fitness>
11.6704

> <Gold.Chemscore.DG>
-18.5187

> <Gold.Chemscore.ZeroCoef>
-5.4800

> <Gold.Chemscore.Hbond>
2.7295

> <Gold.Chemscore.Metal>
0.0000

> <Gold.Chemscore.Lipo>
62.0028

> <Gold.Chemscore.Internal_Hbond>
0.0000

> <Gold.Chemscore.DEClash>
2.4451

> <Gold.Chemscore.DEInternal>
4.4033

> <Gold.Chemscore.Rot>
1.3016

> <Gold.Chemscore.Internal.Correction>
   9.000000E+99

> <Gold.Chemscore.Hbonds>
donor molecule, donor type, donor heavy atom, donor atom, acceptor molecule, acceptor atom, score
      L1  H     3    24       P1  7957  0.84
      L1  H     6    25       P1  7957  0.82
      P1  H  7954  7966       L1    12  0.51

> <Gold.Chemscore.Hbond.Weighted>
-9.1166

> <Gold.Chemscore.Metal.Weighted>
-0.0000

> <Gold.Chemscore.Lipo.Weighted>
-7.2543

> <Gold.Chemscore.Internal_Hbond.Weighted>
0.0000

> <Gold.Chemscore.DEClash.Weighted>
2.4451

> <Gold.Chemscore.DEInternal.Weighted>
4.4033

> <Gold.Chemscore.Rot.Weighted>
3.3322

> <Gold.Chemscore.Internal.Correction.Weighted>
   9.000000E+99

> <Gold.Protein.RotatedTorsions>
[ 6907 6896 6895 6894 ] final   76.47 input  -60.11 | X-H torsion
[ 7974 7965 7964 7962 ] final   12.01 input  175.53 | X-H torsion
[ 8008 7997 7996 7995 ] final -150.00 input   59.86 | X-H torsion
[ 10167 10162 10161 10158 ] final  -82.29 input  -65.29 | X-H torsion
[ 10718 10713 10712 10709 ] final  -17.25 input   66.30 | X-H torsion
[ 10763 10752 10751 10750 ] final -159.26 input  -60.55 | X-H torsion
[ 11005 11000 10999 10996 ] final  165.23 input  -57.11 | X-H torsion

> <Gold.Protein.ActiveResidues>
 VAL166  LYS551  ARG553  GLY616  TRP617  ASP618  TYR619  PRO620  LYS621  CYS622 
 ASP623  PHE694  ASN695  SER759  ASP760  ASP761  ALA762  ILE779  LEU786  VAL792 
 PHE793  MET794  SER795  GLU796  ALA797  LYS798  CYS799  TRP800  GLU811  SER814 

> <Gold.Protein.RotatedAtoms>
  152.5074  134.3964  159.9401 H   0  0  0  0  0  0  0  0  0  0  0  0  # atno 6907 bound_to 6896
  151.3926  133.3778  159.2730 H   0  0  0  0  0  0  0  0  0  0  0  0  # atno 6908 bound_to 6896
  150.9421  134.8850  159.7678 H   0  0  0  0  0  0  0  0  0  0  0  0  # atno 6909 bound_to 6896
  146.2360  139.9399  142.8484 H   0  0  0  0  0  0  0  0  0  0  0  0  # atno 7974 bound_to 7965
  155.6165  140.0677  157.2691 H   0  0  0  0  0  0  0  0  0  0  0  0  # atno 8008 bound_to 7997
  154.4240  140.1792  156.1375 H   0  0  0  0  0  0  0  0  0  0  0  0  # atno 8009 bound_to 7997
  156.0043  140.3333  155.6880 H   0  0  0  0  0  0  0  0  0  0  0  0  # atno 8010 bound_to 7997
  140.4333  143.2540  151.8729 H   0  0  0  0  0  0  0  0  0  0  0  0  # atno 10167 bound_to 10162
  156.5762  130.4762  149.6341 H   0  0  0  0  0  0  0  0  0  0  0  0  # atno 10718 bound_to 10713
  154.7489  135.3087  154.8594 H   0  0  0  0  0  0  0  0  0  0  0  0  # atno 10763 bound_to 10752
  153.9387  135.6777  153.4749 H   0  0  0  0  0  0  0  0  0  0  0  0  # atno 10764 bound_to 10752
  153.1085  135.4877  154.8921 H   0  0  0  0  0  0  0  0  0  0  0  0  # atno 10765 bound_to 10752
  140.2540  134.7955  157.3528 H   0  0  0  0  0  0  0  0  0  0  0  0  # atno 11005 bound_to 11000
  145.1962  140.9834  143.4182 LP  0  0  0  0  0  0  0  0  0  0  0  0  # atno 17320 bound_to 7965
  144.9813  139.3780  143.6260 LP  0  0  0  0  0  0  0  0  0  0  0  0  # atno 17321 bound_to 7965
  139.4786  144.5311  151.8666 LP  0  0  0  0  0  0  0  0  0  0  0  0  # atno 17342 bound_to 10162
  140.4402  144.1996  150.5891 LP  0  0  0  0  0  0  0  0  0  0  0  0  # atno 17343 bound_to 10162
  156.2671  130.6996  151.1782 LP  0  0  0  0  0  0  0  0  0  0  0  0  # atno 17370 bound_to 10713
  157.7337  131.0588  150.5563 LP  0  0  0  0  0  0  0  0  0  0  0  0  # atno 17371 bound_to 10713
  140.1530  134.4825  155.7948 LP  0  0  0  0  0  0  0  0  0  0  0  0  # atno 17394 bound_to 11000
  141.2198  133.6870  156.7411 LP  0  0  0  0  0  0  0  0  0  0  0  0  # atno 17395 bound_to 11000

$$$$
