AV-unprocessed.smi:283|AV-procd|sdf|2129|dock7
  -GOLD-   2262021443D 1   1.00000     0.00000
 Structure written by MMmdl.
 48 51  0  0  0  0  0  0  0  0  1 V2000
  149.2912  142.4952  157.9880 C   0  0  0  0  0  0  0  0  0  0  0  0
  150.5484  141.8544  157.3846 C   0  0  2  0  0  0  0  0  0  0  0  0
  150.1882  140.6162  156.6966 N   0  0  0  0  0  0  0  0  0  0  0  0
  149.2731  140.6095  155.7022 C   0  0  0  0  0  0  0  0  0  0  0  0
  148.9939  141.8173  155.1569 N   0  0  0  0  0  0  0  0  0  0  0  0
  148.0857  141.9201  154.1830 C   0  0  0  0  0  0  0  0  0  0  0  0
  147.3601  140.9559  153.6142 N   0  0  0  0  0  0  0  0  0  0  0  0
  147.6470  139.7321  154.1458 C   0  0  0  0  0  0  0  0  0  0  0  0
  148.5860  139.4717  155.1844 C   0  0  0  0  0  0  0  0  0  0  0  0
  148.6067  138.1080  155.4489 N   0  0  0  0  0  0  0  0  0  0  0  0
  147.7208  137.6047  154.6347 C   0  0  0  0  0  0  0  0  0  0  0  0
  147.1031  138.5127  153.7993 N   0  0  0  0  0  0  0  0  0  0  0  0
  146.0314  138.2975  152.7696 C   0  0  2  0  0  0  0  0  0  0  0  0
  144.9646  137.6571  153.4000 O   0  0  0  0  0  0  0  0  0  0  0  0
  145.0442  136.2547  153.1754 C   0  0  1  0  0  0  0  0  0  0  0  0
  143.6955  135.5670  153.4553 C   0  0  0  0  0  0  0  0  0  0  0  0
  143.7861  134.1869  153.1725 O   0  0  0  0  0  0  0  0  0  0  0  0
  145.5386  136.1901  151.7228 C   0  0  1  0  0  0  0  0  0  0  0  0
  144.4500  136.3054  150.8201 O   0  0  0  0  0  0  0  0  0  0  0  0
  146.5105  137.3719  151.6343 C   0  0  1  0  0  0  0  0  0  0  0  0
  146.4984  138.0027  150.3672 O   0  0  0  0  0  0  0  0  0  0  0  0
  151.6331  141.7010  158.4551 C   0  0  0  0  0  0  0  0  0  0  0  0
  151.9992  140.4121  158.9088 C   0  0  0  0  0  0  0  0  0  0  0  0
  152.9980  140.2512  159.8871 C   0  0  0  0  0  0  0  0  0  0  0  0
  153.6362  141.3797  160.4315 C   0  0  0  0  0  0  0  0  0  0  0  0
  153.2696  142.6676  160.0001 C   0  0  0  0  0  0  0  0  0  0  0  0
  152.2705  142.8347  159.0202 C   0  0  0  0  0  0  0  0  0  0  0  0
  151.8515  144.4421  158.5400 Cl  0  0  0  0  0  0  0  0  0  0  0  0
  145.7403  139.2935  152.4350 H   0  0  0  0  0  0  0  0  0  0  0  0
  145.8112  135.8275  153.8218 H   0  0  0  0  0  0  0  0  0  0  0  0
  146.0417  135.2446  151.5174 H   0  0  0  0  0  0  0  0  0  0  0  0
  147.5272  137.0316  151.8288 H   0  0  0  0  0  0  0  0  0  0  0  0
  149.5191  143.4655  158.4302 H   0  0  0  0  0  0  0  0  0  0  0  0
  148.8603  141.8670  158.7686 H   0  0  0  0  0  0  0  0  0  0  0  0
  148.5265  142.6539  157.2269 H   0  0  0  0  0  0  0  0  0  0  0  0
  150.9056  142.5332  156.6122 H   0  0  0  0  0  0  0  0  0  0  0  0
  150.8515  139.8639  156.8114 H   0  0  0  0  0  0  0  0  0  0  0  0
  147.9142  142.9179  153.8071 H   0  0  0  0  0  0  0  0  0  0  0  0
  147.5068  136.5466  154.6255 H   0  0  0  0  0  0  0  0  0  0  0  0
  143.3750  135.7190  154.4864 H   0  0  0  0  0  0  0  0  0  0  0  0
  142.9215  135.9816  152.8085 H   0  0  0  0  0  0  0  0  0  0  0  0
  144.2412  134.0763  152.3518 H   0  0  0  0  0  0  0  0  0  0  0  0
  144.3137  137.2214  150.6312 H   0  0  0  0  0  0  0  0  0  0  0  0
  145.6517  138.4028  150.2390 H   0  0  0  0  0  0  0  0  0  0  0  0
  151.5169  139.5342  158.5051 H   0  0  0  0  0  0  0  0  0  0  0  0
  153.2727  139.2614  160.2204 H   0  0  0  0  0  0  0  0  0  0  0  0
  154.4025  141.2579  161.1829 H   0  0  0  0  0  0  0  0  0  0  0  0
  153.7564  143.5327  160.4259 H   0  0  0  0  0  0  0  0  0  0  0  0
  1  2  1  0  0  0  0
  1 33  1  0  0  0  0
  1 34  1  0  0  0  0
  1 35  1  0  0  0  0
  2  3  1  0  0  0  0
  2 22  1  0  0  0  0
  2 36  1  0  0  0  0
  3  4  1  0  0  0  0
  3 37  1  0  0  0  0
  4  9  1  0  0  0  0
  4  5  2  0  0  0  0
  5  6  1  0  0  0  0
  6  7  2  0  0  0  0
  6 38  1  0  0  0  0
  7  8  1  0  0  0  0
  8 12  1  0  0  0  0
  8  9  2  0  0  0  0
  9 10  1  0  0  0  0
 10 11  2  0  0  0  0
 11 12  1  0  0  0  0
 11 39  1  0  0  0  0
 12 13  1  0  0  0  0
 13 29  1  0  0  0  0
 13 20  1  0  0  0  0
 13 14  1  0  0  0  0
 14 15  1  0  0  0  0
 15 30  1  0  0  0  0
 15 16  1  0  0  0  0
 15 18  1  0  0  0  0
 16 17  1  0  0  0  0
 16 40  1  0  0  0  0
 16 41  1  0  0  0  0
 17 42  1  0  0  0  0
 18 31  1  0  0  0  0
 18 19  1  0  0  0  0
 18 20  1  0  0  0  0
 19 43  1  0  0  0  0
 20 32  1  0  0  0  0
 20 21  1  0  0  0  0
 21 44  1  0  0  0  0
 22 27  1  0  0  0  0
 22 23  2  0  0  0  0
 23 24  1  0  0  0  0
 23 45  1  0  0  0  0
 24 25  2  0  0  0  0
 24 46  1  0  0  0  0
 25 26  1  0  0  0  0
 25 47  1  0  0  0  0
 26 27  2  0  0  0  0
 26 48  1  0  0  0  0
 27 28  1  0  0  0  0
M  END
> <s_m_source_file>
AV-unprocessed.smi

> <i_m_source_file_index>
283

> <i_lp_mmshare_version>
43012

> <i_f3d_flags>
0

> <s_epik_input>
Q2xjMVtjSF1bY0hdW2NIXVtjSF1jMVtDQEhdKFtDSDNdKVtOSF1jKG5bY0hdbjIpYyhjMjMpbltjSF1uM1tDQEBIXTRPW0NASF0oW0NIMl1bT0hdKVtDQEBIXShbT0hdKVtDQEhdNFtPSF0=

> <s_epik_cmdline>
J2VwaWtfcHl0aG9uJywgJy1waCcsICc3LjAnLCAnLXRuJywgJzgnLCAnLW1hJywgJzIwMCcsICctbWV0YWxfYmluZGluZycsICctaW1hZScsICc8aW5maWxlLm1hZT4nLCAnLW9tYWUnLCAnPG91dGZpbGUubWFlPic=

> <r_lp_tautomer_probability>
1

> <r_epik_Ionization_Penalty>
0.000266407

> <r_epik_Ionization_Penalty_Charging>
0

> <r_epik_Ionization_Penalty_Neutral>
0.000266407

> <r_epik_State_Penalty>
-0

> <r_epik_Charging_Adjusted_Penalty>
0

> <i_epik_Tot_Q>
0

> <i_epik_Tot_abs_Q>
0

> <r_epik_Metal_State_Penalty>
-0

> <b_epik_Metal_Only>
0

> <s_epik_Chemistry_Notes>
This compound contains an acetal/aminal-like group ( X-CH(R)-Y where X, Y are N, S, or O) that may be acid/base labile, releasing an aldehyde.

> <s_lp_Force_Field>
OPLS_2005

> <r_lp_Energy>
46.6771

> <b_lp_Chiralities_Consistent>
1

> <s_lp_Variant>
AV-unprocessed.smi:283-5

> <Gold.Version>
5.8.1

> <Gold.Id.Protein>
6NUR|6NUR_protein|mol2

> <Gold.PLP.Fitness>
52.1964

> <Gold.PLP.PLP>
-43.3771

> <Gold.PLP.part.hbond>
-3.7575

> <Gold.PLP.part.metal>
0.0000

> <Gold.PLP.part.buried>
-3.8012

> <Gold.PLP.part.nonpolar>
-37.9850

> <Gold.PLP.part.repulsive>
1.8376

> <Gold.PLP.ligand.clash>
0.0000

> <Gold.PLP.ligand.torsion>
0.3119

> <Gold.PLP.Chemscore.Hbond>
2.8320

> <Gold.PLP.Chemscore.CHOScore>
0.2893

> <Gold.PLP.Chemscore.Metal>
0.0000

> <Gold.Chemscore.Hbonds>
donor molecule, donor type, donor heavy atom, donor atom, acceptor molecule, acceptor atom, score
      L1  H    19    43       P1 10171  1.00
      L1  H    21    44       P1 10171  1.00
      P1  H  7954  7966       L1    21  0.85
      L1  C     6    38       P1  8028  0.32

> <Gold.PLP.Chemscore.Internal.Correction>
0.0792

> <Gold.Rescore>
     Score         DG    S(hbond)    S(metal)    S(lipo)     H(rot)  DE(clash)    DE(int)     intcor
     12.66     -15.70       2.72        0.00      99.34       4.10       2.21       0.82       ----

> <Gold.Chemscore.Fitness>
12.6632

> <Gold.Chemscore.DG>
-15.7013

> <Gold.Chemscore.ZeroCoef>
-5.4800

> <Gold.Chemscore.Hbond>
2.7205

> <Gold.Chemscore.Metal>
0.0000

> <Gold.Chemscore.Lipo>
99.3404

> <Gold.Chemscore.Internal_Hbond>
0.0000

> <Gold.Chemscore.DEClash>
2.2145

> <Gold.Chemscore.DEInternal>
0.8235

> <Gold.Chemscore.Rot>
4.0968

> <Gold.Chemscore.Internal.Correction>
   9.000000E+99

> <Gold.Chemscore.Hbonds>
donor molecule, donor type, donor heavy atom, donor atom, acceptor molecule, acceptor atom, score
      L1  H    19    43       P1 10171  0.99
      L1  H    21    44       P1 10171  1.00
      P1  H  7954  7966       L1    21  0.33

> <Gold.Chemscore.Hbond.Weighted>
-9.0864

> <Gold.Chemscore.Metal.Weighted>
-0.0000

> <Gold.Chemscore.Lipo.Weighted>
-11.6228

> <Gold.Chemscore.Internal_Hbond.Weighted>
0.0000

> <Gold.Chemscore.DEClash.Weighted>
2.2145

> <Gold.Chemscore.DEInternal.Weighted>
0.8235

> <Gold.Chemscore.Rot.Weighted>
10.4879

> <Gold.Chemscore.Internal.Correction.Weighted>
   9.000000E+99

> <Gold.Protein.RotatedTorsions>
[ 6907 6896 6895 6894 ] final  120.22 input  -60.11 | X-H torsion
[ 7974 7965 7964 7962 ] final -121.44 input  175.53 | X-H torsion
[ 8008 7997 7996 7995 ] final -113.12 input   59.86 | X-H torsion
[ 10167 10162 10161 10158 ] final  165.84 input  -65.29 | X-H torsion
[ 10718 10713 10712 10709 ] final   92.78 input   66.30 | X-H torsion
[ 10763 10752 10751 10750 ] final  140.29 input  -60.55 | X-H torsion
[ 11005 11000 10999 10996 ] final  148.42 input  -57.11 | X-H torsion

> <Gold.Protein.ActiveResidues>
 VAL166  LYS551  ARG553  GLY616  TRP617  ASP618  TYR619  PRO620  LYS621  CYS622 
 ASP623  PHE694  ASN695  SER759  ASP760  ASP761  ALA762  ILE779  LEU786  VAL792 
 PHE793  MET794  SER795  GLU796  ALA797  LYS798  CYS799  TRP800  GLU811  SER814 

> <Gold.Protein.RotatedAtoms>
  152.4414  133.7455  159.6664 H   0  0  0  0  0  0  0  0  0  0  0  0  # atno 6907 bound_to 6896
  150.8305  133.8088  159.3106 H   0  0  0  0  0  0  0  0  0  0  0  0  # atno 6908 bound_to 6896
  151.5743  135.1063  160.0054 H   0  0  0  0  0  0  0  0  0  0  0  0  # atno 6909 bound_to 6896
  145.0404  140.8139  143.4270 H   0  0  0  0  0  0  0  0  0  0  0  0  # atno 7974 bound_to 7965
  155.0157  140.0393  157.2417 H   0  0  0  0  0  0  0  0  0  0  0  0  # atno 8008 bound_to 7997
  154.7421  140.2751  155.6341 H   0  0  0  0  0  0  0  0  0  0  0  0  # atno 8009 bound_to 7997
  156.2866  140.2663  156.2151 H   0  0  0  0  0  0  0  0  0  0  0  0  # atno 8010 bound_to 7997
  139.4913  144.4090  151.9321 H   0  0  0  0  0  0  0  0  0  0  0  0  # atno 10167 bound_to 10162
  157.6957  131.0455  150.3934 H   0  0  0  0  0  0  0  0  0  0  0  0  # atno 10718 bound_to 10713
  153.9203  135.3001  155.3448 H   0  0  0  0  0  0  0  0  0  0  0  0  # atno 10763 bound_to 10752
  154.7579  135.4948  153.9412 H   0  0  0  0  0  0  0  0  0  0  0  0  # atno 10764 bound_to 10752
  153.1145  135.6767  153.9545 H   0  0  0  0  0  0  0  0  0  0  0  0  # atno 10765 bound_to 10752
  140.0958  134.9013  157.1721 H   0  0  0  0  0  0  0  0  0  0  0  0  # atno 11005 bound_to 11000
  145.1655  139.2433  143.5369 LP  0  0  0  0  0  0  0  0  0  0  0  0  # atno 17320 bound_to 7965
  146.3508  140.1393  142.8595 LP  0  0  0  0  0  0  0  0  0  0  0  0  # atno 17321 bound_to 7965
  140.3531  144.3065  150.5946 LP  0  0  0  0  0  0  0  0  0  0  0  0  # atno 17342 bound_to 10162
  140.5468  143.2213  151.7994 LP  0  0  0  0  0  0  0  0  0  0  0  0  # atno 17343 bound_to 10162
  156.4335  130.3977  149.6744 LP  0  0  0  0  0  0  0  0  0  0  0  0  # atno 17370 bound_to 10713
  156.3953  130.7648  151.2652 LP  0  0  0  0  0  0  0  0  0  0  0  0  # atno 17371 bound_to 10713
  140.3288  134.2833  155.7232 LP  0  0  0  0  0  0  0  0  0  0  0  0  # atno 17394 bound_to 11000
  141.2091  133.7757  157.0015 LP  0  0  0  0  0  0  0  0  0  0  0  0  # atno 17395 bound_to 11000

$$$$
