AV-unprocessed.smi:3123|AV-procd|sdf|11900|dock4
  -GOLD-   2272017283D 1   1.00000     0.00000
 Structure written by MMmdl.
 30 31  0  0  0  0  0  0  0  0  2 V2000
  145.4481  138.6895  152.3108 N   0  3  0  0  0  0  0  0  0  0  0  0
  146.8243  139.0526  151.9369 C   0  0  0  0  0  0  0  0  0  0  0  0
  147.4749  139.8775  153.0278 C   0  0  0  0  0  0  0  0  0  0  0  0
  147.0041  141.1719  153.3263 C   0  0  0  0  0  0  0  0  0  0  0  0
  147.6476  141.8999  154.3460 C   0  0  0  0  0  0  0  0  0  0  0  0
  148.6942  141.4197  155.0503 N   0  0  0  0  0  0  0  0  0  0  0  0
  149.1459  140.1750  154.7638 C   0  0  0  0  0  0  0  0  0  0  0  0
  150.2299  139.6729  155.4971 N   0  0  0  0  0  0  0  0  0  0  0  0
  151.2553  139.0526  154.6672 C   0  0  0  0  0  0  0  0  0  0  0  0
  152.3406  138.4203  155.5562 C   0  0  0  0  0  0  0  0  0  0  0  0
  152.8765  139.4078  156.4327 O   0  0  0  0  0  0  0  0  0  0  0  0
  151.8816  139.9588  157.2912 C   0  0  0  0  0  0  0  0  0  0  0  0
  150.7854  140.6306  156.4460 C   0  0  0  0  0  0  0  0  0  0  0  0
  148.5681  139.3698  153.7593 C   0  0  0  0  0  0  0  0  0  0  0  0
  144.9682  138.3079  151.5082 H   0  0  0  0  0  0  0  0  0  0  0  0
  144.9615  139.5123  152.6366 H   0  0  0  0  0  0  0  0  0  0  0  0
  147.4033  138.1456  151.7605 H   0  0  0  0  0  0  0  0  0  0  0  0
  146.8094  139.6134  151.0018 H   0  0  0  0  0  0  0  0  0  0  0  0
  146.1697  141.6006  152.7909 H   0  0  0  0  0  0  0  0  0  0  0  0
  147.3134  142.8945  154.6021 H   0  0  0  0  0  0  0  0  0  0  0  0
  150.8041  138.2922  154.0285 H   0  0  0  0  0  0  0  0  0  0  0  0
  151.7038  139.8011  154.0122 H   0  0  0  0  0  0  0  0  0  0  0  0
  151.9345  137.5883  156.1336 H   0  0  0  0  0  0  0  0  0  0  0  0
  153.1444  138.0181  154.9395 H   0  0  0  0  0  0  0  0  0  0  0  0
  151.4602  139.1774  157.9257 H   0  0  0  0  0  0  0  0  0  0  0  0
  152.3473  140.6896  157.9524 H   0  0  0  0  0  0  0  0  0  0  0  0
  151.2041  141.4836  155.9098 H   0  0  0  0  0  0  0  0  0  0  0  0
  149.9941  141.0117  157.0928 H   0  0  0  0  0  0  0  0  0  0  0  0
  148.9564  138.3815  153.5581 H   0  0  0  0  0  0  0  0  0  0  0  0
  145.4726  138.0007  153.0490 H   0  0  0  0  0  0  0  0  0  0  0  0
  1  2  1  0  0  0  0
  1 15  1  0  0  0  0
  1 16  1  0  0  0  0
  1 30  1  0  0  0  0
  2  3  1  0  0  0  0
  2 17  1  0  0  0  0
  2 18  1  0  0  0  0
  3 14  1  0  0  0  0
  3  4  2  0  0  0  0
  4  5  1  0  0  0  0
  4 19  1  0  0  0  0
  5  6  2  0  0  0  0
  5 20  1  0  0  0  0
  6  7  1  0  0  0  0
  7  8  1  0  0  0  0
  7 14  2  0  0  0  0
  8 13  1  0  0  0  0
  8  9  1  0  0  0  0
  9 10  1  0  0  0  0
  9 21  1  0  0  0  0
  9 22  1  0  0  0  0
 10 11  1  0  0  0  0
 10 23  1  0  0  0  0
 10 24  1  0  0  0  0
 11 12  1  0  0  0  0
 12 13  1  0  0  0  0
 12 25  1  0  0  0  0
 12 26  1  0  0  0  0
 13 27  1  0  0  0  0
 13 28  1  0  0  0  0
 14 29  1  0  0  0  0
M  CHG  1   1   1
M  END
> <s_m_source_file>
AV-unprocessed.smi

> <i_m_source_file_index>
3123

> <i_lp_mmshare_version>
43012

> <i_f3d_flags>
0

> <s_epik_input>
W05IMl1bQ0gyXWMxW2NIXVtjSF1uYyhbY0hdMSlOMltDSDJdW0NIMl1PW0NIMl1bQ0gyXTI=

> <s_epik_cmdline>
J2VwaWtfcHl0aG9uJywgJy1waCcsICc3LjAnLCAnLXRuJywgJzgnLCAnLW1hJywgJzIwMCcsICctbWV0YWxfYmluZGluZycsICctaW1hZScsICc8aW5maWxlLm1hZT4nLCAnLW9tYWUnLCAnPG91dGZpbGUubWFlPic=

> <r_lp_tautomer_probability>
1

> <r_epik_Ionization_Penalty>
0.0770075

> <r_epik_Ionization_Penalty_Charging>
0.0770037

> <r_epik_Ionization_Penalty_Neutral>
3.77435e-06

> <r_epik_State_Penalty>
0.00932976

> <r_epik_Charging_Adjusted_Penalty>
0.0863335

> <i_epik_Tot_Q>
1

> <i_epik_Tot_abs_Q>
1

> <r_epik_Metal_State_Penalty>
0.00963217

> <b_epik_Metal_Only>
0

> <s_lp_Force_Field>
OPLS_2005

> <r_lp_Energy>
15.1833

> <b_lp_Chiralities_Consistent>
1

> <s_lp_Variant>
AV-unprocessed.smi:3123-1

> <Gold.Version>
5.8.1

> <Gold.Id.Protein>
6NUR|6NUR_protein|mol2

> <Gold.PLP.Fitness>
40.1650

> <Gold.PLP.PLP>
-26.5701

> <Gold.PLP.part.hbond>
-2.8508

> <Gold.PLP.part.metal>
0.0000

> <Gold.PLP.part.buried>
2.6817

> <Gold.PLP.part.nonpolar>
-25.7565

> <Gold.PLP.part.repulsive>
0.1811

> <Gold.PLP.ligand.clash>
0.0000

> <Gold.PLP.ligand.torsion>
0.2152

> <Gold.PLP.Chemscore.Hbond>
3.8160

> <Gold.PLP.Chemscore.CHOScore>
0.8250

> <Gold.PLP.Chemscore.Metal>
0.0000

> <Gold.Chemscore.Hbonds>
donor molecule, donor type, donor heavy atom, donor atom, acceptor molecule, acceptor atom, score
      L1  H     1    15       P1 10171  0.97
      L1  H     1    16       P1 10175  1.82
      P1  H  7997  8010       L1    11  1.00
      L1  C     5    20       P1  8028  0.77

> <Gold.PLP.Chemscore.Internal.Correction>
0.1022

> <Gold.Rescore>
     Score         DG    S(hbond)    S(metal)    S(lipo)     H(rot)  DE(clash)    DE(int)     intcor
     18.23     -18.90       2.80        0.00      63.48       1.32       0.55       0.12       ----

> <Gold.Chemscore.Fitness>
18.2277

> <Gold.Chemscore.DG>
-18.8950

> <Gold.Chemscore.ZeroCoef>
-5.4800

> <Gold.Chemscore.Hbond>
2.8013

> <Gold.Chemscore.Metal>
0.0000

> <Gold.Chemscore.Lipo>
63.4797

> <Gold.Chemscore.Internal_Hbond>
0.0000

> <Gold.Chemscore.DEClash>
0.5452

> <Gold.Chemscore.DEInternal>
0.1221

> <Gold.Chemscore.Rot>
1.3158

> <Gold.Chemscore.Internal.Correction>
   9.000000E+99

> <Gold.Chemscore.Hbonds>
donor molecule, donor type, donor heavy atom, donor atom, acceptor molecule, acceptor atom, score
      L1  H     1    15       P1 10171  0.86
      L1  H     1    16       P1 10175  0.88
      P1  H  7997  8010       L1    11  0.92

> <Gold.Chemscore.Hbond.Weighted>
-9.3564

> <Gold.Chemscore.Metal.Weighted>
-0.0000

> <Gold.Chemscore.Lipo.Weighted>
-7.4271

> <Gold.Chemscore.Internal_Hbond.Weighted>
0.0000

> <Gold.Chemscore.DEClash.Weighted>
0.5452

> <Gold.Chemscore.DEInternal.Weighted>
0.1221

> <Gold.Chemscore.Rot.Weighted>
3.3684

> <Gold.Chemscore.Internal.Correction.Weighted>
   9.000000E+99

> <Gold.Protein.RotatedTorsions>
[ 6907 6896 6895 6894 ] final   77.62 input  -60.11 | X-H torsion
[ 7974 7965 7964 7962 ] final    9.99 input  175.53 | X-H torsion
[ 8008 7997 7996 7995 ] final   65.78 input   59.86 | X-H torsion
[ 10167 10162 10161 10158 ] final   40.20 input  -65.29 | X-H torsion
[ 10718 10713 10712 10709 ] final  -32.01 input   66.30 | X-H torsion
[ 10763 10752 10751 10750 ] final   81.41 input  -60.55 | X-H torsion
[ 11005 11000 10999 10996 ] final  -54.29 input  -57.11 | X-H torsion

> <Gold.Protein.ActiveResidues>
 VAL166  LYS551  ARG553  GLY616  TRP617  ASP618  TYR619  PRO620  LYS621  CYS622 
 ASP623  PHE694  ASN695  SER759  ASP760  ASP761  ALA762  ILE779  LEU786  VAL792 
 PHE793  MET794  SER795  GLU796  ALA797  LYS798  CYS799  TRP800  GLU811  SER814 

> <Gold.Protein.RotatedAtoms>
  152.5125  134.3789  159.9343 H   0  0  0  0  0  0  0  0  0  0  0  0  # atno 6907 bound_to 6896
  151.3745  133.3837  159.2711 H   0  0  0  0  0  0  0  0  0  0  0  0  # atno 6908 bound_to 6896
  150.9552  134.8967  159.7755 H   0  0  0  0  0  0  0  0  0  0  0  0  # atno 6909 bound_to 6896
  146.2395  139.9701  142.8448 H   0  0  0  0  0  0  0  0  0  0  0  0  # atno 7974 bound_to 7965
  155.6671  140.3497  155.4804 H   0  0  0  0  0  0  0  0  0  0  0  0  # atno 8008 bound_to 7997
  155.9719  140.1157  157.0827 H   0  0  0  0  0  0  0  0  0  0  0  0  # atno 8009 bound_to 7997
  154.4168  140.1155  156.5305 H   0  0  0  0  0  0  0  0  0  0  0  0  # atno 8010 bound_to 7997
  140.3765  144.2036  150.6131 H   0  0  0  0  0  0  0  0  0  0  0  0  # atno 10167 bound_to 10162
  156.3802  130.4354  149.7475 H   0  0  0  0  0  0  0  0  0  0  0  0  # atno 10718 bound_to 10713
  153.1115  135.4766  154.9043 H   0  0  0  0  0  0  0  0  0  0  0  0  # atno 10763 bound_to 10752
  154.7485  135.3100  154.8603 H   0  0  0  0  0  0  0  0  0  0  0  0  # atno 10764 bound_to 10752
  153.9191  135.6857  153.4802 H   0  0  0  0  0  0  0  0  0  0  0  0  # atno 10765 bound_to 10752
  141.1018  133.6617  156.4299 H   0  0  0  0  0  0  0  0  0  0  0  0  # atno 11005 bound_to 11000
  145.1689  140.9711  143.4333 LP  0  0  0  0  0  0  0  0  0  0  0  0  # atno 17320 bound_to 7965
  145.0047  139.3566  143.6150 LP  0  0  0  0  0  0  0  0  0  0  0  0  # atno 17321 bound_to 7965
  140.4981  143.2326  151.8720 LP  0  0  0  0  0  0  0  0  0  0  0  0  # atno 17342 bound_to 10162
  139.4799  144.5091  151.8957 LP  0  0  0  0  0  0  0  0  0  0  0  0  # atno 17343 bound_to 10162
  156.4569  130.7933  151.2954 LP  0  0  0  0  0  0  0  0  0  0  0  0  # atno 17370 bound_to 10713
  157.7491  131.0078  150.3204 LP  0  0  0  0  0  0  0  0  0  0  0  0  # atno 17371 bound_to 10713
  140.5001  134.6493  157.5245 LP  0  0  0  0  0  0  0  0  0  0  0  0  # atno 17394 bound_to 11000
  139.9873  134.7041  155.9751 LP  0  0  0  0  0  0  0  0  0  0  0  0  # atno 17395 bound_to 11000

$$$$
