AV-unprocessed.smi:2688|AV-procd|sdf|10386|dock5
  -GOLD-   2272014413D 1   1.00000     0.00000
 Structure written by MMmdl.
 51 54  0  0  0  0  0  0  0  0  1 V2000
  151.0350  133.6125  156.4329 C   0  0  0  0  0  0  0  0  0  0  0  0
  150.3836  134.8603  155.9151 C   0  0  0  0  0  0  0  0  0  0  0  0
  148.9477  135.0644  155.9322 C   0  0  0  0  0  0  0  0  0  0  0  0
  148.4377  136.2188  155.4520 C   0  0  0  0  0  0  0  0  0  0  0  0
  149.2957  137.2728  154.9149 C   0  0  0  0  0  0  0  0  0  0  0  0
  148.8625  138.3377  154.4750 O   0  0  0  0  0  0  0  0  0  0  0  0
  150.6274  136.9684  154.9490 N   0  0  0  0  0  0  0  0  0  0  0  0
  151.6373  137.9219  154.4677 C   0  0  0  0  0  0  0  0  0  0  0  0
  151.6786  139.2169  155.2913 C   0  0  0  0  0  0  0  0  0  0  0  0
  152.6693  139.4988  155.9672 O   0  0  0  0  0  0  0  0  0  0  0  0
  150.5956  140.0056  155.2131 N   0  0  0  0  0  0  0  0  0  0  0  0
  150.4283  141.2623  155.9338 C   0  0  0  0  0  0  0  0  0  0  0  0
  150.6596  141.0696  157.4474 C   0  0  0  0  0  0  0  0  0  0  0  0
  151.0963  142.3262  158.2421 C   0  0  0  0  0  0  0  0  0  0  0  0
  149.8704  143.1283  158.7585 C   0  0  0  0  0  0  0  0  0  0  0  0
  150.3324  144.4049  159.4936 C   0  0  1  0  0  0  0  0  0  0  0  0
  151.2210  144.0158  160.6942 C   0  0  0  0  0  0  0  0  0  0  0  0
  152.4567  143.2434  160.1850 C   0  0  2  0  0  0  0  0  0  0  0  0
  153.2621  144.1370  159.2196 C   0  0  0  0  0  0  0  0  0  0  0  0
  152.3675  144.5241  158.0243 C   0  0  2  0  0  0  0  0  0  0  0  0
  151.1328  145.3003  158.5261 C   0  0  0  0  0  0  0  0  0  0  0  0
  151.9085  143.2467  157.2911 C   0  0  0  0  0  0  0  0  0  0  0  0
  152.0007  141.9627  159.4511 C   0  0  0  0  0  0  0  0  0  0  0  0
  151.1525  135.7831  155.4373 N   0  0  0  0  0  0  0  0  0  0  0  0
  150.2942  132.9131  156.8211 H   0  0  0  0  0  0  0  0  0  0  0  0
  151.7303  133.8441  157.2405 H   0  0  0  0  0  0  0  0  0  0  0  0
  151.5900  133.1071  155.6421 H   0  0  0  0  0  0  0  0  0  0  0  0
  148.3002  134.2953  156.3272 H   0  0  0  0  0  0  0  0  0  0  0  0
  147.3681  136.3700  155.4659 H   0  0  0  0  0  0  0  0  0  0  0  0
  152.6304  137.4700  154.4995 H   0  0  0  0  0  0  0  0  0  0  0  0
  151.4559  138.1564  153.4169 H   0  0  0  0  0  0  0  0  0  0  0  0
  149.8277  139.7054  154.6303 H   0  0  0  0  0  0  0  0  0  0  0  0
  151.1048  142.0086  155.5170 H   0  0  0  0  0  0  0  0  0  0  0  0
  149.4161  141.6182  155.7447 H   0  0  0  0  0  0  0  0  0  0  0  0
  149.7421  140.6732  157.8849 H   0  0  0  0  0  0  0  0  0  0  0  0
  151.4118  140.2927  157.5934 H   0  0  0  0  0  0  0  0  0  0  0  0
  149.2133  143.3929  157.9287 H   0  0  0  0  0  0  0  0  0  0  0  0
  149.2718  142.5265  159.4419 H   0  0  0  0  0  0  0  0  0  0  0  0
  149.4592  144.9512  159.8519 H   0  0  0  0  0  0  0  0  0  0  0  0
  151.5310  144.9083  161.2392 H   0  0  0  0  0  0  0  0  0  0  0  0
  150.6569  143.4048  161.3998 H   0  0  0  0  0  0  0  0  0  0  0  0
  153.0862  142.9701  161.0324 H   0  0  0  0  0  0  0  0  0  0  0  0
  153.6132  145.0320  159.7349 H   0  0  0  0  0  0  0  0  0  0  0  0
  154.1527  143.6120  158.8716 H   0  0  0  0  0  0  0  0  0  0  0  0
  152.9346  145.1524  157.3366 H   0  0  0  0  0  0  0  0  0  0  0  0
  150.5076  145.6021  157.6848 H   0  0  0  0  0  0  0  0  0  0  0  0
  151.4406  146.2187  159.0274 H   0  0  0  0  0  0  0  0  0  0  0  0
  152.7783  142.7153  156.9020 H   0  0  0  0  0  0  0  0  0  0  0  0
  151.3065  143.5184  156.4228 H   0  0  0  0  0  0  0  0  0  0  0  0
  151.4673  141.3222  160.1535 H   0  0  0  0  0  0  0  0  0  0  0  0
  152.8702  141.3950  159.1173 H   0  0  0  0  0  0  0  0  0  0  0  0
  1  2  1  0  0  0  0
  1 25  1  0  0  0  0
  1 26  1  0  0  0  0
  1 27  1  0  0  0  0
  2 24  2  0  0  0  0
  2  3  1  0  0  0  0
  3  4  2  0  0  0  0
  3 28  1  0  0  0  0
  4  5  1  0  0  0  0
  4 29  1  0  0  0  0
  5  6  2  0  0  0  0
  5  7  1  0  0  0  0
  7  8  1  0  0  0  0
  7 24  1  0  0  0  0
  8  9  1  0  0  0  0
  8 30  1  0  0  0  0
  8 31  1  0  0  0  0
  9 10  2  0  0  0  0
  9 11  1  0  0  0  0
 11 12  1  0  0  0  0
 11 32  1  0  0  0  0
 12 13  1  0  0  0  0
 12 33  1  0  0  0  0
 12 34  1  0  0  0  0
 13 14  1  0  0  0  0
 13 35  1  0  0  0  0
 13 36  1  0  0  0  0
 14 22  1  0  0  0  0
 14 23  1  0  0  0  0
 14 15  1  0  0  0  0
 15 16  1  0  0  0  0
 15 37  1  0  0  0  0
 15 38  1  0  0  0  0
 16 21  1  0  0  0  0
 16 17  1  0  0  0  0
 16 39  1  0  0  0  0
 17 18  1  0  0  0  0
 17 40  1  0  0  0  0
 17 41  1  0  0  0  0
 18 19  1  0  0  0  0
 18 23  1  0  0  0  0
 18 42  1  0  0  0  0
 19 20  1  0  0  0  0
 19 43  1  0  0  0  0
 19 44  1  0  0  0  0
 20 21  1  0  0  0  0
 20 22  1  0  0  0  0
 20 45  1  0  0  0  0
 21 46  1  0  0  0  0
 21 47  1  0  0  0  0
 22 48  1  0  0  0  0
 22 49  1  0  0  0  0
 23 50  1  0  0  0  0
 23 51  1  0  0  0  0
M  END
> <s_m_source_file>
AV-unprocessed.smi

> <i_m_source_file_index>
2688

> <i_lp_mmshare_version>
43012

> <i_f3d_flags>
0

> <s_epik_input>
W0NIM11jMVtjSF1bY0hdYyg9TyluKG4xKVtDSDJdQyg9TylbTkhdW0NIMl1bQ0gyXUMyM1tDSDJdW0NASF00W0NIMl1bQ0BASF0oW0NIMl0zKVtDSDJdW0NASF0oW0NIMl00KVtDSDJdMg==

> <s_epik_cmdline>
J2VwaWtfcHl0aG9uJywgJy1waCcsICc3LjAnLCAnLXRuJywgJzgnLCAnLW1hJywgJzIwMCcsICctbWV0YWxfYmluZGluZycsICctaW1hZScsICc8aW5maWxlLm1hZT4nLCAnLW9tYWUnLCAnPG91dGZpbGUubWFlPic=

> <r_lp_tautomer_probability>
1

> <r_epik_Ionization_Penalty>
8.74812e-07

> <r_epik_Ionization_Penalty_Charging>
8.53005e-07

> <r_epik_Ionization_Penalty_Neutral>
2.18061e-08

> <r_epik_State_Penalty>
-0

> <r_epik_Charging_Adjusted_Penalty>
8.53005e-07

> <i_epik_Tot_Q>
0

> <i_epik_Tot_abs_Q>
0

> <r_epik_Metal_State_Penalty>
-0

> <b_epik_Metal_Only>
0

> <s_lp_Force_Field>
OPLS_2005

> <r_lp_Energy>
47.4944

> <b_lp_Chiralities_Consistent>
1

> <s_lp_Variant>
AV-unprocessed.smi:2688-1

> <Gold.Version>
5.8.1

> <Gold.Id.Protein>
6NUR|6NUR_protein|mol2

> <Gold.PLP.Fitness>
47.4645

> <Gold.PLP.PLP>
-42.9717

> <Gold.PLP.part.hbond>
-2.0000

> <Gold.PLP.part.metal>
0.0000

> <Gold.PLP.part.buried>
-7.3189

> <Gold.PLP.part.nonpolar>
-33.7934

> <Gold.PLP.part.repulsive>
0.4039

> <Gold.PLP.ligand.clash>
0.0000

> <Gold.PLP.ligand.torsion>
0.7672

> <Gold.PLP.Chemscore.Hbond>
2.0000

> <Gold.PLP.Chemscore.CHOScore>
0.0000

> <Gold.PLP.Chemscore.Metal>
0.0000

> <Gold.Chemscore.Hbonds>
donor molecule, donor type, donor heavy atom, donor atom, acceptor molecule, acceptor atom, score
      P1  H  7997  8009       L1    10  1.00
      P1  H 10752 10765       L1    24  1.00

> <Gold.PLP.Chemscore.Internal.Correction>
0.0272

> <Gold.Rescore>
     Score         DG    S(hbond)    S(metal)    S(lipo)     H(rot)  DE(clash)    DE(int)     intcor
     20.79     -23.12       1.84        0.00     136.08       1.73       0.49       1.84       ----

> <Gold.Chemscore.Fitness>
20.7864

> <Gold.Chemscore.DG>
-23.1248

> <Gold.Chemscore.ZeroCoef>
-5.4800

> <Gold.Chemscore.Hbond>
1.8444

> <Gold.Chemscore.Metal>
0.0000

> <Gold.Chemscore.Lipo>
136.0803

> <Gold.Chemscore.Internal_Hbond>
0.0000

> <Gold.Chemscore.DEClash>
0.4935

> <Gold.Chemscore.DEInternal>
1.8450

> <Gold.Chemscore.Rot>
1.7331

> <Gold.Chemscore.Internal.Correction>
   9.000000E+99

> <Gold.Chemscore.Hbonds>
donor molecule, donor type, donor heavy atom, donor atom, acceptor molecule, acceptor atom, score
      P1  H  7997  8009       L1    10  1.00
      P1  H 10752 10765       L1    24  0.41

> <Gold.Chemscore.Hbond.Weighted>
-6.1602

> <Gold.Chemscore.Metal.Weighted>
-0.0000

> <Gold.Chemscore.Lipo.Weighted>
-15.9214

> <Gold.Chemscore.Internal_Hbond.Weighted>
0.0000

> <Gold.Chemscore.DEClash.Weighted>
0.4935

> <Gold.Chemscore.DEInternal.Weighted>
1.8450

> <Gold.Chemscore.Rot.Weighted>
4.4367

> <Gold.Chemscore.Internal.Correction.Weighted>
   9.000000E+99

> <Gold.Protein.RotatedTorsions>
[ 6907 6896 6895 6894 ] final -111.32 input  -60.11 | X-H torsion
[ 7974 7965 7964 7962 ] final   60.36 input  175.53 | X-H torsion
[ 8008 7997 7996 7995 ] final -150.30 input   59.86 | X-H torsion
[ 10167 10162 10161 10158 ] final  100.20 input  -65.29 | X-H torsion
[ 10718 10713 10712 10709 ] final  -40.24 input   66.30 | X-H torsion
[ 10763 10752 10751 10750 ] final  172.38 input  -60.55 | X-H torsion
[ 11005 11000 10999 10996 ] final  -48.68 input  -57.11 | X-H torsion

> <Gold.Protein.ActiveResidues>
 VAL166  LYS551  ARG553  GLY616  TRP617  ASP618  TYR619  PRO620  LYS621  CYS622 
 ASP623  PHE694  ASN695  SER759  ASP760  ASP761  ALA762  ILE779  LEU786  VAL792 
 PHE793  MET794  SER795  GLU796  ALA797  LYS798  CYS799  TRP800  GLU811  SER814 

> <Gold.Protein.RotatedAtoms>
  150.7682  133.9253  159.3410 H   0  0  0  0  0  0  0  0  0  0  0  0  # atno 6907 bound_to 6896
  151.7145  135.0904  160.0283 H   0  0  0  0  0  0  0  0  0  0  0  0  # atno 6908 bound_to 6896
  152.3688  133.6354  159.6107 H   0  0  0  0  0  0  0  0  0  0  0  0  # atno 6909 bound_to 6896
  145.8969  139.3552  143.0616 H   0  0  0  0  0  0  0  0  0  0  0  0  # atno 7974 bound_to 7965
  155.6213  140.0682  157.2677 H   0  0  0  0  0  0  0  0  0  0  0  0  # atno 8008 bound_to 7997
  154.4228  140.1784  156.1424 H   0  0  0  0  0  0  0  0  0  0  0  0  # atno 8009 bound_to 7997
  156.0007  140.3336  155.6846 H   0  0  0  0  0  0  0  0  0  0  0  0  # atno 8010 bound_to 7997
  139.7549  144.6973  151.0378 H   0  0  0  0  0  0  0  0  0  0  0  0  # atno 10167 bound_to 10162
  156.2835  130.4220  149.8312 H   0  0  0  0  0  0  0  0  0  0  0  0  # atno 10718 bound_to 10713
  154.4253  135.2758  155.1948 H   0  0  0  0  0  0  0  0  0  0  0  0  # atno 10763 bound_to 10752
  154.3877  135.6073  153.5829 H   0  0  0  0  0  0  0  0  0  0  0  0  # atno 10764 bound_to 10752
  152.9834  135.5896  154.4555 H   0  0  0  0  0  0  0  0  0  0  0  0  # atno 10765 bound_to 10752
  141.0715  133.6678  156.3476 H   0  0  0  0  0  0  0  0  0  0  0  0  # atno 11005 bound_to 11000
  145.8839  140.9345  143.0587 LP  0  0  0  0  0  0  0  0  0  0  0  0  # atno 17320 bound_to 7965
  144.6733  140.0816  143.7469 LP  0  0  0  0  0  0  0  0  0  0  0  0  # atno 17321 bound_to 7965
  140.7801  143.4765  151.0075 LP  0  0  0  0  0  0  0  0  0  0  0  0  # atno 17342 bound_to 10162
  139.8452  143.7511  152.3179 LP  0  0  0  0  0  0  0  0  0  0  0  0  # atno 17343 bound_to 10162
  156.5751  130.8441  151.3367 LP  0  0  0  0  0  0  0  0  0  0  0  0  # atno 17370 bound_to 10713
  157.7321  130.9711  150.1914 LP  0  0  0  0  0  0  0  0  0  0  0  0  # atno 17371 bound_to 10713
  140.5663  134.5884  157.5446 LP  0  0  0  0  0  0  0  0  0  0  0  0  # atno 17394 bound_to 11000
  139.9528  134.7587  156.0409 LP  0  0  0  0  0  0  0  0  0  0  0  0  # atno 17395 bound_to 11000

$$$$
