AV-unprocessed.smi:2702|AV-procd|sdf|10437|dock9
  -GOLD-   2272014473D 1   1.00000     0.00000
 Structure written by MMmdl.
 47 48  0  0  0  0  0  0  0  0  1 V2000
  144.3883  136.8673  152.7655 C   0  0  0  0  0  0  0  0  0  0  0  0
  145.4378  137.5736  153.4035 O   0  0  0  0  0  0  0  0  0  0  0  0
  146.4543  137.9695  152.4980 C   0  0  0  0  0  0  0  0  0  0  0  0
  147.3869  138.9716  153.1480 C   0  0  0  0  0  0  0  0  0  0  0  0
  148.6932  138.6969  153.3718 C   0  0  0  0  0  0  0  0  0  0  0  0
  149.5639  139.6828  154.0121 C   0  0  0  0  0  0  0  0  0  0  0  0
  150.7572  139.4717  154.2304 O   0  0  0  0  0  0  0  0  0  0  0  0
  148.9518  140.8555  154.3530 N   0  0  0  0  0  0  0  0  0  0  0  0
  149.6972  141.9433  155.0125 C   0  0  0  0  0  0  0  0  0  0  0  0
  150.2338  141.5594  156.3992 C   0  0  0  0  0  0  0  0  0  0  0  0
  150.2052  140.3901  156.7850 O   0  0  0  0  0  0  0  0  0  0  0  0
  150.7398  142.5640  157.1299 N   0  0  0  0  0  0  0  0  0  0  0  0
  151.2859  142.4408  158.4798 C   0  0  1  0  0  0  0  0  0  0  0  0
  152.1547  141.1694  158.5731 C   0  0  0  0  0  0  0  0  0  0  0  0
  152.8215  141.0318  159.9486 C   0  0  0  0  0  0  0  0  0  0  0  0
  153.6360  142.2870  160.2980 C   0  0  0  0  0  0  0  0  0  0  0  0
  152.7841  143.5710  160.2364 C   0  0  2  0  0  0  0  0  0  0  0  0
  151.8089  143.6636  161.4279 C   0  0  0  0  0  0  0  0  0  0  0  0
  152.1051  143.7054  158.8468 C   0  0  2  0  0  0  0  0  0  0  0  0
  151.2915  145.0086  158.7141 C   0  0  0  0  0  0  0  0  0  0  0  0
  147.5867  141.0908  154.0937 C   0  0  0  0  0  0  0  0  0  0  0  0
  146.8367  140.2005  153.5263 N   0  0  0  0  0  0  0  0  0  0  0  0
  143.6346  136.5882  153.5016 H   0  0  0  0  0  0  0  0  0  0  0  0
  144.7554  135.9533  152.2972 H   0  0  0  0  0  0  0  0  0  0  0  0
  143.9046  137.4812  152.0047 H   0  0  0  0  0  0  0  0  0  0  0  0
  147.0368  137.1016  152.1845 H   0  0  0  0  0  0  0  0  0  0  0  0
  146.0083  138.4018  151.6009 H   0  0  0  0  0  0  0  0  0  0  0  0
  149.1053  137.7424  153.0779 H   0  0  0  0  0  0  0  0  0  0  0  0
  150.5401  142.2784  154.4055 H   0  0  0  0  0  0  0  0  0  0  0  0
  149.0533  142.8200  155.1067 H   0  0  0  0  0  0  0  0  0  0  0  0
  150.7274  143.4909  156.7298 H   0  0  0  0  0  0  0  0  0  0  0  0
  150.4572  142.3523  159.1846 H   0  0  0  0  0  0  0  0  0  0  0  0
  151.5499  140.2843  158.3734 H   0  0  0  0  0  0  0  0  0  0  0  0
  152.9262  141.1943  157.8023 H   0  0  0  0  0  0  0  0  0  0  0  0
  152.0613  140.8537  160.7094 H   0  0  0  0  0  0  0  0  0  0  0  0
  153.4715  140.1566  159.9570 H   0  0  0  0  0  0  0  0  0  0  0  0
  154.0847  142.1771  161.2857 H   0  0  0  0  0  0  0  0  0  0  0  0
  154.4682  142.3754  159.5983 H   0  0  0  0  0  0  0  0  0  0  0  0
  153.4744  144.4090  160.3432 H   0  0  0  0  0  0  0  0  0  0  0  0
  151.0336  142.8993  161.3870 H   0  0  0  0  0  0  0  0  0  0  0  0
  151.3150  144.6344  161.4664 H   0  0  0  0  0  0  0  0  0  0  0  0
  152.3388  143.5418  162.3728 H   0  0  0  0  0  0  0  0  0  0  0  0
  152.9142  143.7805  158.1182 H   0  0  0  0  0  0  0  0  0  0  0  0
  150.3838  144.9790  159.3172 H   0  0  0  0  0  0  0  0  0  0  0  0
  150.9905  145.1894  157.6819 H   0  0  0  0  0  0  0  0  0  0  0  0
  151.8777  145.8709  159.0323 H   0  0  0  0  0  0  0  0  0  0  0  0
  147.2119  142.0689  154.3998 H   0  0  0  0  0  0  0  0  0  0  0  0
  1  2  1  0  0  0  0
  1 23  1  0  0  0  0
  1 24  1  0  0  0  0
  1 25  1  0  0  0  0
  2  3  1  0  0  0  0
  3  4  1  0  0  0  0
  3 26  1  0  0  0  0
  3 27  1  0  0  0  0
  4 22  1  0  0  0  0
  4  5  2  0  0  0  0
  5  6  1  0  0  0  0
  5 28  1  0  0  0  0
  6  7  2  0  0  0  0
  6  8  1  0  0  0  0
  8  9  1  0  0  0  0
  8 21  1  0  0  0  0
  9 10  1  0  0  0  0
  9 29  1  0  0  0  0
  9 30  1  0  0  0  0
 10 11  2  0  0  0  0
 10 12  1  0  0  0  0
 12 13  1  0  0  0  0
 12 31  1  0  0  0  0
 13 19  1  0  0  0  0
 13 14  1  0  0  0  0
 13 32  1  0  0  0  0
 14 15  1  0  0  0  0
 14 33  1  0  0  0  0
 14 34  1  0  0  0  0
 15 16  1  0  0  0  0
 15 35  1  0  0  0  0
 15 36  1  0  0  0  0
 16 17  1  0  0  0  0
 16 37  1  0  0  0  0
 16 38  1  0  0  0  0
 17 18  1  0  0  0  0
 17 19  1  0  0  0  0
 17 39  1  0  0  0  0
 18 40  1  0  0  0  0
 18 41  1  0  0  0  0
 18 42  1  0  0  0  0
 19 20  1  0  0  0  0
 19 43  1  0  0  0  0
 20 44  1  0  0  0  0
 20 45  1  0  0  0  0
 20 46  1  0  0  0  0
 21 22  2  0  0  0  0
 21 47  1  0  0  0  0
M  END
> <s_m_source_file>
AV-unprocessed.smi

> <i_m_source_file_index>
2702

> <i_lp_mmshare_version>
43012

> <i_f3d_flags>
0

> <s_epik_input>
W0NIM11PW0NIMl1jMVtjSF1jKD1PKW4oW2NIXW4xKVtDSDJdQyg9TylbTkhdW0NAQEhdMltDSDJdW0NIMl1bQ0gyXVtDQEBIXShbQ0gzXSlbQ0BIXTJbQ0gzXQ==

> <s_epik_cmdline>
J2VwaWtfcHl0aG9uJywgJy1waCcsICc3LjAnLCAnLXRuJywgJzgnLCAnLW1hJywgJzIwMCcsICctbWV0YWxfYmluZGluZycsICctaW1hZScsICc8aW5maWxlLm1hZT4nLCAnLW9tYWUnLCAnPG91dGZpbGUubWFlPic=

> <r_lp_tautomer_probability>
1

> <r_epik_Ionization_Penalty>
1.22164e-06

> <r_epik_Ionization_Penalty_Charging>
3.17988e-07

> <r_epik_Ionization_Penalty_Neutral>
9.03656e-07

> <r_epik_State_Penalty>
-0

> <r_epik_Charging_Adjusted_Penalty>
3.17988e-07

> <i_epik_Tot_Q>
0

> <i_epik_Tot_abs_Q>
0

> <r_epik_Metal_State_Penalty>
-0

> <b_epik_Metal_Only>
0

> <s_lp_Force_Field>
OPLS_2005

> <r_lp_Energy>
19.2685

> <b_lp_Chiralities_Consistent>
1

> <s_lp_Variant>
AV-unprocessed.smi:2702-8

> <Gold.Version>
5.8.1

> <Gold.Id.Protein>
6NUR|6NUR_protein|mol2

> <Gold.PLP.Fitness>
44.6546

> <Gold.PLP.PLP>
-42.4164

> <Gold.PLP.part.hbond>
-1.1817

> <Gold.PLP.part.metal>
0.0000

> <Gold.PLP.part.buried>
2.1449

> <Gold.PLP.part.nonpolar>
-43.6118

> <Gold.PLP.part.repulsive>
0.5322

> <Gold.PLP.ligand.clash>
0.0000

> <Gold.PLP.ligand.torsion>
0.3797

> <Gold.PLP.Chemscore.Hbond>
0.9913

> <Gold.PLP.Chemscore.CHOScore>
0.0000

> <Gold.PLP.Chemscore.Metal>
0.0000

> <Gold.Chemscore.Hbonds>
donor molecule, donor type, donor heavy atom, donor atom, acceptor molecule, acceptor atom, score
      P1  H  7989  7998       L1     7  1.00

> <Gold.PLP.Chemscore.Internal.Correction>
0.0238

> <Gold.Rescore>
     Score         DG    S(hbond)    S(metal)    S(lipo)     H(rot)  DE(clash)    DE(int)     intcor
     15.22     -18.78       1.60        0.00     110.34       1.93       0.73       2.83       ----

> <Gold.Chemscore.Fitness>
15.2207

> <Gold.Chemscore.DG>
-18.7806

> <Gold.Chemscore.ZeroCoef>
-5.4800

> <Gold.Chemscore.Hbond>
1.5951

> <Gold.Chemscore.Metal>
0.0000

> <Gold.Chemscore.Lipo>
110.3409

> <Gold.Chemscore.Internal_Hbond>
0.0000

> <Gold.Chemscore.DEClash>
0.7327

> <Gold.Chemscore.DEInternal>
2.8272

> <Gold.Chemscore.Rot>
1.9284

> <Gold.Chemscore.Internal.Correction>
   9.000000E+99

> <Gold.Chemscore.Hbonds>
donor molecule, donor type, donor heavy atom, donor atom, acceptor molecule, acceptor atom, score
      L1  H    12    31       P1  8028  0.03
      P1  H  7989  7998       L1     7  0.50

> <Gold.Chemscore.Hbond.Weighted>
-5.3275

> <Gold.Chemscore.Metal.Weighted>
-0.0000

> <Gold.Chemscore.Lipo.Weighted>
-12.9099

> <Gold.Chemscore.Internal_Hbond.Weighted>
0.0000

> <Gold.Chemscore.DEClash.Weighted>
0.7327

> <Gold.Chemscore.DEInternal.Weighted>
2.8272

> <Gold.Chemscore.Rot.Weighted>
4.9368

> <Gold.Chemscore.Internal.Correction.Weighted>
   9.000000E+99

> <Gold.Protein.RotatedTorsions>
[ 6907 6896 6895 6894 ] final  -23.56 input  -60.11 | X-H torsion
[ 7974 7965 7964 7962 ] final   63.47 input  175.53 | X-H torsion
[ 8008 7997 7996 7995 ] final   66.08 input   59.86 | X-H torsion
[ 10167 10162 10161 10158 ] final  101.96 input  -65.29 | X-H torsion
[ 10718 10713 10712 10709 ] final   58.79 input   66.30 | X-H torsion
[ 10763 10752 10751 10750 ] final  100.75 input  -60.55 | X-H torsion
[ 11005 11000 10999 10996 ] final   74.28 input  -57.11 | X-H torsion

> <Gold.Protein.ActiveResidues>
 VAL166  LYS551  ARG553  GLY616  TRP617  ASP618  TYR619  PRO620  LYS621  CYS622 
 ASP623  PHE694  ASN695  SER759  ASP760  ASP761  ALA762  ILE779  LEU786  VAL792 
 PHE793  MET794  SER795  GLU796  ALA797  LYS798  CYS799  TRP800  GLU811  SER814 

> <Gold.Protein.RotatedAtoms>
  151.2022  135.0447  159.8876 H   0  0  0  0  0  0  0  0  0  0  0  0  # atno 6907 bound_to 6896
  152.5432  134.0837  159.8257 H   0  0  0  0  0  0  0  0  0  0  0  0  # atno 6908 bound_to 6896
  151.0980  133.5218  159.2643 H   0  0  0  0  0  0  0  0  0  0  0  0  # atno 6909 bound_to 6896
  145.8615  139.3318  143.0816 H   0  0  0  0  0  0  0  0  0  0  0  0  # atno 7974 bound_to 7965
  155.6718  140.3497  155.4821 H   0  0  0  0  0  0  0  0  0  0  0  0  # atno 8008 bound_to 7997
  155.9681  140.1150  157.0859 H   0  0  0  0  0  0  0  0  0  0  0  0  # atno 8009 bound_to 7997
  154.4159  140.1162  156.5256 H   0  0  0  0  0  0  0  0  0  0  0  0  # atno 8010 bound_to 7997
  139.7392  144.7016  151.0602 H   0  0  0  0  0  0  0  0  0  0  0  0  # atno 10167 bound_to 10162
  157.5624  130.8846  149.9133 H   0  0  0  0  0  0  0  0  0  0  0  0  # atno 10718 bound_to 10713
  153.3180  135.4068  155.1392 H   0  0  0  0  0  0  0  0  0  0  0  0  # atno 10763 bound_to 10752
  154.8593  135.3580  154.5635 H   0  0  0  0  0  0  0  0  0  0  0  0  # atno 10764 bound_to 10752
  153.6067  135.7069  153.5422 H   0  0  0  0  0  0  0  0  0  0  0  0  # atno 10765 bound_to 10752
  139.9398  134.7419  156.1129 H   0  0  0  0  0  0  0  0  0  0  0  0  # atno 11005 bound_to 11000
  145.9243  140.9094  143.0389 LP  0  0  0  0  0  0  0  0  0  0  0  0  # atno 17320 bound_to 7965
  144.6726  140.1331  143.7442 LP  0  0  0  0  0  0  0  0  0  0  0  0  # atno 17321 bound_to 7965
  140.7783  143.4946  150.9849 LP  0  0  0  0  0  0  0  0  0  0  0  0  # atno 17342 bound_to 10162
  139.8634  143.7285  152.3172 LP  0  0  0  0  0  0  0  0  0  0  0  0  # atno 17343 bound_to 10162
  156.0676  130.3690  150.0845 LP  0  0  0  0  0  0  0  0  0  0  0  0  # atno 17370 bound_to 10713
  156.9008  130.9619  151.3576 LP  0  0  0  0  0  0  0  0  0  0  0  0  # atno 17371 bound_to 10713
  141.1028  133.6671  156.2794 LP  0  0  0  0  0  0  0  0  0  0  0  0  # atno 17394 bound_to 11000
  140.5980  134.5584  157.5512 LP  0  0  0  0  0  0  0  0  0  0  0  0  # atno 17395 bound_to 11000

$$$$
