AV-unprocessed.smi:3029|AV-procd|sdf|11528|dock1
  -GOLD-   2272016473D 1   1.00000     0.00000
 Structure written by MMmdl.
 42 43  0  0  0  0  0  0  0  0  4 V2000
  148.5775  141.4621  153.4871 O   0  0  0  0  0  0  0  0  0  0  0  0
  147.7395  141.7797  154.3311 C   0  0  0  0  0  0  0  0  0  0  0  0
  146.4324  142.3335  153.9632 C   0  0  0  0  0  0  0  0  0  0  0  0
  145.5295  142.6967  154.8955 C   0  0  0  0  0  0  0  0  0  0  0  0
  145.8299  142.5506  156.3069 C   0  0  0  0  0  0  0  0  0  0  0  0
  144.8762  142.9536  157.3167 N   0  3  0  0  0  0  0  0  0  0  0  0
  145.1629  142.8007  158.5003 O   0  0  0  0  0  0  0  0  0  0  0  0
  143.8086  143.4389  156.9573 O   0  5  0  0  0  0  0  0  0  0  0  0
  147.0283  142.0332  156.6419 C   0  0  0  0  0  0  0  0  0  0  0  0
  147.9712  141.6421  155.6717 N   0  0  0  0  0  0  0  0  0  0  0  0
  149.2436  141.0939  156.1599 C   0  0  0  0  0  0  0  0  0  0  0  0
  150.4452  141.8324  155.5487 C   0  0  0  0  0  0  0  0  0  0  0  0
  151.0136  142.7973  156.5125 N   0  3  0  0  0  0  0  0  0  0  0  0
  151.1605  142.2984  157.8998 C   0  0  1  0  0  0  0  0  0  0  0  0
  151.8005  140.8911  157.8831 C   0  0  0  0  0  0  0  0  0  0  0  0
  152.0302  140.3425  159.2965 C   0  0  0  0  0  0  0  0  0  0  0  0
  152.8902  141.3070  160.1187 C   0  0  0  0  0  0  0  0  0  0  0  0
  152.2471  142.6989  160.1693 C   0  0  0  0  0  0  0  0  0  0  0  0
  151.9991  143.2885  158.7606 C   0  0  2  0  0  0  0  0  0  0  0  0
  151.3565  144.6944  158.8811 C   0  0  0  0  0  0  0  0  0  0  0  0
  151.3330  145.3032  157.6953 F   0  0  0  0  0  0  0  0  0  0  0  0
  150.1065  144.5862  159.3313 F   0  0  0  0  0  0  0  0  0  0  0  0
  152.0262  145.4608  159.7416 F   0  0  0  0  0  0  0  0  0  0  0  0
  146.1883  142.4521  152.9175 H   0  0  0  0  0  0  0  0  0  0  0  0
  144.5794  143.0990  154.5758 H   0  0  0  0  0  0  0  0  0  0  0  0
  147.3491  141.8888  157.6638 H   0  0  0  0  0  0  0  0  0  0  0  0
  149.2868  141.1605  157.2482 H   0  0  0  0  0  0  0  0  0  0  0  0
  149.3075  140.0263  155.9399 H   0  0  0  0  0  0  0  0  0  0  0  0
  151.2186  141.1181  155.2630 H   0  0  0  0  0  0  0  0  0  0  0  0
  150.1339  142.3509  154.6419 H   0  0  0  0  0  0  0  0  0  0  0  0
  151.9129  143.1147  156.1801 H   0  0  0  0  0  0  0  0  0  0  0  0
  150.1673  142.2256  158.3460 H   0  0  0  0  0  0  0  0  0  0  0  0
  151.1717  140.1889  157.3361 H   0  0  0  0  0  0  0  0  0  0  0  0
  152.7532  140.9263  157.3525 H   0  0  0  0  0  0  0  0  0  0  0  0
  151.0710  140.1880  159.7925 H   0  0  0  0  0  0  0  0  0  0  0  0
  152.5127  139.3662  159.2434 H   0  0  0  0  0  0  0  0  0  0  0  0
  153.0199  140.9199  161.1299 H   0  0  0  0  0  0  0  0  0  0  0  0
  153.8880  141.3766  159.6834 H   0  0  0  0  0  0  0  0  0  0  0  0
  151.3044  142.6383  160.7147 H   0  0  0  0  0  0  0  0  0  0  0  0
  152.8908  143.3626  160.7474 H   0  0  0  0  0  0  0  0  0  0  0  0
  152.9724  143.4102  158.2819 H   0  0  0  0  0  0  0  0  0  0  0  0
  150.3867  143.5893  156.5404 H   0  0  0  0  0  0  0  0  0  0  0  0
  1  2  2  0  0  0  0
  2 10  1  0  0  0  0
  2  3  1  0  0  0  0
  3  4  2  0  0  0  0
  3 24  1  0  0  0  0
  4  5  1  0  0  0  0
  4 25  1  0  0  0  0
  5  6  1  0  0  0  0
  5  9  2  0  0  0  0
  6  7  2  0  0  0  0
  6  8  1  0  0  0  0
  9 10  1  0  0  0  0
  9 26  1  0  0  0  0
 10 11  1  0  0  0  0
 11 12  1  0  0  0  0
 11 27  1  0  0  0  0
 11 28  1  0  0  0  0
 12 13  1  0  0  0  0
 12 29  1  0  0  0  0
 12 30  1  0  0  0  0
 13 14  1  0  0  0  0
 13 31  1  0  0  0  0
 13 42  1  0  0  0  0
 14 19  1  0  0  0  0
 14 15  1  0  0  0  0
 14 32  1  0  0  0  0
 15 16  1  0  0  0  0
 15 33  1  0  0  0  0
 15 34  1  0  0  0  0
 16 17  1  0  0  0  0
 16 35  1  0  0  0  0
 16 36  1  0  0  0  0
 17 18  1  0  0  0  0
 17 37  1  0  0  0  0
 17 38  1  0  0  0  0
 18 19  1  0  0  0  0
 18 39  1  0  0  0  0
 18 40  1  0  0  0  0
 19 20  1  0  0  0  0
 19 41  1  0  0  0  0
 20 21  1  0  0  0  0
 20 22  1  0  0  0  0
 20 23  1  0  0  0  0
M  CHG  1   6   1
M  CHG  1   8  -1
M  CHG  1  13   1
M  END
> <s_m_source_file>
AV-unprocessed.smi

> <i_m_source_file_index>
3029

> <i_lp_mmshare_version>
43012

> <i_f3d_flags>
0

> <s_epik_input>
Tz1jMVtjSF1bY0hdYyhbTitdKD1PKVtPLV0pW2NIXW4xW0NIMl1bQ0gyXVtOSF1bQ0BASF0yW0NIMl1bQ0gyXVtDSDJdW0NIMl1bQ0BIXTJDKEYpKEYpRg==

> <s_epik_cmdline>
J2VwaWtfcHl0aG9uJywgJy1waCcsICc3LjAnLCAnLXRuJywgJzgnLCAnLW1hJywgJzIwMCcsICctbWV0YWxfYmluZGluZycsICctaW1hZScsICc8aW5maWxlLm1hZT4nLCAnLW9tYWUnLCAnPG91dGZpbGUubWFlPic=

> <r_lp_tautomer_probability>
1

> <r_epik_Ionization_Penalty>
0.037386

> <r_epik_Ionization_Penalty_Charging>
0.037386

> <r_epik_Ionization_Penalty_Neutral>
0

> <r_epik_State_Penalty>
0.0312892

> <r_epik_Charging_Adjusted_Penalty>
0.0686752

> <i_epik_Tot_Q>
1

> <i_epik_Tot_abs_Q>
3

> <r_epik_Metal_State_Penalty>
0.0312892

> <b_epik_Metal_Only>
0

> <s_lp_Force_Field>
OPLS_2005

> <r_lp_Energy>
31.4453

> <b_lp_Chiralities_Consistent>
1

> <s_lp_Variant>
AV-unprocessed.smi:3029-4

> <Gold.Version>
5.8.1

> <Gold.Id.Protein>
6NUR|6NUR_protein|mol2

> <Gold.PLP.Fitness>
49.1122

> <Gold.PLP.PLP>
-42.7328

> <Gold.PLP.part.hbond>
-2.0000

> <Gold.PLP.part.metal>
0.0000

> <Gold.PLP.part.buried>
-4.1554

> <Gold.PLP.part.nonpolar>
-36.1601

> <Gold.PLP.part.repulsive>
1.0584

> <Gold.PLP.ligand.clash>
0.0000

> <Gold.PLP.ligand.torsion>
0.5957

> <Gold.PLP.Chemscore.Hbond>
2.4832

> <Gold.PLP.Chemscore.CHOScore>
0.0000

> <Gold.PLP.Chemscore.Metal>
0.0000

> <Gold.Chemscore.Hbonds>
donor molecule, donor type, donor heavy atom, donor atom, acceptor molecule, acceptor atom, score
      L1  H    13    42       P1  8028  1.82
      P1  H  8011  8017       L1     1  0.77

> <Gold.PLP.Chemscore.Internal.Correction>
0.1211

> <Gold.Rescore>
     Score         DG    S(hbond)    S(metal)    S(lipo)     H(rot)  DE(clash)    DE(int)     intcor
     11.82     -16.92       1.54        0.00      95.49       1.90       1.62       3.48       ----

> <Gold.Chemscore.Fitness>
11.8175

> <Gold.Chemscore.DG>
-16.9202

> <Gold.Chemscore.ZeroCoef>
-5.4800

> <Gold.Chemscore.Hbond>
1.5393

> <Gold.Chemscore.Metal>
0.0000

> <Gold.Chemscore.Lipo>
95.4914

> <Gold.Chemscore.Internal_Hbond>
0.0000

> <Gold.Chemscore.DEClash>
1.6243

> <Gold.Chemscore.DEInternal>
3.4784

> <Gold.Chemscore.Rot>
1.9037

> <Gold.Chemscore.Internal.Correction>
   9.000000E+99

> <Gold.Chemscore.Hbonds>
donor molecule, donor type, donor heavy atom, donor atom, acceptor molecule, acceptor atom, score
      L1  H    13    42       P1  8028  0.84
      P1  H  8011  8017       L1     1  0.75

> <Gold.Chemscore.Hbond.Weighted>
-5.1412

> <Gold.Chemscore.Metal.Weighted>
-0.0000

> <Gold.Chemscore.Lipo.Weighted>
-11.1725

> <Gold.Chemscore.Internal_Hbond.Weighted>
0.0000

> <Gold.Chemscore.DEClash.Weighted>
1.6243

> <Gold.Chemscore.DEInternal.Weighted>
3.4784

> <Gold.Chemscore.Rot.Weighted>
4.8736

> <Gold.Chemscore.Internal.Correction.Weighted>
   9.000000E+99

> <Gold.Protein.RotatedTorsions>
[ 6907 6896 6895 6894 ] final -153.58 input  -60.11 | X-H torsion
[ 7974 7965 7964 7962 ] final  111.07 input  175.53 | X-H torsion
[ 8008 7997 7996 7995 ] final -179.26 input   59.86 | X-H torsion
[ 10167 10162 10161 10158 ] final   16.94 input  -65.29 | X-H torsion
[ 10718 10713 10712 10709 ] final   76.06 input   66.30 | X-H torsion
[ 10763 10752 10751 10750 ] final   91.21 input  -60.55 | X-H torsion
[ 11005 11000 10999 10996 ] final   59.06 input  -57.11 | X-H torsion

> <Gold.Protein.ActiveResidues>
 VAL166  LYS551  ARG553  GLY616  TRP617  ASP618  TYR619  PRO620  LYS621  CYS622 
 ASP623  PHE694  ASN695  SER759  ASP760  ASP761  ALA762  ILE779  LEU786  VAL792 
 PHE793  MET794  SER795  GLU796  ALA797  LYS798  CYS799  TRP800  GLU811  SER814 

> <Gold.Protein.RotatedAtoms>
  151.2447  133.4381  159.2608 H   0  0  0  0  0  0  0  0  0  0  0  0  # atno 6907 bound_to 6896
  151.0672  134.9775  159.8301 H   0  0  0  0  0  0  0  0  0  0  0  0  # atno 6908 bound_to 6896
  152.5407  134.2394  159.8909 H   0  0  0  0  0  0  0  0  0  0  0  0  # atno 6909 bound_to 6896
  145.2470  139.2755  143.4088 H   0  0  0  0  0  0  0  0  0  0  0  0  # atno 7974 bound_to 7965
  156.0285  140.1276  157.0283 H   0  0  0  0  0  0  0  0  0  0  0  0  # atno 8008 bound_to 7997
  154.4340  140.1054  156.6135 H   0  0  0  0  0  0  0  0  0  0  0  0  # atno 8009 bound_to 7997
  155.5842  140.3468  155.4551 H   0  0  0  0  0  0  0  0  0  0  0  0  # atno 8010 bound_to 7997
  140.5762  143.9069  150.6752 H   0  0  0  0  0  0  0  0  0  0  0  0  # atno 10167 bound_to 10162
  157.6659  130.9756  150.1443 H   0  0  0  0  0  0  0  0  0  0  0  0  # atno 10718 bound_to 10713
  153.2058  135.4406  155.0321 H   0  0  0  0  0  0  0  0  0  0  0  0  # atno 10763 bound_to 10752
  154.8172  135.3321  154.7144 H   0  0  0  0  0  0  0  0  0  0  0  0  # atno 10764 bound_to 10752
  153.7585  135.6993  153.4986 H   0  0  0  0  0  0  0  0  0  0  0  0  # atno 10765 bound_to 10752
  140.0332  134.5982  155.9479 H   0  0  0  0  0  0  0  0  0  0  0  0  # atno 11005 bound_to 11000
  146.3313  140.2849  142.8612 LP  0  0  0  0  0  0  0  0  0  0  0  0  # atno 17320 bound_to 7965
  144.9537  140.8205  143.5556 LP  0  0  0  0  0  0  0  0  0  0  0  0  # atno 17321 bound_to 7965
  140.2556  143.3561  152.1367 LP  0  0  0  0  0  0  0  0  0  0  0  0  # atno 17342 bound_to 10162
  139.5144  144.6947  151.5664 LP  0  0  0  0  0  0  0  0  0  0  0  0  # atno 17343 bound_to 10162
  156.2258  130.3678  149.8502 LP  0  0  0  0  0  0  0  0  0  0  0  0  # atno 17370 bound_to 10713
  156.6343  130.8678  151.3501 LP  0  0  0  0  0  0  0  0  0  0  0  0  # atno 17371 bound_to 10713
  141.1842  133.6552  156.5149 LP  0  0  0  0  0  0  0  0  0  0  0  0  # atno 17394 bound_to 11000
  140.4191  134.7203  157.4880 LP  0  0  0  0  0  0  0  0  0  0  0  0  # atno 17395 bound_to 11000

$$$$
