AV-unprocessed.smi:2658|AV-procd|sdf|10310|dock1
  -GOLD-   2272014323D 1   1.00000     0.00000
 Structure written by MMmdl.
 47 49  0  0  0  0  0  0  0  0  2 V2000
  152.1815  144.2180  160.8697 C   0  0  0  0  0  0  0  0  0  0  0  0
  152.0024  143.2166  159.7411 C   0  0  0  0  0  0  0  0  0  0  0  0
  151.1191  143.5398  158.6866 C   0  0  0  0  0  0  0  0  0  0  0  0
  150.9700  142.6002  157.6733 C   0  0  0  0  0  0  0  0  0  0  0  0
  150.1837  142.6172  156.5193 N   0  3  0  0  0  0  0  0  0  0  0  0
  150.3669  141.4589  155.8276 C   0  0  0  0  0  0  0  0  0  0  0  0
  151.2594  140.7022  156.5219 N   0  0  0  0  0  0  0  0  0  0  0  0
  151.7920  139.3666  156.2179 C   0  0  0  0  0  0  0  0  0  0  0  0
  150.6968  138.2804  156.1987 C   0  0  2  0  0  0  0  0  0  0  0  0
  149.8039  138.4520  155.1164 O   0  0  0  0  0  0  0  0  0  0  0  0
  149.8906  138.1926  157.5045 C   0  0  0  0  0  0  0  0  0  0  0  0
  149.2984  136.9013  157.6219 O   0  0  0  0  0  0  0  0  0  0  0  0
  148.8029  136.5134  158.8495 C   0  0  0  0  0  0  0  0  0  0  0  0
  148.3227  135.1993  159.0036 C   0  0  0  0  0  0  0  0  0  0  0  0
  147.8236  134.8264  160.2655 C   0  0  0  0  0  0  0  0  0  0  0  0
  147.2852  133.4283  160.5050 C   0  0  0  0  0  0  0  0  0  0  0  0
  147.8494  135.8062  161.2833 C   0  0  0  0  0  0  0  0  0  0  0  0
  147.3453  135.5144  162.6843 C   0  0  0  0  0  0  0  0  0  0  0  0
  148.3234  137.0566  161.0732 N   0  0  0  0  0  0  0  0  0  0  0  0
  148.7931  137.4076  159.8716 N   0  0  0  0  0  0  0  0  0  0  0  0
  151.6652  141.3752  157.6808 C   0  0  0  0  0  0  0  0  0  0  0  0
  152.5428  141.0435  158.7105 C   0  0  0  0  0  0  0  0  0  0  0  0
  152.7059  141.9845  159.7523 C   0  0  0  0  0  0  0  0  0  0  0  0
  153.6526  141.6469  160.8914 C   0  0  0  0  0  0  0  0  0  0  0  0
  151.5753  145.1104  160.7114 H   0  0  0  0  0  0  0  0  0  0  0  0
  153.2230  144.5312  160.9434 H   0  0  0  0  0  0  0  0  0  0  0  0
  151.8840  143.7780  161.8218 H   0  0  0  0  0  0  0  0  0  0  0  0
  150.5797  144.4755  158.6720 H   0  0  0  0  0  0  0  0  0  0  0  0
  149.8878  141.1878  154.8976 H   0  0  0  0  0  0  0  0  0  0  0  0
  152.2674  139.4268  155.2381 H   0  0  0  0  0  0  0  0  0  0  0  0
  152.5854  139.1292  156.9269 H   0  0  0  0  0  0  0  0  0  0  0  0
  151.1756  137.3133  156.0408 H   0  0  0  0  0  0  0  0  0  0  0  0
  150.3075  138.6567  154.3435 H   0  0  0  0  0  0  0  0  0  0  0  0
  150.5301  138.4160  158.3605 H   0  0  0  0  0  0  0  0  0  0  0  0
  149.0994  138.9441  157.4811 H   0  0  0  0  0  0  0  0  0  0  0  0
  148.3383  134.5043  158.1769 H   0  0  0  0  0  0  0  0  0  0  0  0
  146.2485  133.4712  160.8393 H   0  0  0  0  0  0  0  0  0  0  0  0
  147.8740  132.9179  161.2675 H   0  0  0  0  0  0  0  0  0  0  0  0
  147.3209  132.8303  159.5939 H   0  0  0  0  0  0  0  0  0  0  0  0
  147.8809  134.6668  163.1125 H   0  0  0  0  0  0  0  0  0  0  0  0
  146.2815  135.2772  162.6632 H   0  0  0  0  0  0  0  0  0  0  0  0
  147.4873  136.3697  163.3461 H   0  0  0  0  0  0  0  0  0  0  0  0
  153.0750  140.1041  158.7230 H   0  0  0  0  0  0  0  0  0  0  0  0
  154.1128  140.6682  160.7514 H   0  0  0  0  0  0  0  0  0  0  0  0
  153.1182  141.6303  161.8416 H   0  0  0  0  0  0  0  0  0  0  0  0
  154.4527  142.3846  160.9561 H   0  0  0  0  0  0  0  0  0  0  0  0
  149.5641  143.3614  156.2253 H   0  0  0  0  0  0  0  0  0  0  0  0
  1  2  1  0  0  0  0
  1 25  1  0  0  0  0
  1 26  1  0  0  0  0
  1 27  1  0  0  0  0
  2 23  1  0  0  0  0
  2  3  2  0  0  0  0
  3  4  1  0  0  0  0
  3 28  1  0  0  0  0
  4 21  2  0  0  0  0
  4  5  1  0  0  0  0
  5  6  2  0  0  0  0
  5 47  1  0  0  0  0
  6  7  1  0  0  0  0
  6 29  1  0  0  0  0
  7  8  1  0  0  0  0
  7 21  1  0  0  0  0
  8  9  1  0  0  0  0
  8 30  1  0  0  0  0
  8 31  1  0  0  0  0
  9 10  1  0  0  0  0
  9 11  1  0  0  0  0
  9 32  1  0  0  0  0
 10 33  1  0  0  0  0
 11 12  1  0  0  0  0
 11 34  1  0  0  0  0
 11 35  1  0  0  0  0
 12 13  1  0  0  0  0
 13 20  1  0  0  0  0
 13 14  2  0  0  0  0
 14 15  1  0  0  0  0
 14 36  1  0  0  0  0
 15 16  1  0  0  0  0
 15 17  2  0  0  0  0
 16 37  1  0  0  0  0
 16 38  1  0  0  0  0
 16 39  1  0  0  0  0
 17 18  1  0  0  0  0
 17 19  1  0  0  0  0
 18 40  1  0  0  0  0
 18 41  1  0  0  0  0
 18 42  1  0  0  0  0
 19 20  2  0  0  0  0
 21 22  1  0  0  0  0
 22 23  2  0  0  0  0
 22 43  1  0  0  0  0
 23 24  1  0  0  0  0
 24 44  1  0  0  0  0
 24 45  1  0  0  0  0
 24 46  1  0  0  0  0
M  CHG  1   5   1
M  END
> <s_m_source_file>
AV-unprocessed.smi

> <i_m_source_file_index>
2658

> <i_lp_mmshare_version>
43012

> <i_f3d_flags>
0

> <s_epik_input>
W0NIM11jKFtjSF0xKWMoW0NIM10pW2NIXWMoYzEyKW4oW2NIXW4yKVtDSDJdW0NASF0oW09IXSlbQ0gyXU9jM1tjSF1jKFtDSDNdKWMoW0NIM10pbm4z

> <s_epik_cmdline>
J2VwaWtfcHl0aG9uJywgJy1waCcsICc3LjAnLCAnLXRuJywgJzgnLCAnLW1hJywgJzIwMCcsICctbWV0YWxfYmluZGluZycsICctaW1hZScsICc8aW5maWxlLm1hZT4nLCAnLW9tYWUnLCAnPG91dGZpbGUubWFlPic=

> <r_lp_tautomer_probability>
1

> <r_epik_Ionization_Penalty>
1.0494

> <r_epik_Ionization_Penalty_Charging>
1.04926

> <r_epik_Ionization_Penalty_Neutral>
0.000140304

> <r_epik_State_Penalty>
1.10197

> <r_epik_Charging_Adjusted_Penalty>
2.15123

> <i_epik_Tot_Q>
1

> <i_epik_Tot_abs_Q>
1

> <r_epik_Metal_State_Penalty>
1.19636

> <b_epik_Metal_Only>
0

> <s_lp_Force_Field>
OPLS_2005

> <r_lp_Energy>
21.5781

> <b_lp_Chiralities_Consistent>
1

> <s_lp_Variant>
AV-unprocessed.smi:2658-3

> <Gold.Version>
5.8.1

> <Gold.Id.Protein>
6NUR|6NUR_protein|mol2

> <Gold.PLP.Fitness>
58.3391

> <Gold.PLP.PLP>
-49.4404

> <Gold.PLP.part.hbond>
-4.6872

> <Gold.PLP.part.metal>
0.0000

> <Gold.PLP.part.buried>
-4.8261

> <Gold.PLP.part.nonpolar>
-39.4291

> <Gold.PLP.part.repulsive>
0.1040

> <Gold.PLP.ligand.clash>
0.0000

> <Gold.PLP.ligand.torsion>
0.2971

> <Gold.PLP.Chemscore.Hbond>
3.1530

> <Gold.PLP.Chemscore.CHOScore>
0.0000

> <Gold.PLP.Chemscore.Metal>
0.0000

> <Gold.Chemscore.Hbonds>
donor molecule, donor type, donor heavy atom, donor atom, acceptor molecule, acceptor atom, score
      L1  H     5    47       P1  8028  2.00
      P1  H  6931  6943       L1    19  0.80
      P1  H  6934  6947       L1    19  0.05

> <Gold.PLP.Chemscore.Internal.Correction>
0.0339

> <Gold.Rescore>
     Score         DG    S(hbond)    S(metal)    S(lipo)     H(rot)  DE(clash)    DE(int)     intcor
     18.22     -18.81       1.54        0.00     124.08       2.47       0.12       0.47       ----

> <Gold.Chemscore.Fitness>
18.2212

> <Gold.Chemscore.DG>
-18.8120

> <Gold.Chemscore.ZeroCoef>
-5.4800

> <Gold.Chemscore.Hbond>
1.5371

> <Gold.Chemscore.Metal>
0.0000

> <Gold.Chemscore.Lipo>
124.0799

> <Gold.Chemscore.Internal_Hbond>
0.0000

> <Gold.Chemscore.DEClash>
0.1211

> <Gold.Chemscore.DEInternal>
0.4698

> <Gold.Chemscore.Rot>
2.4685

> <Gold.Chemscore.Internal.Correction>
   9.000000E+99

> <Gold.Chemscore.Hbonds>
donor molecule, donor type, donor heavy atom, donor atom, acceptor molecule, acceptor atom, score
      L1  H     5    47       P1  8028  0.99
      P1  H  6931  6943       L1    19  0.11

> <Gold.Chemscore.Hbond.Weighted>
-5.1340

> <Gold.Chemscore.Metal.Weighted>
-0.0000

> <Gold.Chemscore.Lipo.Weighted>
-14.5173

> <Gold.Chemscore.Internal_Hbond.Weighted>
0.0000

> <Gold.Chemscore.DEClash.Weighted>
0.1211

> <Gold.Chemscore.DEInternal.Weighted>
0.4698

> <Gold.Chemscore.Rot.Weighted>
6.3194

> <Gold.Chemscore.Internal.Correction.Weighted>
   9.000000E+99

> <Gold.Protein.RotatedTorsions>
[ 6907 6896 6895 6894 ] final   10.04 input  -60.11 | X-H torsion
[ 7974 7965 7964 7962 ] final  -59.96 input  175.53 | X-H torsion
[ 8008 7997 7996 7995 ] final    0.67 input   59.86 | X-H torsion
[ 10167 10162 10161 10158 ] final   10.04 input  -65.29 | X-H torsion
[ 10718 10713 10712 10709 ] final  147.13 input   66.30 | X-H torsion
[ 10763 10752 10751 10750 ] final   80.30 input  -60.55 | X-H torsion
[ 11005 11000 10999 10996 ] final  171.65 input  -57.11 | X-H torsion

> <Gold.Protein.ActiveResidues>
 VAL166  LYS551  ARG553  GLY616  TRP617  ASP618  TYR619  PRO620  LYS621  CYS622 
 ASP623  PHE694  ASN695  SER759  ASP760  ASP761  ALA762  ILE779  LEU786  VAL792 
 PHE793  MET794  SER795  GLU796  ALA797  LYS798  CYS799  TRP800  GLU811  SER814 

> <Gold.Protein.RotatedAtoms>
  151.7319  135.0873  160.0301 H   0  0  0  0  0  0  0  0  0  0  0  0  # atno 6907 bound_to 6896
  152.3536  133.6205  159.5971 H   0  0  0  0  0  0  0  0  0  0  0  0  # atno 6908 bound_to 6896
  150.7556  133.9452  159.3510 H   0  0  0  0  0  0  0  0  0  0  0  0  # atno 6909 bound_to 6896
  145.8213  140.8538  143.0131 H   0  0  0  0  0  0  0  0  0  0  0  0  # atno 7974 bound_to 7965
  154.6708  140.2611  155.7009 H   0  0  0  0  0  0  0  0  0  0  0  0  # atno 8008 bound_to 7997
  156.2658  140.2829  156.1139 H   0  0  0  0  0  0  0  0  0  0  0  0  # atno 8009 bound_to 7997
  155.1171  140.0376  157.2730 H   0  0  0  0  0  0  0  0  0  0  0  0  # atno 8010 bound_to 7997
  140.6218  143.8187  150.7184 H   0  0  0  0  0  0  0  0  0  0  0  0  # atno 10167 bound_to 10162
  157.3247  131.0910  151.1211 H   0  0  0  0  0  0  0  0  0  0  0  0  # atno 10718 bound_to 10713
  153.1022  135.4808  154.8887 H   0  0  0  0  0  0  0  0  0  0  0  0  # atno 10763 bound_to 10752
  154.7391  135.3078  154.8762 H   0  0  0  0  0  0  0  0  0  0  0  0  # atno 10764 bound_to 10752
  153.9375  135.6838  153.4798 H   0  0  0  0  0  0  0  0  0  0  0  0  # atno 10765 bound_to 10752
  140.3213  134.7435  157.4066 H   0  0  0  0  0  0  0  0  0  0  0  0  # atno 11005 bound_to 11000
  144.6747  140.0537  143.7478 LP  0  0  0  0  0  0  0  0  0  0  0  0  # atno 17320 bound_to 7965
  145.9672  139.2843  143.1120 LP  0  0  0  0  0  0  0  0  0  0  0  0  # atno 17321 bound_to 7965
  140.1779  143.4139  152.1954 LP  0  0  0  0  0  0  0  0  0  0  0  0  # atno 17342 bound_to 10162
  139.5445  144.7286  151.4626 LP  0  0  0  0  0  0  0  0  0  0  0  0  # atno 17343 bound_to 10162
  157.2483  130.6602  149.5920 LP  0  0  0  0  0  0  0  0  0  0  0  0  # atno 17370 bound_to 10713
  155.9689  130.4546  150.5858 LP  0  0  0  0  0  0  0  0  0  0  0  0  # atno 17371 bound_to 10713
  140.0939  134.5563  155.8417 LP  0  0  0  0  0  0  0  0  0  0  0  0  # atno 17394 bound_to 11000
  141.2086  133.6675  156.6381 LP  0  0  0  0  0  0  0  0  0  0  0  0  # atno 17395 bound_to 11000

$$$$
