AV-unprocessed.smi:3143|AV-procd|sdf|11976|dock3
  -GOLD-   2272017373D 1   1.00000     0.00000
 Structure written by MMmdl.
 37 38  0  0  0  0  0  0  0  0  1 V2000
  152.1561  144.4902  156.9250 C   0  0  0  0  0  0  0  0  0  0  0  0
  151.5945  143.2972  157.7136 C   0  0  2  0  0  0  0  0  0  0  0  0
  150.3210  142.8632  157.1099 N   0  0  0  0  0  0  0  0  0  0  0  0
  150.4913  141.9434  155.9903 C   0  0  0  0  0  0  0  0  0  0  0  0
  151.4716  140.8321  156.3922 C   0  0  0  0  0  0  0  0  0  0  0  0
  151.4165  139.7100  155.4748 N   0  0  0  0  0  0  0  0  0  0  0  0
  151.9966  138.4656  155.6058 C   0  0  0  0  0  0  0  0  0  0  0  0
  151.6707  137.7462  154.4919 C   0  0  0  0  0  0  0  0  0  0  0  0
  150.8782  138.6477  153.7273 C   0  0  0  0  0  0  0  0  0  0  0  0
  150.7288  139.8225  154.3178 N   0  0  0  0  0  0  0  0  0  0  0  0
  151.4714  143.6711  159.2087 C   0  0  0  0  0  0  0  0  0  0  0  0
  150.7803  144.6420  159.5222 O   0  0  0  0  0  0  0  0  0  0  0  0
  152.1199  142.9329  160.1360 N   0  0  0  0  0  0  0  0  0  0  0  0
  152.9986  141.7913  159.8809 C   0  0  0  0  0  0  0  0  0  0  0  0
  153.6833  141.4867  161.2134 C   0  0  0  0  0  0  0  0  0  0  0  0
  152.7132  142.0175  162.2586 C   0  0  0  0  0  0  0  0  0  0  0  0
  152.0379  143.2035  161.5706 C   0  0  0  0  0  0  0  0  0  0  0  0
  153.1161  144.8164  157.3272 H   0  0  0  0  0  0  0  0  0  0  0  0
  151.4773  145.3437  156.9526 H   0  0  0  0  0  0  0  0  0  0  0  0
  152.3153  144.2277  155.8787 H   0  0  0  0  0  0  0  0  0  0  0  0
  152.2936  142.4710  157.5918 H   0  0  0  0  0  0  0  0  0  0  0  0
  149.7691  143.6539  156.8099 H   0  0  0  0  0  0  0  0  0  0  0  0
  149.5264  141.5094  155.7239 H   0  0  0  0  0  0  0  0  0  0  0  0
  150.8697  142.4642  155.1102 H   0  0  0  0  0  0  0  0  0  0  0  0
  152.4942  141.2124  156.4137 H   0  0  0  0  0  0  0  0  0  0  0  0
  151.2473  140.4688  157.3960 H   0  0  0  0  0  0  0  0  0  0  0  0
  152.5860  138.1986  156.4707 H   0  0  0  0  0  0  0  0  0  0  0  0
  151.9548  136.7309  154.2585 H   0  0  0  0  0  0  0  0  0  0  0  0
  150.4119  138.4854  152.7669 H   0  0  0  0  0  0  0  0  0  0  0  0
  152.3938  140.9411  159.5624 H   0  0  0  0  0  0  0  0  0  0  0  0
  153.7348  142.0009  159.1036 H   0  0  0  0  0  0  0  0  0  0  0  0
  153.9071  140.4274  161.3421 H   0  0  0  0  0  0  0  0  0  0  0  0
  154.6232  142.0369  161.2755 H   0  0  0  0  0  0  0  0  0  0  0  0
  151.9683  141.2538  162.4857 H   0  0  0  0  0  0  0  0  0  0  0  0
  153.2040  142.2936  163.1924 H   0  0  0  0  0  0  0  0  0  0  0  0
  152.5740  144.1285  161.7883 H   0  0  0  0  0  0  0  0  0  0  0  0
  151.0067  143.3217  161.9076 H   0  0  0  0  0  0  0  0  0  0  0  0
  1  2  1  0  0  0  0
  1 18  1  0  0  0  0
  1 19  1  0  0  0  0
  1 20  1  0  0  0  0
  2  3  1  0  0  0  0
  2 11  1  0  0  0  0
  2 21  1  0  0  0  0
  3  4  1  0  0  0  0
  3 22  1  0  0  0  0
  4  5  1  0  0  0  0
  4 23  1  0  0  0  0
  4 24  1  0  0  0  0
  5  6  1  0  0  0  0
  5 25  1  0  0  0  0
  5 26  1  0  0  0  0
  6 10  1  0  0  0  0
  6  7  1  0  0  0  0
  7  8  2  0  0  0  0
  7 27  1  0  0  0  0
  8  9  1  0  0  0  0
  8 28  1  0  0  0  0
  9 10  2  0  0  0  0
  9 29  1  0  0  0  0
 11 12  2  0  0  0  0
 11 13  1  0  0  0  0
 13 17  1  0  0  0  0
 13 14  1  0  0  0  0
 14 15  1  0  0  0  0
 14 30  1  0  0  0  0
 14 31  1  0  0  0  0
 15 16  1  0  0  0  0
 15 32  1  0  0  0  0
 15 33  1  0  0  0  0
 16 17  1  0  0  0  0
 16 34  1  0  0  0  0
 16 35  1  0  0  0  0
 17 36  1  0  0  0  0
 17 37  1  0  0  0  0
M  END
> <s_m_source_file>
AV-unprocessed.smi

> <i_m_source_file_index>
3143

> <i_lp_mmshare_version>
43012

> <i_f3d_flags>
0

> <s_epik_input>
W0NIMl0xW0NIMl1bQ0gyXVtDSDJdTjFDKD1PKVtDQEhdKFtDSDNdKVtOSF1bQ0gyXVtDSDJdbjJbY0hdW2NIXVtjSF1uMg==

> <s_epik_cmdline>
J2VwaWtfcHl0aG9uJywgJy1waCcsICc3LjAnLCAnLXRuJywgJzgnLCAnLW1hJywgJzIwMCcsICctbWV0YWxfYmluZGluZycsICctaW1hZScsICc8aW5maWxlLm1hZT4nLCAnLW9tYWUnLCAnPG91dGZpbGUubWFlPic=

> <r_lp_tautomer_probability>
1

> <r_epik_Ionization_Penalty>
0.733724

> <r_epik_Ionization_Penalty_Charging>
0

> <r_epik_Ionization_Penalty_Neutral>
0.733724

> <r_epik_State_Penalty>
0.75825

> <r_epik_Charging_Adjusted_Penalty>
0.75825

> <i_epik_Tot_Q>
0

> <i_epik_Tot_abs_Q>
0

> <r_epik_Metal_State_Penalty>
0.757598

> <b_epik_Metal_Only>
0

> <s_lp_Force_Field>
OPLS_2005

> <r_lp_Energy>
31.3447

> <b_lp_Chiralities_Consistent>
1

> <s_lp_Variant>
AV-unprocessed.smi:3143-3

> <Gold.Version>
5.8.1

> <Gold.Id.Protein>
6NUR|6NUR_protein|mol2

> <Gold.PLP.Fitness>
54.4257

> <Gold.PLP.PLP>
-44.9002

> <Gold.PLP.part.hbond>
-2.0000

> <Gold.PLP.part.metal>
0.0000

> <Gold.PLP.part.buried>
-5.7161

> <Gold.PLP.part.nonpolar>
-37.1408

> <Gold.PLP.part.repulsive>
0.2268

> <Gold.PLP.ligand.clash>
0.0000

> <Gold.PLP.ligand.torsion>
0.5170

> <Gold.PLP.Chemscore.Hbond>
2.0000

> <Gold.PLP.Chemscore.CHOScore>
1.5020

> <Gold.PLP.Chemscore.Metal>
0.0000

> <Gold.Chemscore.Hbonds>
donor molecule, donor type, donor heavy atom, donor atom, acceptor molecule, acceptor atom, score
      L1  H     3    22       P1  8028  1.00
      P1  H  7989  7998       L1    10  1.00
      L1  C     9    29       P1  7948  0.29
      L1  C     9    29       P1  7949  0.03
      L1  C     9    29       P1  7957  0.85

> <Gold.PLP.Chemscore.Internal.Correction>
0.0534

> <Gold.Rescore>
     Score         DG    S(hbond)    S(metal)    S(lipo)     H(rot)  DE(clash)    DE(int)     intcor
     17.50     -19.94       1.94        0.00     107.12       1.77       1.64       0.79       ----

> <Gold.Chemscore.Fitness>
17.5039

> <Gold.Chemscore.DG>
-19.9396

> <Gold.Chemscore.ZeroCoef>
-5.4800

> <Gold.Chemscore.Hbond>
1.9355

> <Gold.Chemscore.Metal>
0.0000

> <Gold.Chemscore.Lipo>
107.1173

> <Gold.Chemscore.Internal_Hbond>
0.0000

> <Gold.Chemscore.DEClash>
1.6410

> <Gold.Chemscore.DEInternal>
0.7947

> <Gold.Chemscore.Rot>
1.7726

> <Gold.Chemscore.Internal.Correction>
   9.000000E+99

> <Gold.Chemscore.Hbonds>
donor molecule, donor type, donor heavy atom, donor atom, acceptor molecule, acceptor atom, score
      L1  H     3    22       P1  8028  0.98
      P1  H  7989  7998       L1    10  0.19

> <Gold.Chemscore.Hbond.Weighted>
-6.4647

> <Gold.Chemscore.Metal.Weighted>
-0.0000

> <Gold.Chemscore.Lipo.Weighted>
-12.5327

> <Gold.Chemscore.Internal_Hbond.Weighted>
0.0000

> <Gold.Chemscore.DEClash.Weighted>
1.6410

> <Gold.Chemscore.DEInternal.Weighted>
0.7947

> <Gold.Chemscore.Rot.Weighted>
4.5378

> <Gold.Chemscore.Internal.Correction.Weighted>
   9.000000E+99

> <Gold.Protein.RotatedTorsions>
[ 6907 6896 6895 6894 ] final  170.55 input  -60.11 | X-H torsion
[ 7974 7965 7964 7962 ] final   93.95 input  175.53 | X-H torsion
[ 8008 7997 7996 7995 ] final  163.22 input   59.86 | X-H torsion
[ 10167 10162 10161 10158 ] final -146.83 input  -65.29 | X-H torsion
[ 10718 10713 10712 10709 ] final  148.07 input   66.30 | X-H torsion
[ 10763 10752 10751 10750 ] final  118.20 input  -60.55 | X-H torsion
[ 11005 11000 10999 10996 ] final -118.42 input  -57.11 | X-H torsion

> <Gold.Protein.ActiveResidues>
 VAL166  LYS551  ARG553  GLY616  TRP617  ASP618  TYR619  PRO620  LYS621  CYS622 
 ASP623  PHE694  ASN695  SER759  ASP760  ASP761  ALA762  ILE779  LEU786  VAL792 
 PHE793  MET794  SER795  GLU796  ALA797  LYS798  CYS799  TRP800  GLU811  SER814 

> <Gold.Protein.RotatedAtoms>
  151.8143  133.3386  159.3564 H   0  0  0  0  0  0  0  0  0  0  0  0  # atno 6907 bound_to 6896
  150.7316  134.5634  159.5863 H   0  0  0  0  0  0  0  0  0  0  0  0  # atno 6908 bound_to 6896
  152.3052  134.7564  160.0400 H   0  0  0  0  0  0  0  0  0  0  0  0  # atno 6909 bound_to 6896
  145.4720  139.2281  143.2929 H   0  0  0  0  0  0  0  0  0  0  0  0  # atno 7974 bound_to 7965
  156.1974  140.1729  156.7971 H   0  0  0  0  0  0  0  0  0  0  0  0  # atno 8008 bound_to 7997
  154.5547  140.0711  156.8755 H   0  0  0  0  0  0  0  0  0  0  0  0  # atno 8009 bound_to 7997
  155.2962  140.3358  155.4252 H   0  0  0  0  0  0  0  0  0  0  0  0  # atno 8010 bound_to 7997
  139.7678  143.8283  152.2619 H   0  0  0  0  0  0  0  0  0  0  0  0  # atno 10167 bound_to 10162
  157.3131  131.0891  151.1300 H   0  0  0  0  0  0  0  0  0  0  0  0  # atno 10718 bound_to 10713
  153.5641  135.3515  155.2811 H   0  0  0  0  0  0  0  0  0  0  0  0  # atno 10763 bound_to 10752
  154.8691  135.4143  154.2798 H   0  0  0  0  0  0  0  0  0  0  0  0  # atno 10764 bound_to 10752
  153.3550  135.7057  153.6827 H   0  0  0  0  0  0  0  0  0  0  0  0  # atno 10765 bound_to 10752
  141.0287  134.0014  157.3175 H   0  0  0  0  0  0  0  0  0  0  0  0  # atno 11005 bound_to 11000
  146.2391  140.5499  142.8942 LP  0  0  0  0  0  0  0  0  0  0  0  0  # atno 17320 bound_to 7965
  144.7939  140.6086  143.6523 LP  0  0  0  0  0  0  0  0  0  0  0  0  # atno 17321 bound_to 7965
  139.8308  144.7254  150.9453 LP  0  0  0  0  0  0  0  0  0  0  0  0  # atno 17342 bound_to 10162
  140.7812  143.4072  151.1052 LP  0  0  0  0  0  0  0  0  0  0  0  0  # atno 17343 bound_to 10162
  157.2615  130.6661  149.5976 LP  0  0  0  0  0  0  0  0  0  0  0  0  # atno 17370 bound_to 10713
  155.9679  130.4507  150.5708 LP  0  0  0  0  0  0  0  0  0  0  0  0  # atno 17371 bound_to 10713
  139.9193  135.0199  156.8003 LP  0  0  0  0  0  0  0  0  0  0  0  0  # atno 17394 bound_to 11000
  140.6445  133.9788  155.7724 LP  0  0  0  0  0  0  0  0  0  0  0  0  # atno 17395 bound_to 11000

$$$$
