AV-unprocessed.smi:978|AV-procd|sdf|4308|dock1
  -GOLD-   22720 2213D 1   1.00000     0.00000
 Structure written by MMmdl.
 39 40  0  0  0  0  0  0  0  0  2 V2000
  148.6460  126.3596  150.0820 C   0  0  0  0  0  0  0  0  0  0  0  0
  148.0798  126.5451  151.4624 C   0  0  0  0  0  0  0  0  0  0  0  0
  147.9503  125.4880  152.2508 N   0  0  0  0  0  0  0  0  0  0  0  0
  147.3408  125.9373  153.4324 O   0  0  0  0  0  0  0  0  0  0  0  0
  147.1148  127.2728  153.3294 C   0  0  0  0  0  0  0  0  0  0  0  0
  146.4516  127.9394  154.4870 C   0  0  0  0  0  0  0  0  0  0  0  0
  147.5856  127.7072  152.1255 C   0  0  0  0  0  0  0  0  0  0  0  0
  147.4963  129.0440  151.6618 N   0  0  0  0  0  0  0  0  0  0  0  0
  146.5094  129.9184  151.9095 C   0  0  0  0  0  0  0  0  0  0  0  0
  145.5046  129.6771  152.5776 O   0  0  0  0  0  0  0  0  0  0  0  0
  146.7389  131.0985  151.3159 N   0  0  0  0  0  0  0  0  0  0  0  0
  145.8452  132.2519  151.3714 C   0  0  2  0  0  0  0  0  0  0  0  0
  145.8522  132.8529  152.7868 C   0  0  0  0  0  0  0  0  0  0  0  0
  144.8588  134.0221  152.8997 C   0  0  0  0  0  0  0  0  0  0  0  0
  143.4894  133.5989  152.5136 N   0  3  1  0  0  0  0  0  0  0  0  0
  142.4895  134.6682  152.7222 C   0  0  0  0  0  0  0  0  0  0  0  0
  143.4453  133.0460  151.1370 C   0  0  0  0  0  0  0  0  0  0  0  0
  144.4068  131.8554  150.9872 C   0  0  0  0  0  0  0  0  0  0  0  0
  148.1814  127.0412  149.3696 H   0  0  0  0  0  0  0  0  0  0  0  0
  148.4801  125.3461  149.7153 H   0  0  0  0  0  0  0  0  0  0  0  0
  149.7206  126.5414  150.0719 H   0  0  0  0  0  0  0  0  0  0  0  0
  146.1594  128.9596  154.2378 H   0  0  0  0  0  0  0  0  0  0  0  0
  147.1229  127.9799  155.3448 H   0  0  0  0  0  0  0  0  0  0  0  0
  145.5547  127.3955  154.7840 H   0  0  0  0  0  0  0  0  0  0  0  0
  148.2022  129.3296  150.9990 H   0  0  0  0  0  0  0  0  0  0  0  0
  147.5894  131.2037  150.7817 H   0  0  0  0  0  0  0  0  0  0  0  0
  146.2038  133.0124  150.6746 H   0  0  0  0  0  0  0  0  0  0  0  0
  145.5920  132.0858  153.5180 H   0  0  0  0  0  0  0  0  0  0  0  0
  146.8553  133.1967  153.0426 H   0  0  0  0  0  0  0  0  0  0  0  0
  144.8507  134.3933  153.9251 H   0  0  0  0  0  0  0  0  0  0  0  0
  145.1790  134.8500  152.2649 H   0  0  0  0  0  0  0  0  0  0  0  0
  142.6899  135.5238  152.0759 H   0  0  0  0  0  0  0  0  0  0  0  0
  142.5009  135.0105  153.7575 H   0  0  0  0  0  0  0  0  0  0  0  0
  141.4853  134.3032  152.5048 H   0  0  0  0  0  0  0  0  0  0  0  0
  142.4294  132.7241  150.9047 H   0  0  0  0  0  0  0  0  0  0  0  0
  143.7020  133.8277  150.4201 H   0  0  0  0  0  0  0  0  0  0  0  0
  144.3758  131.4893  149.9601 H   0  0  0  0  0  0  0  0  0  0  0  0
  144.0672  131.0326  151.6185 H   0  0  0  0  0  0  0  0  0  0  0  0
  143.2347  132.8450  153.1357 H   0  0  0  0  0  0  0  0  0  0  0  0
  1  2  1  0  0  0  0
  1 19  1  0  0  0  0
  1 20  1  0  0  0  0
  1 21  1  0  0  0  0
  2  7  1  0  0  0  0
  2  3  2  0  0  0  0
  3  4  1  0  0  0  0
  4  5  1  0  0  0  0
  5  6  1  0  0  0  0
  5  7  2  0  0  0  0
  6 22  1  0  0  0  0
  6 23  1  0  0  0  0
  6 24  1  0  0  0  0
  7  8  1  0  0  0  0
  8  9  1  0  0  0  0
  8 25  1  0  0  0  0
  9 10  2  0  0  0  0
  9 11  1  0  0  0  0
 11 12  1  0  0  0  0
 11 26  1  0  0  0  0
 12 18  1  0  0  0  0
 12 13  1  0  0  0  0
 12 27  1  0  0  0  0
 13 14  1  0  0  0  0
 13 28  1  0  0  0  0
 13 29  1  0  0  0  0
 14 15  1  0  0  0  0
 14 30  1  0  0  0  0
 14 31  1  0  0  0  0
 15 16  1  0  0  0  0
 15 17  1  0  0  0  0
 15 39  1  0  0  0  0
 16 32  1  0  0  0  0
 16 33  1  0  0  0  0
 16 34  1  0  0  0  0
 17 18  1  0  0  0  0
 17 35  1  0  0  0  0
 17 36  1  0  0  0  0
 18 37  1  0  0  0  0
 18 38  1  0  0  0  0
M  CHG  1  15   1
M  END
> <s_m_source_file>
AV-unprocessed.smi

> <i_m_source_file_index>
978

> <i_lp_mmshare_version>
43012

> <i_f3d_flags>
0

> <s_epik_input>
W0NIM11jMW5vYyhbQ0gzXSljMVtOSF1DKD1PKVtOSF1bQ0hdMltDSDJdW0NIMl1OKFtDSDNdKVtDSDJdW0NIMl0y

> <s_epik_cmdline>
J2VwaWtfcHl0aG9uJywgJy1waCcsICc3LjAnLCAnLXRuJywgJzgnLCAnLW1hJywgJzIwMCcsICctbWV0YWxfYmluZGluZycsICctaW1hZScsICc8aW5maWxlLm1hZT4nLCAnLW9tYWUnLCAnPG91dGZpbGUubWFlPic=

> <r_epik_Ionization_Penalty>
0.00369783

> <r_epik_Ionization_Penalty_Charging>
0.00366825

> <r_epik_Ionization_Penalty_Neutral>
2.95799e-05

> <r_epik_State_Penalty>
0.00261101

> <r_epik_Charging_Adjusted_Penalty>
0.00627926

> <i_epik_Tot_Q>
1

> <i_epik_Tot_abs_Q>
1

> <r_epik_Metal_State_Penalty>
-0

> <b_epik_Metal_Only>
0

> <s_lp_Force_Field>
OPLS_2005

> <r_lp_Energy>
17.6402

> <b_lp_Chiralities_Consistent>
1

> <s_lp_Variant>
AV-unprocessed.smi:978-1

> <Gold.Version>
5.8.1

> <Gold.Id.Protein>
6NUR|6NUR_protein|mol2

> <Gold.PLP.Fitness>
42.9464

> <Gold.PLP.PLP>
-31.9526

> <Gold.PLP.part.hbond>
-4.5559

> <Gold.PLP.part.metal>
0.0000

> <Gold.PLP.part.buried>
-5.9128

> <Gold.PLP.part.nonpolar>
-22.5017

> <Gold.PLP.part.repulsive>
0.5606

> <Gold.PLP.ligand.clash>
0.0010

> <Gold.PLP.ligand.torsion>
0.3409

> <Gold.PLP.Chemscore.Hbond>
3.8073

> <Gold.PLP.Chemscore.CHOScore>
0.0000

> <Gold.PLP.Chemscore.Metal>
0.0000

> <Gold.Chemscore.Hbonds>
donor molecule, donor type, donor heavy atom, donor atom, acceptor molecule, acceptor atom, score
      L1  H     8    25       P1 10747  0.86
      L1  H    11    26       P1 10747  0.96
      L1  H    15    39       P1 10957  1.98

> <Gold.PLP.Chemscore.Internal.Correction>
0.2549

> <Gold.Rescore>
     Score         DG    S(hbond)    S(metal)    S(lipo)     H(rot)  DE(clash)    DE(int)     intcor
     14.80     -19.56       2.68        0.00      65.64       1.00       1.07       3.70       ----

> <Gold.Chemscore.Fitness>
14.7991

> <Gold.Chemscore.DG>
-19.5626

> <Gold.Chemscore.ZeroCoef>
-5.4800

> <Gold.Chemscore.Hbond>
2.6833

> <Gold.Chemscore.Metal>
0.0000

> <Gold.Chemscore.Lipo>
65.6436

> <Gold.Chemscore.Internal_Hbond>
0.0000

> <Gold.Chemscore.DEClash>
1.0653

> <Gold.Chemscore.DEInternal>
3.6981

> <Gold.Chemscore.Rot>
1.0000

> <Gold.Chemscore.Internal.Correction>
   9.000000E+99

> <Gold.Chemscore.Hbonds>
donor molecule, donor type, donor heavy atom, donor atom, acceptor molecule, acceptor atom, score
      L1  H     8    25       P1 10747  0.25
      L1  H    11    26       P1 10747  0.90
      L1  H    15    39       P1 10957  0.41

> <Gold.Chemscore.Hbond.Weighted>
-8.9623

> <Gold.Chemscore.Metal.Weighted>
-0.0000

> <Gold.Chemscore.Lipo.Weighted>
-7.6803

> <Gold.Chemscore.Internal_Hbond.Weighted>
0.0000

> <Gold.Chemscore.DEClash.Weighted>
1.0653

> <Gold.Chemscore.DEInternal.Weighted>
3.6981

> <Gold.Chemscore.Rot.Weighted>
2.5600

> <Gold.Chemscore.Internal.Correction.Weighted>
   9.000000E+99

> <Gold.Protein.RotatedTorsions>
[ 6907 6896 6895 6894 ] final  123.16 input  -60.11 | X-H torsion
[ 7974 7965 7964 7962 ] final  178.84 input  175.53 | X-H torsion
[ 8008 7997 7996 7995 ] final -100.30 input   59.86 | X-H torsion
[ 10167 10162 10161 10158 ] final -116.94 input  -65.29 | X-H torsion
[ 10718 10713 10712 10709 ] final   81.86 input   66.30 | X-H torsion
[ 10763 10752 10751 10750 ] final   -2.12 input  -60.55 | X-H torsion
[ 11005 11000 10999 10996 ] final  118.96 input  -57.11 | X-H torsion

> <Gold.Protein.ActiveResidues>
 VAL166  LYS551  ARG553  GLY616  TRP617  ASP618  TYR619  PRO620  LYS621  CYS622 
 ASP623  PHE694  ASN695  SER759  ASP760  ASP761  ALA762  ILE779  LEU786  VAL792 
 PHE793  MET794  SER795  GLU796  ALA797  LYS798  CYS799  TRP800  GLU811  SER814 

> <Gold.Protein.RotatedAtoms>
  152.4184  133.7076  159.6459 H   0  0  0  0  0  0  0  0  0  0  0  0  # atno 6907 bound_to 6896
  150.8060  133.8498  159.3211 H   0  0  0  0  0  0  0  0  0  0  0  0  # atno 6908 bound_to 6896
  151.6221  135.1033  160.0155 H   0  0  0  0  0  0  0  0  0  0  0  0  # atno 6909 bound_to 6896
  144.7152  140.0457  143.6436 H   0  0  0  0  0  0  0  0  0  0  0  0  # atno 7974 bound_to 7965
  154.8267  140.0442  157.1448 H   0  0  0  0  0  0  0  0  0  0  0  0  # atno 8008 bound_to 7997
  154.9198  140.3025  155.5202 H   0  0  0  0  0  0  0  0  0  0  0  0  # atno 8009 bound_to 7997
  156.2984  140.2342  156.4247 H   0  0  0  0  0  0  0  0  0  0  0  0  # atno 8010 bound_to 7997
  140.0738  143.4852  152.1965 H   0  0  0  0  0  0  0  0  0  0  0  0  # atno 10167 bound_to 10162
  157.6843  131.0022  150.2289 H   0  0  0  0  0  0  0  0  0  0  0  0  # atno 10718 bound_to 10713
  153.3539  135.6987  153.6766 H   0  0  0  0  0  0  0  0  0  0  0  0  # atno 10763 bound_to 10752
  153.5482  135.3559  155.2748 H   0  0  0  0  0  0  0  0  0  0  0  0  # atno 10764 bound_to 10752
  154.8657  135.4220  154.2781 H   0  0  0  0  0  0  0  0  0  0  0  0  # atno 10765 bound_to 10752
  139.9128  134.9625  156.7582 H   0  0  0  0  0  0  0  0  0  0  0  0  # atno 11005 bound_to 11000
  145.9986  139.3072  143.0941 LP  0  0  0  0  0  0  0  0  0  0  0  0  # atno 17320 bound_to 7965
  145.8820  140.9357  143.0596 LP  0  0  0  0  0  0  0  0  0  0  0  0  # atno 17321 bound_to 7965
  139.5820  144.7514  151.3616 LP  0  0  0  0  0  0  0  0  0  0  0  0  # atno 17342 bound_to 10162
  140.7112  143.7385  150.7571 LP  0  0  0  0  0  0  0  0  0  0  0  0  # atno 17343 bound_to 10162
  156.2925  130.3747  149.7827 LP  0  0  0  0  0  0  0  0  0  0  0  0  # atno 17370 bound_to 10713
  156.5482  130.8330  151.3291 LP  0  0  0  0  0  0  0  0  0  0  0  0  # atno 17371 bound_to 10713
  140.6718  133.9552  155.7861 LP  0  0  0  0  0  0  0  0  0  0  0  0  # atno 17394 bound_to 11000
  141.0572  134.0399  157.3707 LP  0  0  0  0  0  0  0  0  0  0  0  0  # atno 17395 bound_to 11000

$$$$
