AV-unprocessed.smi:101|AV-procd|sdf|938|dock7
  -GOLD-   2262017453D 1   1.00000     0.00000
 Structure written by MMmdl.
 43 45  0  0  0  0  0  0  0  0  2 V2000
  149.7103  133.5092  154.3964 C   0  0  0  0  0  0  0  0  0  0  0  0
  149.5539  134.5374  155.5033 C   0  0  0  0  0  0  0  0  0  0  0  0
  149.0115  135.7559  155.2844 C   0  0  0  0  0  0  0  0  0  0  0  0
  148.8727  136.6889  156.2972 N   0  0  0  0  0  0  0  0  0  0  0  0
  148.2461  138.0383  156.0324 C   0  0  1  0  0  0  0  0  0  0  0  0
  149.1912  139.0360  156.2826 O   0  0  0  0  0  0  0  0  0  0  0  0
  149.1492  140.0064  155.2454 C   0  0  1  0  0  0  0  0  0  0  0  0
  150.4745  140.7757  155.1522 C   0  0  0  0  0  0  0  0  0  0  0  0
  150.7707  141.3528  156.4131 O   0  0  0  0  0  0  0  0  0  0  0  0
  151.7119  140.7998  157.2024 C   0  0  0  0  0  0  0  0  0  0  0  0
  152.3109  139.7593  156.9227 O   0  0  0  0  0  0  0  0  0  0  0  0
  151.9569  141.5813  158.4490 C   0  0  0  0  0  0  0  0  0  0  0  0
  151.5641  142.9391  158.5041 C   0  0  0  0  0  0  0  0  0  0  0  0
  151.7804  143.7019  159.6682 C   0  0  0  0  0  0  0  0  0  0  0  0
  152.3922  143.1160  160.7916 C   0  0  0  0  0  0  0  0  0  0  0  0
  152.7897  141.7670  160.7489 C   0  0  0  0  0  0  0  0  0  0  0  0
  152.5748  141.0026  159.5854 C   0  0  0  0  0  0  0  0  0  0  0  0
  148.7642  139.1975  154.0015 C   0  0  1  0  0  0  0  0  0  0  0  0
  149.8985  138.5790  153.4211 O   0  0  0  0  0  0  0  0  0  0  0  0
  147.8125  138.1473  154.5592 C   0  0  2  0  0  0  0  0  0  0  0  0
  146.4748  138.5913  154.4558 O   0  0  0  0  0  0  0  0  0  0  0  0
  149.2740  136.3584  157.6171 C   0  0  0  0  0  0  0  0  0  0  0  0
  149.0930  137.1940  158.5035 O   0  0  0  0  0  0  0  0  0  0  0  0
  149.8296  135.1347  157.8459 N   0  5  0  0  0  0  0  0  0  0  0  0
  149.9988  134.2047  156.8622 C   0  0  0  0  0  0  0  0  0  0  0  0
  150.5069  133.1055  157.0820 O   0  0  0  0  0  0  0  0  0  0  0  0
  149.3443  133.8938  153.4441 H   0  0  0  0  0  0  0  0  0  0  0  0
  149.1498  132.6047  154.6343 H   0  0  0  0  0  0  0  0  0  0  0  0
  150.7600  133.2420  154.2717 H   0  0  0  0  0  0  0  0  0  0  0  0
  148.6730  135.9991  154.2882 H   0  0  0  0  0  0  0  0  0  0  0  0
  147.4290  138.1425  156.7485 H   0  0  0  0  0  0  0  0  0  0  0  0
  148.3356  140.7001  155.4659 H   0  0  0  0  0  0  0  0  0  0  0  0
  151.2827  140.1151  154.8343 H   0  0  0  0  0  0  0  0  0  0  0  0
  150.3869  141.5725  154.4122 H   0  0  0  0  0  0  0  0  0  0  0  0
  151.0915  143.4106  157.6545 H   0  0  0  0  0  0  0  0  0  0  0  0
  151.4757  144.7375  159.6985 H   0  0  0  0  0  0  0  0  0  0  0  0
  152.5569  143.7006  161.6847 H   0  0  0  0  0  0  0  0  0  0  0  0
  153.2606  141.3161  161.6099 H   0  0  0  0  0  0  0  0  0  0  0  0
  152.8937  139.9704  159.5858 H   0  0  0  0  0  0  0  0  0  0  0  0
  148.2982  139.8233  153.2390 H   0  0  0  0  0  0  0  0  0  0  0  0
  149.6036  137.9070  152.8263 H   0  0  0  0  0  0  0  0  0  0  0  0
  147.8989  137.1892  154.0433 H   0  0  0  0  0  0  0  0  0  0  0  0
  145.9170  137.8302  154.3940 H   0  0  0  0  0  0  0  0  0  0  0  0
  1  2  1  0  0  0  0
  1 27  1  0  0  0  0
  1 28  1  0  0  0  0
  1 29  1  0  0  0  0
  2 25  1  0  0  0  0
  2  3  2  0  0  0  0
  3  4  1  0  0  0  0
  3 30  1  0  0  0  0
  4  5  1  0  0  0  0
  4 22  1  0  0  0  0
  5 20  1  0  0  0  0
  5  6  1  0  0  0  0
  5 31  1  0  0  0  0
  6  7  1  0  0  0  0
  7  8  1  0  0  0  0
  7 18  1  0  0  0  0
  7 32  1  0  0  0  0
  8  9  1  0  0  0  0
  8 33  1  0  0  0  0
  8 34  1  0  0  0  0
  9 10  1  0  0  0  0
 10 11  2  0  0  0  0
 10 12  1  0  0  0  0
 12 17  1  0  0  0  0
 12 13  2  0  0  0  0
 13 14  1  0  0  0  0
 13 35  1  0  0  0  0
 14 15  2  0  0  0  0
 14 36  1  0  0  0  0
 15 16  1  0  0  0  0
 15 37  1  0  0  0  0
 16 17  2  0  0  0  0
 16 38  1  0  0  0  0
 17 39  1  0  0  0  0
 18 19  1  0  0  0  0
 18 20  1  0  0  0  0
 18 40  1  0  0  0  0
 19 41  1  0  0  0  0
 20 21  1  0  0  0  0
 20 42  1  0  0  0  0
 21 43  1  0  0  0  0
 22 23  2  0  0  0  0
 22 24  1  0  0  0  0
 24 25  1  0  0  0  0
 25 26  2  0  0  0  0
M  CHG  1  24  -1
M  END
> <s_m_source_file>
AV-unprocessed.smi

> <i_m_source_file_index>
101

> <i_lp_mmshare_version>
43012

> <i_f3d_flags>
0

> <s_epik_input>
Tz1jMVtuSF1jKD1PKW4oW2NIXWMxW0NIM10pW0NAQEhdMk9bQ0BIXShbQ0BASF0oW09IXSlbQ0BIXTJbT0hdKVtDSDJdT0MoPU8pYzNbY0hdW2NIXVtjSF1bY0hdW2NIXTM=

> <s_epik_cmdline>
J2VwaWtfcHl0aG9uJywgJy1waCcsICc3LjAnLCAnLXRuJywgJzgnLCAnLW1hJywgJzIwMCcsICctbWV0YWxfYmluZGluZycsICctaW1hZScsICc8aW5maWxlLm1hZT4nLCAnLW9tYWUnLCAnPG91dGZpbGUubWFlPic=

> <r_lp_tautomer_probability>
0.999537

> <r_epik_Ionization_Penalty>
3.21006

> <r_epik_Ionization_Penalty_Charging>
5.75142e-08

> <r_epik_Ionization_Penalty_Neutral>
3.21006

> <r_epik_State_Penalty>
3.20925

> <r_epik_Charging_Adjusted_Penalty>
3.20925

> <i_epik_Tot_Q>
-1

> <i_epik_Tot_abs_Q>
1

> <r_epik_Metal_State_Penalty>
0.119957

> <b_epik_Metal_Only>
1

> <s_epik_Chemistry_Notes>
This compound has an ester and may undergo hydrolysis at high or low pH. This compound contains an acetal/aminal-like group ( X-CH(R)-Y where X, Y are N, S, or O) that may be acid/base labile, releasing an aldehyde.

> <s_lp_Force_Field>
OPLS_2005

> <r_lp_Energy>
38.3605

> <b_lp_Chiralities_Consistent>
1

> <s_lp_Variant>
AV-unprocessed.smi:101-26

> <Gold.Version>
5.8.1

> <Gold.Id.Protein>
6NUR|6NUR_protein|mol2

> <Gold.PLP.Fitness>
49.4389

> <Gold.PLP.PLP>
-36.1626

> <Gold.PLP.part.hbond>
-5.0000

> <Gold.PLP.part.metal>
0.0000

> <Gold.PLP.part.buried>
-1.8097

> <Gold.PLP.part.nonpolar>
-28.1894

> <Gold.PLP.part.repulsive>
0.0586

> <Gold.PLP.ligand.clash>
0.0000

> <Gold.PLP.ligand.torsion>
0.5338

> <Gold.PLP.Chemscore.Hbond>
3.8450

> <Gold.PLP.Chemscore.CHOScore>
0.8954

> <Gold.PLP.Chemscore.Metal>
0.0000

> <Gold.Chemscore.Hbonds>
donor molecule, donor type, donor heavy atom, donor atom, acceptor molecule, acceptor atom, score
      L1  H    19    41       P1  7948  1.00
      P1  H  6896  6907       L1    24  0.98
      P1  H  6896  6909       L1    26  0.12
      P1  H  7997  8008       L1    11  0.73
      L1  C     3    30       P1  7948  1.00

> <Gold.PLP.Chemscore.Internal.Correction>
0.1227

> <Gold.Rescore>
     Score         DG    S(hbond)    S(metal)    S(lipo)     H(rot)  DE(clash)    DE(int)     intcor
     14.04     -16.79       2.61        0.00      93.65       3.27       0.98       1.77       ----

> <Gold.Chemscore.Fitness>
14.0360

> <Gold.Chemscore.DG>
-16.7907

> <Gold.Chemscore.ZeroCoef>
-5.4800

> <Gold.Chemscore.Hbond>
2.6089

> <Gold.Chemscore.Metal>
0.0000

> <Gold.Chemscore.Lipo>
93.6475

> <Gold.Chemscore.Internal_Hbond>
0.0000

> <Gold.Chemscore.DEClash>
0.9815

> <Gold.Chemscore.DEInternal>
1.7732

> <Gold.Chemscore.Rot>
3.2656

> <Gold.Chemscore.Internal.Correction>
   9.000000E+99

> <Gold.Chemscore.Hbonds>
donor molecule, donor type, donor heavy atom, donor atom, acceptor molecule, acceptor atom, score
      L1  H    19    41       P1  7948  0.68
      P1  H  6896  6907       L1    24  0.43
      P1  H  6896  6909       L1    26  0.06
      P1  H  7997  8008       L1    11  0.59

> <Gold.Chemscore.Hbond.Weighted>
-8.7138

> <Gold.Chemscore.Metal.Weighted>
-0.0000

> <Gold.Chemscore.Lipo.Weighted>
-10.9568

> <Gold.Chemscore.Internal_Hbond.Weighted>
0.0000

> <Gold.Chemscore.DEClash.Weighted>
0.9815

> <Gold.Chemscore.DEInternal.Weighted>
1.7732

> <Gold.Chemscore.Rot.Weighted>
8.3598

> <Gold.Chemscore.Internal.Correction.Weighted>
   9.000000E+99

> <Gold.Protein.RotatedTorsions>
[ 6907 6896 6895 6894 ] final  -49.79 input  -60.11 | X-H torsion
[ 7974 7965 7964 7962 ] final -170.87 input  175.53 | X-H torsion
[ 8008 7997 7996 7995 ] final  -69.02 input   59.86 | X-H torsion
[ 10167 10162 10161 10158 ] final  110.71 input  -65.29 | X-H torsion
[ 10718 10713 10712 10709 ] final  -37.25 input   66.30 | X-H torsion
[ 10763 10752 10751 10750 ] final   -8.94 input  -60.55 | X-H torsion
[ 11005 11000 10999 10996 ] final  142.07 input  -57.11 | X-H torsion

> <Gold.Protein.ActiveResidues>
 VAL166  LYS551  ARG553  GLY616  TRP617  ASP618  TYR619  PRO620  LYS621  CYS622 
 ASP623  PHE694  ASN695  SER759  ASP760  ASP761  ALA762  ILE779  LEU786  VAL792 
 PHE793  MET794  SER795  GLU796  ALA797  LYS798  CYS799  TRP800  GLU811  SER814 

> <Gold.Protein.RotatedAtoms>
  150.8770  134.8155  159.7196 H   0  0  0  0  0  0  0  0  0  0  0  0  # atno 6907 bound_to 6896
  152.4753  134.4856  159.9689 H   0  0  0  0  0  0  0  0  0  0  0  0  # atno 6908 bound_to 6896
  151.4936  133.3481  159.2893 H   0  0  0  0  0  0  0  0  0  0  0  0  # atno 6909 bound_to 6896
  144.7164  140.2008  143.6338 H   0  0  0  0  0  0  0  0  0  0  0  0  # atno 7974 bound_to 7965
  154.4908  140.0861  156.7591 H   0  0  0  0  0  0  0  0  0  0  0  0  # atno 8008 bound_to 7997
  155.4235  140.3446  155.4255 H   0  0  0  0  0  0  0  0  0  0  0  0  # atno 8009 bound_to 7997
  156.1327  140.1506  156.9028 H   0  0  0  0  0  0  0  0  0  0  0  0  # atno 8010 bound_to 7997
  139.6667  144.7127  151.1764 H   0  0  0  0  0  0  0  0  0  0  0  0  # atno 10167 bound_to 10162
  156.3173  130.4261  149.7993 H   0  0  0  0  0  0  0  0  0  0  0  0  # atno 10718 bound_to 10713
  153.4476  135.7014  153.6129 H   0  0  0  0  0  0  0  0  0  0  0  0  # atno 10763 bound_to 10752
  153.4477  135.3765  155.2266 H   0  0  0  0  0  0  0  0  0  0  0  0  # atno 10764 bound_to 10752
  154.8728  135.3989  154.3884 H   0  0  0  0  0  0  0  0  0  0  0  0  # atno 10765 bound_to 10752
  140.0449  134.9286  157.0911 H   0  0  0  0  0  0  0  0  0  0  0  0  # atno 11005 bound_to 11000
  145.8682  139.2258  143.1676 LP  0  0  0  0  0  0  0  0  0  0  0  0  # atno 17320 bound_to 7965
  146.0110  140.8435  142.9971 LP  0  0  0  0  0  0  0  0  0  0  0  0  # atno 17321 bound_to 7965
  140.7602  143.5908  150.8798 LP  0  0  0  0  0  0  0  0  0  0  0  0  # atno 17342 bound_to 10162
  139.9570  143.6207  152.3013 LP  0  0  0  0  0  0  0  0  0  0  0  0  # atno 17343 bound_to 10162
  156.5314  130.8259  151.3238 LP  0  0  0  0  0  0  0  0  0  0  0  0  # atno 17370 bound_to 10713
  157.7404  130.9850  150.2377 LP  0  0  0  0  0  0  0  0  0  0  0  0  # atno 17371 bound_to 10713
  140.4010  134.2083  155.7163 LP  0  0  0  0  0  0  0  0  0  0  0  0  # atno 17394 bound_to 11000
  141.1902  133.8222  157.0928 LP  0  0  0  0  0  0  0  0  0  0  0  0  # atno 17395 bound_to 11000

$$$$
