#       Name:                AV-unprocessed.smi:2531
#       Creating user name   scv26
#       Creation time:       Fri Mar 27 14:00:42 2020


#       File generated by GOLD software.
#

@<TRIPOS>MOLECULE
AV-unprocessed.smi:2531
    50    52     1
SMALL
NO_CHARGES


@<TRIPOS>ATOM
      1 ****        -0.8216   2.8376  -2.9981 O.2            1 S1                 0.0000
      2 ****        -1.3065   2.0873  -2.1502 C.2            1 S1                 0.0000
      3 ****        -2.7113   2.3504  -1.5743 C.3            1 S1                 0.0000
      4 ****        -3.7218   2.7539  -2.6667 C.3            1 S1                 0.0000
      5 ****        -3.8344   4.2749  -2.5783 C.3            1 S1                 0.0000
      6 ****        -3.7060   4.5607  -1.0851 C.3            1 S1                 0.0000
      7 ****        -2.7100   3.5188  -0.5617 C.3            1 S1                 0.0000
      8 ****        -0.5808   1.0196  -1.6165 N.am           1 S1                 0.0000
      9 ****        -0.5993   0.7155  -0.1935 C.3            1 S1                 0.0000
     10 ****         0.8250   0.1809  -0.3965 C.3            1 S1                 0.0000
     11 ****         0.8680  -1.6588  -0.6075 S.o2           1 S1                 0.0000
     12 ****         0.2471  -2.2743   0.5756 O.2            1 S1                 0.0000
     13 ****         0.3988  -2.0227  -1.9532 O.2            1 S1                 0.0000
     14 ****         2.5605  -1.9970  -0.5480 N.3            1 S1                 0.0000
     15 ****         2.9954  -3.3745  -0.3004 C.3            1 S1                 0.0000
     16 ****         3.6813  -3.5175   1.0702 C.3            1 S1                 0.0000
     17 ****         2.7675  -3.2034   2.2411 C.ar           1 S1                 0.0000
     18 ****         1.9552  -4.1889   2.8426 C.ar           1 S1                 0.0000
     19 ****         1.1022  -3.8239   3.9049 C.ar           1 S1                 0.0000
     20 ****         1.0798  -2.4836   4.3433 C.ar           1 S1                 0.0000
     21 ****         1.9118  -1.5402   3.7071 C.ar           1 S1                 0.0000
     22 ****         2.7146  -1.9288   2.6923 N.pl3          1 S1                 1.0000
     23 ****         0.8697   0.9654  -1.7149 C.3            1 S1                 0.0000
     24 ****        -3.0729   1.4394  -1.0953 H              1 S1                 0.0000
     25 ****        -3.4409   2.4240  -3.6682 H              1 S1                 0.0000
     26 ****        -4.6906   2.3038  -2.4460 H              1 S1                 0.0000
     27 ****        -3.0085   4.7412  -3.1173 H              1 S1                 0.0000
     28 ****        -4.7657   4.6527  -3.0007 H              1 S1                 0.0000
     29 ****        -3.3886   5.5836  -0.8809 H              1 S1                 0.0000
     30 ****        -4.6740   4.4137  -0.6041 H              1 S1                 0.0000
     31 ****        -2.9898   3.1809   0.4367 H              1 S1                 0.0000
     32 ****        -1.7215   3.9732  -0.4729 H              1 S1                 0.0000
     33 ****        -0.6358   1.6039   0.4400 H              1 S1                 0.0000
     34 ****        -1.3403  -0.0327   0.0901 H              1 S1                 0.0000
     35 ****         1.5308   0.5150   0.3642 H              1 S1                 0.0000
     36 ****         3.0408  -1.6013  -1.3565 H              1 S1                 0.0000
     37 ****         2.1438  -4.0523  -0.3751 H              1 S1                 0.0000
     38 ****         3.6904  -3.6612  -1.0898 H              1 S1                 0.0000
     39 ****         4.0529  -4.5365   1.1843 H              1 S1                 0.0000
     40 ****         4.5586  -2.8704   1.1158 H              1 S1                 0.0000
     41 ****         1.9760  -5.2094   2.4888 H              1 S1                 0.0000
     42 ****         0.4694  -4.5626   4.3750 H              1 S1                 0.0000
     43 ****         0.4318  -2.1840   5.1541 H              1 S1                 0.0000
     44 ****         1.9571  -0.4946   3.9744 H              1 S1                 0.0000
     45 ****         1.2394   0.4107  -2.5775 H              1 S1                 0.0000
     46 ****         1.3490   1.9409  -1.6118 H              1 S1                 0.0000
     47 ****         3.3035  -1.2289   2.2406 H              1 S1                 0.0000
     48 ****        -1.3407   3.6290  -3.3210 LP             1 S1                 0.0000
     49 ****         0.0912   2.6554  -3.3636 LP             1 S1                 0.0000
     50 ****         2.8337  -1.5390   0.2979 LP             1 S1                 0.0000
@<TRIPOS>BOND
    1    1    2 2     
    2    2    3 1     
    3    2    8 am    
    4    3    7 1     
    5    3    4 1     
    6    3   24 1     
    7    4    5 1     
    8    4   25 1     
    9    4   26 1     
   10    5    6 1     
   11    5   27 1     
   12    5   28 1     
   13    6    7 1     
   14    6   29 1     
   15    6   30 1     
   16    7   31 1     
   17    7   32 1     
   18    8   23 1     
   19    8    9 1     
   20    9   10 1     
   21    9   33 1     
   22    9   34 1     
   23   10   11 1     
   24   10   23 1     
   25   10   35 1     
   26   11   12 2     
   27   11   13 2     
   28   11   14 1     
   29   14   15 1     
   30   14   36 1     
   31   15   16 1     
   32   15   37 1     
   33   15   38 1     
   34   16   17 1     
   35   16   39 1     
   36   16   40 1     
   37   17   22 ar    
   38   17   18 ar    
   39   18   19 ar    
   40   18   41 1     
   41   19   20 ar    
   42   19   42 1     
   43   20   21 ar    
   44   20   43 1     
   45   21   22 ar    
   46   21   44 1     
   47   22   47 1     
   48   23   45 1     
   49   23   46 1     
   50    1   48 1     
   51    1   49 1     
   52   14   50 1     
@<TRIPOS>SUBSTRUCTURE
      1 S1             1
@<TRIPOS>SET
LONE_PAIRS      STATIC     ATOMS    <user>   **** ""
5 48 49 12 13 50
DONOR_HYDROGENS      STATIC     ATOMS    <user>   **** ""
2 36 47
ATOM$BLUE        STATIC     ATOMS    COLORGROUP SYSTEM
5 48 49 12 13 50
ATOM$RED        STATIC     ATOMS    COLORGROUP SYSTEM
2 36 47
