AV-unprocessed.smi:1422|AV-procd|sdf|5793|dock9
  -GOLD-   22720 5443D 1   1.00000     0.00000
 Structure written by MMmdl.
 31 32  0  0  0  0  0  0  0  0  1 V2000
  145.6286  130.5570  151.4002 C   0  0  0  0  0  0  0  0  0  0  0  0
  146.6920  131.3034  152.1301 C   0  0  0  0  0  0  0  0  0  0  0  0
  147.0787  132.6139  152.1250 C   0  0  0  0  0  0  0  0  0  0  0  0
  148.1537  132.6340  153.0532 C   0  0  0  0  0  0  0  0  0  0  0  0
  148.8436  133.8390  153.3415 N   0  0  0  0  0  0  0  0  0  0  0  0
  149.7248  134.0616  154.3314 C   0  0  0  0  0  0  0  0  0  0  0  0
  150.0808  133.2274  155.1644 O   0  0  0  0  0  0  0  0  0  0  0  0
  150.1767  135.3239  154.3054 N   0  0  0  0  0  0  0  0  0  0  0  0
  151.1419  135.8966  155.2389 C   0  0  0  0  0  0  0  0  0  0  0  0
  150.9687  137.4203  155.3826 C   0  0  1  0  0  0  0  0  0  0  0  0
  152.1434  138.1507  156.0049 C   0  0  0  0  0  0  0  0  0  0  0  0
  151.8925  139.5901  155.5645 C   0  0  0  0  0  0  0  0  0  0  0  0
  151.2114  139.5054  154.3158 O   0  0  0  0  0  0  0  0  0  0  0  0
  150.8514  138.1539  154.0473 C   0  0  0  0  0  0  0  0  0  0  0  0
  148.4012  131.4433  153.5771 N   0  0  0  0  0  0  0  0  0  0  0  0
  147.4660  130.5843  152.9878 O   0  0  0  0  0  0  0  0  0  0  0  0
  144.8906  131.2411  150.9810 H   0  0  0  0  0  0  0  0  0  0  0  0
  145.1091  129.8691  152.0677 H   0  0  0  0  0  0  0  0  0  0  0  0
  146.0567  129.9775  150.5821 H   0  0  0  0  0  0  0  0  0  0  0  0
  146.6582  133.4244  151.5486 H   0  0  0  0  0  0  0  0  0  0  0  0
  148.6451  134.6150  152.7276 H   0  0  0  0  0  0  0  0  0  0  0  0
  149.8272  135.9381  153.5844 H   0  0  0  0  0  0  0  0  0  0  0  0
  151.0797  135.4072  156.2125 H   0  0  0  0  0  0  0  0  0  0  0  0
  152.1391  135.6809  154.8550 H   0  0  0  0  0  0  0  0  0  0  0  0
  150.0744  137.6303  155.9720 H   0  0  0  0  0  0  0  0  0  0  0  0
  152.1943  138.0435  157.0889 H   0  0  0  0  0  0  0  0  0  0  0  0
  153.0824  137.7896  155.5823 H   0  0  0  0  0  0  0  0  0  0  0  0
  151.2428  140.0985  156.2778 H   0  0  0  0  0  0  0  0  0  0  0  0
  152.8152  140.1644  155.4779 H   0  0  0  0  0  0  0  0  0  0  0  0
  151.5577  137.7489  153.3210 H   0  0  0  0  0  0  0  0  0  0  0  0
  149.8512  138.0861  153.6190 H   0  0  0  0  0  0  0  0  0  0  0  0
  1  2  1  0  0  0  0
  1 17  1  0  0  0  0
  1 18  1  0  0  0  0
  1 19  1  0  0  0  0
  2 16  1  0  0  0  0
  2  3  2  0  0  0  0
  3  4  1  0  0  0  0
  3 20  1  0  0  0  0
  4  5  1  0  0  0  0
  4 15  2  0  0  0  0
  5  6  1  0  0  0  0
  5 21  1  0  0  0  0
  6  7  2  0  0  0  0
  6  8  1  0  0  0  0
  8  9  1  0  0  0  0
  8 22  1  0  0  0  0
  9 10  1  0  0  0  0
  9 23  1  0  0  0  0
  9 24  1  0  0  0  0
 10 14  1  0  0  0  0
 10 11  1  0  0  0  0
 10 25  1  0  0  0  0
 11 12  1  0  0  0  0
 11 26  1  0  0  0  0
 11 27  1  0  0  0  0
 12 13  1  0  0  0  0
 12 28  1  0  0  0  0
 12 29  1  0  0  0  0
 13 14  1  0  0  0  0
 14 30  1  0  0  0  0
 14 31  1  0  0  0  0
 15 16  1  0  0  0  0
M  END
> <s_m_source_file>
AV-unprocessed.smi

> <i_m_source_file_index>
1422

> <i_lp_mmshare_version>
43012

> <i_f3d_flags>
0

> <s_epik_input>
W0NIM11jMVtjSF1jKG5vMSlbTkhdQyg9TylbTkhdW0NIMl1bQ0BASF0yW0NIMl1bQ0gyXU9bQ0gyXTI=

> <s_epik_cmdline>
J2VwaWtfcHl0aG9uJywgJy1waCcsICc3LjAnLCAnLXRuJywgJzgnLCAnLW1hJywgJzIwMCcsICctbWV0YWxfYmluZGluZycsICctaW1hZScsICc8aW5maWxlLm1hZT4nLCAnLW9tYWUnLCAnPG91dGZpbGUubWFlPic=

> <r_lp_tautomer_probability>
1

> <r_epik_Ionization_Penalty>
2.27275e-05

> <r_epik_Ionization_Penalty_Charging>
0

> <r_epik_Ionization_Penalty_Neutral>
2.27275e-05

> <r_epik_State_Penalty>
-0

> <r_epik_Charging_Adjusted_Penalty>
0

> <i_epik_Tot_Q>
0

> <i_epik_Tot_abs_Q>
0

> <r_epik_Metal_State_Penalty>
-0

> <b_epik_Metal_Only>
0

> <s_lp_Force_Field>
OPLS_2005

> <r_lp_Energy>
16.3124

> <b_lp_Chiralities_Consistent>
1

> <s_lp_Variant>
AV-unprocessed.smi:1422-2

> <Gold.Version>
5.8.1

> <Gold.Id.Protein>
6NUR|6NUR_protein|mol2

> <Gold.PLP.Fitness>
34.9229

> <Gold.PLP.PLP>
-26.5691

> <Gold.PLP.part.hbond>
-3.3125

> <Gold.PLP.part.metal>
0.0000

> <Gold.PLP.part.buried>
-2.7582

> <Gold.PLP.part.nonpolar>
-19.9949

> <Gold.PLP.part.repulsive>
0.4004

> <Gold.PLP.ligand.clash>
0.0000

> <Gold.PLP.ligand.torsion>
0.3137

> <Gold.PLP.Chemscore.Hbond>
2.9920

> <Gold.PLP.Chemscore.CHOScore>
0.0000

> <Gold.PLP.Chemscore.Metal>
0.0000

> <Gold.Chemscore.Hbonds>
donor molecule, donor type, donor heavy atom, donor atom, acceptor molecule, acceptor atom, score
      L1  H     5    21       P1  7948  0.75
      L1  H     8    22       P1  7948  0.75
      P1  H  7989  7998       L1    13  1.00

> <Gold.PLP.Chemscore.Internal.Correction>
0.0052

> <Gold.Rescore>
     Score         DG    S(hbond)    S(metal)    S(lipo)     H(rot)  DE(clash)    DE(int)     intcor
     14.49     -15.97       2.31        0.00      52.16       1.30       0.02       1.46       ----

> <Gold.Chemscore.Fitness>
14.4859

> <Gold.Chemscore.DG>
-15.9665

> <Gold.Chemscore.ZeroCoef>
-5.4800

> <Gold.Chemscore.Hbond>
2.3061

> <Gold.Chemscore.Metal>
0.0000

> <Gold.Chemscore.Lipo>
52.1650

> <Gold.Chemscore.Internal_Hbond>
0.0000

> <Gold.Chemscore.DEClash>
0.0237

> <Gold.Chemscore.DEInternal>
1.4569

> <Gold.Chemscore.Rot>
1.2965

> <Gold.Chemscore.Internal.Correction>
   9.000000E+99

> <Gold.Chemscore.Hbonds>
donor molecule, donor type, donor heavy atom, donor atom, acceptor molecule, acceptor atom, score
      L1  H     5    21       P1  7948  0.09
      L1  H     8    22       P1  7948  0.09
      P1  H  7989  7998       L1    13  0.55

> <Gold.Chemscore.Hbond.Weighted>
-7.7023

> <Gold.Chemscore.Metal.Weighted>
-0.0000

> <Gold.Chemscore.Lipo.Weighted>
-6.1033

> <Gold.Chemscore.Internal_Hbond.Weighted>
0.0000

> <Gold.Chemscore.DEClash.Weighted>
0.0237

> <Gold.Chemscore.DEInternal.Weighted>
1.4569

> <Gold.Chemscore.Rot.Weighted>
3.3192

> <Gold.Chemscore.Internal.Correction.Weighted>
   9.000000E+99

> <Gold.Protein.RotatedTorsions>
[ 6907 6896 6895 6894 ] final  -82.45 input  -60.11 | X-H torsion
[ 7974 7965 7964 7962 ] final -129.34 input  175.53 | X-H torsion
[ 8008 7997 7996 7995 ] final  137.01 input   59.86 | X-H torsion
[ 10167 10162 10161 10158 ] final  153.01 input  -65.29 | X-H torsion
[ 10718 10713 10712 10709 ] final -162.92 input   66.30 | X-H torsion
[ 10763 10752 10751 10750 ] final -168.05 input  -60.55 | X-H torsion
[ 11005 11000 10999 10996 ] final  -24.13 input  -57.11 | X-H torsion

> <Gold.Protein.ActiveResidues>
 VAL166  LYS551  ARG553  GLY616  TRP617  ASP618  TYR619  PRO620  LYS621  CYS622 
 ASP623  PHE694  ASN695  SER759  ASP760  ASP761  ALA762  ILE779  LEU786  VAL792 
 PHE793  MET794  SER795  GLU796  ALA797  LYS798  CYS799  TRP800  GLU811  SER814 

> <Gold.Protein.RotatedAtoms>
  150.6897  134.3663  159.4972 H   0  0  0  0  0  0  0  0  0  0  0  0  # atno 6907 bound_to 6896
  152.1485  134.9004  160.0559 H   0  0  0  0  0  0  0  0  0  0  0  0  # atno 6908 bound_to 6896
  152.0111  133.3827  159.4257 H   0  0  0  0  0  0  0  0  0  0  0  0  # atno 6909 bound_to 6896
  144.9581  140.7418  143.4746 H   0  0  0  0  0  0  0  0  0  0  0  0  # atno 7974 bound_to 7965
  156.3003  140.2430  156.3839 H   0  0  0  0  0  0  0  0  0  0  0  0  # atno 8008 bound_to 7997
  154.8676  140.0417  157.1724 H   0  0  0  0  0  0  0  0  0  0  0  0  # atno 8009 bound_to 7997
  154.8829  140.2952  155.5418 H   0  0  0  0  0  0  0  0  0  0  0  0  # atno 8010 bound_to 7997
  139.4829  144.5310  151.7723 H   0  0  0  0  0  0  0  0  0  0  0  0  # atno 10167 bound_to 10162
  156.6174  130.8876  151.2950 H   0  0  0  0  0  0  0  0  0  0  0  0  # atno 10718 bound_to 10713
  154.6669  135.2933  154.9793 H   0  0  0  0  0  0  0  0  0  0  0  0  # atno 10763 bound_to 10752
  154.0834  135.6601  153.4845 H   0  0  0  0  0  0  0  0  0  0  0  0  # atno 10764 bound_to 10752
  153.0463  135.5203  154.7646 H   0  0  0  0  0  0  0  0  0  0  0  0  # atno 10765 bound_to 10752
  140.8816  133.7650  156.0309 H   0  0  0  0  0  0  0  0  0  0  0  0  # atno 11005 bound_to 11000
  145.2741  139.1943  143.4826 LP  0  0  0  0  0  0  0  0  0  0  0  0  # atno 17320 bound_to 7965
  146.3344  140.2692  142.8605 LP  0  0  0  0  0  0  0  0  0  0  0  0  # atno 17321 bound_to 7965
  140.4836  144.1414  150.5937 LP  0  0  0  0  0  0  0  0  0  0  0  0  # atno 17342 bound_to 10162
  140.4250  143.2594  151.9667 LP  0  0  0  0  0  0  0  0  0  0  0  0  # atno 17343 bound_to 10162
  157.7237  130.9593  150.1545 LP  0  0  0  0  0  0  0  0  0  0  0  0  # atno 17370 bound_to 10713
  156.2340  130.3684  149.8412 LP  0  0  0  0  0  0  0  0  0  0  0  0  # atno 17371 bound_to 10713
  140.8454  134.3017  157.5297 LP  0  0  0  0  0  0  0  0  0  0  0  0  # atno 17394 bound_to 11000
  139.8720  134.9439  156.3866 LP  0  0  0  0  0  0  0  0  0  0  0  0  # atno 17395 bound_to 11000

$$$$
