AV-unprocessed.smi:3199|AV-procd|sdf|12232|dock10
  -GOLD-   2272018 63D 1   1.00000     0.00000
 Structure written by MMmdl.
 35 36  0  0  0  0  0  0  0  0  1 V2000
  151.9383  145.8043  160.1230 C   0  0  0  0  0  0  0  0  0  0  0  0
  151.9523  144.4716  159.4038 C   0  0  0  0  0  0  0  0  0  0  0  0
  152.5847  143.3470  159.9747 C   0  0  0  0  0  0  0  0  0  0  0  0
  152.5645  142.1327  159.2621 C   0  0  0  0  0  0  0  0  0  0  0  0
  151.9161  142.0894  158.0110 C   0  0  0  0  0  0  0  0  0  0  0  0
  151.8586  140.8046  157.2086 C   0  0  0  0  0  0  0  0  0  0  0  0
  150.5975  139.9874  157.5188 C   0  0  0  0  0  0  0  0  0  0  0  0
  149.5670  140.2352  156.5206 N   0  0  0  0  0  0  0  0  0  0  0  0
  149.7815  140.2512  155.1972 C   0  0  0  0  0  0  0  0  0  0  0  0
  150.8858  140.0469  154.6912 O   0  0  0  0  0  0  0  0  0  0  0  0
  148.5579  140.5260  154.3154 C   0  0  1  0  0  0  0  0  0  0  0  0
  147.2200  140.5888  155.0784 C   0  0  0  0  0  0  0  0  0  0  0  0
  146.7692  142.0276  154.9063 C   0  0  0  0  0  0  0  0  0  0  0  0
  147.4483  142.4235  153.6030 C   0  0  0  0  0  0  0  0  0  0  0  0
  148.7209  141.8087  153.7155 O   0  0  0  0  0  0  0  0  0  0  0  0
  151.3141  143.2710  157.5291 C   0  0  0  0  0  0  0  0  0  0  0  0
  151.3287  144.4399  158.2053 N   0  0  0  0  0  0  0  0  0  0  0  0
  152.4314  145.7357  161.0932 H   0  0  0  0  0  0  0  0  0  0  0  0
  150.9126  146.1364  160.2862 H   0  0  0  0  0  0  0  0  0  0  0  0
  152.4552  146.5598  159.5308 H   0  0  0  0  0  0  0  0  0  0  0  0
  153.0733  143.4095  160.9360 H   0  0  0  0  0  0  0  0  0  0  0  0
  153.0366  141.2517  159.6714 H   0  0  0  0  0  0  0  0  0  0  0  0
  151.8955  141.0489  156.1458 H   0  0  0  0  0  0  0  0  0  0  0  0
  152.7507  140.2134  157.4204 H   0  0  0  0  0  0  0  0  0  0  0  0
  150.8331  138.9219  157.5319 H   0  0  0  0  0  0  0  0  0  0  0  0
  150.2183  140.2478  158.5085 H   0  0  0  0  0  0  0  0  0  0  0  0
  148.6295  140.4040  156.8559 H   0  0  0  0  0  0  0  0  0  0  0  0
  148.4892  139.7764  153.5250 H   0  0  0  0  0  0  0  0  0  0  0  0
  146.5010  139.9139  154.6125 H   0  0  0  0  0  0  0  0  0  0  0  0
  147.2883  140.3101  156.1309 H   0  0  0  0  0  0  0  0  0  0  0  0
  145.6848  142.1358  154.8732 H   0  0  0  0  0  0  0  0  0  0  0  0
  147.1509  142.6395  155.7247 H   0  0  0  0  0  0  0  0  0  0  0  0
  146.9158  142.0143  152.7428 H   0  0  0  0  0  0  0  0  0  0  0  0
  147.5319  143.5034  153.4798 H   0  0  0  0  0  0  0  0  0  0  0  0
  150.8040  143.2792  156.5769 H   0  0  0  0  0  0  0  0  0  0  0  0
  1  2  1  0  0  0  0
  1 18  1  0  0  0  0
  1 19  1  0  0  0  0
  1 20  1  0  0  0  0
  2 17  1  0  0  0  0
  2  3  2  0  0  0  0
  3  4  1  0  0  0  0
  3 21  1  0  0  0  0
  4  5  2  0  0  0  0
  4 22  1  0  0  0  0
  5  6  1  0  0  0  0
  5 16  1  0  0  0  0
  6  7  1  0  0  0  0
  6 23  1  0  0  0  0
  6 24  1  0  0  0  0
  7  8  1  0  0  0  0
  7 25  1  0  0  0  0
  7 26  1  0  0  0  0
  8  9  1  0  0  0  0
  8 27  1  0  0  0  0
  9 10  2  0  0  0  0
  9 11  1  0  0  0  0
 11 15  1  0  0  0  0
 11 12  1  0  0  0  0
 11 28  1  0  0  0  0
 12 13  1  0  0  0  0
 12 29  1  0  0  0  0
 12 30  1  0  0  0  0
 13 14  1  0  0  0  0
 13 31  1  0  0  0  0
 13 32  1  0  0  0  0
 14 15  1  0  0  0  0
 14 33  1  0  0  0  0
 14 34  1  0  0  0  0
 16 17  2  0  0  0  0
 16 35  1  0  0  0  0
M  END
> <s_m_source_file>
AV-unprocessed.smi

> <i_m_source_file_index>
3199

> <i_lp_mmshare_version>
43012

> <i_f3d_flags>
0

> <s_epik_input>
W0NIM11jMVtjSF1bY0hdYyhbY0hdbjEpW0NIMl1bQ0gyXVtOSF1DKD1PKVtDQEBIXTJbQ0gyXVtDSDJdW0NIMl1PMg==

> <s_epik_cmdline>
J2VwaWtfcHl0aG9uJywgJy1waCcsICc3LjAnLCAnLXRuJywgJzgnLCAnLW1hJywgJzIwMCcsICctbWV0YWxfYmluZGluZycsICctaW1hZScsICc8aW5maWxlLm1hZT4nLCAnLW9tYWUnLCAnPG91dGZpbGUubWFlPic=

> <r_epik_Ionization_Penalty>
0.0519155

> <r_epik_Ionization_Penalty_Charging>
0

> <r_epik_Ionization_Penalty_Neutral>
0.0519155

> <r_epik_State_Penalty>
0.0445047

> <r_epik_Charging_Adjusted_Penalty>
0.0445047

> <i_epik_Tot_Q>
0

> <i_epik_Tot_abs_Q>
0

> <r_epik_Metal_State_Penalty>
0.0408967

> <b_epik_Metal_Only>
0

> <s_lp_Force_Field>
OPLS_2005

> <r_lp_Energy>
16.9644

> <b_lp_Chiralities_Consistent>
1

> <s_lp_Variant>
AV-unprocessed.smi:3199-2

> <Gold.Version>
5.8.1

> <Gold.Id.Protein>
6NUR|6NUR_protein|mol2

> <Gold.PLP.Fitness>
42.2498

> <Gold.PLP.PLP>
-36.1493

> <Gold.PLP.part.hbond>
-2.0000

> <Gold.PLP.part.metal>
0.0000

> <Gold.PLP.part.buried>
-6.7500

> <Gold.PLP.part.nonpolar>
-26.7727

> <Gold.PLP.part.repulsive>
0.4206

> <Gold.PLP.ligand.clash>
0.0000

> <Gold.PLP.ligand.torsion>
0.8444

> <Gold.PLP.Chemscore.Hbond>
1.5920

> <Gold.PLP.Chemscore.CHOScore>
1.0000

> <Gold.PLP.Chemscore.Metal>
0.0000

> <Gold.Chemscore.Hbonds>
donor molecule, donor type, donor heavy atom, donor atom, acceptor molecule, acceptor atom, score
      P1  H  7989  7998       L1    10  1.00
      P1  H  8011  8017       L1    15  0.56
      L1  C    16    35       P1  8028  0.93

> <Gold.PLP.Chemscore.Internal.Correction>
0.0134

> <Gold.Rescore>
     Score         DG    S(hbond)    S(metal)    S(lipo)     H(rot)  DE(clash)    DE(int)     intcor
     15.35     -17.75       1.43        0.00      96.70       1.49       0.20       2.20       ----

> <Gold.Chemscore.Fitness>
15.3537

> <Gold.Chemscore.DG>
-17.7502

> <Gold.Chemscore.ZeroCoef>
-5.4800

> <Gold.Chemscore.Hbond>
1.4253

> <Gold.Chemscore.Metal>
0.0000

> <Gold.Chemscore.Lipo>
96.6983

> <Gold.Chemscore.Internal_Hbond>
0.0000

> <Gold.Chemscore.DEClash>
0.1973

> <Gold.Chemscore.DEInternal>
2.1992

> <Gold.Chemscore.Rot>
1.4859

> <Gold.Chemscore.Internal.Correction>
   9.000000E+99

> <Gold.Chemscore.Hbonds>
donor molecule, donor type, donor heavy atom, donor atom, acceptor molecule, acceptor atom, score
      P1  H  7989  7998       L1    10  0.99
      P1  H  8011  8017       L1    15  0.37

> <Gold.Chemscore.Hbond.Weighted>
-4.7604

> <Gold.Chemscore.Metal.Weighted>
-0.0000

> <Gold.Chemscore.Lipo.Weighted>
-11.3137

> <Gold.Chemscore.Internal_Hbond.Weighted>
0.0000

> <Gold.Chemscore.DEClash.Weighted>
0.1973

> <Gold.Chemscore.DEInternal.Weighted>
2.1992

> <Gold.Chemscore.Rot.Weighted>
3.8039

> <Gold.Chemscore.Internal.Correction.Weighted>
   9.000000E+99

> <Gold.Protein.RotatedTorsions>
[ 6907 6896 6895 6894 ] final   52.32 input  -60.11 | X-H torsion
[ 7974 7965 7964 7962 ] final  -10.47 input  175.53 | X-H torsion
[ 8008 7997 7996 7995 ] final -177.98 input   59.86 | X-H torsion
[ 10167 10162 10161 10158 ] final -167.21 input  -65.29 | X-H torsion
[ 10718 10713 10712 10709 ] final -118.28 input   66.30 | X-H torsion
[ 10763 10752 10751 10750 ] final   30.86 input  -60.55 | X-H torsion
[ 11005 11000 10999 10996 ] final  163.18 input  -57.11 | X-H torsion

> <Gold.Protein.ActiveResidues>
 VAL166  LYS551  ARG553  GLY616  TRP617  ASP618  TYR619  PRO620  LYS621  CYS622 
 ASP623  PHE694  ASN695  SER759  ASP760  ASP761  ALA762  ILE779  LEU786  VAL792 
 PHE793  MET794  SER795  GLU796  ALA797  LYS798  CYS799  TRP800  GLU811  SER814 

> <Gold.Protein.RotatedAtoms>
  152.3221  134.7367  160.0310 H   0  0  0  0  0  0  0  0  0  0  0  0  # atno 6907 bound_to 6896
  151.7812  133.3344  159.3480 H   0  0  0  0  0  0  0  0  0  0  0  0  # atno 6908 bound_to 6896
  150.7375  134.5860  159.6007 H   0  0  0  0  0  0  0  0  0  0  0  0  # atno 6909 bound_to 6896
  146.2219  140.2769  142.8360 H   0  0  0  0  0  0  0  0  0  0  0  0  # atno 7974 bound_to 7965
  156.0135  140.1245  157.0430 H   0  0  0  0  0  0  0  0  0  0  0  0  # atno 8008 bound_to 7997
  154.4284  140.1083  156.5932 H   0  0  0  0  0  0  0  0  0  0  0  0  # atno 8009 bound_to 7997
  155.6047  140.3471  155.4606 H   0  0  0  0  0  0  0  0  0  0  0  0  # atno 8010 bound_to 7997
  139.6064  144.0904  152.1797 H   0  0  0  0  0  0  0  0  0  0  0  0  # atno 10167 bound_to 10162
  156.1095  130.6237  150.9271 H   0  0  0  0  0  0  0  0  0  0  0  0  # atno 10718 bound_to 10713
  153.0348  135.6453  154.1109 H   0  0  0  0  0  0  0  0  0  0  0  0  # atno 10763 bound_to 10752
  154.0826  135.2872  155.3289 H   0  0  0  0  0  0  0  0  0  0  0  0  # atno 10764 bound_to 10752
  154.6519  135.5423  153.7976 H   0  0  0  0  0  0  0  0  0  0  0  0  # atno 10765 bound_to 10752
  140.2332  134.8108  157.3338 H   0  0  0  0  0  0  0  0  0  0  0  0  # atno 11005 bound_to 11000
  144.9226  140.7885  143.5739 LP  0  0  0  0  0  0  0  0  0  0  0  0  # atno 17320 bound_to 7965
  145.2706  139.1956  143.4843 LP  0  0  0  0  0  0  0  0  0  0  0  0  # atno 17321 bound_to 7965
  140.0513  144.5931  150.7334 LP  0  0  0  0  0  0  0  0  0  0  0  0  # atno 17342 bound_to 10162
  140.7288  143.2665  151.4027 LP  0  0  0  0  0  0  0  0  0  0  0  0  # atno 17343 bound_to 10162
  157.6275  131.0924  150.8506 LP  0  0  0  0  0  0  0  0  0  0  0  0  # atno 17370 bound_to 10713
  156.8619  130.5116  149.5303 LP  0  0  0  0  0  0  0  0  0  0  0  0  # atno 17371 bound_to 10713
  140.1729  134.4586  155.7820 LP  0  0  0  0  0  0  0  0  0  0  0  0  # atno 17394 bound_to 11000
  141.2216  133.6949  156.7737 LP  0  0  0  0  0  0  0  0  0  0  0  0  # atno 17395 bound_to 11000

$$$$
