AV-unprocessed.smi:1346|AV-procd|sdf|5514|dock8
  -GOLD-   22720 5103D 1   1.00000     0.00000
 Structure written by MMmdl.
 47 48  0  0  0  0  0  0  0  0  1 V2000
  143.6712  134.0185  152.0115 C   0  0  0  0  0  0  0  0  0  0  0  0
  142.4972  134.6099  152.7379 C   0  0  0  0  0  0  0  0  0  0  0  0
  141.4270  133.8669  152.9644 N   0  0  0  0  0  0  0  0  0  0  0  0
  140.5259  134.6907  153.6453 O   0  0  0  0  0  0  0  0  0  0  0  0
  141.0954  135.9124  153.8036 C   0  0  0  0  0  0  0  0  0  0  0  0
  140.2809  136.9405  154.5133 C   0  0  0  0  0  0  0  0  0  0  0  0
  142.3461  135.9310  153.2492 C   0  0  0  0  0  0  0  0  0  0  0  0
  143.3345  137.0667  153.1859 C   0  0  0  0  0  0  0  0  0  0  0  0
  143.6733  137.5352  154.6009 C   0  0  0  0  0  0  0  0  0  0  0  0
  143.7742  136.7154  155.5133 O   0  0  0  0  0  0  0  0  0  0  0  0
  143.8480  138.8548  154.7690 N   0  0  0  0  0  0  0  0  0  0  0  0
  144.1860  139.5064  156.0294 C   0  0  0  0  0  0  0  0  0  0  0  0
  145.1959  140.6447  155.8275 C   0  0  0  0  0  0  0  0  0  0  0  0
  146.4702  140.0887  155.5409 O   0  0  0  0  0  0  0  0  0  0  0  0
  146.8497  140.1677  154.1713 C   0  0  2  0  0  0  0  0  0  0  0  0
  147.8073  138.9978  153.8768 C   0  0  0  0  0  0  0  0  0  0  0  0
  149.1404  139.1392  154.6310 C   0  0  0  0  0  0  0  0  0  0  0  0
  149.8060  140.4924  154.3400 C   0  0  0  0  0  0  0  0  0  0  0  0
  148.8570  141.6592  154.6567 C   0  0  0  0  0  0  0  0  0  0  0  0
  147.5272  141.5294  153.8877 C   0  0  2  0  0  0  0  0  0  0  0  0
  146.5964  142.7217  154.1565 C   0  0  0  0  0  0  0  0  0  0  0  0
  144.6073  134.2783  152.5055 H   0  0  0  0  0  0  0  0  0  0  0  0
  143.7217  134.3898  150.9878 H   0  0  0  0  0  0  0  0  0  0  0  0
  143.6138  132.9303  151.9682 H   0  0  0  0  0  0  0  0  0  0  0  0
  140.9197  137.6731  155.0062 H   0  0  0  0  0  0  0  0  0  0  0  0
  139.6505  136.4804  155.2742 H   0  0  0  0  0  0  0  0  0  0  0  0
  139.6352  137.4708  153.8135 H   0  0  0  0  0  0  0  0  0  0  0  0
  144.2570  136.7632  152.6897 H   0  0  0  0  0  0  0  0  0  0  0  0
  142.9432  137.9030  152.6049 H   0  0  0  0  0  0  0  0  0  0  0  0
  143.7520  139.4522  153.9606 H   0  0  0  0  0  0  0  0  0  0  0  0
  143.2698  139.8969  156.4729 H   0  0  0  0  0  0  0  0  0  0  0  0
  144.5825  138.7710  156.7314 H   0  0  0  0  0  0  0  0  0  0  0  0
  144.8813  141.2768  154.9961 H   0  0  0  0  0  0  0  0  0  0  0  0
  145.2390  141.2765  156.7157 H   0  0  0  0  0  0  0  0  0  0  0  0
  145.9799  140.0592  153.5198 H   0  0  0  0  0  0  0  0  0  0  0  0
  147.3308  138.0519  154.1366 H   0  0  0  0  0  0  0  0  0  0  0  0
  148.0049  138.9560  152.8051 H   0  0  0  0  0  0  0  0  0  0  0  0
  148.9684  139.0400  155.7036 H   0  0  0  0  0  0  0  0  0  0  0  0
  149.8124  138.3273  154.3511 H   0  0  0  0  0  0  0  0  0  0  0  0
  150.7223  140.5890  154.9226 H   0  0  0  0  0  0  0  0  0  0  0  0
  150.1009  140.5367  153.2908 H   0  0  0  0  0  0  0  0  0  0  0  0
  148.6634  141.6923  155.7299 H   0  0  0  0  0  0  0  0  0  0  0  0
  149.3439  142.6016  154.4035 H   0  0  0  0  0  0  0  0  0  0  0  0
  147.7653  141.5535  152.8233 H   0  0  0  0  0  0  0  0  0  0  0  0
  146.3450  142.8008  155.2140 H   0  0  0  0  0  0  0  0  0  0  0  0
  145.6651  142.6282  153.5972 H   0  0  0  0  0  0  0  0  0  0  0  0
  147.0659  143.6597  153.8595 H   0  0  0  0  0  0  0  0  0  0  0  0
  1  2  1  0  0  0  0
  1 22  1  0  0  0  0
  1 23  1  0  0  0  0
  1 24  1  0  0  0  0
  2  7  1  0  0  0  0
  2  3  2  0  0  0  0
  3  4  1  0  0  0  0
  4  5  1  0  0  0  0
  5  6  1  0  0  0  0
  5  7  2  0  0  0  0
  6 25  1  0  0  0  0
  6 26  1  0  0  0  0
  6 27  1  0  0  0  0
  7  8  1  0  0  0  0
  8  9  1  0  0  0  0
  8 28  1  0  0  0  0
  8 29  1  0  0  0  0
  9 10  2  0  0  0  0
  9 11  1  0  0  0  0
 11 12  1  0  0  0  0
 11 30  1  0  0  0  0
 12 13  1  0  0  0  0
 12 31  1  0  0  0  0
 12 32  1  0  0  0  0
 13 14  1  0  0  0  0
 13 33  1  0  0  0  0
 13 34  1  0  0  0  0
 14 15  1  0  0  0  0
 15 20  1  0  0  0  0
 15 16  1  0  0  0  0
 15 35  1  0  0  0  0
 16 17  1  0  0  0  0
 16 36  1  0  0  0  0
 16 37  1  0  0  0  0
 17 18  1  0  0  0  0
 17 38  1  0  0  0  0
 17 39  1  0  0  0  0
 18 19  1  0  0  0  0
 18 40  1  0  0  0  0
 18 41  1  0  0  0  0
 19 20  1  0  0  0  0
 19 42  1  0  0  0  0
 19 43  1  0  0  0  0
 20 21  1  0  0  0  0
 20 44  1  0  0  0  0
 21 45  1  0  0  0  0
 21 46  1  0  0  0  0
 21 47  1  0  0  0  0
M  END
> <s_m_source_file>
AV-unprocessed.smi

> <i_m_source_file_index>
1346

> <i_lp_mmshare_version>
43012

> <i_f3d_flags>
0

> <s_epik_input>
W0NIM11jMW5vYyhbQ0gzXSljMVtDSDJdQyg9TylbTkhdW0NIMl1bQ0gyXU9bQ0BASF0yW0NIMl1bQ0gyXVtDSDJdW0NIMl1bQ0BIXTJbQ0gzXQ==

> <s_epik_cmdline>
J2VwaWtfcHl0aG9uJywgJy1waCcsICc3LjAnLCAnLXRuJywgJzgnLCAnLW1hJywgJzIwMCcsICctbWV0YWxfYmluZGluZycsICctaW1hZScsICc8aW5maWxlLm1hZT4nLCAnLW9tYWUnLCAnPG91dGZpbGUubWFlPic=

> <r_lp_tautomer_probability>
1

> <r_epik_Ionization_Penalty>
3.26154e-08

> <r_epik_Ionization_Penalty_Charging>
0

> <r_epik_Ionization_Penalty_Neutral>
3.26154e-08

> <r_epik_State_Penalty>
-0

> <r_epik_Charging_Adjusted_Penalty>
0

> <i_epik_Tot_Q>
0

> <i_epik_Tot_abs_Q>
0

> <r_epik_Metal_State_Penalty>
-0

> <b_epik_Metal_Only>
0

> <s_lp_Force_Field>
OPLS_2005

> <r_lp_Energy>
6.35262

> <b_lp_Chiralities_Consistent>
1

> <s_lp_Variant>
AV-unprocessed.smi:1346-3

> <Gold.Version>
5.8.1

> <Gold.Id.Protein>
6NUR|6NUR_protein|mol2

> <Gold.PLP.Fitness>
37.7540

> <Gold.PLP.PLP>
-33.9248

> <Gold.PLP.part.hbond>
-3.6583

> <Gold.PLP.part.metal>
0.0000

> <Gold.PLP.part.buried>
-4.7487

> <Gold.PLP.part.nonpolar>
-26.7375

> <Gold.PLP.part.repulsive>
0.5169

> <Gold.PLP.ligand.clash>
0.0000

> <Gold.PLP.ligand.torsion>
1.1357

> <Gold.PLP.Chemscore.Hbond>
2.0000

> <Gold.PLP.Chemscore.CHOScore>
0.0000

> <Gold.PLP.Chemscore.Metal>
0.0000

> <Gold.Chemscore.Hbonds>
donor molecule, donor type, donor heavy atom, donor atom, acceptor molecule, acceptor atom, score
      L1  H    11    30       P1 10175  1.00
      P1  H 10995 11001       L1     4  0.03
      P1  H 11000 11005       L1     4  0.51

> <Gold.PLP.Chemscore.Internal.Correction>
0.1006

> <Gold.Rescore>
     Score         DG    S(hbond)    S(metal)    S(lipo)     H(rot)  DE(clash)    DE(int)     intcor
     12.83     -14.45       1.47        0.00      72.71       1.74       0.33       1.28       ----

> <Gold.Chemscore.Fitness>
12.8287

> <Gold.Chemscore.DG>
-14.4454

> <Gold.Chemscore.ZeroCoef>
-5.4800

> <Gold.Chemscore.Hbond>
1.4671

> <Gold.Chemscore.Metal>
0.0000

> <Gold.Chemscore.Lipo>
72.7133

> <Gold.Chemscore.Internal_Hbond>
0.0000

> <Gold.Chemscore.DEClash>
0.3319

> <Gold.Chemscore.DEInternal>
1.2847

> <Gold.Chemscore.Rot>
1.7352

> <Gold.Chemscore.Internal.Correction>
   9.000000E+99

> <Gold.Chemscore.Hbonds>
donor molecule, donor type, donor heavy atom, donor atom, acceptor molecule, acceptor atom, score
      L1  H    11    30       P1 10175  1.00
      P1  H 11000 11005       L1     4  0.05

> <Gold.Chemscore.Hbond.Weighted>
-4.9000

> <Gold.Chemscore.Metal.Weighted>
-0.0000

> <Gold.Chemscore.Lipo.Weighted>
-8.5075

> <Gold.Chemscore.Internal_Hbond.Weighted>
0.0000

> <Gold.Chemscore.DEClash.Weighted>
0.3319

> <Gold.Chemscore.DEInternal.Weighted>
1.2847

> <Gold.Chemscore.Rot.Weighted>
4.4420

> <Gold.Chemscore.Internal.Correction.Weighted>
   9.000000E+99

> <Gold.Protein.RotatedTorsions>
[ 6907 6896 6895 6894 ] final   45.99 input  -60.11 | X-H torsion
[ 7974 7965 7964 7962 ] final   67.43 input  175.53 | X-H torsion
[ 8008 7997 7996 7995 ] final   65.54 input   59.86 | X-H torsion
[ 10167 10162 10161 10158 ] final  162.87 input  -65.29 | X-H torsion
[ 10718 10713 10712 10709 ] final   44.58 input   66.30 | X-H torsion
[ 10763 10752 10751 10750 ] final   20.57 input  -60.55 | X-H torsion
[ 11005 11000 10999 10996 ] final   38.64 input  -57.11 | X-H torsion

> <Gold.Protein.ActiveResidues>
 VAL166  LYS551  ARG553  GLY616  TRP617  ASP618  TYR619  PRO620  LYS621  CYS622 
 ASP623  PHE694  ASN695  SER759  ASP760  ASP761  ALA762  ILE779  LEU786  VAL792 
 PHE793  MET794  SER795  GLU796  ALA797  LYS798  CYS799  TRP800  GLU811  SER814 

> <Gold.Protein.RotatedAtoms>
  152.2511  134.8132  160.0445 H   0  0  0  0  0  0  0  0  0  0  0  0  # atno 6907 bound_to 6896
  151.8812  133.3490  159.3775 H   0  0  0  0  0  0  0  0  0  0  0  0  # atno 6908 bound_to 6896
  150.7084  134.4944  159.5575 H   0  0  0  0  0  0  0  0  0  0  0  0  # atno 6909 bound_to 6896
  145.8147  139.3052  143.1078 H   0  0  0  0  0  0  0  0  0  0  0  0  # atno 7974 bound_to 7965
  155.6634  140.3497  155.4791 H   0  0  0  0  0  0  0  0  0  0  0  0  # atno 8008 bound_to 7997
  155.9749  140.1163  157.0801 H   0  0  0  0  0  0  0  0  0  0  0  0  # atno 8009 bound_to 7997
  154.4176  140.1149  156.5343 H   0  0  0  0  0  0  0  0  0  0  0  0  # atno 8010 bound_to 7997
  139.4866  144.4394  151.8971 H   0  0  0  0  0  0  0  0  0  0  0  0  # atno 10167 bound_to 10162
  157.4284  130.8010  149.7580 H   0  0  0  0  0  0  0  0  0  0  0  0  # atno 10718 bound_to 10713
  153.1067  135.6686  153.9574 H   0  0  0  0  0  0  0  0  0  0  0  0  # atno 10763 bound_to 10752
  153.9129  135.3023  155.3450 H   0  0  0  0  0  0  0  0  0  0  0  0  # atno 10764 bound_to 10752
  154.7488  135.5045  153.9327 H   0  0  0  0  0  0  0  0  0  0  0  0  # atno 10765 bound_to 10752
  140.2106  134.3760  155.8051 H   0  0  0  0  0  0  0  0  0  0  0  0  # atno 11005 bound_to 11000
  145.9739  140.8738  143.0148 LP  0  0  0  0  0  0  0  0  0  0  0  0  # atno 17320 bound_to 7965
  144.6753  140.1985  143.7389 LP  0  0  0  0  0  0  0  0  0  0  0  0  # atno 17321 bound_to 7965
  140.3845  144.2694  150.5905 LP  0  0  0  0  0  0  0  0  0  0  0  0  # atno 17342 bound_to 10162
  140.5203  143.2267  151.8400 LP  0  0  0  0  0  0  0  0  0  0  0  0  # atno 17343 bound_to 10162
  155.9904  130.3944  150.3028 LP  0  0  0  0  0  0  0  0  0  0  0  0  # atno 17370 bound_to 10713
  157.1183  131.0240  151.3020 LP  0  0  0  0  0  0  0  0  0  0  0  0  # atno 17371 bound_to 10713
  141.2226  133.7141  156.8411 LP  0  0  0  0  0  0  0  0  0  0  0  0  # atno 17394 bound_to 11000
  140.1955  134.8935  157.3109 LP  0  0  0  0  0  0  0  0  0  0  0  0  # atno 17395 bound_to 11000

$$$$
