AV-unprocessed.smi:312|AV-procd|sdf|2305|dock1
  -GOLD-   2262022203D 1   1.00000     0.00000
 Structure written by MMmdl.
 36 37  0  0  0  0  0  0  0  0  2 V2000
  149.0168  139.9227  157.0906 C   0  0  0  0  0  0  0  0  0  0  0  0
  149.3609  141.1230  156.1986 C   0  0  2  0  0  0  0  0  0  0  0  0
  149.5936  140.6845  154.7364 C   0  0  0  0  0  0  0  0  0  0  0  0
  148.3604  140.2646  154.0617 N   0  0  0  0  0  0  0  0  0  0  0  0
  148.1192  139.0630  153.4466 C   0  0  0  0  0  0  0  0  0  0  0  0
  146.8334  139.1171  152.9738 C   0  0  0  0  0  0  0  0  0  0  0  0
  146.3466  140.3509  153.3145 N   0  3  0  0  0  0  0  0  0  0  0  0
  147.2783  141.0490  153.9713 C   0  0  0  0  0  0  0  0  0  0  0  0
  150.5414  141.7924  156.7440 N   0  0  0  0  0  0  0  0  0  0  0  0
  150.6580  142.2893  157.9859 C   0  0  0  0  0  0  0  0  0  0  0  0
  149.7526  142.2383  158.8195 O   0  0  0  0  0  0  0  0  0  0  0  0
  151.9969  142.9621  158.3298 C   0  0  0  0  0  0  0  0  0  0  0  0
  152.5737  142.4601  159.6734 C   0  0  0  0  0  0  0  0  0  0  0  0
  152.5343  143.6418  160.6540 C   0  0  0  0  0  0  0  0  0  0  0  0
  151.6305  144.6912  160.0099 C   0  0  0  0  0  0  0  0  0  0  0  0
  151.8314  144.4815  158.5102 C   0  0  0  0  0  0  0  0  0  0  0  0
  148.1174  139.4170  156.7383 H   0  0  0  0  0  0  0  0  0  0  0  0
  148.8344  140.2367  158.1189 H   0  0  0  0  0  0  0  0  0  0  0  0
  149.8256  139.1912  157.1038 H   0  0  0  0  0  0  0  0  0  0  0  0
  148.5067  141.8019  156.2317 H   0  0  0  0  0  0  0  0  0  0  0  0
  150.0561  141.4851  154.1567 H   0  0  0  0  0  0  0  0  0  0  0  0
  150.2778  139.8357  154.7022 H   0  0  0  0  0  0  0  0  0  0  0  0
  148.8584  138.2763  153.3997 H   0  0  0  0  0  0  0  0  0  0  0  0
  146.2436  138.3890  152.4360 H   0  0  0  0  0  0  0  0  0  0  0  0
  147.1722  142.0451  154.3627 H   0  0  0  0  0  0  0  0  0  0  0  0
  151.3378  141.8776  156.1286 H   0  0  0  0  0  0  0  0  0  0  0  0
  152.7060  142.7656  157.5240 H   0  0  0  0  0  0  0  0  0  0  0  0
  152.0059  141.6192  160.0755 H   0  0  0  0  0  0  0  0  0  0  0  0
  153.5978  142.1069  159.5484 H   0  0  0  0  0  0  0  0  0  0  0  0
  152.1839  143.3491  161.6443 H   0  0  0  0  0  0  0  0  0  0  0  0
  153.5391  144.0502  160.7702 H   0  0  0  0  0  0  0  0  0  0  0  0
  150.5906  144.4994  160.2765 H   0  0  0  0  0  0  0  0  0  0  0  0
  151.8735  145.7052  160.3284 H   0  0  0  0  0  0  0  0  0  0  0  0
  152.7443  144.9856  158.1901 H   0  0  0  0  0  0  0  0  0  0  0  0
  151.0115  144.9021  157.9258 H   0  0  0  0  0  0  0  0  0  0  0  0
  145.4158  140.6879  153.1020 H   0  0  0  0  0  0  0  0  0  0  0  0
  1  2  1  0  0  0  0
  1 17  1  0  0  0  0
  1 18  1  0  0  0  0
  1 19  1  0  0  0  0
  2  3  1  0  0  0  0
  2  9  1  0  0  0  0
  2 20  1  0  0  0  0
  3  4  1  0  0  0  0
  3 21  1  0  0  0  0
  3 22  1  0  0  0  0
  4  8  1  0  0  0  0
  4  5  1  0  0  0  0
  5  6  2  0  0  0  0
  5 23  1  0  0  0  0
  6  7  1  0  0  0  0
  6 24  1  0  0  0  0
  7  8  2  0  0  0  0
  7 36  1  0  0  0  0
  8 25  1  0  0  0  0
  9 10  1  0  0  0  0
  9 26  1  0  0  0  0
 10 11  2  0  0  0  0
 10 12  1  0  0  0  0
 12 16  1  0  0  0  0
 12 13  1  0  0  0  0
 12 27  1  0  0  0  0
 13 14  1  0  0  0  0
 13 28  1  0  0  0  0
 13 29  1  0  0  0  0
 14 15  1  0  0  0  0
 14 30  1  0  0  0  0
 14 31  1  0  0  0  0
 15 16  1  0  0  0  0
 15 32  1  0  0  0  0
 15 33  1  0  0  0  0
 16 34  1  0  0  0  0
 16 35  1  0  0  0  0
M  CHG  1   7   1
M  END
> <s_m_source_file>
AV-unprocessed.smi

> <i_m_source_file_index>
312

> <i_lp_mmshare_version>
43012

> <i_f3d_flags>
0

> <s_epik_input>
W2NIXTFuW2NIXVtjSF1uMVtDSDJdW0NAQEhdKFtDSDNdKVtOSF1DKD1PKVtDSF0yW0NIMl1bQ0gyXVtDSDJdW0NIMl0y

> <s_epik_cmdline>
J2VwaWtfcHl0aG9uJywgJy1waCcsICc3LjAnLCAnLXRuJywgJzgnLCAnLW1hJywgJzIwMCcsICctbWV0YWxfYmluZGluZycsICctaW1hZScsICc8aW5maWxlLm1hZT4nLCAnLW9tYWUnLCAnPG91dGZpbGUubWFlPic=

> <r_lp_tautomer_probability>
1

> <r_epik_Ionization_Penalty>
0.244425

> <r_epik_Ionization_Penalty_Charging>
0

> <r_epik_Ionization_Penalty_Neutral>
0.244425

> <r_epik_State_Penalty>
0.23553

> <r_epik_Charging_Adjusted_Penalty>
0.23553

> <i_epik_Tot_Q>
1

> <i_epik_Tot_abs_Q>
1

> <r_epik_Metal_State_Penalty>
0.528799

> <b_epik_Metal_Only>
0

> <s_lp_Force_Field>
OPLS_2005

> <r_lp_Energy>
22.6864

> <b_lp_Chiralities_Consistent>
1

> <s_lp_Variant>
AV-unprocessed.smi:312-1

> <Gold.Version>
5.8.1

> <Gold.Id.Protein>
6NUR|6NUR_protein|mol2

> <Gold.PLP.Fitness>
44.0330

> <Gold.PLP.PLP>
-35.9427

> <Gold.PLP.part.hbond>
-1.5450

> <Gold.PLP.part.metal>
0.0000

> <Gold.PLP.part.buried>
-2.6477

> <Gold.PLP.part.nonpolar>
-32.3238

> <Gold.PLP.part.repulsive>
0.1504

> <Gold.PLP.ligand.clash>
0.0000

> <Gold.PLP.ligand.torsion>
0.2622

> <Gold.PLP.Chemscore.Hbond>
2.0000

> <Gold.PLP.Chemscore.CHOScore>
0.8590

> <Gold.PLP.Chemscore.Metal>
0.0000

> <Gold.Chemscore.Hbonds>
donor molecule, donor type, donor heavy atom, donor atom, acceptor molecule, acceptor atom, score
      L1  H     7    36       P1 10175  2.00
      L1  C     5    23       P1  7948  0.98

> <Gold.PLP.Chemscore.Internal.Correction>
0.0376

> <Gold.Rescore>
     Score         DG    S(hbond)    S(metal)    S(lipo)     H(rot)  DE(clash)    DE(int)     intcor
     14.31     -14.42       0.99        0.00      88.06       1.82       0.04       0.07       ----

> <Gold.Chemscore.Fitness>
14.3149

> <Gold.Chemscore.DG>
-14.4209

> <Gold.Chemscore.ZeroCoef>
-5.4800

> <Gold.Chemscore.Hbond>
0.9899

> <Gold.Chemscore.Metal>
0.0000

> <Gold.Chemscore.Lipo>
88.0579

> <Gold.Chemscore.Internal_Hbond>
0.0000

> <Gold.Chemscore.DEClash>
0.0405

> <Gold.Chemscore.DEInternal>
0.0655

> <Gold.Chemscore.Rot>
1.8235

> <Gold.Chemscore.Internal.Correction>
   9.000000E+99

> <Gold.Chemscore.Hbonds>
donor molecule, donor type, donor heavy atom, donor atom, acceptor molecule, acceptor atom, score
      L1  H     7    36       P1 10175  0.73

> <Gold.Chemscore.Hbond.Weighted>
-3.3064

> <Gold.Chemscore.Metal.Weighted>
-0.0000

> <Gold.Chemscore.Lipo.Weighted>
-10.3028

> <Gold.Chemscore.Internal_Hbond.Weighted>
0.0000

> <Gold.Chemscore.DEClash.Weighted>
0.0405

> <Gold.Chemscore.DEInternal.Weighted>
0.0655

> <Gold.Chemscore.Rot.Weighted>
4.6683

> <Gold.Chemscore.Internal.Correction.Weighted>
   9.000000E+99

> <Gold.Protein.RotatedTorsions>
[ 6907 6896 6895 6894 ] final  126.71 input  -60.11 | X-H torsion
[ 7974 7965 7964 7962 ] final  -79.05 input  175.53 | X-H torsion
[ 8008 7997 7996 7995 ] final   21.14 input   59.86 | X-H torsion
[ 10167 10162 10161 10158 ] final   32.03 input  -65.29 | X-H torsion
[ 10718 10713 10712 10709 ] final  160.94 input   66.30 | X-H torsion
[ 10763 10752 10751 10750 ] final   99.12 input  -60.55 | X-H torsion
[ 11005 11000 10999 10996 ] final   45.64 input  -57.11 | X-H torsion

> <Gold.Protein.ActiveResidues>
 VAL166  LYS551  ARG553  GLY616  TRP617  ASP618  TYR619  PRO620  LYS621  CYS622 
 ASP623  PHE694  ASN695  SER759  ASP760  ASP761  ALA762  ILE779  LEU786  VAL792 
 PHE793  MET794  SER795  GLU796  ALA797  LYS798  CYS799  TRP800  GLU811  SER814 

> <Gold.Protein.RotatedAtoms>
  152.3879  133.6637  159.6213 H   0  0  0  0  0  0  0  0  0  0  0  0  # atno 6907 bound_to 6896
  150.7794  133.9004  159.3348 H   0  0  0  0  0  0  0  0  0  0  0  0  # atno 6908 bound_to 6896
  151.6797  135.0965  160.0265 H   0  0  0  0  0  0  0  0  0  0  0  0  # atno 6909 bound_to 6896
  145.5783  140.9453  143.1358 H   0  0  0  0  0  0  0  0  0  0  0  0  # atno 7974 bound_to 7965
  154.9461  140.3059  155.5097 H   0  0  0  0  0  0  0  0  0  0  0  0  # atno 8008 bound_to 7997
  156.2991  140.2327  156.4472 H   0  0  0  0  0  0  0  0  0  0  0  0  # atno 8009 bound_to 7997
  154.8099  140.0429  157.1323 H   0  0  0  0  0  0  0  0  0  0  0  0  # atno 8010 bound_to 7997
  140.4535  144.1012  150.6197 H   0  0  0  0  0  0  0  0  0  0  0  0  # atno 10167 bound_to 10162
  157.1435  131.0546  151.2315 H   0  0  0  0  0  0  0  0  0  0  0  0  # atno 10718 bound_to 10713
  153.2974  135.4124  155.1222 H   0  0  0  0  0  0  0  0  0  0  0  0  # atno 10763 bound_to 10752
  154.8539  135.3533  154.5898 H   0  0  0  0  0  0  0  0  0  0  0  0  # atno 10764 bound_to 10752
  153.6322  135.7060  153.5329 H   0  0  0  0  0  0  0  0  0  0  0  0  # atno 10765 bound_to 10752
  140.1441  134.4545  155.8428 H   0  0  0  0  0  0  0  0  0  0  0  0  # atno 11005 bound_to 11000
  144.7406  139.7461  143.7312 LP  0  0  0  0  0  0  0  0  0  0  0  0  # atno 17320 bound_to 7965
  146.1735  139.4895  142.9912 LP  0  0  0  0  0  0  0  0  0  0  0  0  # atno 17321 bound_to 7965
  140.4178  143.2626  151.9753 LP  0  0  0  0  0  0  0  0  0  0  0  0  # atno 17342 bound_to 10162
  139.4799  144.5858  151.7856 LP  0  0  0  0  0  0  0  0  0  0  0  0  # atno 17343 bound_to 10162
  157.4286  130.7477  149.6971 LP  0  0  0  0  0  0  0  0  0  0  0  0  # atno 17370 bound_to 10713
  155.9784  130.4052  150.3651 LP  0  0  0  0  0  0  0  0  0  0  0  0  # atno 17371 bound_to 10713
  141.2190  133.6845  156.7301 LP  0  0  0  0  0  0  0  0  0  0  0  0  # atno 17394 bound_to 11000
  140.2685  134.8411  157.3825 LP  0  0  0  0  0  0  0  0  0  0  0  0  # atno 17395 bound_to 11000

$$$$
