#       Name:                AV-unprocessed.smi:1703
#       Creating user name   scv26
#       Creation time:       Fri Mar 27 08:06:53 2020


#       File generated by GOLD software.
#

@<TRIPOS>MOLECULE
AV-unprocessed.smi:1703
    56    58     1
SMALL
NO_CHARGES


@<TRIPOS>ATOM
      1 ****        -2.5626   3.5408   2.7956 C.3            1 S1                 0.0000
      2 ****        -2.0634   2.8551   1.5197 C.3            1 S1                 0.0000
      3 ****        -1.5978   1.4096   1.7797 C.3            1 S1                 0.0000
      4 ****        -1.2009   0.7315   0.5486 N.3            1 S1                 0.0000
      5 ****        -0.7805  -0.6512   0.7749 C.3            1 S1                 0.0000
      6 ****         0.5232  -0.8210   1.5888 C.3            1 S1                 0.0000
      7 ****         0.1968  -0.9782   2.9540 O.3            1 S1                 0.0000
      8 ****         1.3543  -2.0587   1.1882 C.3            1 S1                 0.0000
      9 ****         1.8304  -2.0159  -0.2036 N.pl3          1 S1                 0.0000
     10 ****         1.3858  -2.6658  -1.3195 C.2            1 S1                 0.0000
     11 ****         0.2462  -3.6307  -1.4101 C.3            1 S1                 0.0000
     12 ****        -0.4279  -3.5672  -2.6489 O.3            1 S1                 0.0000
     13 ****         2.1831  -2.2757  -2.3549 N.pl3          1 S1                 1.0000
     14 ****         3.1477  -1.3771  -1.8996 C.ar           1 S1                 0.0000
     15 ****         4.1706  -0.7177  -2.5744 C.ar           1 S1                 0.0000
     16 ****         4.9883   0.1358  -1.8048 C.ar           1 S1                 0.0000
     17 ****         4.7745   0.3068  -0.4214 C.ar           1 S1                 0.0000
     18 ****         3.7342  -0.3675   0.2513 C.ar           1 S1                 0.0000
     19 ****         2.9292  -1.2079  -0.5174 C.ar           1 S1                 0.0000
     20 ****        -2.3083   0.7886  -0.3997 C.3            1 S1                 0.0000
     21 ****        -2.7730   2.2333  -0.6648 C.3            1 S1                 0.0000
     22 ****        -3.9890   2.2889  -1.5957 C.3            1 S1                 0.0000
     23 ****        -3.1288   2.8400   0.5740 O.3            1 S1                 0.0000
     24 ****        -1.7755   3.5899   3.5484 H              1 S1                 0.0000
     25 ****        -3.4073   3.0035   3.2278 H              1 S1                 0.0000
     26 ****        -2.8876   4.5604   2.5876 H              1 S1                 0.0000
     27 ****        -1.2358   3.4372   1.1102 H              1 S1                 0.0000
     28 ****        -0.7628   1.4345   2.4795 H              1 S1                 0.0000
     29 ****        -2.3989   0.8507   2.2663 H              1 S1                 0.0000
     30 ****        -1.5893  -1.2292   1.2252 H              1 S1                 0.0000
     31 ****        -0.6251  -1.0981  -0.2055 H              1 S1                 0.0000
     32 ****         1.1416   0.0712   1.4856 H              1 S1                 0.0000
     33 ****        -0.2857  -0.2163   3.2366 H              1 S1                 0.0000
     34 ****         2.2248  -2.1671   1.8368 H              1 S1                 0.0000
     35 ****         0.7678  -2.9690   1.3159 H              1 S1                 0.0000
     36 ****         0.6243  -4.6422  -1.2610 H              1 S1                 0.0000
     37 ****        -0.4735  -3.4337  -0.6164 H              1 S1                 0.0000
     38 ****        -1.1365  -4.1927  -2.6375 H              1 S1                 0.0000
     39 ****         4.3375  -0.8486  -3.6338 H              1 S1                 0.0000
     40 ****         5.7962   0.6690  -2.2848 H              1 S1                 0.0000
     41 ****         5.4218   0.9684   0.1360 H              1 S1                 0.0000
     42 ****         3.5794  -0.2303   1.3114 H              1 S1                 0.0000
     43 ****        -2.0100   0.3288  -1.3426 H              1 S1                 0.0000
     44 ****        -3.1472   0.2024  -0.0204 H              1 S1                 0.0000
     45 ****        -1.9591   2.8030  -1.1170 H              1 S1                 0.0000
     46 ****        -3.7620   1.8433  -2.5645 H              1 S1                 0.0000
     47 ****        -4.3007   3.3193  -1.7690 H              1 S1                 0.0000
     48 ****        -4.8370   1.7518  -1.1698 H              1 S1                 0.0000
     49 ****         2.0678  -2.6043  -3.3051 H              1 S1                 0.0000
     50 ****        -0.4033   1.2056   0.1755 LP             1 S1                 0.0000
     51 ****         1.0344  -1.0661   3.4931 LP             1 S1                 0.0000
     52 ****        -0.3646  -1.7968   3.0745 LP             1 S1                 0.0000
     53 ****         0.2061  -3.7893  -3.3896 LP             1 S1                 0.0000
     54 ****        -0.7929  -2.6465  -2.7874 LP             1 S1                 0.0000
     55 ****        -3.4093   3.7834   0.3966 LP             1 S1                 0.0000
     56 ****        -3.8955   2.3327   0.9674 LP             1 S1                 0.0000
@<TRIPOS>BOND
    1    1    2 1     
    2    1   24 1     
    3    1   25 1     
    4    1   26 1     
    5    2   23 1     
    6    2    3 1     
    7    2   27 1     
    8    3    4 1     
    9    3   28 1     
   10    3   29 1     
   11    4    5 1     
   12    4   20 1     
   13    5    6 1     
   14    5   30 1     
   15    5   31 1     
   16    6    7 1     
   17    6    8 1     
   18    6   32 1     
   19    7   33 1     
   20    8    9 1     
   21    8   34 1     
   22    8   35 1     
   23    9   19 1     
   24    9   10 1     
   25   10   11 1     
   26   10   13 2     
   27   11   12 1     
   28   11   36 1     
   29   11   37 1     
   30   12   38 1     
   31   13   14 1     
   32   13   49 1     
   33   14   19 ar    
   34   14   15 ar    
   35   15   16 ar    
   36   15   39 1     
   37   16   17 ar    
   38   16   40 1     
   39   17   18 ar    
   40   17   41 1     
   41   18   19 ar    
   42   18   42 1     
   43   20   21 1     
   44   20   43 1     
   45   20   44 1     
   46   21   22 1     
   47   21   23 1     
   48   21   45 1     
   49   22   46 1     
   50   22   47 1     
   51   22   48 1     
   52    4   50 1     
   53    7   51 1     
   54    7   52 1     
   55   12   53 1     
   56   12   54 1     
   57   23   55 1     
   58   23   56 1     
@<TRIPOS>SUBSTRUCTURE
      1 S1             1
@<TRIPOS>SET
LONE_PAIRS      STATIC     ATOMS    <user>   **** ""
7 50 51 52 53 54 55 56
DONOR_HYDROGENS      STATIC     ATOMS    <user>   **** ""
3 33 38 49
ATOM$BLUE        STATIC     ATOMS    COLORGROUP SYSTEM
7 50 51 52 53 54 55 56
ATOM$RED        STATIC     ATOMS    COLORGROUP SYSTEM
3 33 38 49
