#       Name:                AV-unprocessed.smi:3101
#       Creating user name   scv26
#       Creation time:       Fri Mar 27 17:18:22 2020


#       File generated by GOLD software.
#

@<TRIPOS>MOLECULE
AV-unprocessed.smi:3101
    34    35     1
SMALL
NO_CHARGES


@<TRIPOS>ATOM
      1 ****        -1.6927  -1.1212  -1.8450 C.3            1 S1                 0.0000
      2 ****        -2.2817   0.0520  -1.0406 C.3            1 S1                 0.0000
      3 ****        -2.4157   1.3449  -1.8190 C.3            1 S1                 0.0000
      4 ****        -2.6425   2.3447  -0.6911 C.3            1 S1                 0.0000
      5 ****        -1.8630   1.8705   0.4040 O.3            1 S1                 0.0000
      6 ****        -1.5208   0.4943   0.2288 C.3            1 S1                 0.0000
      7 ****         0.0127   0.4051   0.1495 C.2            1 S1                 0.0000
      8 ****         0.6196   1.0129  -0.7332 O.2            1 S1                 0.0000
      9 ****         0.6017  -0.3457   1.0983 N.am           1 S1                 0.0000
     10 ****         1.9847  -0.6170   1.2690 C.ar           1 S1                 0.0000
     11 ****         2.3176  -1.4411   2.3698 C.ar           1 S1                 0.0000
     12 ****         3.5903  -1.7896   2.6619 N.ar           1 S1                 0.0000
     13 ****         4.5506  -1.3093   1.8435 C.ar           1 S1                 0.0000
     14 ****         4.2381  -0.4877   0.7422 C.ar           1 S1                 0.0000
     15 ****         2.9637  -0.1437   0.4559 N.ar           1 S1                 0.0000
     16 ****        -0.7230  -0.8759  -2.2789 H              1 S1                 0.0000
     17 ****        -2.3546  -1.3949  -2.6669 H              1 S1                 0.0000
     18 ****        -1.5667  -2.0023  -1.2154 H              1 S1                 0.0000
     19 ****        -3.2826  -0.2468  -0.7240 H              1 S1                 0.0000
     20 ****        -1.4936   1.5766  -2.3534 H              1 S1                 0.0000
     21 ****        -3.2333   1.3285  -2.5402 H              1 S1                 0.0000
     22 ****        -2.3636   3.3613  -0.9690 H              1 S1                 0.0000
     23 ****        -3.6922   2.3498  -0.3949 H              1 S1                 0.0000
     24 ****        -1.8753  -0.0734   1.0908 H              1 S1                 0.0000
     25 ****        -0.0137  -0.7762   1.7729 H              1 S1                 0.0000
     26 ****         1.5530  -1.8283   3.0278 H              1 S1                 0.0000
     27 ****         5.5714  -1.5816   2.0673 H              1 S1                 0.0000
     28 ****         5.0105  -0.1066   0.0908 H              1 S1                 0.0000
     29 ****        -2.3889   1.9721   1.2484 LP             1 S1                 0.0000
     30 ****        -1.0240   2.4110   0.4668 LP             1 S1                 0.0000
     31 ****         0.1154   1.5641  -1.3980 LP             1 S1                 0.0000
     32 ****         1.6166   0.9552  -0.7851 LP             1 S1                 0.0000
     33 ****         3.8094  -2.3731   3.4439 LP             1 S1                 0.0000
     34 ****         2.7487   0.4393  -0.3277 LP             1 S1                 0.0000
@<TRIPOS>BOND
    1    1    2 1     
    2    1   16 1     
    3    1   17 1     
    4    1   18 1     
    5    2    6 1     
    6    2    3 1     
    7    2   19 1     
    8    3    4 1     
    9    3   20 1     
   10    3   21 1     
   11    4    5 1     
   12    4   22 1     
   13    4   23 1     
   14    5    6 1     
   15    6    7 1     
   16    6   24 1     
   17    7    8 2     
   18    7    9 am    
   19    9   10 1     
   20    9   25 1     
   21   10   15 ar    
   22   10   11 ar    
   23   11   12 ar    
   24   11   26 1     
   25   12   13 ar    
   26   13   14 ar    
   27   13   27 1     
   28   14   15 ar    
   29   14   28 1     
   30    5   29 1     
   31    5   30 1     
   32    8   31 1     
   33    8   32 1     
   34   12   33 1     
   35   15   34 1     
@<TRIPOS>SUBSTRUCTURE
      1 S1             1
@<TRIPOS>SET
LONE_PAIRS      STATIC     ATOMS    <user>   **** ""
6 29 30 31 32 33 34
DONOR_HYDROGENS      STATIC     ATOMS    <user>   **** ""
1 25
ATOM$BLUE        STATIC     ATOMS    COLORGROUP SYSTEM
6 29 30 31 32 33 34
ATOM$RED        STATIC     ATOMS    COLORGROUP SYSTEM
1 25
