AV-unprocessed.smi:1934|AV-procd|sdf|7825|dock4
  -GOLD-   22720 9573D 1   1.00000     0.00000
 Structure written by MMmdl.
 46 47  0  0  0  0  0  0  0  0  2 V2000
  150.5211  140.5924  155.3232 C   0  0  0  0  0  0  0  0  0  0  0  0
  149.1748  140.5925  154.6610 C   0  0  0  0  0  0  0  0  0  0  0  0
  148.5031  139.5015  154.0372 C   0  0  0  0  0  0  0  0  0  0  0  0
  147.3314  140.0690  153.6158 C   0  0  0  0  0  0  0  0  0  0  0  0
  146.2920  139.4895  152.9578 N   0  0  0  0  0  0  0  0  0  0  0  0
  146.2093  138.2522  152.4383 C   0  0  0  0  0  0  0  0  0  0  0  0
  147.1126  137.4155  152.4319 O   0  0  0  0  0  0  0  0  0  0  0  0
  144.9987  138.0295  151.9066 N   0  0  0  0  0  0  0  0  0  0  0  0
  144.5824  136.7824  151.2759 C   0  0  0  0  0  0  0  0  0  0  0  0
  145.0191  135.5589  152.1037 C   0  0  0  0  0  0  0  0  0  0  0  0
  145.0660  134.3186  151.2896 N   0  3  1  0  0  0  0  0  0  0  0  0
  146.1841  133.4243  151.6861 C   0  0  0  0  0  0  0  0  0  0  0  0
  146.3058  132.2311  150.7251 C   0  0  0  0  0  0  0  0  0  0  0  0
  144.9843  131.4546  150.6403 C   0  0  0  0  0  0  0  0  0  0  0  0
  143.8080  132.3870  150.2953 C   0  0  2  0  0  0  0  0  0  0  0  0
  143.8052  132.8241  148.8200 C   0  0  0  0  0  0  0  0  0  0  0  0
  143.7682  133.5902  151.2603 C   0  0  0  0  0  0  0  0  0  0  0  0
  147.3276  141.3998  153.9755 N   0  0  0  0  0  0  0  0  0  0  0  0
  146.3241  142.4243  153.7582 C   0  0  0  0  0  0  0  0  0  0  0  0
  148.4716  141.7183  154.6182 N   0  0  0  0  0  0  0  0  0  0  0  0
  150.9169  139.5805  155.4119 H   0  0  0  0  0  0  0  0  0  0  0  0
  150.4666  141.0152  156.3267 H   0  0  0  0  0  0  0  0  0  0  0  0
  151.2388  141.1808  154.7514 H   0  0  0  0  0  0  0  0  0  0  0  0
  148.8423  138.4823  153.9314 H   0  0  0  0  0  0  0  0  0  0  0  0
  145.4701  140.0677  152.8629 H   0  0  0  0  0  0  0  0  0  0  0  0
  144.3140  138.7704  151.9516 H   0  0  0  0  0  0  0  0  0  0  0  0
  143.5029  136.7995  151.1228 H   0  0  0  0  0  0  0  0  0  0  0  0
  145.0334  136.7391  150.2842 H   0  0  0  0  0  0  0  0  0  0  0  0
  146.0117  135.7659  152.5066 H   0  0  0  0  0  0  0  0  0  0  0  0
  144.3648  135.4078  152.9639 H   0  0  0  0  0  0  0  0  0  0  0  0
  147.1229  133.9793  151.6816 H   0  0  0  0  0  0  0  0  0  0  0  0
  146.0271  133.0740  152.7078 H   0  0  0  0  0  0  0  0  0  0  0  0
  146.5954  132.5836  149.7346 H   0  0  0  0  0  0  0  0  0  0  0  0
  147.1041  131.5669  151.0575 H   0  0  0  0  0  0  0  0  0  0  0  0
  145.0633  130.6494  149.9090 H   0  0  0  0  0  0  0  0  0  0  0  0
  144.7925  130.9755  151.6015 H   0  0  0  0  0  0  0  0  0  0  0  0
  142.8899  131.8179  150.4466 H   0  0  0  0  0  0  0  0  0  0  0  0
  144.6794  133.4251  148.5704 H   0  0  0  0  0  0  0  0  0  0  0  0
  142.9208  133.4193  148.5912 H   0  0  0  0  0  0  0  0  0  0  0  0
  143.7965  131.9596  148.1557 H   0  0  0  0  0  0  0  0  0  0  0  0
  143.5330  133.2445  152.2683 H   0  0  0  0  0  0  0  0  0  0  0  0
  142.9583  134.2583  150.9688 H   0  0  0  0  0  0  0  0  0  0  0  0
  145.3714  141.9749  153.4780 H   0  0  0  0  0  0  0  0  0  0  0  0
  146.6501  143.0921  152.9606 H   0  0  0  0  0  0  0  0  0  0  0  0
  146.1806  143.0032  154.6712 H   0  0  0  0  0  0  0  0  0  0  0  0
  145.2627  134.6083  150.3423 H   0  0  0  0  0  0  0  0  0  0  0  0
  1  2  1  0  0  0  0
  1 21  1  0  0  0  0
  1 22  1  0  0  0  0
  1 23  1  0  0  0  0
  2 20  2  0  0  0  0
  2  3  1  0  0  0  0
  3  4  2  0  0  0  0
  3 24  1  0  0  0  0
  4  5  1  0  0  0  0
  4 18  1  0  0  0  0
  5  6  1  0  0  0  0
  5 25  1  0  0  0  0
  6  7  2  0  0  0  0
  6  8  1  0  0  0  0
  8  9  1  0  0  0  0
  8 26  1  0  0  0  0
  9 10  1  0  0  0  0
  9 27  1  0  0  0  0
  9 28  1  0  0  0  0
 10 11  1  0  0  0  0
 10 29  1  0  0  0  0
 10 30  1  0  0  0  0
 11 17  1  0  0  0  0
 11 12  1  0  0  0  0
 11 46  1  0  0  0  0
 12 13  1  0  0  0  0
 12 31  1  0  0  0  0
 12 32  1  0  0  0  0
 13 14  1  0  0  0  0
 13 33  1  0  0  0  0
 13 34  1  0  0  0  0
 14 15  1  0  0  0  0
 14 35  1  0  0  0  0
 14 36  1  0  0  0  0
 15 16  1  0  0  0  0
 15 17  1  0  0  0  0
 15 37  1  0  0  0  0
 16 38  1  0  0  0  0
 16 39  1  0  0  0  0
 16 40  1  0  0  0  0
 17 41  1  0  0  0  0
 17 42  1  0  0  0  0
 18 19  1  0  0  0  0
 18 20  1  0  0  0  0
 19 43  1  0  0  0  0
 19 44  1  0  0  0  0
 19 45  1  0  0  0  0
M  CHG  1  11   1
M  END
> <s_m_source_file>
AV-unprocessed.smi

> <i_m_source_file_index>
1934

> <i_lp_mmshare_version>
43012

> <i_f3d_flags>
0

> <s_epik_input>
W0NIM11jMVtjSF1jKG4objEpW0NIM10pW05IXUMoPU8pW05IXVtDSDJdW0NIMl1OMltDSDJdW0NIMl1bQ0gyXVtDQEBIXShbQ0gzXSlbQ0gyXTI=

> <s_epik_cmdline>
J2VwaWtfcHl0aG9uJywgJy1waCcsICc3LjAnLCAnLXRuJywgJzgnLCAnLW1hJywgJzIwMCcsICctbWV0YWxfYmluZGluZycsICctaW1hZScsICc8aW5maWxlLm1hZT4nLCAnLW9tYWUnLCAnPG91dGZpbGUubWFlPic=

> <r_lp_tautomer_probability>
1

> <r_epik_Ionization_Penalty>
0.00202955

> <r_epik_Ionization_Penalty_Charging>
0.00195276

> <r_epik_Ionization_Penalty_Neutral>
7.67968e-05

> <r_epik_State_Penalty>
0.00133177

> <r_epik_Charging_Adjusted_Penalty>
0.00328452

> <i_epik_Tot_Q>
1

> <i_epik_Tot_abs_Q>
1

> <r_epik_Metal_State_Penalty>
-0

> <b_epik_Metal_Only>
0

> <s_lp_Force_Field>
OPLS_2005

> <r_lp_Energy>
20.4325

> <b_lp_Chiralities_Consistent>
1

> <s_lp_Variant>
AV-unprocessed.smi:1934-3

> <Gold.Version>
5.8.1

> <Gold.Id.Protein>
6NUR|6NUR_protein|mol2

> <Gold.PLP.Fitness>
38.4715

> <Gold.PLP.PLP>
-33.6807

> <Gold.PLP.part.hbond>
-2.7500

> <Gold.PLP.part.metal>
0.0000

> <Gold.PLP.part.buried>
-0.2148

> <Gold.PLP.part.nonpolar>
-36.9978

> <Gold.PLP.part.repulsive>
5.8376

> <Gold.PLP.ligand.clash>
0.0000

> <Gold.PLP.ligand.torsion>
0.6382

> <Gold.PLP.Chemscore.Hbond>
2.0000

> <Gold.PLP.Chemscore.CHOScore>
0.0000

> <Gold.PLP.Chemscore.Metal>
0.0000

> <Gold.Chemscore.Hbonds>
donor molecule, donor type, donor heavy atom, donor atom, acceptor molecule, acceptor atom, score
      L1  H     5    25       P1 10175  1.00
      L1  H     8    26       P1 10175  1.00

> <Gold.PLP.Chemscore.Internal.Correction>
0.0672

> <Gold.Rescore>
     Score         DG    S(hbond)    S(metal)    S(lipo)     H(rot)  DE(clash)    DE(int)     intcor
     12.46     -19.46       1.97        0.00      95.79       1.48       3.96       3.05       ----

> <Gold.Chemscore.Fitness>
12.4596

> <Gold.Chemscore.DG>
-19.4643

> <Gold.Chemscore.ZeroCoef>
-5.4800

> <Gold.Chemscore.Hbond>
1.9686

> <Gold.Chemscore.Metal>
0.0000

> <Gold.Chemscore.Lipo>
95.7931

> <Gold.Chemscore.Internal_Hbond>
0.0000

> <Gold.Chemscore.DEClash>
3.9596

> <Gold.Chemscore.DEInternal>
3.0451

> <Gold.Chemscore.Rot>
1.4838

> <Gold.Chemscore.Internal.Correction>
   9.000000E+99

> <Gold.Chemscore.Hbonds>
donor molecule, donor type, donor heavy atom, donor atom, acceptor molecule, acceptor atom, score
      L1  H     5    25       P1 10175  0.98
      L1  H     8    26       P1 10175  0.98

> <Gold.Chemscore.Hbond.Weighted>
-6.5750

> <Gold.Chemscore.Metal.Weighted>
-0.0000

> <Gold.Chemscore.Lipo.Weighted>
-11.2078

> <Gold.Chemscore.Internal_Hbond.Weighted>
0.0000

> <Gold.Chemscore.DEClash.Weighted>
3.9596

> <Gold.Chemscore.DEInternal.Weighted>
3.0451

> <Gold.Chemscore.Rot.Weighted>
3.7985

> <Gold.Chemscore.Internal.Correction.Weighted>
   9.000000E+99

> <Gold.Protein.RotatedTorsions>
[ 6907 6896 6895 6894 ] final  117.78 input  -60.11 | X-H torsion
[ 7974 7965 7964 7962 ] final  -12.00 input  175.53 | X-H torsion
[ 8008 7997 7996 7995 ] final -175.25 input   59.86 | X-H torsion
[ 10167 10162 10161 10158 ] final  113.21 input  -65.29 | X-H torsion
[ 10718 10713 10712 10709 ] final   -4.63 input   66.30 | X-H torsion
[ 10763 10752 10751 10750 ] final   -7.95 input  -60.55 | X-H torsion
[ 11005 11000 10999 10996 ] final -105.65 input  -57.11 | X-H torsion

> <Gold.Protein.ActiveResidues>
 VAL166  LYS551  ARG553  GLY616  TRP617  ASP618  TYR619  PRO620  LYS621  CYS622 
 ASP623  PHE694  ASN695  SER759  ASP760  ASP761  ALA762  ILE779  LEU786  VAL792 
 PHE793  MET794  SER795  GLU796  ALA797  LYS798  CYS799  TRP800  GLU811  SER814 

> <Gold.Protein.RotatedAtoms>
  152.4589  133.7780  159.6834 H   0  0  0  0  0  0  0  0  0  0  0  0  # atno 6907 bound_to 6896
  150.8525  133.7756  159.3027 H   0  0  0  0  0  0  0  0  0  0  0  0  # atno 6908 bound_to 6896
  151.5347  135.1071  159.9963 H   0  0  0  0  0  0  0  0  0  0  0  0  # atno 6909 bound_to 6896
  146.2168  140.2993  142.8374 H   0  0  0  0  0  0  0  0  0  0  0  0  # atno 7974 bound_to 7965
  155.9802  140.1180  157.0733 H   0  0  0  0  0  0  0  0  0  0  0  0  # atno 8008 bound_to 7997
  154.4181  140.1146  156.5493 H   0  0  0  0  0  0  0  0  0  0  0  0  # atno 8009 bound_to 7997
  155.6481  140.3473  155.4740 H   0  0  0  0  0  0  0  0  0  0  0  0  # atno 8010 bound_to 7997
  139.6478  144.7127  151.2107 H   0  0  0  0  0  0  0  0  0  0  0  0  # atno 10167 bound_to 10162
  156.7585  130.5262  149.5790 H   0  0  0  0  0  0  0  0  0  0  0  0  # atno 10718 bound_to 10713
  153.4336  135.7012  153.6214 H   0  0  0  0  0  0  0  0  0  0  0  0  # atno 10763 bound_to 10752
  153.4619  135.3734  155.2343 H   0  0  0  0  0  0  0  0  0  0  0  0  # atno 10764 bound_to 10752
  154.8726  135.4022  154.3724 H   0  0  0  0  0  0  0  0  0  0  0  0  # atno 10765 bound_to 10752
  141.1043  133.8826  157.1760 H   0  0  0  0  0  0  0  0  0  0  0  0  # atno 11005 bound_to 11000
  144.9069  140.7710  143.5832 LP  0  0  0  0  0  0  0  0  0  0  0  0  # atno 17320 bound_to 7965
  145.2922  139.1879  143.4734 LP  0  0  0  0  0  0  0  0  0  0  0  0  # atno 17321 bound_to 7965
  140.7523  143.6201  150.8522 LP  0  0  0  0  0  0  0  0  0  0  0  0  # atno 17342 bound_to 10162
  139.9845  143.5914  152.2931 LP  0  0  0  0  0  0  0  0  0  0  0  0  # atno 17343 bound_to 10162
  156.1355  130.6208  151.0394 LP  0  0  0  0  0  0  0  0  0  0  0  0  # atno 17370 bound_to 10713
  157.6745  131.0853  150.7528 LP  0  0  0  0  0  0  0  0  0  0  0  0  # atno 17371 bound_to 10713
  139.9907  135.0066  156.9967 LP  0  0  0  0  0  0  0  0  0  0  0  0  # atno 17394 bound_to 11000
  140.4942  134.1162  155.7238 LP  0  0  0  0  0  0  0  0  0  0  0  0  # atno 17395 bound_to 11000

$$$$
