AV-unprocessed.smi:21|AV-procd|sdf|144|dock7
  -GOLD-   2262015353D 1   1.00000     0.00000
 Structure written by MMmdl.
 62 65  0  0  0  0  0  0  0  0  2 V2000
  144.9848  136.2198  152.9007 C   0  0  0  0  0  0  0  0  0  0  0  0
  145.7424  136.0108  154.0823 O   0  0  0  0  0  0  0  0  0  0  0  0
  145.7167  134.6688  154.5515 C   0  0  2  0  0  0  0  0  0  0  0  0
  146.5462  134.4948  155.8245 C   0  0  0  0  0  0  0  0  0  0  0  0
  147.9977  134.3192  155.3417 C   0  0  2  0  0  0  0  0  0  0  0  0
  148.8631  135.5879  155.4973 C   0  0  0  0  0  0  0  0  0  0  0  0
  150.2128  135.3103  155.9969 N   0  0  0  0  0  0  0  0  0  0  0  0
  150.6863  133.9312  156.0121 C   0  0  0  0  0  0  0  0  0  0  0  0
  151.0423  136.3316  156.3644 C   0  0  0  0  0  0  0  0  0  0  0  0
  152.3394  136.0354  156.6530 N   0  0  0  0  0  0  0  0  0  0  0  0
  153.1987  136.9878  157.0227 C   0  0  0  0  0  0  0  0  0  0  0  0
  152.9796  138.2932  157.1710 N   0  0  0  0  0  0  0  0  0  0  0  0
  151.6855  138.6094  156.8847 C   0  0  0  0  0  0  0  0  0  0  0  0
  150.6592  137.7056  156.4786 C   0  0  0  0  0  0  0  0  0  0  0  0
  149.4752  138.4145  156.2921 N   0  0  0  0  0  0  0  0  0  0  0  0
  149.7832  139.6521  156.5658 C   0  0  0  0  0  0  0  0  0  0  0  0
  151.0932  139.8585  156.9270 N   0  0  0  0  0  0  0  0  0  0  0  0
  151.7111  141.1214  157.2897 C   0  0  0  0  0  0  0  0  0  0  0  0
  151.8149  141.3544  158.8205 C   0  0  1  0  0  0  0  0  0  0  0  0
  152.7677  140.3410  159.5051 C   0  0  0  0  0  0  0  0  0  0  0  0
  154.0533  140.3461  158.9197 O   0  0  0  0  0  0  0  0  0  0  0  0
  152.2480  142.8129  159.1218 C   0  0  2  0  0  0  0  0  0  0  0  0
  152.0713  143.2459  160.5783 C   0  0  0  0  0  0  0  0  0  0  0  0
  151.6106  144.7048  160.5056 C   0  0  0  0  0  0  0  0  0  0  0  0
  151.7094  145.0607  159.1361 O   0  0  0  0  0  0  0  0  0  0  0  0
  151.4525  143.8909  158.3807 C   0  0  0  0  0  0  0  0  0  0  0  0
  147.9064  133.9550  153.9069 N   0  3  1  0  0  0  0  0  0  0  0  0
  148.7537  132.8110  153.5077 C   0  0  0  0  0  0  0  0  0  0  0  0
  146.4800  133.8040  153.5522 C   0  0  0  0  0  0  0  0  0  0  0  0
  144.6888  134.3206  154.6672 H   0  0  0  0  0  0  0  0  0  0  0  0
  148.4496  133.4978  155.8999 H   0  0  0  0  0  0  0  0  0  0  0  0
  145.0672  137.2632  152.5968 H   0  0  0  0  0  0  0  0  0  0  0  0
  143.9277  136.0010  153.0504 H   0  0  0  0  0  0  0  0  0  0  0  0
  145.3561  135.6035  152.0810 H   0  0  0  0  0  0  0  0  0  0  0  0
  146.4141  135.2988  156.5460 H   0  0  0  0  0  0  0  0  0  0  0  0
  146.2297  133.5773  156.3224 H   0  0  0  0  0  0  0  0  0  0  0  0
  148.9313  136.1147  154.5448 H   0  0  0  0  0  0  0  0  0  0  0  0
  148.3644  136.2870  156.1695 H   0  0  0  0  0  0  0  0  0  0  0  0
  151.0691  133.6659  156.9980 H   0  0  0  0  0  0  0  0  0  0  0  0
  151.4772  133.7867  155.2759 H   0  0  0  0  0  0  0  0  0  0  0  0
  149.8838  133.2329  155.7738 H   0  0  0  0  0  0  0  0  0  0  0  0
  154.2054  136.6565  157.2298 H   0  0  0  0  0  0  0  0  0  0  0  0
  149.0604  140.4528  156.5069 H   0  0  0  0  0  0  0  0  0  0  0  0
  152.7015  141.1656  156.8348 H   0  0  0  0  0  0  0  0  0  0  0  0
  151.1222  141.9080  156.8186 H   0  0  0  0  0  0  0  0  0  0  0  0
  150.8202  141.2246  159.2505 H   0  0  0  0  0  0  0  0  0  0  0  0
  152.8512  140.5471  160.5726 H   0  0  0  0  0  0  0  0  0  0  0  0
  152.3942  139.3218  159.4143 H   0  0  0  0  0  0  0  0  0  0  0  0
  154.5321  139.5964  159.2387 H   0  0  0  0  0  0  0  0  0  0  0  0
  153.2996  142.9362  158.8565 H   0  0  0  0  0  0  0  0  0  0  0  0
  151.3187  142.6468  161.0928 H   0  0  0  0  0  0  0  0  0  0  0  0
  153.0063  143.1484  161.1309 H   0  0  0  0  0  0  0  0  0  0  0  0
  150.5714  144.7945  160.8253 H   0  0  0  0  0  0  0  0  0  0  0  0
  152.2155  145.3672  161.1252 H   0  0  0  0  0  0  0  0  0  0  0  0
  151.7717  144.0189  157.3461 H   0  0  0  0  0  0  0  0  0  0  0  0
  150.3825  143.6751  158.3900 H   0  0  0  0  0  0  0  0  0  0  0  0
  148.4637  131.9019  154.0362 H   0  0  0  0  0  0  0  0  0  0  0  0
  149.8006  133.0182  153.7313 H   0  0  0  0  0  0  0  0  0  0  0  0
  148.6668  132.6280  152.4363 H   0  0  0  0  0  0  0  0  0  0  0  0
  146.1826  132.7616  153.6797 H   0  0  0  0  0  0  0  0  0  0  0  0
  146.2886  134.0809  152.5148 H   0  0  0  0  0  0  0  0  0  0  0  0
  148.2347  134.7630  153.3976 H   0  0  0  0  0  0  0  0  0  0  0  0
  1  2  1  0  0  0  0
  1 32  1  0  0  0  0
  1 33  1  0  0  0  0
  1 34  1  0  0  0  0
  2  3  1  0  0  0  0
  3 30  1  0  0  0  0
  3 29  1  0  0  0  0
  3  4  1  0  0  0  0
  4  5  1  0  0  0  0
  4 35  1  0  0  0  0
  4 36  1  0  0  0  0
  5 31  1  0  0  0  0
  5  6  1  0  0  0  0
  5 27  1  0  0  0  0
  6  7  1  0  0  0  0
  6 37  1  0  0  0  0
  6 38  1  0  0  0  0
  7  8  1  0  0  0  0
  7  9  1  0  0  0  0
  8 39  1  0  0  0  0
  8 40  1  0  0  0  0
  8 41  1  0  0  0  0
  9 14  1  0  0  0  0
  9 10  2  0  0  0  0
 10 11  1  0  0  0  0
 11 12  2  0  0  0  0
 11 42  1  0  0  0  0
 12 13  1  0  0  0  0
 13 17  1  0  0  0  0
 13 14  2  0  0  0  0
 14 15  1  0  0  0  0
 15 16  2  0  0  0  0
 16 17  1  0  0  0  0
 16 43  1  0  0  0  0
 17 18  1  0  0  0  0
 18 19  1  0  0  0  0
 18 44  1  0  0  0  0
 18 45  1  0  0  0  0
 19 20  1  0  0  0  0
 19 22  1  0  0  0  0
 19 46  1  0  0  0  0
 20 21  1  0  0  0  0
 20 47  1  0  0  0  0
 20 48  1  0  0  0  0
 21 49  1  0  0  0  0
 22 26  1  0  0  0  0
 22 23  1  0  0  0  0
 22 50  1  0  0  0  0
 23 24  1  0  0  0  0
 23 51  1  0  0  0  0
 23 52  1  0  0  0  0
 24 25  1  0  0  0  0
 24 53  1  0  0  0  0
 24 54  1  0  0  0  0
 25 26  1  0  0  0  0
 26 55  1  0  0  0  0
 26 56  1  0  0  0  0
 27 28  1  0  0  0  0
 27 29  1  0  0  0  0
 27 62  1  0  0  0  0
 28 57  1  0  0  0  0
 28 58  1  0  0  0  0
 28 59  1  0  0  0  0
 29 60  1  0  0  0  0
 29 61  1  0  0  0  0
M  CHG  1  27   1
M  END
> <s_m_source_file>
AV-unprocessed.smi

> <i_m_source_file_index>
21

> <i_lp_mmshare_version>
43012

> <i_f3d_flags>
0

> <s_epik_input>
W0NIM11PW0NASF0xW0NIMl1bQ0BIXShOKFtDSDNdKVtDSDJdMSlbQ0gyXU4oW0NIM10pYyhuW2NIXW4yKWMoYzIzKW5bY0hdbjNbQ0gyXVtDQEhdKFtDSDJdW09IXSlbQ0BASF00W0NIMl1bQ0gyXU9bQ0gyXTQ=

> <s_epik_cmdline>
J2VwaWtfcHl0aG9uJywgJy1waCcsICc3LjAnLCAnLXRuJywgJzgnLCAnLW1hJywgJzIwMCcsICctbWV0YWxfYmluZGluZycsICctaW1hZScsICc8aW5maWxlLm1hZT4nLCAnLW9tYWUnLCAnPG91dGZpbGUubWFlPic=

> <r_lp_tautomer_probability>
1

> <r_epik_Ionization_Penalty>
0.0157465

> <r_epik_Ionization_Penalty_Charging>
0.015354

> <r_epik_Ionization_Penalty_Neutral>
0.000392529

> <r_epik_State_Penalty>
0.0120612

> <r_epik_Charging_Adjusted_Penalty>
0.0274152

> <i_epik_Tot_Q>
1

> <i_epik_Tot_abs_Q>
1

> <r_epik_Metal_State_Penalty>
0.0121253

> <b_epik_Metal_Only>
0

> <s_lp_Force_Field>
OPLS_2005

> <r_lp_Energy>
59.4837

> <b_lp_Chiralities_Consistent>
1

> <s_lp_Variant>
AV-unprocessed.smi:21-24

> <Gold.Version>
5.8.1

> <Gold.Id.Protein>
6NUR|6NUR_protein|mol2

> <Gold.PLP.Fitness>
49.5838

> <Gold.PLP.PLP>
-39.7265

> <Gold.PLP.part.hbond>
-3.2937

> <Gold.PLP.part.metal>
0.0000

> <Gold.PLP.part.buried>
-5.8842

> <Gold.PLP.part.nonpolar>
-29.8990

> <Gold.PLP.part.repulsive>
0.1485

> <Gold.PLP.ligand.clash>
0.0000

> <Gold.PLP.ligand.torsion>
1.2321

> <Gold.PLP.Chemscore.Hbond>
3.9760

> <Gold.PLP.Chemscore.CHOScore>
0.0000

> <Gold.PLP.Chemscore.Metal>
0.0000

> <Gold.Chemscore.Hbonds>
donor molecule, donor type, donor heavy atom, donor atom, acceptor molecule, acceptor atom, score
      L1  H    27    62       P1  7948  1.07
      P1  H  7997  8010       L1    21  0.25
      P1  H 10752 10765       L1    10  0.85

> <Gold.PLP.Chemscore.Internal.Correction>
0.3936

> <Gold.Rescore>
     Score         DG    S(hbond)    S(metal)    S(lipo)     H(rot)  DE(clash)    DE(int)     intcor
     12.67     -15.24       1.84        0.00      98.27       3.08       0.28       2.29       ----

> <Gold.Chemscore.Fitness>
12.6737

> <Gold.Chemscore.DG>
-15.2432

> <Gold.Chemscore.ZeroCoef>
-5.4800

> <Gold.Chemscore.Hbond>
1.8381

> <Gold.Chemscore.Metal>
0.0000

> <Gold.Chemscore.Lipo>
98.2744

> <Gold.Chemscore.Internal_Hbond>
0.0000

> <Gold.Chemscore.DEClash>
0.2770

> <Gold.Chemscore.DEInternal>
2.2924

> <Gold.Chemscore.Rot>
3.0758

> <Gold.Chemscore.Internal.Correction>
   9.000000E+99

> <Gold.Chemscore.Hbonds>
donor molecule, donor type, donor heavy atom, donor atom, acceptor molecule, acceptor atom, score
      L1  H    27    62       P1  7948  0.46
      P1  H 10752 10765       L1    10  0.12

> <Gold.Chemscore.Hbond.Weighted>
-6.1392

> <Gold.Chemscore.Metal.Weighted>
-0.0000

> <Gold.Chemscore.Lipo.Weighted>
-11.4981

> <Gold.Chemscore.Internal_Hbond.Weighted>
0.0000

> <Gold.Chemscore.DEClash.Weighted>
0.2770

> <Gold.Chemscore.DEInternal.Weighted>
2.2924

> <Gold.Chemscore.Rot.Weighted>
7.8741

> <Gold.Chemscore.Internal.Correction.Weighted>
   9.000000E+99

> <Gold.Protein.RotatedTorsions>
[ 6907 6896 6895 6894 ] final  -11.35 input  -60.11 | X-H torsion
[ 7974 7965 7964 7962 ] final  129.73 input  175.53 | X-H torsion
[ 8008 7997 7996 7995 ] final    8.34 input   59.86 | X-H torsion
[ 10167 10162 10161 10158 ] final  -12.22 input  -65.29 | X-H torsion
[ 10718 10713 10712 10709 ] final   39.40 input   66.30 | X-H torsion
[ 10763 10752 10751 10750 ] final -140.92 input  -60.55 | X-H torsion
[ 11005 11000 10999 10996 ] final  140.87 input  -57.11 | X-H torsion

> <Gold.Protein.ActiveResidues>
 VAL166  LYS551  ARG553  GLY616  TRP617  ASP618  TYR619  PRO620  LYS621  CYS622 
 ASP623  PHE694  ASN695  SER759  ASP760  ASP761  ALA762  ILE779  LEU786  VAL792 
 PHE793  MET794  SER795  GLU796  ALA797  LYS798  CYS799  TRP800  GLU811  SER814 

> <Gold.Protein.RotatedAtoms>
  151.3876  135.0950  159.9515 H   0  0  0  0  0  0  0  0  0  0  0  0  # atno 6907 bound_to 6896
  152.5089  133.9011  159.7452 H   0  0  0  0  0  0  0  0  0  0  0  0  # atno 6908 bound_to 6896
  150.9458  133.6549  159.2810 H   0  0  0  0  0  0  0  0  0  0  0  0  # atno 6909 bound_to 6896
  145.0255  139.4093  143.5176 H   0  0  0  0  0  0  0  0  0  0  0  0  # atno 7974 bound_to 7965
  154.7655  140.2792  155.6179 H   0  0  0  0  0  0  0  0  0  0  0  0  # atno 8008 bound_to 7997
  156.2924  140.2651  156.2372 H   0  0  0  0  0  0  0  0  0  0  0  0  # atno 8009 bound_to 7997
  154.9964  140.0373  157.2331 H   0  0  0  0  0  0  0  0  0  0  0  0  # atno 8010 bound_to 7997
  140.7156  143.5556  150.9252 H   0  0  0  0  0  0  0  0  0  0  0  0  # atno 10167 bound_to 10162
  157.3701  130.7696  149.7112 H   0  0  0  0  0  0  0  0  0  0  0  0  # atno 10718 bound_to 10713
  154.8563  135.3539  154.5784 H   0  0  0  0  0  0  0  0  0  0  0  0  # atno 10763 bound_to 10752
  153.6396  135.6999  153.5251 H   0  0  0  0  0  0  0  0  0  0  0  0  # atno 10764 bound_to 10752
  153.2982  135.4214  155.1188 H   0  0  0  0  0  0  0  0  0  0  0  0  # atno 10765 bound_to 10752
  140.0359  134.9329  157.0752 H   0  0  0  0  0  0  0  0  0  0  0  0  # atno 11005 bound_to 11000
  146.3491  139.9776  142.8699 LP  0  0  0  0  0  0  0  0  0  0  0  0  # atno 17320 bound_to 7965
  145.1839  140.9780  143.4250 LP  0  0  0  0  0  0  0  0  0  0  0  0  # atno 17321 bound_to 7965
  139.9281  143.6526  152.3082 LP  0  0  0  0  0  0  0  0  0  0  0  0  # atno 17342 bound_to 10162
  139.6967  144.7640  151.1344 LP  0  0  0  0  0  0  0  0  0  0  0  0  # atno 17343 bound_to 10162
  155.9754  130.4090  150.3854 LP  0  0  0  0  0  0  0  0  0  0  0  0  # atno 17370 bound_to 10713
  157.1944  131.0423  151.2683 LP  0  0  0  0  0  0  0  0  0  0  0  0  # atno 17371 bound_to 10713
  140.4148  134.1943  155.7163 LP  0  0  0  0  0  0  0  0  0  0  0  0  # atno 17394 bound_to 11000
  141.1857  133.8318  157.1095 LP  0  0  0  0  0  0  0  0  0  0  0  0  # atno 17395 bound_to 11000

$$$$
