#       Name:                AV-unprocessed.smi:1644
#       Creating user name   scv26
#       Creation time:       Fri Mar 27 07:28:59 2020


#       File generated by GOLD software.
#

@<TRIPOS>MOLECULE
AV-unprocessed.smi:1644
    56    58     1
SMALL
NO_CHARGES


@<TRIPOS>ATOM
      1 ****        -0.8029   4.5851  -1.7842 C.3            1 S1                 0.0000
      2 ****        -1.5355   3.3213  -1.3210 C.3            1 S1                 0.0000
      3 ****        -3.0703   3.4667  -1.4080 C.3            1 S1                 0.0000
      4 ****        -3.8996   2.2484  -0.9334 C.3            1 S1                 0.0000
      5 ****        -3.6893   1.9682   0.4716 N.pl3          1 S1                -1.0000
      6 ****        -3.2641   0.6885   0.5931 C.2            1 S1                 0.0000
      7 ****        -2.9740   0.1067   1.6381 O.2            1 S1                 0.0000
      8 ****        -3.1724   0.0903  -0.6112 N.am           1 S1                 0.0000
      9 ****        -2.7040  -1.2803  -0.8389 C.3            1 S1                 0.0000
     10 ****        -1.1643  -1.3502  -0.8990 C.3            1 S1                 0.0000
     11 ****        -0.7502  -1.1018  -2.2290 O.3            1 S1                 0.0000
     12 ****        -0.6391  -2.7356  -0.4774 C.3            1 S1                 0.0000
     13 ****         0.8110  -2.8061  -0.4906 N.pl3          1 S1                 0.0000
     14 ****         1.5888  -3.4425  -1.3872 C.2            1 S1                 0.0000
     15 ****         2.9048  -3.3822  -1.2028 N.2            1 S1                 0.0000
     16 ****         2.9899  -2.6138  -0.0541 C.ar           1 S1                 0.0000
     17 ****         4.1175  -2.1757   0.6747 C.ar           1 S1                 0.0000
     18 ****         3.9671  -1.3831   1.8352 C.ar           1 S1                 0.0000
     19 ****         5.2069  -0.9284   2.5851 C.3            1 S1                 0.0000
     20 ****         2.6720  -1.0202   2.2852 C.ar           1 S1                 0.0000
     21 ****         2.4853  -0.1646   3.5256 C.3            1 S1                 0.0000
     22 ****         1.5350  -1.4546   1.5723 C.ar           1 S1                 0.0000
     23 ****         1.6980  -2.2388   0.4169 C.ar           1 S1                 0.0000
     24 ****        -3.5117   0.9378  -1.5868 C.2            1 S1                 0.0000
     25 ****        -3.5074   0.7339  -2.8012 O.2            1 S1                 0.0000
     26 ****         0.2773   4.4547  -1.7146 H              1 S1                 0.0000
     27 ****        -1.0746   5.4445  -1.1707 H              1 S1                 0.0000
     28 ****        -1.0443   4.8223  -2.8207 H              1 S1                 0.0000
     29 ****        -1.1994   2.4802  -1.9275 H              1 S1                 0.0000
     30 ****        -1.2404   3.0979  -0.2954 H              1 S1                 0.0000
     31 ****        -3.3764   4.3417  -0.8329 H              1 S1                 0.0000
     32 ****        -3.3420   3.6888  -2.4407 H              1 S1                 0.0000
     33 ****        -4.9528   2.4327  -1.1492 H              1 S1                 0.0000
     34 ****        -3.0690  -1.8999  -0.0181 H              1 S1                 0.0000
     35 ****        -3.1519  -1.7101  -1.7369 H              1 S1                 0.0000
     36 ****        -0.7259  -0.5923  -0.2481 H              1 S1                 0.0000
     37 ****        -1.0726  -0.2514  -2.4871 H              1 S1                 0.0000
     38 ****        -0.9754  -2.9731   0.5327 H              1 S1                 0.0000
     39 ****        -1.0383  -3.5128  -1.1311 H              1 S1                 0.0000
     40 ****         1.1645  -3.9795  -2.2232 H              1 S1                 0.0000
     41 ****         5.1036  -2.4528   0.3316 H              1 S1                 0.0000
     42 ****         5.1848  -1.2875   3.6142 H              1 S1                 0.0000
     43 ****         5.2665   0.1600   2.5985 H              1 S1                 0.0000
     44 ****         6.1166  -1.3080   2.1183 H              1 S1                 0.0000
     45 ****         1.4291   0.0109   3.7323 H              1 S1                 0.0000
     46 ****         2.9660   0.8052   3.3957 H              1 S1                 0.0000
     47 ****         2.9197  -0.6535   4.3977 H              1 S1                 0.0000
     48 ****         0.5422  -1.1860   1.9027 H              1 S1                 0.0000
     49 ****        -3.8336   2.6106   1.2242 LP             1 S1                 0.0000
     50 ****        -3.0432   0.5860   2.5130 LP             1 S1                 0.0000
     51 ****        -2.6690  -0.8453   1.6123 LP             1 S1                 0.0000
     52 ****        -1.1238  -1.8033  -2.8359 LP             1 S1                 0.0000
     53 ****         0.2484  -1.1144  -2.2800 LP             1 S1                 0.0000
     54 ****         3.6388  -3.7854  -1.7494 LP             1 S1                 0.0000
     55 ****        -3.7733   1.4632  -3.4316 LP             1 S1                 0.0000
     56 ****        -3.2380  -0.1610  -3.1570 LP             1 S1                 0.0000
@<TRIPOS>BOND
    1    1    2 1     
    2    1   26 1     
    3    1   27 1     
    4    1   28 1     
    5    2    3 1     
    6    2   29 1     
    7    2   30 1     
    8    3    4 1     
    9    3   31 1     
   10    3   32 1     
   11    4   24 1     
   12    4    5 1     
   13    4   33 1     
   14    5    6 1     
   15    6    7 2     
   16    6    8 am    
   17    8    9 1     
   18    8   24 am    
   19    9   10 1     
   20    9   34 1     
   21    9   35 1     
   22   10   11 1     
   23   10   12 1     
   24   10   36 1     
   25   11   37 1     
   26   12   13 1     
   27   12   38 1     
   28   12   39 1     
   29   13   23 1     
   30   13   14 1     
   31   14   15 2     
   32   14   40 1     
   33   15   16 1     
   34   16   23 ar    
   35   16   17 ar    
   36   17   18 ar    
   37   17   41 1     
   38   18   19 1     
   39   18   20 ar    
   40   19   42 1     
   41   19   43 1     
   42   19   44 1     
   43   20   21 1     
   44   20   22 ar    
   45   21   45 1     
   46   21   46 1     
   47   21   47 1     
   48   22   23 ar    
   49   22   48 1     
   50   24   25 2     
   51    5   49 1     
   52    7   50 1     
   53    7   51 1     
   54   11   52 1     
   55   11   53 1     
   56   15   54 1     
   57   25   55 1     
   58   25   56 1     
@<TRIPOS>SUBSTRUCTURE
      1 S1             1
@<TRIPOS>SET
LONE_PAIRS      STATIC     ATOMS    <user>   **** ""
8 49 50 51 52 53 54 55 56
DONOR_HYDROGENS      STATIC     ATOMS    <user>   **** ""
1 37
ATOM$BLUE        STATIC     ATOMS    COLORGROUP SYSTEM
8 49 50 51 52 53 54 55 56
ATOM$RED        STATIC     ATOMS    COLORGROUP SYSTEM
1 37
