AV-unprocessed.smi:1438|AV-procd|sdf|5867|dock2
  -GOLD-   22720 5543D 1   1.00000     0.00000
 Structure written by MMmdl.
 43 44  0  0  0  0  0  0  0  0  1 V2000
  154.5493  134.6013  163.4372 C   0  0  0  0  0  0  0  0  0  0  0  0
  155.4614  135.6140  162.7256 C   0  0  2  0  0  0  0  0  0  0  0  0
  154.8746  137.0319  162.7552 C   0  0  0  0  0  0  0  0  0  0  0  0
  153.7368  137.2311  163.1816 O   0  0  0  0  0  0  0  0  0  0  0  0
  155.6627  138.0123  162.2913 N   0  0  0  0  0  0  0  0  0  0  0  0
  155.2643  139.4076  162.1753 C   0  0  0  0  0  0  0  0  0  0  0  0
  154.4090  139.6484  160.9465 C   0  0  0  0  0  0  0  0  0  0  0  0
  154.2743  138.6545  159.9553 C   0  0  0  0  0  0  0  0  0  0  0  0
  153.4637  138.9282  158.8366 C   0  0  0  0  0  0  0  0  0  0  0  0
  152.8062  140.0947  158.6661 N   0  0  0  0  0  0  0  0  0  0  0  0
  152.9355  141.0494  159.6185 C   0  0  0  0  0  0  0  0  0  0  0  0
  152.2438  142.2574  159.4516 N   0  0  0  0  0  0  0  0  0  0  0  0
  153.1078  143.4294  159.3795 C   0  0  0  0  0  0  0  0  0  0  0  0
  152.2536  144.7078  159.3245 C   0  0  0  0  0  0  0  0  0  0  0  0
  151.3535  144.6325  158.2224 O   0  0  0  0  0  0  0  0  0  0  0  0
  150.4641  143.5245  158.3323 C   0  0  0  0  0  0  0  0  0  0  0  0
  151.2712  142.2151  158.3672 C   0  0  0  0  0  0  0  0  0  0  0  0
  153.7259  140.8697  160.7730 C   0  0  0  0  0  0  0  0  0  0  0  0
  155.7467  135.0843  160.9713 S   0  0  0  0  0  0  0  0  0  0  0  0
  156.3545  133.3535  161.1493 C   0  0  0  0  0  0  0  0  0  0  0  0
  154.4438  135.0451  160.2898 O   0  0  0  0  0  0  0  0  0  0  0  0
  156.8347  135.8924  160.3989 O   0  0  0  0  0  0  0  0  0  0  0  0
  154.3460  134.9041  164.4650 H   0  0  0  0  0  0  0  0  0  0  0  0
  155.0161  133.6169  163.4722 H   0  0  0  0  0  0  0  0  0  0  0  0
  153.5933  134.4922  162.9236 H   0  0  0  0  0  0  0  0  0  0  0  0
  156.4324  135.6160  163.2224 H   0  0  0  0  0  0  0  0  0  0  0  0
  156.5884  137.7740  161.9663 H   0  0  0  0  0  0  0  0  0  0  0  0
  154.7187  139.7110  163.0705 H   0  0  0  0  0  0  0  0  0  0  0  0
  156.1550  140.0346  162.1138 H   0  0  0  0  0  0  0  0  0  0  0  0
  154.7819  137.7052  160.0458 H   0  0  0  0  0  0  0  0  0  0  0  0
  153.3388  138.1899  158.0584 H   0  0  0  0  0  0  0  0  0  0  0  0
  153.7676  143.4552  160.2475 H   0  0  0  0  0  0  0  0  0  0  0  0
  153.7404  143.3706  158.4927 H   0  0  0  0  0  0  0  0  0  0  0  0
  151.6974  144.8452  160.2531 H   0  0  0  0  0  0  0  0  0  0  0  0
  152.8926  145.5825  159.2031 H   0  0  0  0  0  0  0  0  0  0  0  0
  149.8493  143.6261  159.2282 H   0  0  0  0  0  0  0  0  0  0  0  0
  149.7862  143.5260  157.4787 H   0  0  0  0  0  0  0  0  0  0  0  0
  151.7866  142.0722  157.4161 H   0  0  0  0  0  0  0  0  0  0  0  0
  150.6018  141.3649  158.5027 H   0  0  0  0  0  0  0  0  0  0  0  0
  153.8020  141.6545  161.5119 H   0  0  0  0  0  0  0  0  0  0  0  0
  156.4722  132.9115  160.1602 H   0  0  0  0  0  0  0  0  0  0  0  0
  155.6353  132.7683  161.7218 H   0  0  0  0  0  0  0  0  0  0  0  0
  157.3190  133.3475  161.6563 H   0  0  0  0  0  0  0  0  0  0  0  0
  1  2  1  0  0  0  0
  1 23  1  0  0  0  0
  1 24  1  0  0  0  0
  1 25  1  0  0  0  0
  2  3  1  0  0  0  0
  2 19  1  0  0  0  0
  2 26  1  0  0  0  0
  3  4  2  0  0  0  0
  3  5  1  0  0  0  0
  5  6  1  0  0  0  0
  5 27  1  0  0  0  0
  6  7  1  0  0  0  0
  6 28  1  0  0  0  0
  6 29  1  0  0  0  0
  7 18  1  0  0  0  0
  7  8  2  0  0  0  0
  8  9  1  0  0  0  0
  8 30  1  0  0  0  0
  9 10  2  0  0  0  0
  9 31  1  0  0  0  0
 10 11  1  0  0  0  0
 11 12  1  0  0  0  0
 11 18  2  0  0  0  0
 12 17  1  0  0  0  0
 12 13  1  0  0  0  0
 13 14  1  0  0  0  0
 13 32  1  0  0  0  0
 13 33  1  0  0  0  0
 14 15  1  0  0  0  0
 14 34  1  0  0  0  0
 14 35  1  0  0  0  0
 15 16  1  0  0  0  0
 16 17  1  0  0  0  0
 16 36  1  0  0  0  0
 16 37  1  0  0  0  0
 17 38  1  0  0  0  0
 17 39  1  0  0  0  0
 18 40  1  0  0  0  0
 19 20  1  0  0  0  0
 19 21  2  0  0  0  0
 19 22  2  0  0  0  0
 20 41  1  0  0  0  0
 20 42  1  0  0  0  0
 20 43  1  0  0  0  0
M  END
> <s_m_source_file>
AV-unprocessed.smi

> <i_m_source_file_index>
1438

> <i_lp_mmshare_version>
43012

> <i_f3d_flags>
0

> <s_epik_input>
W0NIM11TKD1PKSg9TylbQ0BIXShbQ0gzXSlDKD1PKVtOSF1bQ0gyXWMxW2NIXVtjSF1uYyhbY0hdMSlOMltDSDJdW0NIMl1PW0NIMl1bQ0gyXTI=

> <s_epik_cmdline>
J2VwaWtfcHl0aG9uJywgJy1waCcsICc3LjAnLCAnLXRuJywgJzgnLCAnLW1hJywgJzIwMCcsICctbWV0YWxfYmluZGluZycsICctaW1hZScsICc8aW5maWxlLm1hZT4nLCAnLW9tYWUnLCAnPG91dGZpbGUubWFlPic=

> <r_lp_tautomer_probability>
1

> <r_epik_Ionization_Penalty>
0.00387635

> <r_epik_Ionization_Penalty_Charging>
0

> <r_epik_Ionization_Penalty_Neutral>
0.00387635

> <r_epik_State_Penalty>
0.0027681

> <r_epik_Charging_Adjusted_Penalty>
0.0027681

> <i_epik_Tot_Q>
0

> <i_epik_Tot_abs_Q>
0

> <r_epik_Metal_State_Penalty>
-0

> <b_epik_Metal_Only>
0

> <s_lp_Force_Field>
OPLS_2005

> <r_lp_Energy>
15.2281

> <b_lp_Chiralities_Consistent>
1

> <s_lp_Variant>
AV-unprocessed.smi:1438-1

> <Gold.Version>
5.8.1

> <Gold.Id.Protein>
6NUR|6NUR_protein|mol2

> <Gold.PLP.Fitness>
35.1509

> <Gold.PLP.PLP>
-32.9410

> <Gold.PLP.part.hbond>
-1.0379

> <Gold.PLP.part.metal>
0.0000

> <Gold.PLP.part.buried>
-5.7104

> <Gold.PLP.part.nonpolar>
-26.5433

> <Gold.PLP.part.repulsive>
0.1459

> <Gold.PLP.ligand.clash>
0.0000

> <Gold.PLP.ligand.torsion>
0.5550

> <Gold.PLP.Chemscore.Hbond>
1.0000

> <Gold.PLP.Chemscore.CHOScore>
0.0000

> <Gold.PLP.Chemscore.Metal>
0.0000

> <Gold.Chemscore.Hbonds>
donor molecule, donor type, donor heavy atom, donor atom, acceptor molecule, acceptor atom, score
      P1  H  6896  6908       L1    21  1.00

> <Gold.PLP.Chemscore.Internal.Correction>
0.3198

> <Gold.Rescore>
     Score         DG    S(hbond)    S(metal)    S(lipo)     H(rot)  DE(clash)    DE(int)     intcor
     13.79     -14.49       0.99        0.00      94.08       2.08       0.04       0.66       ----

> <Gold.Chemscore.Fitness>
13.7899

> <Gold.Chemscore.DG>
-14.4905

> <Gold.Chemscore.ZeroCoef>
-5.4800

> <Gold.Chemscore.Hbond>
0.9937

> <Gold.Chemscore.Metal>
0.0000

> <Gold.Chemscore.Lipo>
94.0772

> <Gold.Chemscore.Internal_Hbond>
0.0000

> <Gold.Chemscore.DEClash>
0.0359

> <Gold.Chemscore.DEInternal>
0.6648

> <Gold.Chemscore.Rot>
2.0764

> <Gold.Chemscore.Internal.Correction>
   9.000000E+99

> <Gold.Chemscore.Hbonds>
donor molecule, donor type, donor heavy atom, donor atom, acceptor molecule, acceptor atom, score
      P1  H  6896  6908       L1    21  0.96

> <Gold.Chemscore.Hbond.Weighted>
-3.3190

> <Gold.Chemscore.Metal.Weighted>
-0.0000

> <Gold.Chemscore.Lipo.Weighted>
-11.0070

> <Gold.Chemscore.Internal_Hbond.Weighted>
0.0000

> <Gold.Chemscore.DEClash.Weighted>
0.0359

> <Gold.Chemscore.DEInternal.Weighted>
0.6648

> <Gold.Chemscore.Rot.Weighted>
5.3155

> <Gold.Chemscore.Internal.Correction.Weighted>
   9.000000E+99

> <Gold.Protein.RotatedTorsions>
[ 6907 6896 6895 6894 ] final  -46.73 input  -60.11 | X-H torsion
[ 7974 7965 7964 7962 ] final  179.44 input  175.53 | X-H torsion
[ 8008 7997 7996 7995 ] final  -19.40 input   59.86 | X-H torsion
[ 10167 10162 10161 10158 ] final  -62.28 input  -65.29 | X-H torsion
[ 10718 10713 10712 10709 ] final  146.58 input   66.30 | X-H torsion
[ 10763 10752 10751 10750 ] final  -54.59 input  -60.55 | X-H torsion
[ 11005 11000 10999 10996 ] final  150.20 input  -57.11 | X-H torsion

> <Gold.Protein.ActiveResidues>
 VAL166  LYS551  ARG553  GLY616  TRP617  ASP618  TYR619  PRO620  LYS621  CYS622 
 ASP623  PHE694  ASN695  SER759  ASP760  ASP761  ALA762  ILE779  LEU786  VAL792 
 PHE793  MET794  SER795  GLU796  ALA797  LYS798  CYS799  TRP800  GLU811  SER814 

> <Gold.Protein.RotatedAtoms>
  150.9082  134.8498  159.7406 H   0  0  0  0  0  0  0  0  0  0  0  0  # atno 6907 bound_to 6896
  152.4930  134.4399  159.9550 H   0  0  0  0  0  0  0  0  0  0  0  0  # atno 6908 bound_to 6896
  151.4444  133.3595  159.2821 H   0  0  0  0  0  0  0  0  0  0  0  0  # atno 6909 bound_to 6896
  144.7146  140.0548  143.6434 H   0  0  0  0  0  0  0  0  0  0  0  0  # atno 7974 bound_to 7965
  154.4839  140.2090  155.9700 H   0  0  0  0  0  0  0  0  0  0  0  0  # atno 8008 bound_to 7997
  156.1207  140.3214  155.8173 H   0  0  0  0  0  0  0  0  0  0  0  0  # atno 8009 bound_to 7997
  155.4473  140.0514  157.2995 H   0  0  0  0  0  0  0  0  0  0  0  0  # atno 8010 bound_to 7997
  140.5949  143.2349  151.6057 H   0  0  0  0  0  0  0  0  0  0  0  0  # atno 10167 bound_to 10162
  157.3314  131.0921  151.1159 H   0  0  0  0  0  0  0  0  0  0  0  0  # atno 10718 bound_to 10713
  154.1773  135.6449  153.5025 H   0  0  0  0  0  0  0  0  0  0  0  0  # atno 10763 bound_to 10752
  153.0068  135.5398  154.6550 H   0  0  0  0  0  0  0  0  0  0  0  0  # atno 10764 bound_to 10752
  154.5905  135.2934  155.0612 H   0  0  0  0  0  0  0  0  0  0  0  0  # atno 10765 bound_to 10752
  140.1110  134.8924  157.1936 H   0  0  0  0  0  0  0  0  0  0  0  0  # atno 11005 bound_to 11000
  145.9913  139.3017  143.0983 LP  0  0  0  0  0  0  0  0  0  0  0  0  # atno 17320 bound_to 7965
  145.8899  140.9310  143.0557 LP  0  0  0  0  0  0  0  0  0  0  0  0  # atno 17321 bound_to 7965
  139.5252  144.3082  152.1016 LP  0  0  0  0  0  0  0  0  0  0  0  0  # atno 17342 bound_to 10162
  140.2253  144.4425  150.6324 LP  0  0  0  0  0  0  0  0  0  0  0  0  # atno 17343 bound_to 10162
  157.2406  130.6567  149.5888 LP  0  0  0  0  0  0  0  0  0  0  0  0  # atno 17370 bound_to 10713
  155.9696  130.4569  150.5944 LP  0  0  0  0  0  0  0  0  0  0  0  0  # atno 17371 bound_to 10713
  140.3091  134.3044  155.7271 LP  0  0  0  0  0  0  0  0  0  0  0  0  # atno 17394 bound_to 11000
  141.2130  133.7639  156.9750 LP  0  0  0  0  0  0  0  0  0  0  0  0  # atno 17395 bound_to 11000

$$$$
