AV-unprocessed.smi:3331|AV-procd|sdf|12821|dock5
  -GOLD-   2272019193D 1   1.00000     0.00000
 Structure written by MMmdl.
 47 48  0  0  0  0  0  0  0  0  2 V2000
  151.0004  142.6464  157.3110 C   0  0  0  0  0  0  0  0  0  0  0  0
  150.5894  141.3191  156.6590 C   0  0  2  0  0  0  0  0  0  0  0  0
  151.8211  140.4569  156.3037 C   0  0  0  0  0  0  0  0  0  0  0  0
  151.4389  139.1728  155.5335 C   0  0  2  0  0  0  0  0  0  0  0  0
  152.6829  138.3955  155.0816 C   0  0  0  0  0  0  0  0  0  0  0  0
  150.5188  139.5169  154.3428 C   0  0  0  0  0  0  0  0  0  0  0  0
  149.3453  140.2404  154.8494 N   0  0  0  0  0  0  0  0  0  0  0  0
  148.1118  139.6775  154.9046 C   0  0  0  0  0  0  0  0  0  0  0  0
  147.1593  140.2464  155.4417 O   0  0  0  0  0  0  0  0  0  0  0  0
  147.8671  138.2847  154.2841 C   0  0  1  0  0  0  0  0  0  0  0  0
  146.5613  137.6830  154.8298 C   0  0  0  0  0  0  0  0  0  0  0  0
  147.7952  138.3449  152.8049 N   0  3  0  0  0  0  0  0  0  0  0  0
  146.4773  138.7263  152.2526 C   0  0  0  0  0  0  0  0  0  0  0  0
  146.1037  137.8304  151.0639 C   0  0  0  0  0  0  0  0  0  0  0  0
  145.4084  136.6328  151.4924 N   0  0  0  0  0  0  0  0  0  0  0  0
  144.9506  135.5841  150.7231 C   0  0  0  0  0  0  0  0  0  0  0  0
  144.3577  134.6901  151.5678 C   0  0  0  0  0  0  0  0  0  0  0  0
  144.5039  135.2884  152.8505 C   0  0  0  0  0  0  0  0  0  0  0  0
  145.1343  136.4511  152.8020 N   0  0  0  0  0  0  0  0  0  0  0  0
  149.7286  141.5466  155.4003 C   0  0  0  0  0  0  0  0  0  0  0  0
  151.6013  143.2527  156.6325 H   0  0  0  0  0  0  0  0  0  0  0  0
  151.5888  142.4745  158.2128 H   0  0  0  0  0  0  0  0  0  0  0  0
  150.1259  143.2323  157.5950 H   0  0  0  0  0  0  0  0  0  0  0  0
  149.9884  140.7680  157.3844 H   0  0  0  0  0  0  0  0  0  0  0  0
  152.5057  141.0475  155.6932 H   0  0  0  0  0  0  0  0  0  0  0  0
  152.3677  140.1975  157.2113 H   0  0  0  0  0  0  0  0  0  0  0  0
  150.8798  138.5285  156.2139 H   0  0  0  0  0  0  0  0  0  0  0  0
  153.2870  138.9817  154.3884 H   0  0  0  0  0  0  0  0  0  0  0  0
  152.4055  137.4682  154.5797 H   0  0  0  0  0  0  0  0  0  0  0  0
  153.3120  138.1332  155.9326 H   0  0  0  0  0  0  0  0  0  0  0  0
  151.0486  140.1413  153.6217 H   0  0  0  0  0  0  0  0  0  0  0  0
  150.2532  138.6073  153.8022 H   0  0  0  0  0  0  0  0  0  0  0  0
  148.6929  137.6141  154.5201 H   0  0  0  0  0  0  0  0  0  0  0  0
  146.5737  137.6050  155.9173 H   0  0  0  0  0  0  0  0  0  0  0  0
  146.3995  136.6793  154.4357 H   0  0  0  0  0  0  0  0  0  0  0  0
  145.6970  138.2888  154.5539 H   0  0  0  0  0  0  0  0  0  0  0  0
  148.4663  139.0301  152.4884 H   0  0  0  0  0  0  0  0  0  0  0  0
  145.7128  138.6453  153.0261 H   0  0  0  0  0  0  0  0  0  0  0  0
  146.5085  139.7711  151.9402 H   0  0  0  0  0  0  0  0  0  0  0  0
  145.4663  138.3696  150.3613 H   0  0  0  0  0  0  0  0  0  0  0  0
  146.9996  137.5334  150.5167 H   0  0  0  0  0  0  0  0  0  0  0  0
  145.0826  135.5606  149.6514 H   0  0  0  0  0  0  0  0  0  0  0  0
  143.8890  133.7523  151.3088 H   0  0  0  0  0  0  0  0  0  0  0  0
  144.1729  134.9145  153.8082 H   0  0  0  0  0  0  0  0  0  0  0  0
  148.8831  142.1933  155.6254 H   0  0  0  0  0  0  0  0  0  0  0  0
  150.3034  142.0930  154.6509 H   0  0  0  0  0  0  0  0  0  0  0  0
  148.0584  137.4416  152.4370 H   0  0  0  0  0  0  0  0  0  0  0  0
  1  2  1  0  0  0  0
  1 21  1  0  0  0  0
  1 22  1  0  0  0  0
  1 23  1  0  0  0  0
  2 20  1  0  0  0  0
  2  3  1  0  0  0  0
  2 24  1  0  0  0  0
  3  4  1  0  0  0  0
  3 25  1  0  0  0  0
  3 26  1  0  0  0  0
  4  5  1  0  0  0  0
  4  6  1  0  0  0  0
  4 27  1  0  0  0  0
  5 28  1  0  0  0  0
  5 29  1  0  0  0  0
  5 30  1  0  0  0  0
  6  7  1  0  0  0  0
  6 31  1  0  0  0  0
  6 32  1  0  0  0  0
  7  8  1  0  0  0  0
  7 20  1  0  0  0  0
  8  9  2  0  0  0  0
  8 10  1  0  0  0  0
 10 11  1  0  0  0  0
 10 12  1  0  0  0  0
 10 33  1  0  0  0  0
 11 34  1  0  0  0  0
 11 35  1  0  0  0  0
 11 36  1  0  0  0  0
 12 13  1  0  0  0  0
 12 37  1  0  0  0  0
 12 47  1  0  0  0  0
 13 14  1  0  0  0  0
 13 38  1  0  0  0  0
 13 39  1  0  0  0  0
 14 15  1  0  0  0  0
 14 40  1  0  0  0  0
 14 41  1  0  0  0  0
 15 19  1  0  0  0  0
 15 16  1  0  0  0  0
 16 17  2  0  0  0  0
 16 42  1  0  0  0  0
 17 18  1  0  0  0  0
 17 43  1  0  0  0  0
 18 19  2  0  0  0  0
 18 44  1  0  0  0  0
 20 45  1  0  0  0  0
 20 46  1  0  0  0  0
M  CHG  1  12   1
M  END
> <s_m_source_file>
AV-unprocessed.smi

> <i_m_source_file_index>
3331

> <i_lp_mmshare_version>
43012

> <i_f3d_flags>
0

> <s_epik_input>
W0NIM11bQ0BASF0xW0NIMl1bQ0BASF0oW0NIM10pW0NIMl1OKFtDSDJdMSlDKD1PKVtDQEhdKFtDSDNdKVtOSF1bQ0gyXVtDSDJdbjJbY0hdW2NIXVtjSF1uMg==

> <s_epik_cmdline>
J2VwaWtfcHl0aG9uJywgJy1waCcsICc3LjAnLCAnLXRuJywgJzgnLCAnLW1hJywgJzIwMCcsICctbWV0YWxfYmluZGluZycsICctaW1hZScsICc8aW5maWxlLm1hZT4nLCAnLW9tYWUnLCAnPG91dGZpbGUubWFlPic=

> <r_lp_tautomer_probability>
1

> <r_epik_Ionization_Penalty>
0.189706

> <r_epik_Ionization_Penalty_Charging>
0.189703

> <r_epik_Ionization_Penalty_Neutral>
2.45875e-06

> <r_epik_State_Penalty>
0.179341

> <r_epik_Charging_Adjusted_Penalty>
0.369044

> <i_epik_Tot_Q>
1

> <i_epik_Tot_abs_Q>
1

> <r_epik_Metal_State_Penalty>
0.179578

> <b_epik_Metal_Only>
0

> <s_lp_Force_Field>
OPLS_2005

> <r_lp_Energy>
26.0913

> <b_lp_Chiralities_Consistent>
1

> <s_lp_Variant>
AV-unprocessed.smi:3331-5

> <Gold.Version>
5.8.1

> <Gold.Id.Protein>
6NUR|6NUR_protein|mol2

> <Gold.PLP.Fitness>
44.6570

> <Gold.PLP.PLP>
-34.9219

> <Gold.PLP.part.hbond>
-2.0000

> <Gold.PLP.part.metal>
0.0000

> <Gold.PLP.part.buried>
1.6392

> <Gold.PLP.part.nonpolar>
-36.1227

> <Gold.PLP.part.repulsive>
0.2394

> <Gold.PLP.ligand.clash>
0.0000

> <Gold.PLP.ligand.torsion>
1.1503

> <Gold.PLP.Chemscore.Hbond>
3.0000

> <Gold.PLP.Chemscore.CHOScore>
1.0000

> <Gold.PLP.Chemscore.Metal>
0.0000

> <Gold.Chemscore.Hbonds>
donor molecule, donor type, donor heavy atom, donor atom, acceptor molecule, acceptor atom, score
      L1  H    12    37       P1  7957  1.00
      L1  H    12    47       P1  7948  2.00
      L1  C    16    42       P1  7921  1.00

> <Gold.PLP.Chemscore.Internal.Correction>
0.0357

> <Gold.Rescore>
     Score         DG    S(hbond)    S(metal)    S(lipo)     H(rot)  DE(clash)    DE(int)     intcor
     14.24     -17.97       1.89        0.00      90.53       1.73       2.37       1.36       ----

> <Gold.Chemscore.Fitness>
14.2355

> <Gold.Chemscore.DG>
-17.9745

> <Gold.Chemscore.ZeroCoef>
-5.4800

> <Gold.Chemscore.Hbond>
1.8920

> <Gold.Chemscore.Metal>
0.0000

> <Gold.Chemscore.Lipo>
90.5332

> <Gold.Chemscore.Internal_Hbond>
0.0000

> <Gold.Chemscore.DEClash>
2.3747

> <Gold.Chemscore.DEInternal>
1.3643

> <Gold.Chemscore.Rot>
1.7254

> <Gold.Chemscore.Internal.Correction>
   9.000000E+99

> <Gold.Chemscore.Hbonds>
donor molecule, donor type, donor heavy atom, donor atom, acceptor molecule, acceptor atom, score
      L1  H    12    37       P1  7957  0.94
      L1  H    12    47       P1  7948  0.98

> <Gold.Chemscore.Hbond.Weighted>
-6.3191

> <Gold.Chemscore.Metal.Weighted>
-0.0000

> <Gold.Chemscore.Lipo.Weighted>
-10.5924

> <Gold.Chemscore.Internal_Hbond.Weighted>
0.0000

> <Gold.Chemscore.DEClash.Weighted>
2.3747

> <Gold.Chemscore.DEInternal.Weighted>
1.3643

> <Gold.Chemscore.Rot.Weighted>
4.4170

> <Gold.Chemscore.Internal.Correction.Weighted>
   9.000000E+99

> <Gold.Protein.RotatedTorsions>
[ 6907 6896 6895 6894 ] final   65.34 input  -60.11 | X-H torsion
[ 7974 7965 7964 7962 ] final  140.99 input  175.53 | X-H torsion
[ 8008 7997 7996 7995 ] final  -47.36 input   59.86 | X-H torsion
[ 10167 10162 10161 10158 ] final   14.53 input  -65.29 | X-H torsion
[ 10718 10713 10712 10709 ] final  179.48 input   66.30 | X-H torsion
[ 10763 10752 10751 10750 ] final -173.74 input  -60.55 | X-H torsion
[ 11005 11000 10999 10996 ] final   16.61 input  -57.11 | X-H torsion

> <Gold.Protein.ActiveResidues>
 VAL166  LYS551  ARG553  GLY616  TRP617  ASP618  TYR619  PRO620  LYS621  CYS622 
 ASP623  PHE694  ASN695  SER759  ASP760  ASP761  ALA762  ILE779  LEU786  VAL792 
 PHE793  MET794  SER795  GLU796  ALA797  LYS798  CYS799  TRP800  GLU811  SER814 

> <Gold.Protein.RotatedAtoms>
  152.4400  134.5610  159.9893 H   0  0  0  0  0  0  0  0  0  0  0  0  # atno 6907 bound_to 6896
  151.5710  133.3384  159.2997 H   0  0  0  0  0  0  0  0  0  0  0  0  # atno 6908 bound_to 6896
  150.8304  134.7589  159.6913 H   0  0  0  0  0  0  0  0  0  0  0  0  # atno 6909 bound_to 6896
  144.9136  139.5260  143.5697 H   0  0  0  0  0  0  0  0  0  0  0  0  # atno 7974 bound_to 7965
  154.4016  140.1348  156.4163 H   0  0  0  0  0  0  0  0  0  0  0  0  # atno 8008 bound_to 7997
  155.7685  140.3484  155.5214 H   0  0  0  0  0  0  0  0  0  0  0  0  # atno 8009 bound_to 7997
  155.8789  140.0984  157.1489 H   0  0  0  0  0  0  0  0  0  0  0  0  # atno 8010 bound_to 7997
  140.5929  143.8759  150.6890 H   0  0  0  0  0  0  0  0  0  0  0  0  # atno 10167 bound_to 10162
  156.8751  130.9797  151.3069 H   0  0  0  0  0  0  0  0  0  0  0  0  # atno 10718 bound_to 10713
  154.6043  135.2858  155.0501 H   0  0  0  0  0  0  0  0  0  0  0  0  # atno 10763 bound_to 10752
  154.1754  135.6465  153.5024 H   0  0  0  0  0  0  0  0  0  0  0  0  # atno 10764 bound_to 10752
  153.0169  135.5411  154.6774 H   0  0  0  0  0  0  0  0  0  0  0  0  # atno 10765 bound_to 10752
  140.4451  134.1281  155.7695 H   0  0  0  0  0  0  0  0  0  0  0  0  # atno 11005 bound_to 11000
  146.3171  139.7962  142.8975 LP  0  0  0  0  0  0  0  0  0  0  0  0  # atno 17320 bound_to 7965
  145.3412  141.0288  143.3391 LP  0  0  0  0  0  0  0  0  0  0  0  0  # atno 17321 bound_to 7965
  140.2287  143.3753  152.1584 LP  0  0  0  0  0  0  0  0  0  0  0  0  # atno 17342 bound_to 10162
  139.5239  144.7077  151.5303 LP  0  0  0  0  0  0  0  0  0  0  0  0  # atno 17343 bound_to 10162
  157.6173  130.8628  149.9050 LP  0  0  0  0  0  0  0  0  0  0  0  0  # atno 17370 bound_to 10713
  156.0706  130.3685  150.0784 LP  0  0  0  0  0  0  0  0  0  0  0  0  # atno 17371 bound_to 10713
  141.1688  133.8649  157.1633 LP  0  0  0  0  0  0  0  0  0  0  0  0  # atno 17394 bound_to 11000
  140.0043  135.0015  157.0259 LP  0  0  0  0  0  0  0  0  0  0  0  0  # atno 17395 bound_to 11000

$$$$
