AV-unprocessed.smi:1388|AV-procd|sdf|5645|dock4
  -GOLD-   22720 5263D 1   1.00000     0.00000
 Structure written by MMmdl.
 45 46  0  0  0  0  0  0  0  0  3 V2000
  149.4334  132.1521  153.6070 C   0  0  0  0  0  0  0  0  0  0  0  0
  148.8357  133.3430  154.1996 N   0  5  0  0  0  0  0  0  0  0  0  0
  149.5415  134.2584  154.9195 C   0  0  0  0  0  0  0  0  0  0  0  0
  150.7318  134.2809  155.2478 O   0  0  0  0  0  0  0  0  0  0  0  0
  148.6457  135.4227  155.3603 C   0  0  0  0  0  0  0  0  0  0  0  0
  149.0886  136.6979  154.7402 N   0  3  2  0  0  0  0  0  0  0  0  0
  150.4871  137.0445  155.0980 C   0  0  0  0  0  0  0  0  0  0  0  0
  150.9706  138.2864  154.3270 C   0  0  0  0  0  0  0  0  0  0  0  0
  150.0390  139.4930  154.5330 C   0  0  2  0  0  0  0  0  0  0  0  0
  150.1721  140.0132  155.8934 N   0  0  0  0  0  0  0  0  0  0  0  0
  151.3282  140.1789  156.5527 C   0  0  0  0  0  0  0  0  0  0  0  0
  152.4286  139.9154  156.0677 O   0  0  0  0  0  0  0  0  0  0  0  0
  151.1153  140.6651  157.7884 N   0  0  0  0  0  0  0  0  0  0  0  0
  152.0708  140.9633  158.8006 C   0  0  0  0  0  0  0  0  0  0  0  0
  152.7435  139.9999  159.4786 N   0  0  0  0  0  0  0  0  0  0  0  0
  153.6331  140.3528  160.4290 C   0  0  0  0  0  0  0  0  0  0  0  0
  153.9092  141.6896  160.7631 C   0  0  0  0  0  0  0  0  0  0  0  0
  153.2223  142.7002  160.0692 C   0  0  0  0  0  0  0  0  0  0  0  0
  152.2895  142.3403  159.0733 C   0  0  0  0  0  0  0  0  0  0  0  0
  151.5456  143.4324  158.3219 C   0  0  0  0  0  0  0  0  0  0  0  0
  148.5867  139.0866  154.2148 C   0  0  0  0  0  0  0  0  0  0  0  0
  148.1562  137.8293  154.9908 C   0  0  0  0  0  0  0  0  0  0  0  0
  148.6858  131.5193  153.1295 H   0  0  0  0  0  0  0  0  0  0  0  0
  149.9382  131.5283  154.3455 H   0  0  0  0  0  0  0  0  0  0  0  0
  150.1702  132.3939  152.8405 H   0  0  0  0  0  0  0  0  0  0  0  0
  147.6018  135.2227  155.1133 H   0  0  0  0  0  0  0  0  0  0  0  0
  148.6998  135.4899  156.4483 H   0  0  0  0  0  0  0  0  0  0  0  0
  150.5572  137.2112  156.1738 H   0  0  0  0  0  0  0  0  0  0  0  0
  151.1432  136.2048  154.8651 H   0  0  0  0  0  0  0  0  0  0  0  0
  151.9893  138.5394  154.6236 H   0  0  0  0  0  0  0  0  0  0  0  0
  151.0159  138.0479  153.2634 H   0  0  0  0  0  0  0  0  0  0  0  0
  150.3451  140.2782  153.8392 H   0  0  0  0  0  0  0  0  0  0  0  0
  149.3169  140.2530  156.3731 H   0  0  0  0  0  0  0  0  0  0  0  0
  150.1539  140.8377  158.0411 H   0  0  0  0  0  0  0  0  0  0  0  0
  154.1386  139.5452  160.9373 H   0  0  0  0  0  0  0  0  0  0  0  0
  154.6289  141.9327  161.5309 H   0  0  0  0  0  0  0  0  0  0  0  0
  153.4115  143.7379  160.3009 H   0  0  0  0  0  0  0  0  0  0  0  0
  151.8457  144.4237  158.6627 H   0  0  0  0  0  0  0  0  0  0  0  0
  150.4702  143.3370  158.4747 H   0  0  0  0  0  0  0  0  0  0  0  0
  151.7521  143.3692  157.2532 H   0  0  0  0  0  0  0  0  0  0  0  0
  147.9020  139.9093  154.4243 H   0  0  0  0  0  0  0  0  0  0  0  0
  148.4981  138.8883  153.1457 H   0  0  0  0  0  0  0  0  0  0  0  0
  147.1454  137.5562  154.6864 H   0  0  0  0  0  0  0  0  0  0  0  0
  148.1146  138.0401  156.0606 H   0  0  0  0  0  0  0  0  0  0  0  0
  149.0817  136.5244  153.7442 H   0  0  0  0  0  0  0  0  0  0  0  0
  1  2  1  0  0  0  0
  1 23  1  0  0  0  0
  1 24  1  0  0  0  0
  1 25  1  0  0  0  0
  2  3  1  0  0  0  0
  3  4  2  0  0  0  0
  3  5  1  0  0  0  0
  5  6  1  0  0  0  0
  5 26  1  0  0  0  0
  5 27  1  0  0  0  0
  6 22  1  0  0  0  0
  6  7  1  0  0  0  0
  6 45  1  0  0  0  0
  7  8  1  0  0  0  0
  7 28  1  0  0  0  0
  7 29  1  0  0  0  0
  8  9  1  0  0  0  0
  8 30  1  0  0  0  0
  8 31  1  0  0  0  0
  9 10  1  0  0  0  0
  9 21  1  0  0  0  0
  9 32  1  0  0  0  0
 10 11  1  0  0  0  0
 10 33  1  0  0  0  0
 11 12  2  0  0  0  0
 11 13  1  0  0  0  0
 13 14  1  0  0  0  0
 13 34  1  0  0  0  0
 14 19  1  0  0  0  0
 14 15  2  0  0  0  0
 15 16  1  0  0  0  0
 16 17  2  0  0  0  0
 16 35  1  0  0  0  0
 17 18  1  0  0  0  0
 17 36  1  0  0  0  0
 18 19  2  0  0  0  0
 18 37  1  0  0  0  0
 19 20  1  0  0  0  0
 20 38  1  0  0  0  0
 20 39  1  0  0  0  0
 20 40  1  0  0  0  0
 21 22  1  0  0  0  0
 21 41  1  0  0  0  0
 21 42  1  0  0  0  0
 22 43  1  0  0  0  0
 22 44  1  0  0  0  0
M  CHG  1   2  -1
M  CHG  1   6   1
M  END
> <s_m_source_file>
AV-unprocessed.smi

> <i_m_source_file_index>
1388

> <i_lp_mmshare_version>
43012

> <i_f3d_flags>
0

> <s_epik_input>
W0NIM11bTkhdQyg9TylbQ0gyXU4xW0NIMl1bQ0gyXVtDSF0oW0NIMl1bQ0gyXTEpW05IXUMoPU8pW05IXWMybltjSF1bY0hdW2NIXWMyW0NIM10=

> <s_epik_cmdline>
J2VwaWtfcHl0aG9uJywgJy1waCcsICc3LjAnLCAnLXRuJywgJzgnLCAnLW1hJywgJzIwMCcsICctbWV0YWxfYmluZGluZycsICctaW1hZScsICc8aW5maWxlLm1hZT4nLCAnLW9tYWUnLCAnPG91dGZpbGUubWFlPic=

> <r_epik_Ionization_Penalty>
6.13951

> <r_epik_Ionization_Penalty_Charging>
6.13946

> <r_epik_Ionization_Penalty_Neutral>
4.54304e-05

> <r_epik_State_Penalty>
6.9595

> <r_epik_Charging_Adjusted_Penalty>
13.099

> <i_epik_Tot_Q>
0

> <i_epik_Tot_abs_Q>
2

> <r_epik_Metal_State_Penalty>
2.89141

> <b_epik_Metal_Only>
1

> <s_lp_Force_Field>
OPLS_2005

> <r_lp_Energy>
12.9207

> <b_lp_Chiralities_Consistent>
1

> <s_lp_Variant>
AV-unprocessed.smi:1388-5

> <Gold.Version>
5.8.1

> <Gold.Id.Protein>
6NUR|6NUR_protein|mol2

> <Gold.PLP.Fitness>
46.8895

> <Gold.PLP.PLP>
-39.6286

> <Gold.PLP.part.hbond>
-2.0000

> <Gold.PLP.part.metal>
0.0000

> <Gold.PLP.part.buried>
-4.4543

> <Gold.PLP.part.nonpolar>
-33.1029

> <Gold.PLP.part.repulsive>
0.3003

> <Gold.PLP.ligand.clash>
0.0000

> <Gold.PLP.ligand.torsion>
0.9147

> <Gold.PLP.Chemscore.Hbond>
3.0000

> <Gold.PLP.Chemscore.CHOScore>
0.0000

> <Gold.PLP.Chemscore.Metal>
0.0000

> <Gold.Chemscore.Hbonds>
donor molecule, donor type, donor heavy atom, donor atom, acceptor molecule, acceptor atom, score
      L1  H     6    45       P1  7948  2.00
      P1  H  7997  8008       L1    12  1.00

> <Gold.PLP.Chemscore.Internal.Correction>
0.0902

> <Gold.Rescore>
     Score         DG    S(hbond)    S(metal)    S(lipo)     H(rot)  DE(clash)    DE(int)     intcor
     14.95     -18.62       1.99        0.00      91.18       1.63       0.07       3.61       ----

> <Gold.Chemscore.Fitness>
14.9473

> <Gold.Chemscore.DG>
-18.6241

> <Gold.Chemscore.ZeroCoef>
-5.4800

> <Gold.Chemscore.Hbond>
1.9909

> <Gold.Chemscore.Metal>
0.0000

> <Gold.Chemscore.Lipo>
91.1794

> <Gold.Chemscore.Internal_Hbond>
0.0000

> <Gold.Chemscore.DEClash>
0.0688

> <Gold.Chemscore.DEInternal>
3.6079

> <Gold.Chemscore.Rot>
1.6303

> <Gold.Chemscore.Internal.Correction>
   9.000000E+99

> <Gold.Chemscore.Hbonds>
donor molecule, donor type, donor heavy atom, donor atom, acceptor molecule, acceptor atom, score
      L1  H     6    45       P1  7948  0.99
      P1  H  7997  8008       L1    12  0.98

> <Gold.Chemscore.Hbond.Weighted>
-6.6496

> <Gold.Chemscore.Metal.Weighted>
-0.0000

> <Gold.Chemscore.Lipo.Weighted>
-10.6680

> <Gold.Chemscore.Internal_Hbond.Weighted>
0.0000

> <Gold.Chemscore.DEClash.Weighted>
0.0688

> <Gold.Chemscore.DEInternal.Weighted>
3.6079

> <Gold.Chemscore.Rot.Weighted>
4.1735

> <Gold.Chemscore.Internal.Correction.Weighted>
   9.000000E+99

> <Gold.Protein.RotatedTorsions>
[ 6907 6896 6895 6894 ] final  104.95 input  -60.11 | X-H torsion
[ 7974 7965 7964 7962 ] final   68.87 input  175.53 | X-H torsion
[ 8008 7997 7996 7995 ] final  -28.09 input   59.86 | X-H torsion
[ 10167 10162 10161 10158 ] final  -29.03 input  -65.29 | X-H torsion
[ 10718 10713 10712 10709 ] final  158.70 input   66.30 | X-H torsion
[ 10763 10752 10751 10750 ] final  170.09 input  -60.55 | X-H torsion
[ 11005 11000 10999 10996 ] final  -19.96 input  -57.11 | X-H torsion

> <Gold.Protein.ActiveResidues>
 VAL166  LYS551  ARG553  GLY616  TRP617  ASP618  TYR619  PRO620  LYS621  CYS622 
 ASP623  PHE694  ASN695  SER759  ASP760  ASP761  ALA762  ILE779  LEU786  VAL792 
 PHE793  MET794  SER795  GLU796  ALA797  LYS798  CYS799  TRP800  GLU811  SER814 

> <Gold.Protein.RotatedAtoms>
  152.5247  133.9600  159.7712 H   0  0  0  0  0  0  0  0  0  0  0  0  # atno 6907 bound_to 6896
  150.9893  133.6158  159.2718 H   0  0  0  0  0  0  0  0  0  0  0  0  # atno 6908 bound_to 6896
  151.3307  135.0847  159.9390 H   0  0  0  0  0  0  0  0  0  0  0  0  # atno 6909 bound_to 6896
  145.7973  139.2964  143.1175 H   0  0  0  0  0  0  0  0  0  0  0  0  # atno 7974 bound_to 7965
  154.4348  140.1854  156.1035 H   0  0  0  0  0  0  0  0  0  0  0  0  # atno 8008 bound_to 7997
  156.0274  140.3334  155.7077 H   0  0  0  0  0  0  0  0  0  0  0  0  # atno 8009 bound_to 7997
  155.5889  140.0629  157.2754 H   0  0  0  0  0  0  0  0  0  0  0  0  # atno 8010 bound_to 7997
  140.7264  143.3962  151.1344 H   0  0  0  0  0  0  0  0  0  0  0  0  # atno 10167 bound_to 10162
  157.1743  131.0617  151.2166 H   0  0  0  0  0  0  0  0  0  0  0  0  # atno 10718 bound_to 10713
  154.3926  135.2754  155.2145 H   0  0  0  0  0  0  0  0  0  0  0  0  # atno 10763 bound_to 10752
  154.4205  135.6001  153.6010 H   0  0  0  0  0  0  0  0  0  0  0  0  # atno 10764 bound_to 10752
  152.9832  135.5971  154.4183 H   0  0  0  0  0  0  0  0  0  0  0  0  # atno 10765 bound_to 10752
  140.8418  133.7921  155.9869 H   0  0  0  0  0  0  0  0  0  0  0  0  # atno 11005 bound_to 11000
  145.9914  140.8599  143.0064 LP  0  0  0  0  0  0  0  0  0  0  0  0  # atno 17320 bound_to 7965
  144.6773  140.2221  143.7365 LP  0  0  0  0  0  0  0  0  0  0  0  0  # atno 17321 bound_to 7965
  139.7575  143.8686  152.3092 LP  0  0  0  0  0  0  0  0  0  0  0  0  # atno 17342 bound_to 10162
  139.8560  144.7141  150.9156 LP  0  0  0  0  0  0  0  0  0  0  0  0  # atno 17343 bound_to 10162
  157.4013  130.7335  149.6769 LP  0  0  0  0  0  0  0  0  0  0  0  0  # atno 17370 bound_to 10713
  155.9733  130.4120  150.4009 LP  0  0  0  0  0  0  0  0  0  0  0  0  # atno 17371 bound_to 10713
  140.8887  134.2522  157.5106 LP  0  0  0  0  0  0  0  0  0  0  0  0  # atno 17394 bound_to 11000
  139.8703  134.9651  156.4516 LP  0  0  0  0  0  0  0  0  0  0  0  0  # atno 17395 bound_to 11000

$$$$
