#       Name:                AV-unprocessed.smi:2784
#       Creating user name   scv26
#       Creation time:       Fri Mar 27 15:17:46 2020


#       File generated by GOLD software.
#

@<TRIPOS>MOLECULE
AV-unprocessed.smi:2784
    38    39     1
SMALL
NO_CHARGES


@<TRIPOS>ATOM
      1 ****        -1.4057   1.0713   2.0326 C.3            1 S1                 0.0000
      2 ****        -0.8910  -0.2489   2.0943 O.3            1 S1                 0.0000
      3 ****         0.5306  -0.3082   2.1772 C.3            1 S1                 0.0000
      4 ****         0.8622  -1.3254   3.2713 C.3            1 S1                 0.0000
      5 ****         0.7889  -2.6764   2.5662 C.3            1 S1                 0.0000
      6 ****         1.3565  -2.4109   1.1703 C.3            1 S1                 0.0000
      7 ****         1.1495  -0.9088   0.8918 C.3            1 S1                 0.0000
      8 ****         0.3204  -0.7076  -0.2955 N.am           1 S1                 0.0000
      9 ****         0.3604   0.3627  -1.1028 C.2            1 S1                 0.0000
     10 ****         1.1337   1.3018  -0.8898 O.2            1 S1                 0.0000
     11 ****        -0.5660   0.2190  -2.1254 N.2            1 S1                 0.0000
     12 ****        -0.6978   1.1576  -3.0111 C.2            1 S1                 0.0000
     13 ****        -1.5647   1.1836  -4.0920 N.pl3          1 S1                 0.0000
     14 ****        -1.3702   2.3576  -4.7659 C.2            1 S1                 0.0000
     15 ****        -0.4215   3.0441  -4.1357 C.2            1 S1                 0.0000
     16 ****         0.0113   2.3361  -3.0554 O.3            1 S1                 0.0000
     17 ****        -2.4915   1.0369   1.9446 H              1 S1                 0.0000
     18 ****        -1.0153   1.6129   1.1708 H              1 S1                 0.0000
     19 ****        -1.1586   1.6294   2.9366 H              1 S1                 0.0000
     20 ****         0.9633   0.6657   2.4148 H              1 S1                 0.0000
     21 ****         1.8788  -1.1585   3.6302 H              1 S1                 0.0000
     22 ****         0.1931  -1.2591   4.1300 H              1 S1                 0.0000
     23 ****         1.3316  -3.4586   3.0981 H              1 S1                 0.0000
     24 ****        -0.2526  -2.9906   2.4856 H              1 S1                 0.0000
     25 ****         2.4237  -2.6368   1.1586 H              1 S1                 0.0000
     26 ****         0.8868  -3.0543   0.4248 H              1 S1                 0.0000
     27 ****         2.1346  -0.4663   0.7324 H              1 S1                 0.0000
     28 ****        -0.3409  -1.4384  -0.5150 H              1 S1                 0.0000
     29 ****        -2.2368   0.4837  -4.3712 H              1 S1                 0.0000
     30 ****        -1.9486   2.5825  -5.6499 H              1 S1                 0.0000
     31 ****         0.0356   4.0048  -4.3215 H              1 S1                 0.0000
     32 ****        -1.1796  -0.7387   1.2717 LP             1 S1                 0.0000
     33 ****        -1.2730  -0.6990   2.9015 LP             1 S1                 0.0000
     34 ****         1.7481   1.2746  -0.1012 LP             1 S1                 0.0000
     35 ****         1.1455   2.0894  -1.5059 LP             1 S1                 0.0000
     36 ****        -1.1300  -0.6050  -2.1795 LP             1 S1                 0.0000
     37 ****         0.9881   2.1418  -3.1454 LP             1 S1                 0.0000
     38 ****        -0.1485   2.8605  -2.2191 LP             1 S1                 0.0000
@<TRIPOS>BOND
    1    1    2 1     
    2    1   17 1     
    3    1   18 1     
    4    1   19 1     
    5    2    3 1     
    6    3    7 1     
    7    3    4 1     
    8    3   20 1     
    9    4    5 1     
   10    4   21 1     
   11    4   22 1     
   12    5    6 1     
   13    5   23 1     
   14    5   24 1     
   15    6    7 1     
   16    6   25 1     
   17    6   26 1     
   18    7    8 1     
   19    7   27 1     
   20    8   28 1     
   21    8    9 am    
   22    9   11 1     
   23    9   10 2     
   24   11   12 2     
   25   12   16 1     
   26   12   13 1     
   27   13   29 1     
   28   13   14 1     
   29   14   30 1     
   30   14   15 2     
   31   15   31 1     
   32   15   16 1     
   33    2   32 1     
   34    2   33 1     
   35   10   34 1     
   36   10   35 1     
   37   11   36 1     
   38   16   37 1     
   39   16   38 1     
@<TRIPOS>SUBSTRUCTURE
      1 S1             1
@<TRIPOS>SET
LONE_PAIRS      STATIC     ATOMS    <user>   **** ""
7 32 33 34 35 36 37 38
DONOR_HYDROGENS      STATIC     ATOMS    <user>   **** ""
2 28 29
ATOM$BLUE        STATIC     ATOMS    COLORGROUP SYSTEM
7 32 33 34 35 36 37 38
ATOM$RED        STATIC     ATOMS    COLORGROUP SYSTEM
2 28 29
