AV-unprocessed.smi:1868|AV-procd|sdf|7591|dock3
  -GOLD-   22720 9303D 1   1.00000     0.00000
 Structure written by MMmdl.
 48 50  0  0  0  0  0  0  0  0  3 V2000
  149.4584  140.1704  156.3714 C   0  0  0  0  0  0  0  0  0  0  0  0
  150.2569  141.1749  157.1324 C   0  0  0  0  0  0  0  0  0  0  0  0
  150.3307  142.5094  156.8647 N   0  3  0  0  0  0  0  0  0  0  0  0
  151.1767  143.1302  157.7852 C   0  0  0  0  0  0  0  0  0  0  0  0
  151.5620  144.4607  157.9172 C   0  0  0  0  0  0  0  0  0  0  0  0
  152.4463  144.7614  158.9742 C   0  0  0  0  0  0  0  0  0  0  0  0
  152.9139  143.7588  159.8487 C   0  0  0  0  0  0  0  0  0  0  0  0
  152.5174  142.4129  159.7041 C   0  0  0  0  0  0  0  0  0  0  0  0
  151.6414  142.1249  158.6579 C   0  0  0  0  0  0  0  0  0  0  0  0
  151.0460  140.9368  158.2198 N   0  0  0  0  0  0  0  0  0  0  0  0
  151.3397  139.6815  158.9289 C   0  0  0  0  0  0  0  0  0  0  0  0
  152.6912  139.0591  158.5248 C   0  0  1  0  0  0  0  0  0  0  0  0
  152.9353  139.3204  157.1563 O   0  0  0  0  0  0  0  0  0  0  0  0
  153.8538  139.6400  159.3539 C   0  0  0  0  0  0  0  0  0  0  0  0
  154.4896  138.6276  160.2360 N   0  3  2  0  0  0  0  0  0  0  0  0
  153.5667  137.5333  160.6387 C   0  0  0  0  0  0  0  0  0  0  0  0
  154.3093  136.4441  161.4331 C   0  0  0  0  0  0  0  0  0  0  0  0
  155.0415  137.0146  162.6617 C   0  0  2  0  0  0  0  0  0  0  0  0
  154.0842  137.3842  163.8082 C   0  0  0  0  0  0  0  0  0  0  0  0
  155.9316  138.1928  162.2263 C   0  0  0  0  0  0  0  0  0  0  0  0
  155.1530  139.2429  161.4138 C   0  0  0  0  0  0  0  0  0  0  0  0
  148.9053  140.6513  155.5641 H   0  0  0  0  0  0  0  0  0  0  0  0
  148.7462  139.6757  157.0321 H   0  0  0  0  0  0  0  0  0  0  0  0
  150.1162  139.4163  155.9392 H   0  0  0  0  0  0  0  0  0  0  0  0
  151.2067  145.2309  157.2482 H   0  0  0  0  0  0  0  0  0  0  0  0
  152.7735  145.7815  159.1157 H   0  0  0  0  0  0  0  0  0  0  0  0
  153.5919  144.0279  160.6459 H   0  0  0  0  0  0  0  0  0  0  0  0
  152.8829  141.6525  160.3782 H   0  0  0  0  0  0  0  0  0  0  0  0
  151.3254  139.8946  159.9985 H   0  0  0  0  0  0  0  0  0  0  0  0
  150.5199  138.9858  158.7461 H   0  0  0  0  0  0  0  0  0  0  0  0
  152.6324  137.9794  158.6559 H   0  0  0  0  0  0  0  0  0  0  0  0
  152.7620  138.5320  156.6642 H   0  0  0  0  0  0  0  0  0  0  0  0
  154.5955  140.0476  158.6647 H   0  0  0  0  0  0  0  0  0  0  0  0
  153.5116  140.4804  159.9599 H   0  0  0  0  0  0  0  0  0  0  0  0
  152.7470  137.9434  161.2301 H   0  0  0  0  0  0  0  0  0  0  0  0
  153.1147  137.0760  159.7597 H   0  0  0  0  0  0  0  0  0  0  0  0
  153.6131  135.6618  161.7377 H   0  0  0  0  0  0  0  0  0  0  0  0
  155.0352  135.9623  160.7768 H   0  0  0  0  0  0  0  0  0  0  0  0
  155.6967  136.2319  163.0471 H   0  0  0  0  0  0  0  0  0  0  0  0
  153.3818  138.1666  163.5226 H   0  0  0  0  0  0  0  0  0  0  0  0
  154.6370  137.7400  164.6782 H   0  0  0  0  0  0  0  0  0  0  0  0
  153.5019  136.5184  164.1246 H   0  0  0  0  0  0  0  0  0  0  0  0
  156.3942  138.6594  163.0967 H   0  0  0  0  0  0  0  0  0  0  0  0
  156.7525  137.8128  161.6162 H   0  0  0  0  0  0  0  0  0  0  0  0
  155.8480  140.0149  161.0806 H   0  0  0  0  0  0  0  0  0  0  0  0
  154.4084  139.7395  162.0376 H   0  0  0  0  0  0  0  0  0  0  0  0
  155.2284  138.2066  159.6902 H   0  0  0  0  0  0  0  0  0  0  0  0
  149.8390  142.9605  156.1038 H   0  0  0  0  0  0  0  0  0  0  0  0
  1  2  1  0  0  0  0
  1 22  1  0  0  0  0
  1 23  1  0  0  0  0
  1 24  1  0  0  0  0
  2 10  1  0  0  0  0
  2  3  2  0  0  0  0
  3  4  1  0  0  0  0
  3 48  1  0  0  0  0
  4  9  2  0  0  0  0
  4  5  1  0  0  0  0
  5  6  2  0  0  0  0
  5 25  1  0  0  0  0
  6  7  1  0  0  0  0
  6 26  1  0  0  0  0
  7  8  2  0  0  0  0
  7 27  1  0  0  0  0
  8  9  1  0  0  0  0
  8 28  1  0  0  0  0
  9 10  1  0  0  0  0
 10 11  1  0  0  0  0
 11 12  1  0  0  0  0
 11 29  1  0  0  0  0
 11 30  1  0  0  0  0
 12 13  1  0  0  0  0
 12 14  1  0  0  0  0
 12 31  1  0  0  0  0
 13 32  1  0  0  0  0
 14 15  1  0  0  0  0
 14 33  1  0  0  0  0
 14 34  1  0  0  0  0
 15 21  1  0  0  0  0
 15 16  1  0  0  0  0
 15 47  1  0  0  0  0
 16 17  1  0  0  0  0
 16 35  1  0  0  0  0
 16 36  1  0  0  0  0
 17 18  1  0  0  0  0
 17 37  1  0  0  0  0
 17 38  1  0  0  0  0
 18 19  1  0  0  0  0
 18 20  1  0  0  0  0
 18 39  1  0  0  0  0
 19 40  1  0  0  0  0
 19 41  1  0  0  0  0
 19 42  1  0  0  0  0
 20 21  1  0  0  0  0
 20 43  1  0  0  0  0
 20 44  1  0  0  0  0
 21 45  1  0  0  0  0
 21 46  1  0  0  0  0
M  CHG  1   3   1
M  CHG  1  15   1
M  END
> <s_m_source_file>
AV-unprocessed.smi

> <i_m_source_file_index>
1868

> <i_lp_mmshare_version>
43012

> <i_f3d_flags>
0

> <s_epik_input>
W2NIXTFbY0hdW2NIXVtjSF1jKGMxMiluKGMobjIpW0NIM10pW0NIMl1bQ0BIXShbT0hdKVtDSDJdTjNbQ0gyXVtDSDJdW0NIXShbQ0gzXSlbQ0gyXVtDSDJdMw==

> <s_epik_cmdline>
J2VwaWtfcHl0aG9uJywgJy1waCcsICc3LjAnLCAnLXRuJywgJzgnLCAnLW1hJywgJzIwMCcsICctbWV0YWxfYmluZGluZycsICctaW1hZScsICc8aW5maWxlLm1hZT4nLCAnLW9tYWUnLCAnPG91dGZpbGUubWFlPic=

> <r_epik_Ionization_Penalty>
1.10901

> <r_epik_Ionization_Penalty_Charging>
1.10901

> <r_epik_Ionization_Penalty_Neutral>
6.90208e-07

> <r_epik_State_Penalty>
1.18788

> <r_epik_Charging_Adjusted_Penalty>
2.29689

> <i_epik_Tot_Q>
2

> <i_epik_Tot_abs_Q>
2

> <r_epik_Metal_State_Penalty>
5.19353

> <b_epik_Metal_Only>
0

> <s_lp_Force_Field>
OPLS_2005

> <r_lp_Energy>
31.454

> <b_lp_Chiralities_Consistent>
1

> <s_lp_Variant>
AV-unprocessed.smi:1868-8

> <Gold.Version>
5.8.1

> <Gold.Id.Protein>
6NUR|6NUR_protein|mol2

> <Gold.PLP.Fitness>
48.0480

> <Gold.PLP.PLP>
-42.3570

> <Gold.PLP.part.hbond>
-2.0000

> <Gold.PLP.part.metal>
0.0000

> <Gold.PLP.part.buried>
-5.8165

> <Gold.PLP.part.nonpolar>
-35.0942

> <Gold.PLP.part.repulsive>
0.0455

> <Gold.PLP.ligand.clash>
0.0000

> <Gold.PLP.ligand.torsion>
1.6725

> <Gold.PLP.Chemscore.Hbond>
3.0000

> <Gold.PLP.Chemscore.CHOScore>
0.0000

> <Gold.PLP.Chemscore.Metal>
0.0000

> <Gold.Chemscore.Hbonds>
donor molecule, donor type, donor heavy atom, donor atom, acceptor molecule, acceptor atom, score
      L1  H     3    48       P1  8028  1.56
      P1  H  7997  8009       L1    13  1.00

> <Gold.PLP.Chemscore.Internal.Correction>
0.0359

> <Gold.Rescore>
     Score         DG    S(hbond)    S(metal)    S(lipo)     H(rot)  DE(clash)    DE(int)     intcor
     19.72     -21.31       1.89        0.00     124.82       1.99       0.02       1.57       ----

> <Gold.Chemscore.Fitness>
19.7197

> <Gold.Chemscore.DG>
-21.3090

> <Gold.Chemscore.ZeroCoef>
-5.4800

> <Gold.Chemscore.Hbond>
1.8894

> <Gold.Chemscore.Metal>
0.0000

> <Gold.Chemscore.Lipo>
124.8157

> <Gold.Chemscore.Internal_Hbond>
0.0000

> <Gold.Chemscore.DEClash>
0.0185

> <Gold.Chemscore.DEInternal>
1.5708

> <Gold.Chemscore.Rot>
1.9863

> <Gold.Chemscore.Internal.Correction>
   9.000000E+99

> <Gold.Chemscore.Hbonds>
donor molecule, donor type, donor heavy atom, donor atom, acceptor molecule, acceptor atom, score
      L1  H     3    48       P1  8028  0.72
      P1  H  7997  8009       L1    13  0.70

> <Gold.Chemscore.Hbond.Weighted>
-6.3106

> <Gold.Chemscore.Metal.Weighted>
-0.0000

> <Gold.Chemscore.Lipo.Weighted>
-14.6034

> <Gold.Chemscore.Internal_Hbond.Weighted>
0.0000

> <Gold.Chemscore.DEClash.Weighted>
0.0185

> <Gold.Chemscore.DEInternal.Weighted>
1.5708

> <Gold.Chemscore.Rot.Weighted>
5.0850

> <Gold.Chemscore.Internal.Correction.Weighted>
   9.000000E+99

> <Gold.Protein.RotatedTorsions>
[ 6907 6896 6895 6894 ] final   -5.19 input  -60.11 | X-H torsion
[ 7974 7965 7964 7962 ] final   77.34 input  175.53 | X-H torsion
[ 8008 7997 7996 7995 ] final -170.10 input   59.86 | X-H torsion
[ 10167 10162 10161 10158 ] final  175.85 input  -65.29 | X-H torsion
[ 10718 10713 10712 10709 ] final -123.84 input   66.30 | X-H torsion
[ 10763 10752 10751 10750 ] final  -34.26 input  -60.55 | X-H torsion
[ 11005 11000 10999 10996 ] final -149.03 input  -57.11 | X-H torsion

> <Gold.Protein.ActiveResidues>
 VAL166  LYS551  ARG553  GLY616  TRP617  ASP618  TYR619  PRO620  LYS621  CYS622 
 ASP623  PHE694  ASN695  SER759  ASP760  ASP761  ALA762  ILE779  LEU786  VAL792 
 PHE793  MET794  SER795  GLU796  ALA797  LYS798  CYS799  TRP800  GLU811  SER814 

> <Gold.Protein.RotatedAtoms>
  151.4855  135.1054  159.9789 H   0  0  0  0  0  0  0  0  0  0  0  0  # atno 6907 bound_to 6896
  152.4762  133.8140  159.7029 H   0  0  0  0  0  0  0  0  0  0  0  0  # atno 6908 bound_to 6896
  150.8802  133.7321  159.2961 H   0  0  0  0  0  0  0  0  0  0  0  0  # atno 6909 bound_to 6896
  145.6913  139.2553  143.1758 H   0  0  0  0  0  0  0  0  0  0  0  0  # atno 7974 bound_to 7965
  155.9138  140.1062  157.1259 H   0  0  0  0  0  0  0  0  0  0  0  0  # atno 8008 bound_to 7997
  154.4043  140.1269  156.4656 H   0  0  0  0  0  0  0  0  0  0  0  0  # atno 8009 bound_to 7997
  155.7278  140.3469  155.5048 H   0  0  0  0  0  0  0  0  0  0  0  0  # atno 8010 bound_to 7997
  139.5192  144.2984  152.0401 H   0  0  0  0  0  0  0  0  0  0  0  0  # atno 10167 bound_to 10162
  156.1537  130.6552  150.9950 H   0  0  0  0  0  0  0  0  0  0  0  0  # atno 10718 bound_to 10713
  153.8438  135.6855  153.4800 H   0  0  0  0  0  0  0  0  0  0  0  0  # atno 10763 bound_to 10752
  153.1438  135.4646  154.9533 H   0  0  0  0  0  0  0  0  0  0  0  0  # atno 10764 bound_to 10752
  154.7833  135.3276  154.7889 H   0  0  0  0  0  0  0  0  0  0  0  0  # atno 10765 bound_to 10752
  140.7550  134.3363  157.5116 H   0  0  0  0  0  0  0  0  0  0  0  0  # atno 11005 bound_to 11000
  146.0879  140.7689  142.9609 LP  0  0  0  0  0  0  0  0  0  0  0  0  # atno 17320 bound_to 7965
  144.6996  140.3591  143.7167 LP  0  0  0  0  0  0  0  0  0  0  0  0  # atno 17321 bound_to 7965
  140.2432  144.4247  150.6251 LP  0  0  0  0  0  0  0  0  0  0  0  0  # atno 17342 bound_to 10162
  140.6276  143.2183  151.6564 LP  0  0  0  0  0  0  0  0  0  0  0  0  # atno 17343 bound_to 10162
  157.6677  131.0868  150.7687 LP  0  0  0  0  0  0  0  0  0  0  0  0  # atno 17370 bound_to 10713
  156.7754  130.4842  149.5410 LP  0  0  0  0  0  0  0  0  0  0  0  0  # atno 17371 bound_to 10713
  139.8780  134.9166  156.3159 LP  0  0  0  0  0  0  0  0  0  0  0  0  # atno 17394 bound_to 11000
  140.9716  133.7324  156.0542 LP  0  0  0  0  0  0  0  0  0  0  0  0  # atno 17395 bound_to 11000

$$$$
