AV-unprocessed.smi:715|AV-procd|sdf|3484|dock6
  -GOLD-   22720 0473D 1   1.00000     0.00000
 Structure written by MMmdl.
 39 40  0  0  0  0  0  0  0  0  1 V2000
  143.9405  132.2643  149.7416 C   0  0  0  0  0  0  0  0  0  0  0  0
  144.6708  133.3748  150.3142 N   0  0  0  0  0  0  0  0  0  0  0  0
  144.3670  134.7183  150.2710 C   0  0  0  0  0  0  0  0  0  0  0  0
  145.3487  135.3848  150.9493 C   0  0  0  0  0  0  0  0  0  0  0  0
  145.4733  136.8653  151.1956 C   0  0  2  0  0  0  0  0  0  0  0  0
  146.7761  137.3221  150.8918 O   0  0  0  0  0  0  0  0  0  0  0  0
  145.1760  137.1952  152.6687 C   0  0  0  0  0  0  0  0  0  0  0  0
  143.8876  136.6508  153.0783 N   0  0  0  0  0  0  0  0  0  0  0  0
  143.1455  137.1315  154.0859 C   0  0  0  0  0  0  0  0  0  0  0  0
  143.4871  138.0925  154.7755 O   0  0  0  0  0  0  0  0  0  0  0  0
  141.8135  136.4214  154.3508 C   0  0  0  0  0  0  0  0  0  0  0  0
  140.6051  137.3799  154.3987 C   0  0  0  0  0  0  0  0  0  0  0  0
  139.2363  136.6940  154.3160 C   0  0  0  0  0  0  0  0  0  0  0  0
  138.2649  137.7922  153.8687 C   0  0  0  0  0  0  0  0  0  0  0  0
  139.1186  138.8715  153.1848 C   0  0  0  0  0  0  0  0  0  0  0  0
  140.5650  138.3675  153.2301 C   0  0  0  0  0  0  0  0  0  0  0  0
  146.2174  134.3392  151.3788 C   0  0  0  0  0  0  0  0  0  0  0  0
  145.8110  133.1402  150.9948 N   0  0  0  0  0  0  0  0  0  0  0  0
  142.9934  132.6124  149.3285 H   0  0  0  0  0  0  0  0  0  0  0  0
  143.7379  131.5179  150.5105 H   0  0  0  0  0  0  0  0  0  0  0  0
  144.5294  131.8086  148.9451 H   0  0  0  0  0  0  0  0  0  0  0  0
  143.4853  135.0868  149.7673 H   0  0  0  0  0  0  0  0  0  0  0  0
  144.7748  137.4080  150.5570 H   0  0  0  0  0  0  0  0  0  0  0  0
  147.3830  136.9211  151.4952 H   0  0  0  0  0  0  0  0  0  0  0  0
  145.9451  136.7447  153.2991 H   0  0  0  0  0  0  0  0  0  0  0  0
  145.2108  138.2714  152.8469 H   0  0  0  0  0  0  0  0  0  0  0  0
  143.5336  135.8651  152.5519 H   0  0  0  0  0  0  0  0  0  0  0  0
  141.6645  135.6852  153.5604 H   0  0  0  0  0  0  0  0  0  0  0  0
  141.8767  135.8608  155.2850 H   0  0  0  0  0  0  0  0  0  0  0  0
  140.6415  137.9613  155.3220 H   0  0  0  0  0  0  0  0  0  0  0  0
  139.2620  135.9048  153.5630 H   0  0  0  0  0  0  0  0  0  0  0  0
  138.9370  136.2381  155.2604 H   0  0  0  0  0  0  0  0  0  0  0  0
  137.4980  137.3954  153.2023 H   0  0  0  0  0  0  0  0  0  0  0  0
  137.7559  138.2187  154.7340 H   0  0  0  0  0  0  0  0  0  0  0  0
  138.7948  139.0621  152.1610 H   0  0  0  0  0  0  0  0  0  0  0  0
  139.0322  139.8103  153.7336 H   0  0  0  0  0  0  0  0  0  0  0  0
  141.2845  139.1791  153.3442 H   0  0  0  0  0  0  0  0  0  0  0  0
  140.7968  137.8503  152.2979 H   0  0  0  0  0  0  0  0  0  0  0  0
  147.1270  134.4176  151.9559 H   0  0  0  0  0  0  0  0  0  0  0  0
  1  2  1  0  0  0  0
  1 19  1  0  0  0  0
  1 20  1  0  0  0  0
  1 21  1  0  0  0  0
  2 18  1  0  0  0  0
  2  3  1  0  0  0  0
  3  4  2  0  0  0  0
  3 22  1  0  0  0  0
  4  5  1  0  0  0  0
  4 17  1  0  0  0  0
  5  6  1  0  0  0  0
  5  7  1  0  0  0  0
  5 23  1  0  0  0  0
  6 24  1  0  0  0  0
  7  8  1  0  0  0  0
  7 25  1  0  0  0  0
  7 26  1  0  0  0  0
  8  9  1  0  0  0  0
  8 27  1  0  0  0  0
  9 10  2  0  0  0  0
  9 11  1  0  0  0  0
 11 12  1  0  0  0  0
 11 28  1  0  0  0  0
 11 29  1  0  0  0  0
 12 16  1  0  0  0  0
 12 13  1  0  0  0  0
 12 30  1  0  0  0  0
 13 14  1  0  0  0  0
 13 31  1  0  0  0  0
 13 32  1  0  0  0  0
 14 15  1  0  0  0  0
 14 33  1  0  0  0  0
 14 34  1  0  0  0  0
 15 16  1  0  0  0  0
 15 35  1  0  0  0  0
 15 36  1  0  0  0  0
 16 37  1  0  0  0  0
 16 38  1  0  0  0  0
 17 18  2  0  0  0  0
 17 39  1  0  0  0  0
M  END
> <s_m_source_file>
AV-unprocessed.smi

> <i_m_source_file_index>
715

> <i_lp_mmshare_version>
43012

> <i_f3d_flags>
0

> <s_epik_input>
W0NIM11uMVtjSF1jKFtjSF1uMSlbQ0BIXShbT0hdKVtDSDJdW05IXUMoPU8pW0NIMl1bQ0hdMltDSDJdW0NIMl1bQ0gyXVtDSDJdMg==

> <s_epik_cmdline>
J2VwaWtfcHl0aG9uJywgJy1waCcsICc3LjAnLCAnLXRuJywgJzgnLCAnLW1hJywgJzIwMCcsICctbWV0YWxfYmluZGluZycsICctaW1hZScsICc8aW5maWxlLm1hZT4nLCAnLW9tYWUnLCAnPG91dGZpbGUubWFlPic=

> <r_lp_tautomer_probability>
1

> <r_epik_Ionization_Penalty>
4.45533e-05

> <r_epik_Ionization_Penalty_Charging>
0

> <r_epik_Ionization_Penalty_Neutral>
4.45533e-05

> <r_epik_State_Penalty>
-0

> <r_epik_Charging_Adjusted_Penalty>
0

> <i_epik_Tot_Q>
0

> <i_epik_Tot_abs_Q>
0

> <r_epik_Metal_State_Penalty>
-0

> <b_epik_Metal_Only>
0

> <s_lp_Force_Field>
OPLS_2005

> <r_lp_Energy>
19.3798

> <b_lp_Chiralities_Consistent>
1

> <s_lp_Variant>
AV-unprocessed.smi:715-1

> <Gold.Version>
5.8.1

> <Gold.Id.Protein>
6NUR|6NUR_protein|mol2

> <Gold.PLP.Fitness>
43.7545

> <Gold.PLP.PLP>
-34.9061

> <Gold.PLP.part.hbond>
-2.3571

> <Gold.PLP.part.metal>
0.0000

> <Gold.PLP.part.buried>
-0.4234

> <Gold.PLP.part.nonpolar>
-32.2523

> <Gold.PLP.part.repulsive>
0.2398

> <Gold.PLP.ligand.clash>
0.0000

> <Gold.PLP.ligand.torsion>
0.5898

> <Gold.PLP.Chemscore.Hbond>
1.3260

> <Gold.PLP.Chemscore.CHOScore>
2.0000

> <Gold.PLP.Chemscore.Metal>
0.0000

> <Gold.Chemscore.Hbonds>
donor molecule, donor type, donor heavy atom, donor atom, acceptor molecule, acceptor atom, score
      L1  H     6    24       P1  7948  0.98
      P1  H  7954  7966       L1     6  0.45
      L1  C     3    22       P1 10186  0.93
      L1  C    17    39       P1  7948  0.97

> <Gold.PLP.Chemscore.Internal.Correction>
0.0500

> <Gold.Rescore>
     Score         DG    S(hbond)    S(metal)    S(lipo)     H(rot)  DE(clash)    DE(int)     intcor
     11.24     -13.12       1.00        0.00      86.91       2.29       1.61       0.27       ----

> <Gold.Chemscore.Fitness>
11.2384

> <Gold.Chemscore.DG>
-13.1229

> <Gold.Chemscore.ZeroCoef>
-5.4800

> <Gold.Chemscore.Hbond>
0.9967

> <Gold.Chemscore.Metal>
0.0000

> <Gold.Chemscore.Lipo>
86.9051

> <Gold.Chemscore.Internal_Hbond>
0.0000

> <Gold.Chemscore.DEClash>
1.6119

> <Gold.Chemscore.DEInternal>
0.2727

> <Gold.Chemscore.Rot>
2.2866

> <Gold.Chemscore.Internal.Correction>
   9.000000E+99

> <Gold.Chemscore.Hbonds>
donor molecule, donor type, donor heavy atom, donor atom, acceptor molecule, acceptor atom, score
      L1  H     6    24       P1  7948  0.93
      P1  H  7954  7966       L1     6  0.02

> <Gold.Chemscore.Hbond.Weighted>
-3.3288

> <Gold.Chemscore.Metal.Weighted>
-0.0000

> <Gold.Chemscore.Lipo.Weighted>
-10.1679

> <Gold.Chemscore.Internal_Hbond.Weighted>
0.0000

> <Gold.Chemscore.DEClash.Weighted>
1.6119

> <Gold.Chemscore.DEInternal.Weighted>
0.2727

> <Gold.Chemscore.Rot.Weighted>
5.8538

> <Gold.Chemscore.Internal.Correction.Weighted>
   9.000000E+99

> <Gold.Protein.RotatedTorsions>
[ 6907 6896 6895 6894 ] final  126.63 input  -60.11 | X-H torsion
[ 7974 7965 7964 7962 ] final    8.00 input  175.53 | X-H torsion
[ 8008 7997 7996 7995 ] final  -27.01 input   59.86 | X-H torsion
[ 10167 10162 10161 10158 ] final -175.45 input  -65.29 | X-H torsion
[ 10718 10713 10712 10709 ] final  -23.89 input   66.30 | X-H torsion
[ 10763 10752 10751 10750 ] final -137.51 input  -60.55 | X-H torsion
[ 11005 11000 10999 10996 ] final   23.70 input  -57.11 | X-H torsion

> <Gold.Protein.ActiveResidues>
 VAL166  LYS551  ARG553  GLY616  TRP617  ASP618  TYR619  PRO620  LYS621  CYS622 
 ASP623  PHE694  ASN695  SER759  ASP760  ASP761  ALA762  ILE779  LEU786  VAL792 
 PHE793  MET794  SER795  GLU796  ALA797  LYS798  CYS799  TRP800  GLU811  SER814 

> <Gold.Protein.RotatedAtoms>
  152.3886  133.6646  159.6218 H   0  0  0  0  0  0  0  0  0  0  0  0  # atno 6907 bound_to 6896
  150.7799  133.8993  159.3345 H   0  0  0  0  0  0  0  0  0  0  0  0  # atno 6908 bound_to 6896
  151.6784  135.0967  160.0262 H   0  0  0  0  0  0  0  0  0  0  0  0  # atno 6909 bound_to 6896
  146.2421  139.9999  142.8417 H   0  0  0  0  0  0  0  0  0  0  0  0  # atno 7974 bound_to 7965
  154.4398  140.1884  156.0864 H   0  0  0  0  0  0  0  0  0  0  0  0  # atno 8008 bound_to 7997
  156.0399  140.3321  155.7206 H   0  0  0  0  0  0  0  0  0  0  0  0  # atno 8009 bound_to 7997
  155.5715  140.0613  157.2796 H   0  0  0  0  0  0  0  0  0  0  0  0  # atno 8010 bound_to 7997
  139.5580  144.1940  152.1192 H   0  0  0  0  0  0  0  0  0  0  0  0  # atno 10167 bound_to 10162
  156.4850  130.4553  149.6789 H   0  0  0  0  0  0  0  0  0  0  0  0  # atno 10718 bound_to 10713
  154.8660  135.3640  154.5234 H   0  0  0  0  0  0  0  0  0  0  0  0  # atno 10763 bound_to 10752
  153.5863  135.7017  153.5446 H   0  0  0  0  0  0  0  0  0  0  0  0  # atno 10764 bound_to 10752
  153.3412  135.4097  155.1535 H   0  0  0  0  0  0  0  0  0  0  0  0  # atno 10765 bound_to 10752
  140.3667  134.2066  155.7669 H   0  0  0  0  0  0  0  0  0  0  0  0  # atno 11005 bound_to 11000
  145.1425  140.9579  143.4480 LP  0  0  0  0  0  0  0  0  0  0  0  0  # atno 17320 bound_to 7965
  145.0282  139.3364  143.6038 LP  0  0  0  0  0  0  0  0  0  0  0  0  # atno 17321 bound_to 7965
  140.1448  144.5169  150.6722 LP  0  0  0  0  0  0  0  0  0  0  0  0  # atno 17342 bound_to 10162
  140.6856  143.2348  151.5268 LP  0  0  0  0  0  0  0  0  0  0  0  0  # atno 17343 bound_to 10162
  156.3483  130.7419  151.2374 LP  0  0  0  0  0  0  0  0  0  0  0  0  # atno 17370 bound_to 10713
  157.7479  131.0384  150.4502 LP  0  0  0  0  0  0  0  0  0  0  0  0  # atno 17371 bound_to 10713
  141.1967  133.8076  157.0659 LP  0  0  0  0  0  0  0  0  0  0  0  0  # atno 17394 bound_to 11000
  140.0583  134.9768  157.1260 LP  0  0  0  0  0  0  0  0  0  0  0  0  # atno 17395 bound_to 11000

$$$$
