#       Name:                AV-unprocessed.smi:866
#       Creating user name   scv26
#       Creation time:       Fri Mar 27 01:47:18 2020


#       File generated by GOLD software.
#

@<TRIPOS>MOLECULE
AV-unprocessed.smi:866
    37    37     1
SMALL
NO_CHARGES


@<TRIPOS>ATOM
      1 ****        -5.1112   2.1619   2.1839 C.3            1 S1                 0.0000
      2 ****        -4.0268   1.7062   1.2505 C.2            1 S1                 0.0000
      3 ****        -4.1629   0.9355   0.0610 C.2            1 S1                 0.0000
      4 ****        -3.0051   0.7014  -0.5350 N.2            1 S1                 0.0000
      5 ****        -2.0922   1.3097   0.2508 N.pl3          1 S1                 0.0000
      6 ****        -0.6878   1.2567  -0.1063 C.3            1 S1                 0.0000
      7 ****        -0.0962  -0.1418   0.1201 C.3            1 S1                 0.0000
      8 ****         1.3343  -0.1746  -0.2469 N.4            1 S1                 1.0000
      9 ****         1.9809  -1.5063  -0.1602 C.3            1 S1                 0.0000
     10 ****         2.2475  -1.8940   1.3044 C.3            1 S1                 0.0000
     11 ****         3.2947  -1.5309  -0.9763 C.3            1 S1                 0.0000
     12 ****         3.1224  -1.3100  -2.4861 C.2            1 S1                 0.0000
     13 ****         4.2408  -1.1560  -3.1984 N.am           1 S1                 0.0000
     14 ****         2.0085  -1.2775  -3.0063 O.2            1 S1                 0.0000
     15 ****        -2.6812   1.9275   1.3335 C.2            1 S1                 0.0000
     16 ****        -6.1001   1.8679   1.8315 H              1 S1                 0.0000
     17 ****        -5.1190   3.2465   2.2926 H              1 S1                 0.0000
     18 ****        -4.9872   1.7386   3.1809 H              1 S1                 0.0000
     19 ****        -5.0645   0.5409  -0.3841 H              1 S1                 0.0000
     20 ****        -0.5852   1.5523  -1.1516 H              1 S1                 0.0000
     21 ****        -0.1509   1.9975   0.4875 H              1 S1                 0.0000
     22 ****        -0.2185  -0.4268   1.1651 H              1 S1                 0.0000
     23 ****        -0.6350  -0.8757  -0.4810 H              1 S1                 0.0000
     24 ****         1.3977   0.1265  -1.2093 H              1 S1                 0.0000
     25 ****         1.3026  -2.2464  -0.5886 H              1 S1                 0.0000
     26 ****         2.7391  -2.8654   1.3669 H              1 S1                 0.0000
     27 ****         1.3249  -1.9676   1.8799 H              1 S1                 0.0000
     28 ****         2.8921  -1.1655   1.7975 H              1 S1                 0.0000
     29 ****         3.9837  -0.7789  -0.5886 H              1 S1                 0.0000
     30 ****         3.7867  -2.4954  -0.8425 H              1 S1                 0.0000
     31 ****         4.1907  -0.9984  -4.1947 H              1 S1                 0.0000
     32 ****         5.1380  -1.1887  -2.7354 H              1 S1                 0.0000
     33 ****        -2.1010   2.4667   2.0677 H              1 S1                 0.0000
     34 ****         1.8449   0.4798   0.3282 H              1 S1                 0.0000
     35 ****        -2.8430   0.1889  -1.3783 LP             1 S1                 0.0000
     36 ****         1.1903  -1.3963  -2.4438 LP             1 S1                 0.0000
     37 ****         1.9209  -1.1322  -3.9918 LP             1 S1                 0.0000
@<TRIPOS>BOND
    1    1    2 1     
    2    1   16 1     
    3    1   17 1     
    4    1   18 1     
    5    2   15 2     
    6    2    3 1     
    7    3    4 2     
    8    3   19 1     
    9    4    5 1     
   10    5    6 1     
   11    5   15 1     
   12    6    7 1     
   13    6   20 1     
   14    6   21 1     
   15    7    8 1     
   16    7   22 1     
   17    7   23 1     
   18    8    9 1     
   19    8   24 1     
   20    8   34 1     
   21    9   10 1     
   22    9   11 1     
   23    9   25 1     
   24   10   26 1     
   25   10   27 1     
   26   10   28 1     
   27   11   12 1     
   28   11   29 1     
   29   11   30 1     
   30   12   13 am    
   31   12   14 2     
   32   13   31 1     
   33   13   32 1     
   34   15   33 1     
   35    4   35 1     
   36   14   36 1     
   37   14   37 1     
@<TRIPOS>SUBSTRUCTURE
      1 S1             1
@<TRIPOS>SET
LONE_PAIRS      STATIC     ATOMS    <user>   **** ""
3 35 36 37
DONOR_HYDROGENS      STATIC     ATOMS    <user>   **** ""
4 24 34 31 32
ATOM$BLUE        STATIC     ATOMS    COLORGROUP SYSTEM
3 35 36 37
ATOM$RED        STATIC     ATOMS    COLORGROUP SYSTEM
4 24 34 31 32
