#       Name:                AV-unprocessed.smi:2931
#       Creating user name   scv26
#       Creation time:       Fri Mar 27 16:14:09 2020


#       File generated by GOLD software.
#

@<TRIPOS>MOLECULE
AV-unprocessed.smi:2931
    45    46     1
SMALL
NO_CHARGES


@<TRIPOS>ATOM
      1 ****        -4.2266   1.8222  -2.9000 C.3            1 S1                 0.0000
      2 ****        -3.2858   1.9131  -1.7628 N.4            1 S1                 1.0000
      3 ****        -3.9466   1.6450  -0.4609 C.3            1 S1                 0.0000
      4 ****        -2.9738   1.8717   0.7082 C.3            1 S1                 0.0000
      5 ****        -1.7054   1.0225   0.5454 C.3            1 S1                 0.0000
      6 ****        -1.0586   1.2940  -0.8249 C.3            1 S1                 0.0000
      7 ****         0.1031   0.4329  -1.0252 N.am           1 S1                 0.0000
      8 ****         1.3460   0.7097  -0.6065 C.2            1 S1                 0.0000
      9 ****         1.6582   1.7367  -0.0047 O.2            1 S1                 0.0000
     10 ****         2.2056  -0.2717  -0.9129 N.am           1 S1                 0.0000
     11 ****         3.6348  -0.2615  -0.6104 C.3            1 S1                 0.0000
     12 ****         3.9469  -0.4081   0.8934 C.3            1 S1                 0.0000
     13 ****         3.2339  -1.5738   1.5575 C.ar           1 S1                 0.0000
     14 ****         2.1234  -1.3497   2.4021 C.ar           1 S1                 0.0000
     15 ****         1.4833  -2.4519   3.0045 C.ar           1 S1                 0.0000
     16 ****         1.9348  -3.7033   2.7688 N.pl3          1 S1                 1.0000
     17 ****         2.9919  -3.9613   1.9678 C.ar           1 S1                 0.0000
     18 ****         3.6723  -2.8984   1.3389 C.ar           1 S1                 0.0000
     19 ****        -2.0792   1.0703  -1.9574 C.3            1 S1                 0.0000
     20 ****        -4.6171   0.8091  -3.0052 H              1 S1                 0.0000
     21 ****        -3.7324   2.0977  -3.8322 H              1 S1                 0.0000
     22 ****        -5.0687   2.5003  -2.7581 H              1 S1                 0.0000
     23 ****        -4.8106   2.3011  -0.3472 H              1 S1                 0.0000
     24 ****        -4.3215   0.6203  -0.4451 H              1 S1                 0.0000
     25 ****        -2.7025   2.9272   0.7587 H              1 S1                 0.0000
     26 ****        -3.4635   1.6329   1.6527 H              1 S1                 0.0000
     27 ****        -1.0040   1.2461   1.3502 H              1 S1                 0.0000
     28 ****        -1.9586  -0.0348   0.6363 H              1 S1                 0.0000
     29 ****        -0.7390   2.3378  -0.8630 H              1 S1                 0.0000
     30 ****        -0.0518  -0.4384  -1.5113 H              1 S1                 0.0000
     31 ****         1.8528  -1.0764  -1.4099 H              1 S1                 0.0000
     32 ****         4.0849  -1.0918  -1.1550 H              1 S1                 0.0000
     33 ****         4.0923   0.6469  -1.0047 H              1 S1                 0.0000
     34 ****         5.0218  -0.5314   1.0311 H              1 S1                 0.0000
     35 ****         3.6859   0.5126   1.4163 H              1 S1                 0.0000
     36 ****         1.7646  -0.3471   2.5855 H              1 S1                 0.0000
     37 ****         0.6309  -2.3707   3.6632 H              1 S1                 0.0000
     38 ****         3.2601  -5.0019   1.8556 H              1 S1                 0.0000
     39 ****         4.5187  -3.0980   0.6976 H              1 S1                 0.0000
     40 ****        -2.3734   0.0201  -2.0043 H              1 S1                 0.0000
     41 ****        -1.6202   1.3145  -2.9166 H              1 S1                 0.0000
     42 ****        -2.9662   2.8710  -1.7322 H              1 S1                 0.0000
     43 ****         1.4578  -4.4870   3.2157 H              1 S1                 0.0000
     44 ****         0.9642   2.4270   0.1997 LP             1 S1                 0.0000
     45 ****         2.6060   1.8810   0.2799 LP             1 S1                 0.0000
@<TRIPOS>BOND
    1    1    2 1     
    2    1   20 1     
    3    1   21 1     
    4    1   22 1     
    5    2   19 1     
    6    2    3 1     
    7    2   42 1     
    8    3    4 1     
    9    3   23 1     
   10    3   24 1     
   11    4    5 1     
   12    4   25 1     
   13    4   26 1     
   14    5    6 1     
   15    5   27 1     
   16    5   28 1     
   17    6    7 1     
   18    6   19 1     
   19    6   29 1     
   20    7    8 am    
   21    7   30 1     
   22    8    9 2     
   23    8   10 am    
   24   10   11 1     
   25   10   31 1     
   26   11   12 1     
   27   11   32 1     
   28   11   33 1     
   29   12   13 1     
   30   12   34 1     
   31   12   35 1     
   32   13   18 ar    
   33   13   14 ar    
   34   14   15 ar    
   35   14   36 1     
   36   15   16 ar    
   37   15   37 1     
   38   16   17 ar    
   39   16   43 1     
   40   17   18 ar    
   41   17   38 1     
   42   18   39 1     
   43   19   40 1     
   44   19   41 1     
   45    9   44 1     
   46    9   45 1     
@<TRIPOS>SUBSTRUCTURE
      1 S1             1
@<TRIPOS>SET
LONE_PAIRS      STATIC     ATOMS    <user>   **** ""
2 44 45
DONOR_HYDROGENS      STATIC     ATOMS    <user>   **** ""
4 42 30 31 43
ATOM$BLUE        STATIC     ATOMS    COLORGROUP SYSTEM
2 44 45
ATOM$RED        STATIC     ATOMS    COLORGROUP SYSTEM
4 42 30 31 43
