AV-unprocessed.smi:2981|AV-procd|sdf|11374|dock1
  -GOLD-   2272016293D 1   1.00000     0.00000
 Structure written by MMmdl.
 31 32  0  0  0  0  0  0  0  0  1 V2000
  151.1399  140.8115  157.6011 O   0  0  0  0  0  0  0  0  0  0  0  0
  150.9553  141.9817  157.2634 C   0  0  0  0  0  0  0  0  0  0  0  0
  151.9197  143.0909  157.7089 C   0  0  0  0  0  0  0  0  0  0  0  0
  152.3769  142.9435  159.0989 N   0  0  0  0  0  0  0  0  0  0  0  0
  151.9419  143.9481  159.9456 N   0  0  0  0  0  0  0  0  0  0  0  0
  152.2694  143.9140  161.1913 C   0  0  0  0  0  0  0  0  0  0  0  0
  153.0869  142.8569  161.7444 C   0  0  0  0  0  0  0  0  0  0  0  0
  153.4939  142.8641  163.4243 Cl  0  0  0  0  0  0  0  0  0  0  0  0
  153.5135  141.8803  160.9046 C   0  0  0  0  0  0  0  0  0  0  0  0
  154.4966  140.5832  161.4924 Cl  0  0  0  0  0  0  0  0  0  0  0  0
  153.1598  141.8867  159.4784 C   0  0  0  0  0  0  0  0  0  0  0  0
  153.5287  141.0209  158.6835 O   0  0  0  0  0  0  0  0  0  0  0  0
  149.9126  142.3739  156.5160 N   0  0  0  0  0  0  0  0  0  0  0  0
  148.8815  141.4879  155.9853 C   0  0  2  0  0  0  0  0  0  0  0  0
  148.8591  141.5199  154.4460 C   0  0  0  0  0  0  0  0  0  0  0  0
  147.5581  140.8695  153.9591 C   0  0  0  0  0  0  0  0  0  0  0  0
  146.3062  141.1994  155.2573 S   0  0  0  0  0  0  0  0  0  0  0  0
  145.4035  142.2718  154.8115 O   0  0  0  0  0  0  0  0  0  0  0  0
  145.7756  139.9164  155.7427 O   0  0  0  0  0  0  0  0  0  0  0  0
  147.4824  141.8782  156.4872 C   0  0  0  0  0  0  0  0  0  0  0  0
  152.7797  143.1206  157.0368 H   0  0  0  0  0  0  0  0  0  0  0  0
  151.4134  144.0489  157.5772 H   0  0  0  0  0  0  0  0  0  0  0  0
  151.9477  144.6812  161.8956 H   0  0  0  0  0  0  0  0  0  0  0  0
  149.8338  143.3547  156.2889 H   0  0  0  0  0  0  0  0  0  0  0  0
  149.0880  140.4607  156.2924 H   0  0  0  0  0  0  0  0  0  0  0  0
  148.8764  142.5572  154.1080 H   0  0  0  0  0  0  0  0  0  0  0  0
  149.7347  141.0313  154.0171 H   0  0  0  0  0  0  0  0  0  0  0  0
  147.2196  141.2605  152.9994 H   0  0  0  0  0  0  0  0  0  0  0  0
  147.6751  139.7890  153.8732 H   0  0  0  0  0  0  0  0  0  0  0  0
  147.2594  141.4840  157.4790 H   0  0  0  0  0  0  0  0  0  0  0  0
  147.3557  142.9612  156.5059 H   0  0  0  0  0  0  0  0  0  0  0  0
  1  2  2  0  0  0  0
  2  3  1  0  0  0  0
  2 13  1  0  0  0  0
  3  4  1  0  0  0  0
  3 21  1  0  0  0  0
  3 22  1  0  0  0  0
  4 11  1  0  0  0  0
  4  5  1  0  0  0  0
  5  6  2  0  0  0  0
  6  7  1  0  0  0  0
  6 23  1  0  0  0  0
  7  8  1  0  0  0  0
  7  9  2  0  0  0  0
  9 10  1  0  0  0  0
  9 11  1  0  0  0  0
 11 12  2  0  0  0  0
 13 14  1  0  0  0  0
 13 24  1  0  0  0  0
 14 20  1  0  0  0  0
 14 15  1  0  0  0  0
 14 25  1  0  0  0  0
 15 16  1  0  0  0  0
 15 26  1  0  0  0  0
 15 27  1  0  0  0  0
 16 17  1  0  0  0  0
 16 28  1  0  0  0  0
 16 29  1  0  0  0  0
 17 18  2  0  0  0  0
 17 19  2  0  0  0  0
 17 20  1  0  0  0  0
 20 30  1  0  0  0  0
 20 31  1  0  0  0  0
M  END
> <s_m_source_file>
AV-unprocessed.smi

> <i_m_source_file_index>
2981

> <i_lp_mmshare_version>
43012

> <i_f3d_flags>
0

> <s_epik_input>
Tz1TMSg9TylbQ0gyXVtDSDJdW0NASF0oW0NIMl0xKVtOSF1DKD1PKVtDSDJdbjJuW2NIXWMoQ2wpYyhDbCljMj1P

> <s_epik_cmdline>
J2VwaWtfcHl0aG9uJywgJy1waCcsICc3LjAnLCAnLXRuJywgJzgnLCAnLW1hJywgJzIwMCcsICctbWV0YWxfYmluZGluZycsICctaW1hZScsICc8aW5maWxlLm1hZT4nLCAnLW9tYWUnLCAnPG91dGZpbGUubWFlPic=

> <r_lp_tautomer_probability>
1

> <r_epik_Ionization_Penalty>
1.07216e-07

> <r_epik_Ionization_Penalty_Charging>
2.33395e-11

> <r_epik_Ionization_Penalty_Neutral>
1.07193e-07

> <r_epik_State_Penalty>
-0

> <r_epik_Charging_Adjusted_Penalty>
2.33395e-11

> <i_epik_Tot_Q>
0

> <i_epik_Tot_abs_Q>
0

> <r_epik_Metal_State_Penalty>
-0

> <b_epik_Metal_Only>
0

> <s_lp_Force_Field>
OPLS_2005

> <r_lp_Energy>
19.0616

> <b_lp_Chiralities_Consistent>
1

> <s_lp_Variant>
AV-unprocessed.smi:2981-1

> <Gold.Version>
5.8.1

> <Gold.Id.Protein>
6NUR|6NUR_protein|mol2

> <Gold.PLP.Fitness>
43.2696

> <Gold.PLP.PLP>
-40.0335

> <Gold.PLP.part.hbond>
-2.0000

> <Gold.PLP.part.metal>
0.0000

> <Gold.PLP.part.buried>
-2.5616

> <Gold.PLP.part.nonpolar>
-34.2683

> <Gold.PLP.part.repulsive>
0.3494

> <Gold.PLP.ligand.clash>
0.0000

> <Gold.PLP.ligand.torsion>
0.3061

> <Gold.PLP.Chemscore.Hbond>
1.2821

> <Gold.PLP.Chemscore.CHOScore>
0.0000

> <Gold.PLP.Chemscore.Metal>
0.0000

> <Gold.Chemscore.Hbonds>
donor molecule, donor type, donor heavy atom, donor atom, acceptor molecule, acceptor atom, score
      L1  H    13    24       P1  8028  1.00
      P1  H  7997  8009       L1    12  0.34

> <Gold.PLP.Chemscore.Internal.Correction>
0.0019

> <Gold.Rescore>
     Score         DG    S(hbond)    S(metal)    S(lipo)     H(rot)  DE(clash)    DE(int)     intcor
     13.33     -16.35       1.76        0.00      79.83       1.70       0.11       2.91       ----

> <Gold.Chemscore.Fitness>
13.3264

> <Gold.Chemscore.DG>
-16.3476

> <Gold.Chemscore.ZeroCoef>
-5.4800

> <Gold.Chemscore.Hbond>
1.7641

> <Gold.Chemscore.Metal>
0.0000

> <Gold.Chemscore.Lipo>
79.8301

> <Gold.Chemscore.Internal_Hbond>
0.0000

> <Gold.Chemscore.DEClash>
0.1071

> <Gold.Chemscore.DEInternal>
2.9140

> <Gold.Chemscore.Rot>
1.7049

> <Gold.Chemscore.Internal.Correction>
   9.000000E+99

> <Gold.Chemscore.Hbonds>
donor molecule, donor type, donor heavy atom, donor atom, acceptor molecule, acceptor atom, score
      L1  H    13    24       P1  8028  0.95
      P1  H  7997  8009       L1    12  0.35

> <Gold.Chemscore.Hbond.Weighted>
-5.8921

> <Gold.Chemscore.Metal.Weighted>
-0.0000

> <Gold.Chemscore.Lipo.Weighted>
-9.3401

> <Gold.Chemscore.Internal_Hbond.Weighted>
0.0000

> <Gold.Chemscore.DEClash.Weighted>
0.1071

> <Gold.Chemscore.DEInternal.Weighted>
2.9140

> <Gold.Chemscore.Rot.Weighted>
4.3646

> <Gold.Chemscore.Internal.Correction.Weighted>
   9.000000E+99

> <Gold.Protein.RotatedTorsions>
[ 6907 6896 6895 6894 ] final   89.45 input  -60.11 | X-H torsion
[ 7974 7965 7964 7962 ] final  173.06 input  175.53 | X-H torsion
[ 8008 7997 7996 7995 ] final  144.14 input   59.86 | X-H torsion
[ 10167 10162 10161 10158 ] final   69.95 input  -65.29 | X-H torsion
[ 10718 10713 10712 10709 ] final  -91.28 input   66.30 | X-H torsion
[ 10763 10752 10751 10750 ] final  -32.14 input  -60.55 | X-H torsion
[ 11005 11000 10999 10996 ] final -105.87 input  -57.11 | X-H torsion

> <Gold.Protein.ActiveResidues>
 VAL166  LYS551  ARG553  GLY616  TRP617  ASP618  TYR619  PRO620  LYS621  CYS622 
 ASP623  PHE694  ASN695  SER759  ASP760  ASP761  ALA762  ILE779  LEU786  VAL792 
 PHE793  MET794  SER795  GLU796  ALA797  LYS798  CYS799  TRP800  GLU811  SER814 

> <Gold.Protein.RotatedAtoms>
  152.5436  134.1965  159.8694 H   0  0  0  0  0  0  0  0  0  0  0  0  # atno 6907 bound_to 6896
  151.1957  133.4634  159.2603 H   0  0  0  0  0  0  0  0  0  0  0  0  # atno 6908 bound_to 6896
  151.1039  135.0000  159.8517 H   0  0  0  0  0  0  0  0  0  0  0  0  # atno 6909 bound_to 6896
  144.7253  139.9591  143.6434 H   0  0  0  0  0  0  0  0  0  0  0  0  # atno 7974 bound_to 7965
  156.2915  140.2243  156.5005 H   0  0  0  0  0  0  0  0  0  0  0  0  # atno 8008 bound_to 7997
  154.7694  140.0467  157.1060 H   0  0  0  0  0  0  0  0  0  0  0  0  # atno 8009 bound_to 7997
  154.9893  140.3088  155.4916 H   0  0  0  0  0  0  0  0  0  0  0  0  # atno 8010 bound_to 7997
  140.0622  144.5223  150.7286 H   0  0  0  0  0  0  0  0  0  0  0  0  # atno 10167 bound_to 10162
  155.9992  130.4942  150.5450 H   0  0  0  0  0  0  0  0  0  0  0  0  # atno 10718 bound_to 10713
  153.8089  135.6884  153.4844 H   0  0  0  0  0  0  0  0  0  0  0  0  # atno 10763 bound_to 10752
  153.1641  135.4568  154.9811 H   0  0  0  0  0  0  0  0  0  0  0  0  # atno 10764 bound_to 10752
  154.7976  135.3325  154.7571 H   0  0  0  0  0  0  0  0  0  0  0  0  # atno 10765 bound_to 10752
  141.1033  133.8844  157.1786 H   0  0  0  0  0  0  0  0  0  0  0  0  # atno 11005 bound_to 11000
  146.0652  139.3643  143.0557 LP  0  0  0  0  0  0  0  0  0  0  0  0  # atno 17320 bound_to 7965
  145.8041  140.9757  143.0983 LP  0  0  0  0  0  0  0  0  0  0  0  0  # atno 17321 bound_to 7965
  140.7166  143.2550  151.4414 LP  0  0  0  0  0  0  0  0  0  0  0  0  # atno 17342 bound_to 10162
  139.5887  144.1548  152.2061 LP  0  0  0  0  0  0  0  0  0  0  0  0  # atno 17343 bound_to 10162
  157.3381  131.0712  151.1809 LP  0  0  0  0  0  0  0  0  0  0  0  0  # atno 17370 bound_to 10713
  157.2667  130.6684  149.6000 LP  0  0  0  0  0  0  0  0  0  0  0  0  # atno 17371 bound_to 10713
  139.9892  135.0071  156.9935 LP  0  0  0  0  0  0  0  0  0  0  0  0  # atno 17394 bound_to 11000
  140.4968  134.1138  155.7243 LP  0  0  0  0  0  0  0  0  0  0  0  0  # atno 17395 bound_to 11000

$$$$
