AV-unprocessed.smi:940|AV-procd|sdf|4219|dock2
  -GOLD-   22720 2133D 1   1.00000     0.00000
 Structure written by MMmdl.
 36 36  0  0  0  0  0  0  0  0  1 V2000
  144.6662  143.6414  155.8210 C   0  0  0  0  0  0  0  0  0  0  0  0
  145.8877  143.0900  156.5678 C   0  0  0  0  0  0  0  0  0  0  0  0
  146.9664  142.7457  155.6495 N   0  0  0  0  0  0  0  0  0  0  0  0
  146.9164  141.7663  154.7324 C   0  0  0  0  0  0  0  0  0  0  0  0
  145.9328  141.0468  154.5612 O   0  0  0  0  0  0  0  0  0  0  0  0
  148.1657  141.5706  153.8715 C   0  0  0  0  0  0  0  0  0  0  0  0
  149.3035  141.1682  154.6789 N   0  0  0  0  0  0  0  0  0  0  0  0
  150.2450  140.1955  154.4078 C   0  0  0  0  0  0  0  0  0  0  0  0
  151.1295  140.1774  155.4480 C   0  0  0  0  0  0  0  0  0  0  0  0
  150.6339  141.1964  156.3162 C   0  0  0  0  0  0  0  0  0  0  0  0
  151.1952  141.5800  157.5614 N   0  0  0  0  0  0  0  0  0  0  0  0
  152.2080  141.0067  158.2362 C   0  0  0  0  0  0  0  0  0  0  0  0
  152.8443  140.0271  157.8490 O   0  0  0  0  0  0  0  0  0  0  0  0
  152.5687  141.6538  159.5726 C   0  0  0  0  0  0  0  0  0  0  0  0
  153.1889  142.9038  159.3188 O   0  0  0  0  0  0  0  0  0  0  0  0
  152.2970  143.9968  159.4541 C   0  0  0  0  0  0  0  0  0  0  0  0
  152.2530  144.7657  158.1317 C   0  0  0  0  0  0  0  0  0  0  0  0
  149.5405  141.7820  155.8593 N   0  0  0  0  0  0  0  0  0  0  0  0
  143.8778  143.9186  156.5210 H   0  0  0  0  0  0  0  0  0  0  0  0
  144.2532  142.9020  155.1343 H   0  0  0  0  0  0  0  0  0  0  0  0
  144.9249  144.5292  155.2434 H   0  0  0  0  0  0  0  0  0  0  0  0
  146.2610  143.8399  157.2655 H   0  0  0  0  0  0  0  0  0  0  0  0
  145.6074  142.2219  157.1667 H   0  0  0  0  0  0  0  0  0  0  0  0
  147.8145  143.2890  155.7185 H   0  0  0  0  0  0  0  0  0  0  0  0
  147.9804  140.8143  153.1070 H   0  0  0  0  0  0  0  0  0  0  0  0
  148.4101  142.4980  153.3521 H   0  0  0  0  0  0  0  0  0  0  0  0
  150.2076  139.6032  153.5055 H   0  0  0  0  0  0  0  0  0  0  0  0
  151.9872  139.5306  155.5544 H   0  0  0  0  0  0  0  0  0  0  0  0
  150.7829  142.3976  157.9867 H   0  0  0  0  0  0  0  0  0  0  0  0
  151.6576  141.7906  160.1573 H   0  0  0  0  0  0  0  0  0  0  0  0
  153.2394  141.0089  160.1434 H   0  0  0  0  0  0  0  0  0  0  0  0
  151.2989  143.6379  159.7095 H   0  0  0  0  0  0  0  0  0  0  0  0
  152.6277  144.6563  160.2578 H   0  0  0  0  0  0  0  0  0  0  0  0
  151.5741  145.6159  158.1976 H   0  0  0  0  0  0  0  0  0  0  0  0
  151.9101  144.1253  157.3185 H   0  0  0  0  0  0  0  0  0  0  0  0
  153.2401  145.1448  157.8663 H   0  0  0  0  0  0  0  0  0  0  0  0
  1  2  1  0  0  0  0
  1 19  1  0  0  0  0
  1 20  1  0  0  0  0
  1 21  1  0  0  0  0
  2  3  1  0  0  0  0
  2 22  1  0  0  0  0
  2 23  1  0  0  0  0
  3  4  1  0  0  0  0
  3 24  1  0  0  0  0
  4  5  2  0  0  0  0
  4  6  1  0  0  0  0
  6  7  1  0  0  0  0
  6 25  1  0  0  0  0
  6 26  1  0  0  0  0
  7 18  1  0  0  0  0
  7  8  1  0  0  0  0
  8  9  2  0  0  0  0
  8 27  1  0  0  0  0
  9 10  1  0  0  0  0
  9 28  1  0  0  0  0
 10 11  1  0  0  0  0
 10 18  2  0  0  0  0
 11 12  1  0  0  0  0
 11 29  1  0  0  0  0
 12 13  2  0  0  0  0
 12 14  1  0  0  0  0
 14 15  1  0  0  0  0
 14 30  1  0  0  0  0
 14 31  1  0  0  0  0
 15 16  1  0  0  0  0
 16 17  1  0  0  0  0
 16 32  1  0  0  0  0
 16 33  1  0  0  0  0
 17 34  1  0  0  0  0
 17 35  1  0  0  0  0
 17 36  1  0  0  0  0
M  END
> <s_m_source_file>
AV-unprocessed.smi

> <i_m_source_file_index>
940

> <i_lp_mmshare_version>
43012

> <i_f3d_flags>
0

> <s_epik_input>
W0NIM11bQ0gyXVtOSF1DKD1PKVtDSDJdbjFbY0hdW2NIXWMobjEpW05IXUMoPU8pW0NIMl1PW0NIMl1bQ0gzXQ==

> <s_epik_cmdline>
J2VwaWtfcHl0aG9uJywgJy1waCcsICc3LjAnLCAnLXRuJywgJzgnLCAnLW1hJywgJzIwMCcsICctbWV0YWxfYmluZGluZycsICctaW1hZScsICc8aW5maWxlLm1hZT4nLCAnLW9tYWUnLCAnPG91dGZpbGUubWFlPic=

> <r_lp_tautomer_probability>
1

> <r_epik_Ionization_Penalty>
3.22351e-06

> <r_epik_Ionization_Penalty_Charging>
0

> <r_epik_Ionization_Penalty_Neutral>
3.22351e-06

> <r_epik_State_Penalty>
-0

> <r_epik_Charging_Adjusted_Penalty>
0

> <i_epik_Tot_Q>
0

> <i_epik_Tot_abs_Q>
0

> <r_epik_Metal_State_Penalty>
-0

> <b_epik_Metal_Only>
0

> <s_lp_Force_Field>
OPLS_2005

> <r_lp_Energy>
6.8138

> <b_lp_Chiralities_Consistent>
1

> <s_lp_Variant>
AV-unprocessed.smi:940-1

> <Gold.Version>
5.8.1

> <Gold.Id.Protein>
6NUR|6NUR_protein|mol2

> <Gold.PLP.Fitness>
41.0777

> <Gold.PLP.PLP>
-34.0725

> <Gold.PLP.part.hbond>
-2.0000

> <Gold.PLP.part.metal>
0.0000

> <Gold.PLP.part.buried>
-0.6938

> <Gold.PLP.part.nonpolar>
-31.2655

> <Gold.PLP.part.repulsive>
0.4178

> <Gold.PLP.ligand.clash>
0.0000

> <Gold.PLP.ligand.torsion>
1.0283

> <Gold.PLP.Chemscore.Hbond>
2.0000

> <Gold.PLP.Chemscore.CHOScore>
1.0000

> <Gold.PLP.Chemscore.Metal>
0.0000

> <Gold.Chemscore.Hbonds>
donor molecule, donor type, donor heavy atom, donor atom, acceptor molecule, acceptor atom, score
      L1  H     3    24       P1  8028  1.00
      P1  H  7997  8010       L1    13  1.00
      L1  C     8    27       P1  7957  1.00

> <Gold.PLP.Chemscore.Internal.Correction>
0.0617

> <Gold.Rescore>
     Score         DG    S(hbond)    S(metal)    S(lipo)     H(rot)  DE(clash)    DE(int)     intcor
      7.09     -10.99       1.24        0.00      62.93       2.34       0.24       3.66       ----

> <Gold.Chemscore.Fitness>
7.0876

> <Gold.Chemscore.DG>
-10.9904

> <Gold.Chemscore.ZeroCoef>
-5.4800

> <Gold.Chemscore.Hbond>
1.2369

> <Gold.Chemscore.Metal>
0.0000

> <Gold.Chemscore.Lipo>
62.9268

> <Gold.Chemscore.Internal_Hbond>
0.0000

> <Gold.Chemscore.DEClash>
0.2440

> <Gold.Chemscore.DEInternal>
3.6587

> <Gold.Chemscore.Rot>
2.3372

> <Gold.Chemscore.Internal.Correction>
   9.000000E+99

> <Gold.Chemscore.Hbonds>
donor molecule, donor type, donor heavy atom, donor atom, acceptor molecule, acceptor atom, score
      L1  H     3    24       P1  8028  0.30
      P1  H  7997  8010       L1    13  0.96

> <Gold.Chemscore.Hbond.Weighted>
-4.1312

> <Gold.Chemscore.Metal.Weighted>
-0.0000

> <Gold.Chemscore.Lipo.Weighted>
-7.3624

> <Gold.Chemscore.Internal_Hbond.Weighted>
0.0000

> <Gold.Chemscore.DEClash.Weighted>
0.2440

> <Gold.Chemscore.DEInternal.Weighted>
3.6587

> <Gold.Chemscore.Rot.Weighted>
5.9833

> <Gold.Chemscore.Internal.Correction.Weighted>
   9.000000E+99

> <Gold.Protein.RotatedTorsions>
[ 6907 6896 6895 6894 ] final -120.17 input  -60.11 | X-H torsion
[ 7974 7965 7964 7962 ] final   40.37 input  175.53 | X-H torsion
[ 8008 7997 7996 7995 ] final   53.17 input   59.86 | X-H torsion
[ 10167 10162 10161 10158 ] final  106.64 input  -65.29 | X-H torsion
[ 10718 10713 10712 10709 ] final  169.42 input   66.30 | X-H torsion
[ 10763 10752 10751 10750 ] final   40.33 input  -60.55 | X-H torsion
[ 11005 11000 10999 10996 ] final -147.72 input  -57.11 | X-H torsion

> <Gold.Protein.ActiveResidues>
 VAL166  LYS551  ARG553  GLY616  TRP617  ASP618  TYR619  PRO620  LYS621  CYS622 
 ASP623  PHE694  ASN695  SER759  ASP760  ASP761  ALA762  ILE779  LEU786  VAL792 
 PHE793  MET794  SER795  GLU796  ALA797  LYS798  CYS799  TRP800  GLU811  SER814 

> <Gold.Protein.RotatedAtoms>
  150.8369  133.7999  159.3075 H   0  0  0  0  0  0  0  0  0  0  0  0  # atno 6907 bound_to 6896
  151.5712  135.1061  160.0005 H   0  0  0  0  0  0  0  0  0  0  0  0  # atno 6908 bound_to 6896
  152.4440  133.7459  159.6723 H   0  0  0  0  0  0  0  0  0  0  0  0  # atno 6909 bound_to 6896
  146.0910  139.5541  142.9475 H   0  0  0  0  0  0  0  0  0  0  0  0  # atno 7974 bound_to 7965
  155.4639  140.3463  155.4316 H   0  0  0  0  0  0  0  0  0  0  0  0  # atno 8008 bound_to 7997
  156.1144  140.1469  156.9323 H   0  0  0  0  0  0  0  0  0  0  0  0  # atno 8009 bound_to 7997
  154.4778  140.0879  156.7284 H   0  0  0  0  0  0  0  0  0  0  0  0  # atno 8010 bound_to 7997
  139.6992  144.7097  151.1214 H   0  0  0  0  0  0  0  0  0  0  0  0  # atno 10167 bound_to 10162
  157.0229  131.0237  151.2769 H   0  0  0  0  0  0  0  0  0  0  0  0  # atno 10718 bound_to 10713
  152.9940  135.6194  154.2608 H   0  0  0  0  0  0  0  0  0  0  0  0  # atno 10763 bound_to 10752
  154.2344  135.2791  155.2879 H   0  0  0  0  0  0  0  0  0  0  0  0  # atno 10764 bound_to 10752
  154.5422  135.5757  153.6907 H   0  0  0  0  0  0  0  0  0  0  0  0  # atno 10765 bound_to 10752
  140.7687  134.3214  157.5081 H   0  0  0  0  0  0  0  0  0  0  0  0  # atno 11005 bound_to 11000
  145.6038  141.0351  143.2004 LP  0  0  0  0  0  0  0  0  0  0  0  0  # atno 17320 bound_to 7965
  144.7360  139.7583  143.7329 LP  0  0  0  0  0  0  0  0  0  0  0  0  # atno 17321 bound_to 7965
  140.7705  143.5447  150.9272 LP  0  0  0  0  0  0  0  0  0  0  0  0  # atno 17342 bound_to 10162
  139.9128  143.6699  152.3112 LP  0  0  0  0  0  0  0  0  0  0  0  0  # atno 17343 bound_to 10162
  157.5236  130.8013  149.7836 LP  0  0  0  0  0  0  0  0  0  0  0  0  # atno 17370 bound_to 10713
  156.0096  130.3839  150.2311 LP  0  0  0  0  0  0  0  0  0  0  0  0  # atno 17371 bound_to 10713
  139.8759  134.9247  156.3358 LP  0  0  0  0  0  0  0  0  0  0  0  0  # atno 17394 bound_to 11000
  140.9594  133.7398  156.0380 LP  0  0  0  0  0  0  0  0  0  0  0  0  # atno 17395 bound_to 11000

$$$$
