AV-unprocessed.smi:53|AV-procd|sdf|523|dock3
  -GOLD-   2262016393D 1   1.00000     0.00000
 Structure written by MMmdl.
 30 31  0  0  0  0  0  0  0  0  1 V2000
  152.4735  141.3349  159.5531 N   0  0  0  0  0  0  0  0  0  0  0  0
  151.9077  141.1507  158.3522 C   0  0  0  0  0  0  0  0  0  0  0  0
  150.8042  141.9819  157.9292 C   0  0  0  0  0  0  0  0  0  0  0  0
  150.2833  141.7317  156.7076 C   0  0  0  0  0  0  0  0  0  0  0  0
  150.7631  140.7141  155.8898 N   0  0  0  0  0  0  0  0  0  0  0  0
  150.1958  140.4372  154.5070 C   0  0  2  0  0  0  0  0  0  0  0  0
  149.2767  141.4345  154.1695 O   0  0  0  0  0  0  0  0  0  0  0  0
  147.9563  140.9890  154.4635 C   0  0  1  0  0  0  0  0  0  0  0  0
  146.9026  141.8585  153.7565 C   0  0  0  0  0  0  0  0  0  0  0  0
  147.0814  143.2134  154.1109 O   0  0  0  0  0  0  0  0  0  0  0  0
  148.0171  139.5231  154.0245 C   0  0  1  0  0  0  0  0  0  0  0  0
  147.8489  139.4164  152.6197 O   0  0  0  0  0  0  0  0  0  0  0  0
  149.4128  139.1034  154.4862 C   0  0  1  0  0  0  0  0  0  0  0  0
  149.9915  138.1205  153.6471 O   0  0  0  0  0  0  0  0  0  0  0  0
  151.8654  139.9376  156.3241 C   0  0  0  0  0  0  0  0  0  0  0  0
  152.3518  139.0544  155.6186 O   0  0  0  0  0  0  0  0  0  0  0  0
  152.3780  140.2033  157.5650 N   0  0  0  0  0  0  0  0  0  0  0  0
  151.0504  140.4802  153.8285 H   0  0  0  0  0  0  0  0  0  0  0  0
  147.7941  141.0124  155.5429 H   0  0  0  0  0  0  0  0  0  0  0  0
  147.2412  138.9255  154.5041 H   0  0  0  0  0  0  0  0  0  0  0  0
  149.3441  138.7075  155.5005 H   0  0  0  0  0  0  0  0  0  0  0  0
  153.2467  140.7546  159.8446 H   0  0  0  0  0  0  0  0  0  0  0  0
  152.1252  142.0590  160.1648 H   0  0  0  0  0  0  0  0  0  0  0  0
  150.3908  142.7747  158.5360 H   0  0  0  0  0  0  0  0  0  0  0  0
  149.4660  142.3618  156.3907 H   0  0  0  0  0  0  0  0  0  0  0  0
  146.9495  141.7412  152.6731 H   0  0  0  0  0  0  0  0  0  0  0  0
  145.9009  141.5669  154.0734 H   0  0  0  0  0  0  0  0  0  0  0  0
  147.7891  143.2691  154.7349 H   0  0  0  0  0  0  0  0  0  0  0  0
  148.4842  139.9790  152.2033 H   0  0  0  0  0  0  0  0  0  0  0  0
  150.0513  138.4762  152.7729 H   0  0  0  0  0  0  0  0  0  0  0  0
  1  2  1  0  0  0  0
  1 22  1  0  0  0  0
  1 23  1  0  0  0  0
  2 17  2  0  0  0  0
  2  3  1  0  0  0  0
  3  4  2  0  0  0  0
  3 24  1  0  0  0  0
  4  5  1  0  0  0  0
  4 25  1  0  0  0  0
  5  6  1  0  0  0  0
  5 15  1  0  0  0  0
  6 18  1  0  0  0  0
  6 13  1  0  0  0  0
  6  7  1  0  0  0  0
  7  8  1  0  0  0  0
  8 19  1  0  0  0  0
  8  9  1  0  0  0  0
  8 11  1  0  0  0  0
  9 10  1  0  0  0  0
  9 26  1  0  0  0  0
  9 27  1  0  0  0  0
 10 28  1  0  0  0  0
 11 20  1  0  0  0  0
 11 12  1  0  0  0  0
 11 13  1  0  0  0  0
 12 29  1  0  0  0  0
 13 21  1  0  0  0  0
 13 14  1  0  0  0  0
 14 30  1  0  0  0  0
 15 16  2  0  0  0  0
 15 17  1  0  0  0  0
M  END
> <s_m_source_file>
AV-unprocessed.smi

> <i_m_source_file_index>
53

> <i_lp_mmshare_version>
43012

> <i_f3d_flags>
0

> <s_epik_input>
W05IMl1jMVtjSF1bY0hdbihjKD1PKW4xKVtDQEBIXTJPW0NASF0oW0NIMl1bT0hdKVtDQEBIXShbT0hdKVtDQEBIXTJbT0hd

> <s_epik_cmdline>
J2VwaWtfcHl0aG9uJywgJy1waCcsICc3LjAnLCAnLXRuJywgJzgnLCAnLW1hJywgJzIwMCcsICctbWV0YWxfYmluZGluZycsICctaW1hZScsICc8aW5maWxlLm1hZT4nLCAnLW9tYWUnLCAnPG91dGZpbGUubWFlPic=

> <r_lp_tautomer_probability>
0.99996

> <r_epik_Ionization_Penalty>
0.00069087

> <r_epik_Ionization_Penalty_Charging>
2.61959e-08

> <r_epik_Ionization_Penalty_Neutral>
0.000690844

> <r_epik_State_Penalty>
1.15523e-05

> <r_epik_Charging_Adjusted_Penalty>
1.15785e-05

> <i_epik_Tot_Q>
0

> <i_epik_Tot_abs_Q>
0

> <r_epik_Metal_State_Penalty>
-0

> <b_epik_Metal_Only>
0

> <s_epik_Chemistry_Notes>
This compound contains an acetal/aminal-like group ( X-CH(R)-Y where X, Y are N, S, or O) that may be acid/base labile, releasing an aldehyde.

> <s_lp_Force_Field>
OPLS_2005

> <r_lp_Energy>
34.1794

> <b_lp_Chiralities_Consistent>
1

> <s_lp_Variant>
AV-unprocessed.smi:53-11

> <Gold.Version>
5.8.1

> <Gold.Id.Protein>
6NUR|6NUR_protein|mol2

> <Gold.PLP.Fitness>
45.6803

> <Gold.PLP.PLP>
-30.1333

> <Gold.PLP.part.hbond>
-8.0947

> <Gold.PLP.part.metal>
0.0000

> <Gold.PLP.part.buried>
1.9133

> <Gold.PLP.part.nonpolar>
-22.2775

> <Gold.PLP.part.repulsive>
0.2877

> <Gold.PLP.ligand.clash>
0.0000

> <Gold.PLP.ligand.torsion>
0.2091

> <Gold.PLP.Chemscore.Hbond>
4.3138

> <Gold.PLP.Chemscore.CHOScore>
1.0000

> <Gold.PLP.Chemscore.Metal>
0.0000

> <Gold.Chemscore.Hbonds>
donor molecule, donor type, donor heavy atom, donor atom, acceptor molecule, acceptor atom, score
      L1  H    10    28       P1  8028  0.72
      L1  H    12    29       P1  7957  0.86
      L1  H    14    30       P1  7957  0.41
      P1  H  7997  8008       L1    17  0.23
      P1  H  8011  8017       L1     7  0.48
      L1  C     4    25       P1  8028  0.99

> <Gold.PLP.Chemscore.Internal.Correction>
0.0236

> <Gold.Rescore>
     Score         DG    S(hbond)    S(metal)    S(lipo)     H(rot)  DE(clash)    DE(int)     intcor
      7.54      -8.08       2.41        0.00      34.50       3.71       0.38       0.16       ----

> <Gold.Chemscore.Fitness>
7.5418

> <Gold.Chemscore.DG>
-8.0822

> <Gold.Chemscore.ZeroCoef>
-5.4800

> <Gold.Chemscore.Hbond>
2.4139

> <Gold.Chemscore.Metal>
0.0000

> <Gold.Chemscore.Lipo>
34.4986

> <Gold.Chemscore.Internal_Hbond>
0.0000

> <Gold.Chemscore.DEClash>
0.3780

> <Gold.Chemscore.DEInternal>
0.1624

> <Gold.Chemscore.Rot>
3.7095

> <Gold.Chemscore.Internal.Correction>
   9.000000E+99

> <Gold.Chemscore.Hbonds>
donor molecule, donor type, donor heavy atom, donor atom, acceptor molecule, acceptor atom, score
      L1  H    10    28       P1  8028  0.45
      L1  H    12    29       P1  7957  0.80
      L1  H    14    30       P1  7957  0.14
      P1  H  7997  8008       L1    17  0.01
      P1  H  8011  8017       L1     7  0.39

> <Gold.Chemscore.Hbond.Weighted>
-8.0623

> <Gold.Chemscore.Metal.Weighted>
-0.0000

> <Gold.Chemscore.Lipo.Weighted>
-4.0363

> <Gold.Chemscore.Internal_Hbond.Weighted>
0.0000

> <Gold.Chemscore.DEClash.Weighted>
0.3780

> <Gold.Chemscore.DEInternal.Weighted>
0.1624

> <Gold.Chemscore.Rot.Weighted>
9.4964

> <Gold.Chemscore.Internal.Correction.Weighted>
   9.000000E+99

> <Gold.Protein.RotatedTorsions>
[ 6907 6896 6895 6894 ] final  -62.94 input  -60.11 | X-H torsion
[ 7974 7965 7964 7962 ] final  108.69 input  175.53 | X-H torsion
[ 8008 7997 7996 7995 ] final  -62.52 input   59.86 | X-H torsion
[ 10167 10162 10161 10158 ] final  -10.66 input  -65.29 | X-H torsion
[ 10718 10713 10712 10709 ] final   13.16 input   66.30 | X-H torsion
[ 10763 10752 10751 10750 ] final  125.50 input  -60.55 | X-H torsion
[ 11005 11000 10999 10996 ] final  164.42 input  -57.11 | X-H torsion

> <Gold.Protein.ActiveResidues>
 VAL166  LYS551  ARG553  GLY616  TRP617  ASP618  TYR619  PRO620  LYS621  CYS622 
 ASP623  PHE694  ASN695  SER759  ASP760  ASP761  ALA762  ILE779  LEU786  VAL792 
 PHE793  MET794  SER795  GLU796  ALA797  LYS798  CYS799  TRP800  GLU811  SER814 

> <Gold.Protein.RotatedAtoms>
  150.7682  134.6502  159.6283 H   0  0  0  0  0  0  0  0  0  0  0  0  # atno 6907 bound_to 6896
  152.3723  134.6713  160.0181 H   0  0  0  0  0  0  0  0  0  0  0  0  # atno 6908 bound_to 6896
  151.7069  133.3275  159.3317 H   0  0  0  0  0  0  0  0  0  0  0  0  # atno 6909 bound_to 6896
  145.2775  139.2644  143.3933 H   0  0  0  0  0  0  0  0  0  0  0  0  # atno 7974 bound_to 7965
  154.4504  140.0994  156.6599 H   0  0  0  0  0  0  0  0  0  0  0  0  # atno 8008 bound_to 7997
  155.5304  140.3481  155.4406 H   0  0  0  0  0  0  0  0  0  0  0  0  # atno 8009 bound_to 7997
  156.0668  140.1339  156.9865 H   0  0  0  0  0  0  0  0  0  0  0  0  # atno 8010 bound_to 7997
  140.7119  143.5724  150.9078 H   0  0  0  0  0  0  0  0  0  0  0  0  # atno 10167 bound_to 10162
  157.0206  130.6153  149.5720 H   0  0  0  0  0  0  0  0  0  0  0  0  # atno 10718 bound_to 10713
  153.6784  135.3318  155.3172 H   0  0  0  0  0  0  0  0  0  0  0  0  # atno 10763 bound_to 10752
  154.8472  135.4403  154.1632 H   0  0  0  0  0  0  0  0  0  0  0  0  # atno 10764 bound_to 10752
  153.2642  135.6994  153.7624 H   0  0  0  0  0  0  0  0  0  0  0  0  # atno 10765 bound_to 10752
  140.2457  134.8016  157.3454 H   0  0  0  0  0  0  0  0  0  0  0  0  # atno 11005 bound_to 11000
  146.3227  140.3233  142.8635 LP  0  0  0  0  0  0  0  0  0  0  0  0  # atno 17320 bound_to 7965
  144.9282  140.7945  143.5706 LP  0  0  0  0  0  0  0  0  0  0  0  0  # atno 17321 bound_to 7965
  139.9450  143.6338  152.3044 LP  0  0  0  0  0  0  0  0  0  0  0  0  # atno 17342 bound_to 10162
  139.6836  144.7653  151.1564 LP  0  0  0  0  0  0  0  0  0  0  0  0  # atno 17343 bound_to 10162
  156.0104  130.5194  150.7968 LP  0  0  0  0  0  0  0  0  0  0  0  0  # atno 17370 bound_to 10713
  157.5252  131.0934  151.0026 LP  0  0  0  0  0  0  0  0  0  0  0  0  # atno 17371 bound_to 10713
  140.1608  134.4731  155.7896 LP  0  0  0  0  0  0  0  0  0  0  0  0  # atno 17394 bound_to 11000
  141.2206  133.6900  156.7541 LP  0  0  0  0  0  0  0  0  0  0  0  0  # atno 17395 bound_to 11000

$$$$
