AV-unprocessed.smi:381|AV-procd|sdf|2461|dock10
  -GOLD-   2262022403D 1   1.00000     0.00000
 Structure written by MMmdl.
 45 46  0  0  0  0  0  0  0  0  1 V2000
  151.0693  140.8829  156.0259 O   0  0  0  0  0  0  0  0  0  0  0  0
  150.5021  141.9662  155.8977 C   0  0  0  0  0  0  0  0  0  0  0  0
  149.4700  142.1640  155.0621 N   0  0  0  0  0  0  0  0  0  0  0  0
  148.8834  141.1319  154.2192 C   0  0  0  0  0  0  0  0  0  0  0  0
  147.5755  140.6122  154.8306 C   0  0  0  0  0  0  0  0  0  0  0  0
  146.4747  141.6540  154.7920 C   0  0  0  0  0  0  0  0  0  0  0  0
  146.4809  142.6751  153.8193 C   0  0  0  0  0  0  0  0  0  0  0  0
  145.4335  143.6162  153.8167 C   0  0  0  0  0  0  0  0  0  0  0  0
  144.4223  143.4965  154.7909 C   0  0  0  0  0  0  0  0  0  0  0  0
  144.4065  142.5239  155.7279 N   0  0  0  0  0  0  0  0  0  0  0  0
  145.4139  141.6245  155.7224 C   0  0  0  0  0  0  0  0  0  0  0  0
  150.8779  143.0502  156.6010 N   0  0  0  0  0  0  0  0  0  0  0  0
  151.9543  143.1790  157.5882 C   0  0  0  0  0  0  0  0  0  0  0  0
  151.7655  142.0733  158.6530 C   0  0  0  0  0  0  0  0  0  0  0  0
  152.7151  142.1180  159.8646 C   0  0  0  0  0  0  0  0  0  0  0  0
  152.1673  142.8581  161.1063 C   0  0  0  0  0  0  0  0  0  0  0  0
  152.4637  144.3684  161.1632 C   0  0  0  0  0  0  0  0  0  0  0  0
  151.3927  145.3024  160.5606 C   0  0  0  0  0  0  0  0  0  0  0  0
  150.8975  144.9730  159.1407 C   0  0  0  0  0  0  0  0  0  0  0  0
  152.0135  144.6232  158.1369 C   0  0  0  0  0  0  0  0  0  0  0  0
  149.0591  143.0852  155.0179 H   0  0  0  0  0  0  0  0  0  0  0  0
  148.6941  141.5343  153.2224 H   0  0  0  0  0  0  0  0  0  0  0  0
  149.5986  140.3157  154.1079 H   0  0  0  0  0  0  0  0  0  0  0  0
  147.2432  139.7182  154.3011 H   0  0  0  0  0  0  0  0  0  0  0  0
  147.7392  140.3138  155.8673 H   0  0  0  0  0  0  0  0  0  0  0  0
  147.2715  142.7349  153.0856 H   0  0  0  0  0  0  0  0  0  0  0  0
  145.4049  144.4098  153.0849 H   0  0  0  0  0  0  0  0  0  0  0  0
  143.6042  144.2008  154.8178 H   0  0  0  0  0  0  0  0  0  0  0  0
  145.3695  140.8579  156.4820 H   0  0  0  0  0  0  0  0  0  0  0  0
  150.3509  143.8938  156.4264 H   0  0  0  0  0  0  0  0  0  0  0  0
  152.9071  142.9773  157.0957 H   0  0  0  0  0  0  0  0  0  0  0  0
  150.7324  142.0312  158.9993 H   0  0  0  0  0  0  0  0  0  0  0  0
  151.9211  141.1187  158.1483 H   0  0  0  0  0  0  0  0  0  0  0  0
  152.8813  141.0837  160.1685 H   0  0  0  0  0  0  0  0  0  0  0  0
  153.6997  142.4907  159.5800 H   0  0  0  0  0  0  0  0  0  0  0  0
  151.1041  142.6633  161.2486 H   0  0  0  0  0  0  0  0  0  0  0  0
  152.6550  142.4119  161.9741 H   0  0  0  0  0  0  0  0  0  0  0  0
  152.5682  144.6490  162.2120 H   0  0  0  0  0  0  0  0  0  0  0  0
  153.4431  144.5713  160.7303 H   0  0  0  0  0  0  0  0  0  0  0  0
  150.5288  145.3288  161.2257 H   0  0  0  0  0  0  0  0  0  0  0  0
  151.7930  146.3168  160.5636 H   0  0  0  0  0  0  0  0  0  0  0  0
  150.1546  144.1785  159.1924 H   0  0  0  0  0  0  0  0  0  0  0  0
  150.3440  145.8341  158.7650 H   0  0  0  0  0  0  0  0  0  0  0  0
  152.9960  144.8018  158.5699 H   0  0  0  0  0  0  0  0  0  0  0  0
  151.9672  145.3271  157.3053 H   0  0  0  0  0  0  0  0  0  0  0  0
  1  2  2  0  0  0  0
  2  3  1  0  0  0  0
  2 12  1  0  0  0  0
  3  4  1  0  0  0  0
  3 21  1  0  0  0  0
  4  5  1  0  0  0  0
  4 22  1  0  0  0  0
  4 23  1  0  0  0  0
  5  6  1  0  0  0  0
  5 24  1  0  0  0  0
  5 25  1  0  0  0  0
  6 11  1  0  0  0  0
  6  7  2  0  0  0  0
  7  8  1  0  0  0  0
  7 26  1  0  0  0  0
  8  9  2  0  0  0  0
  8 27  1  0  0  0  0
  9 10  1  0  0  0  0
  9 28  1  0  0  0  0
 10 11  2  0  0  0  0
 11 29  1  0  0  0  0
 12 13  1  0  0  0  0
 12 30  1  0  0  0  0
 13 20  1  0  0  0  0
 13 14  1  0  0  0  0
 13 31  1  0  0  0  0
 14 15  1  0  0  0  0
 14 32  1  0  0  0  0
 14 33  1  0  0  0  0
 15 16  1  0  0  0  0
 15 34  1  0  0  0  0
 15 35  1  0  0  0  0
 16 17  1  0  0  0  0
 16 36  1  0  0  0  0
 16 37  1  0  0  0  0
 17 18  1  0  0  0  0
 17 38  1  0  0  0  0
 17 39  1  0  0  0  0
 18 19  1  0  0  0  0
 18 40  1  0  0  0  0
 18 41  1  0  0  0  0
 19 20  1  0  0  0  0
 19 42  1  0  0  0  0
 19 43  1  0  0  0  0
 20 44  1  0  0  0  0
 20 45  1  0  0  0  0
M  END
> <s_m_source_file>
AV-unprocessed.smi

> <i_m_source_file_index>
381

> <i_lp_mmshare_version>
43012

> <i_f3d_flags>
0

> <s_epik_input>
W0NIMl0xW0NIMl1bQ0gyXVtDSDJdW0NIMl1bQ0gyXVtDSDJdW0NIXTFbTkhdQyg9TylbTkhdW0NIMl1bQ0gyXWMyW2NIXVtjSF1bY0hdbltjSF0y

> <s_epik_cmdline>
J2VwaWtfcHl0aG9uJywgJy1waCcsICc3LjAnLCAnLXRuJywgJzgnLCAnLW1hJywgJzIwMCcsICctbWV0YWxfYmluZGluZycsICctaW1hZScsICc8aW5maWxlLm1hZT4nLCAnLW9tYWUnLCAnPG91dGZpbGUubWFlPic=

> <r_epik_Ionization_Penalty>
0.0144395

> <r_epik_Ionization_Penalty_Charging>
0

> <r_epik_Ionization_Penalty_Neutral>
0.0144395

> <r_epik_State_Penalty>
0.0112394

> <r_epik_Charging_Adjusted_Penalty>
0.0112394

> <i_epik_Tot_Q>
0

> <i_epik_Tot_abs_Q>
0

> <r_epik_Metal_State_Penalty>
0.0109727

> <b_epik_Metal_Only>
0

> <s_lp_Force_Field>
OPLS_2005

> <r_lp_Energy>
29.8357

> <b_lp_Chiralities_Consistent>
1

> <s_lp_Variant>
AV-unprocessed.smi:381-1

> <Gold.Version>
5.8.1

> <Gold.Id.Protein>
6NUR|6NUR_protein|mol2

> <Gold.PLP.Fitness>
50.2846

> <Gold.PLP.PLP>
-45.4341

> <Gold.PLP.part.hbond>
-2.0000

> <Gold.PLP.part.metal>
0.0000

> <Gold.PLP.part.buried>
-8.4152

> <Gold.PLP.part.nonpolar>
-35.2789

> <Gold.PLP.part.repulsive>
0.4217

> <Gold.PLP.ligand.clash>
0.0000

> <Gold.PLP.ligand.torsion>
0.5241

> <Gold.PLP.Chemscore.Hbond>
1.9520

> <Gold.PLP.Chemscore.CHOScore>
0.0000

> <Gold.PLP.Chemscore.Metal>
0.0000

> <Gold.Chemscore.Hbonds>
donor molecule, donor type, donor heavy atom, donor atom, acceptor molecule, acceptor atom, score
      L1  H     3    21       P1  8028  1.00
      L1  H    12    30       P1  8028  1.00

> <Gold.PLP.Chemscore.Internal.Correction>
0.0427

> <Gold.Rescore>
     Score         DG    S(hbond)    S(metal)    S(lipo)     H(rot)  DE(clash)    DE(int)     intcor
     20.22     -23.05       1.83        0.00     129.03       1.42       0.92       1.91       ----

> <Gold.Chemscore.Fitness>
20.2230

> <Gold.Chemscore.DG>
-23.0537

> <Gold.Chemscore.ZeroCoef>
-5.4800

> <Gold.Chemscore.Hbond>
1.8309

> <Gold.Chemscore.Metal>
0.0000

> <Gold.Chemscore.Lipo>
129.0348

> <Gold.Chemscore.Internal_Hbond>
0.0000

> <Gold.Chemscore.DEClash>
0.9175

> <Gold.Chemscore.DEInternal>
1.9131

> <Gold.Chemscore.Rot>
1.4213

> <Gold.Chemscore.Internal.Correction>
   9.000000E+99

> <Gold.Chemscore.Hbonds>
donor molecule, donor type, donor heavy atom, donor atom, acceptor molecule, acceptor atom, score
      L1  H     3    21       P1  8028  0.96
      L1  H    12    30       P1  8028  0.94

> <Gold.Chemscore.Hbond.Weighted>
-6.1151

> <Gold.Chemscore.Metal.Weighted>
-0.0000

> <Gold.Chemscore.Lipo.Weighted>
-15.0971

> <Gold.Chemscore.Internal_Hbond.Weighted>
0.0000

> <Gold.Chemscore.DEClash.Weighted>
0.9175

> <Gold.Chemscore.DEInternal.Weighted>
1.9131

> <Gold.Chemscore.Rot.Weighted>
3.6385

> <Gold.Chemscore.Internal.Correction.Weighted>
   9.000000E+99

> <Gold.Protein.RotatedTorsions>
[ 6907 6896 6895 6894 ] final -162.24 input  -60.11 | X-H torsion
[ 7974 7965 7964 7962 ] final -127.03 input  175.53 | X-H torsion
[ 8008 7997 7996 7995 ] final  -96.39 input   59.86 | X-H torsion
[ 10167 10162 10161 10158 ] final -179.18 input  -65.29 | X-H torsion
[ 10718 10713 10712 10709 ] final  -60.23 input   66.30 | X-H torsion
[ 10763 10752 10751 10750 ] final  -87.53 input  -60.55 | X-H torsion
[ 11005 11000 10999 10996 ] final  -71.51 input  -57.11 | X-H torsion

> <Gold.Protein.ActiveResidues>
 VAL166  LYS551  ARG553  GLY616  TRP617  ASP618  TYR619  PRO620  LYS621  CYS622 
 ASP623  PHE694  ASN695  SER759  ASP760  ASP761  ALA762  ILE779  LEU786  VAL792 
 PHE793  MET794  SER795  GLU796  ALA797  LYS798  CYS799  TRP800  GLU811  SER814 

> <Gold.Protein.RotatedAtoms>
  151.3772  133.3834  159.2705 H   0  0  0  0  0  0  0  0  0  0  0  0  # atno 6907 bound_to 6896
  150.9606  134.8995  159.7738 H   0  0  0  0  0  0  0  0  0  0  0  0  # atno 6908 bound_to 6896
  152.5148  134.3730  159.9377 H   0  0  0  0  0  0  0  0  0  0  0  0  # atno 6909 bound_to 6896
  144.9813  140.7642  143.4611 H   0  0  0  0  0  0  0  0  0  0  0  0  # atno 7974 bound_to 7965
  154.7738  140.0472  157.1073 H   0  0  0  0  0  0  0  0  0  0  0  0  # atno 8008 bound_to 7997
  154.9788  140.3099  155.4936 H   0  0  0  0  0  0  0  0  0  0  0  0  # atno 8009 bound_to 7997
  156.2925  140.2240  156.4885 H   0  0  0  0  0  0  0  0  0  0  0  0  # atno 8010 bound_to 7997
  139.5398  144.2395  152.0871 H   0  0  0  0  0  0  0  0  0  0  0  0  # atno 10167 bound_to 10162
  156.1005  130.4187  150.0825 H   0  0  0  0  0  0  0  0  0  0  0  0  # atno 10718 bound_to 10713
  154.6346  135.5410  153.7719 H   0  0  0  0  0  0  0  0  0  0  0  0  # atno 10763 bound_to 10752
  153.0302  135.6444  154.1251 H   0  0  0  0  0  0  0  0  0  0  0  0  # atno 10764 bound_to 10752
  154.1179  135.2922  155.3195 H   0  0  0  0  0  0  0  0  0  0  0  0  # atno 10765 bound_to 10752
  141.1593  133.6820  156.6917 H   0  0  0  0  0  0  0  0  0  0  0  0  # atno 11005 bound_to 11000
  145.2417  139.2069  143.4989 LP  0  0  0  0  0  0  0  0  0  0  0  0  # atno 17320 bound_to 7965
  146.3408  140.2314  142.8593 LP  0  0  0  0  0  0  0  0  0  0  0  0  # atno 17321 bound_to 7965
  140.1872  144.4787  150.6498 LP  0  0  0  0  0  0  0  0  0  0  0  0  # atno 17342 bound_to 10162
  140.6622  143.2256  151.5828 LP  0  0  0  0  0  0  0  0  0  0  0  0  # atno 17343 bound_to 10162
  156.8813  130.9557  151.3599 LP  0  0  0  0  0  0  0  0  0  0  0  0  # atno 17370 bound_to 10713
  157.6175  130.8629  149.9052 LP  0  0  0  0  0  0  0  0  0  0  0  0  # atno 17371 bound_to 10713
  140.3025  134.8152  157.4109 LP  0  0  0  0  0  0  0  0  0  0  0  0  # atno 17394 bound_to 11000
  140.1249  134.5171  155.8153 LP  0  0  0  0  0  0  0  0  0  0  0  0  # atno 17395 bound_to 11000

$$$$
