#       Name:                AV-unprocessed.smi:3032
#       Creating user name   scv26
#       Creation time:       Fri Mar 27 16:53:27 2020


#       File generated by GOLD software.
#

@<TRIPOS>MOLECULE
AV-unprocessed.smi:3032
    41    42     1
SMALL
NO_CHARGES


@<TRIPOS>ATOM
      1 ****        -3.2113   0.9901  -3.2197 C.3            1 S1                 0.0000
      2 ****        -2.6059   0.3785  -1.9482 C.3            1 S1                 0.0000
      3 ****        -3.3055   0.9070  -0.6809 C.3            1 S1                 0.0000
      4 ****        -2.6957   0.3029   0.5939 C.3            1 S1                 0.0000
      5 ****        -1.1815   0.5550   0.6609 C.3            1 S1                 0.0000
      6 ****        -0.4696   0.0147  -0.5965 C.3            1 S1                 0.0000
      7 ****         1.0387   0.2871  -0.5274 C.2            1 S1                 0.0000
      8 ****         1.4638   1.4427  -0.5408 O.2            1 S1                 0.0000
      9 ****         1.8374  -0.7876  -0.4428 N.am           1 S1                 0.0000
     10 ****         3.2933  -0.7483  -0.3392 C.3            1 S1                 0.0000
     11 ****         3.7893  -0.2700   1.0402 C.3            1 S1                 0.0000
     12 ****         3.1649  -0.9933   2.1914 C.2            1 S1                 0.0000
     13 ****         3.5005  -2.2254   2.5926 N.2            1 S1                 0.0000
     14 ****         2.6695  -2.5066   3.6660 N.2            1 S1                 0.0000
     15 ****         1.9131  -1.4168   3.8070 C.2            1 S1                 0.0000
     16 ****         2.1780  -0.4502   2.9208 N.pl3          1 S1                 0.0000
     17 ****        -1.0874   0.6316  -1.8701 C.3            1 S1                 0.0000
     18 ****         1.7438   0.4561   2.8228 H              1 S1                 0.0000
     19 ****        -3.0835   2.0728  -3.2384 H              1 S1                 0.0000
     20 ****        -4.2791   0.7801  -3.2873 H              1 S1                 0.0000
     21 ****        -2.7390   0.5835  -4.1143 H              1 S1                 0.0000
     22 ****        -2.7652  -0.6998  -1.9954 H              1 S1                 0.0000
     23 ****        -3.2247   1.9941  -0.6410 H              1 S1                 0.0000
     24 ****        -4.3712   0.6786  -0.7198 H              1 S1                 0.0000
     25 ****        -3.1812   0.7259   1.4738 H              1 S1                 0.0000
     26 ****        -2.8899  -0.7702   0.6197 H              1 S1                 0.0000
     27 ****        -1.0004   1.6260   0.7660 H              1 S1                 0.0000
     28 ****        -0.7730   0.0834   1.5559 H              1 S1                 0.0000
     29 ****        -0.6217  -1.0656  -0.6352 H              1 S1                 0.0000
     30 ****         1.4051  -1.7004  -0.4359 H              1 S1                 0.0000
     31 ****         3.6565  -1.7601  -0.5209 H              1 S1                 0.0000
     32 ****         3.7104  -0.1245  -1.1310 H              1 S1                 0.0000
     33 ****         4.8716  -0.3882   1.1012 H              1 S1                 0.0000
     34 ****         3.5965   0.7978   1.1531 H              1 S1                 0.0000
     35 ****         1.1535  -1.3237   4.5692 H              1 S1                 0.0000
     36 ****        -0.6019   0.2147  -2.7539 H              1 S1                 0.0000
     37 ****        -0.8996   1.7066  -1.8952 H              1 S1                 0.0000
     38 ****         0.8249   2.2099  -0.5970 LP             1 S1                 0.0000
     39 ****         2.4480   1.6140  -0.4955 LP             1 S1                 0.0000
     40 ****         4.2034  -2.8187   2.2002 LP             1 S1                 0.0000
     41 ****         2.6429  -3.3425   4.2141 LP             1 S1                 0.0000
@<TRIPOS>BOND
    1    1    2 1     
    2    1   19 1     
    3    1   20 1     
    4    1   21 1     
    5    2   17 1     
    6    2    3 1     
    7    2   22 1     
    8    3    4 1     
    9    3   23 1     
   10    3   24 1     
   11    4    5 1     
   12    4   25 1     
   13    4   26 1     
   14    5    6 1     
   15    5   27 1     
   16    5   28 1     
   17    6    7 1     
   18    6   17 1     
   19    6   29 1     
   20    7    8 2     
   21    7    9 am    
   22    9   10 1     
   23    9   30 1     
   24   10   11 1     
   25   10   31 1     
   26   10   32 1     
   27   11   12 1     
   28   11   33 1     
   29   11   34 1     
   30   12   16 1     
   31   12   13 2     
   32   13   14 1     
   33   14   15 2     
   34   15   16 1     
   35   15   35 1     
   36   16   18 1     
   37   17   36 1     
   38   17   37 1     
   39    8   38 1     
   40    8   39 1     
   41   13   40 1     
   42   14   41 1     
@<TRIPOS>SUBSTRUCTURE
      1 S1             1
@<TRIPOS>SET
LONE_PAIRS      STATIC     ATOMS    <user>   **** ""
4 38 39 40 41
DONOR_HYDROGENS      STATIC     ATOMS    <user>   **** ""
2 30 18
ATOM$BLUE        STATIC     ATOMS    COLORGROUP SYSTEM
4 38 39 40 41
ATOM$RED        STATIC     ATOMS    COLORGROUP SYSTEM
2 30 18
