#       Name:                AV-unprocessed.smi:3209
#       Creating user name   scv26
#       Creation time:       Fri Mar 27 18:10:39 2020


#       File generated by GOLD software.
#

@<TRIPOS>MOLECULE
AV-unprocessed.smi:3209
    38    40     1
SMALL
NO_CHARGES


@<TRIPOS>ATOM
      1 ****        -3.6895   4.4784  -2.5243 C.3            1 S1                 0.0000
      2 ****        -3.4979   3.5502  -1.3738 C.2            1 S1                 0.0000
      3 ****        -2.9513   2.3363  -1.4852 N.2            1 S1                 0.0000
      4 ****        -2.8876   1.6602  -0.2627 C.2            1 S1                 0.0000
      5 ****        -2.3023   0.2821  -0.2015 C.3            1 S1                 0.0000
      6 ****        -0.7679   0.3026  -0.2107 C.3            1 S1                 0.0000
      7 ****        -0.2194  -1.0680  -0.1592 N.4            1 S1                 1.0000
      8 ****         1.2583  -1.1474  -0.1821 C.3            1 S1                 0.0000
      9 ****         1.7400  -2.5914  -0.4475 C.3            1 S1                 0.0000
     10 ****         2.6359  -2.8877   0.7689 C.3            1 S1                 0.0000
     11 ****         3.9190  -2.0408   0.6837 C.3            1 S1                 0.0000
     12 ****         3.4097  -0.6220   1.0010 C.3            1 S1                 0.0000
     13 ****         1.8965  -0.8375   1.1930 C.3            1 S1                 0.0000
     14 ****         1.8721  -2.1948   1.8900 C.3            1 S1                 0.0000
     15 ****        -3.3926   2.3886   0.7854 C.2            1 S1                 0.0000
     16 ****        -3.9700   3.9503   0.2729 S.3            1 S1                 0.0000
     17 ****        -3.4915   3.9683  -3.4676 H              1 S1                 0.0000
     18 ****        -3.0107   5.3266  -2.4349 H              1 S1                 0.0000
     19 ****        -4.7145   4.8497  -2.5375 H              1 S1                 0.0000
     20 ****        -2.6532  -0.2294   0.6959 H              1 S1                 0.0000
     21 ****        -2.6638  -0.3099  -1.0435 H              1 S1                 0.0000
     22 ****        -0.4073   0.7977  -1.1134 H              1 S1                 0.0000
     23 ****        -0.4033   0.8786   0.6400 H              1 S1                 0.0000
     24 ****        -0.5562  -1.5318   0.6723 H              1 S1                 0.0000
     25 ****         1.6359  -0.4759  -0.9551 H              1 S1                 0.0000
     26 ****         0.9064  -3.2948  -0.4830 H              1 S1                 0.0000
     27 ****         2.2832  -2.6794  -1.3892 H              1 S1                 0.0000
     28 ****         2.8224  -3.9505   0.9261 H              1 S1                 0.0000
     29 ****         4.6482  -2.3619   1.4286 H              1 S1                 0.0000
     30 ****         4.3920  -2.1046  -0.2972 H              1 S1                 0.0000
     31 ****         3.8664  -0.2490   1.9189 H              1 S1                 0.0000
     32 ****         3.6332   0.0899   0.2056 H              1 S1                 0.0000
     33 ****         1.4191  -0.0286   1.7464 H              1 S1                 0.0000
     34 ****         0.8662  -2.5909   2.0390 H              1 S1                 0.0000
     35 ****         2.4033  -2.2019   2.8437 H              1 S1                 0.0000
     36 ****        -3.4609   2.1038   1.8249 H              1 S1                 0.0000
     37 ****        -0.5685  -1.5639  -0.9669 H              1 S1                 0.0000
     38 ****        -2.6234   1.9529  -2.3487 LP             1 S1                 0.0000
@<TRIPOS>BOND
    1    1    2 1     
    2    1   17 1     
    3    1   18 1     
    4    1   19 1     
    5    2   16 1     
    6    2    3 2     
    7    3    4 1     
    8    4    5 1     
    9    4   15 2     
   10    5    6 1     
   11    5   20 1     
   12    5   21 1     
   13    6    7 1     
   14    6   22 1     
   15    6   23 1     
   16    7    8 1     
   17    7   24 1     
   18    7   37 1     
   19    8   13 1     
   20    8    9 1     
   21    8   25 1     
   22    9   10 1     
   23    9   26 1     
   24    9   27 1     
   25   10   14 1     
   26   10   11 1     
   27   10   28 1     
   28   11   12 1     
   29   11   29 1     
   30   11   30 1     
   31   12   13 1     
   32   12   31 1     
   33   12   32 1     
   34   13   14 1     
   35   13   33 1     
   36   14   34 1     
   37   14   35 1     
   38   15   16 1     
   39   15   36 1     
   40    3   38 1     
@<TRIPOS>SUBSTRUCTURE
      1 S1             1
@<TRIPOS>SET
LONE_PAIRS      STATIC     ATOMS    <user>   **** ""
1 38
DONOR_HYDROGENS      STATIC     ATOMS    <user>   **** ""
2 24 37
ATOM$BLUE        STATIC     ATOMS    COLORGROUP SYSTEM
1 38
ATOM$RED        STATIC     ATOMS    COLORGROUP SYSTEM
2 24 37
