#       Name:                AV-unprocessed.smi:932
#       Creating user name   scv26
#       Creation time:       Fri Mar 27 02:10:45 2020


#       File generated by GOLD software.
#

@<TRIPOS>MOLECULE
AV-unprocessed.smi:932
    46    47     1
SMALL
NO_CHARGES


@<TRIPOS>ATOM
      1 ****         0.4254   3.2239  -0.4894 O.2            1 S1                 0.0000
      2 ****         0.0778   2.0455  -0.4399 C.2            1 S1                 0.0000
      3 ****         0.9454   1.0196  -0.4299 N.am           1 S1                 0.0000
      4 ****         2.3967   1.1470  -0.4655 C.3            1 S1                 0.0000
      5 ****         2.9655   1.4896   0.9214 C.3            1 S1                 0.0000
      6 ****         4.4108   1.5874   0.8957 N.pl3          1 S1                 0.0000
      7 ****         5.3253   0.6432   1.3437 C.2            1 S1                 0.0000
      8 ****         6.5768   1.1723   1.1208 C.2            1 S1                 0.0000
      9 ****         6.4565   2.4330   0.5403 N.2            1 S1                 0.0000
     10 ****         5.1455   2.6110   0.4393 C.2            1 S1                 0.0000
     11 ****        -1.2193   1.6908  -0.3773 N.am           1 S1                 0.0000
     12 ****        -2.4068   2.5512  -0.3687 C.3            1 S1                 0.0000
     13 ****        -3.5108   1.8119   0.4194 C.3            1 S1                 0.0000
     14 ****        -4.8202   2.5762   0.6992 C.3            1 S1                 0.0000
     15 ****        -4.6559   4.0402   1.1549 C.3            1 S1                 0.0000
     16 ****        -4.9218   5.0883   0.0558 C.3            1 S1                 0.0000
     17 ****        -3.8999   5.1624  -1.0965 C.3            1 S1                 0.0000
     18 ****        -3.9072   3.9427  -2.0397 C.3            1 S1                 0.0000
     19 ****        -2.7670   2.9276  -1.8268 C.3            1 S1                 0.0000
     20 ****         0.5702   0.0834  -0.3851 H              1 S1                 0.0000
     21 ****         2.8103   0.2003  -0.8138 H              1 S1                 0.0000
     22 ****         2.6864   1.9020  -1.1985 H              1 S1                 0.0000
     23 ****         2.5651   2.4389   1.2799 H              1 S1                 0.0000
     24 ****         2.6799   0.7289   1.6495 H              1 S1                 0.0000
     25 ****         5.0196  -0.3000   1.7723 H              1 S1                 0.0000
     26 ****         7.5466   0.7465   1.3320 H              1 S1                 0.0000
     27 ****         4.7082   3.5064   0.0220 H              1 S1                 0.0000
     28 ****        -1.4040   0.7005  -0.3085 H              1 S1                 0.0000
     29 ****        -2.1492   3.4509   0.1873 H              1 S1                 0.0000
     30 ****        -3.7529   0.8729  -0.0805 H              1 S1                 0.0000
     31 ****        -3.0928   1.5268   1.3862 H              1 S1                 0.0000
     32 ****        -5.4950   2.5134  -0.1526 H              1 S1                 0.0000
     33 ****        -5.3409   2.0327   1.4889 H              1 S1                 0.0000
     34 ****        -5.3866   4.2207   1.9441 H              1 S1                 0.0000
     35 ****        -3.6887   4.2048   1.6298 H              1 S1                 0.0000
     36 ****        -5.9210   4.9372  -0.3548 H              1 S1                 0.0000
     37 ****        -4.9530   6.0678   0.5341 H              1 S1                 0.0000
     38 ****        -4.1618   6.0373  -1.6924 H              1 S1                 0.0000
     39 ****        -2.8980   5.3715  -0.7217 H              1 S1                 0.0000
     40 ****        -4.8759   3.4466  -2.0196 H              1 S1                 0.0000
     41 ****        -3.8187   4.3071  -3.0640 H              1 S1                 0.0000
     42 ****        -1.8783   3.3478  -2.2993 H              1 S1                 0.0000
     43 ****        -2.9920   2.0227  -2.3925 H              1 S1                 0.0000
     44 ****         1.3971   3.4575  -0.5248 LP             1 S1                 0.0000
     45 ****        -0.2636   3.9487  -0.4943 LP             1 S1                 0.0000
     46 ****         7.1871   3.0576   0.2643 LP             1 S1                 0.0000
@<TRIPOS>BOND
    1    1    2 2     
    2    2    3 am    
    3    2   11 am    
    4    3    4 1     
    5    3   20 1     
    6    4    5 1     
    7    4   21 1     
    8    4   22 1     
    9    5    6 1     
   10    5   23 1     
   11    5   24 1     
   12    6   10 1     
   13    6    7 1     
   14    7    8 2     
   15    7   25 1     
   16    8    9 1     
   17    8   26 1     
   18    9   10 2     
   19   10   27 1     
   20   11   12 1     
   21   11   28 1     
   22   12   19 1     
   23   12   13 1     
   24   12   29 1     
   25   13   14 1     
   26   13   30 1     
   27   13   31 1     
   28   14   15 1     
   29   14   32 1     
   30   14   33 1     
   31   15   16 1     
   32   15   34 1     
   33   15   35 1     
   34   16   17 1     
   35   16   36 1     
   36   16   37 1     
   37   17   18 1     
   38   17   38 1     
   39   17   39 1     
   40   18   19 1     
   41   18   40 1     
   42   18   41 1     
   43   19   42 1     
   44   19   43 1     
   45    1   44 1     
   46    1   45 1     
   47    9   46 1     
@<TRIPOS>SUBSTRUCTURE
      1 S1             1
@<TRIPOS>SET
LONE_PAIRS      STATIC     ATOMS    <user>   **** ""
3 44 45 46
DONOR_HYDROGENS      STATIC     ATOMS    <user>   **** ""
2 20 28
ATOM$BLUE        STATIC     ATOMS    COLORGROUP SYSTEM
3 44 45 46
ATOM$RED        STATIC     ATOMS    COLORGROUP SYSTEM
2 20 28
