#       Name:                AV-unprocessed.smi:1971
#       Creating user name   scv26
#       Creation time:       Fri Mar 27 10:13:30 2020


#       File generated by GOLD software.
#

@<TRIPOS>MOLECULE
AV-unprocessed.smi:1971
    48    49     1
SMALL
NO_CHARGES


@<TRIPOS>ATOM
      1 ****        -3.3669   1.7074  -4.4023 C.3            1 S1                 0.0000
      2 ****        -2.5185   2.2498  -3.2433 C.3            1 S1                 0.0000
      3 ****        -2.7405   1.5114  -1.9752 N.4            1 S1                 1.0000
      4 ****        -2.2519   2.2634  -0.7934 C.3            1 S1                 0.0000
      5 ****        -2.5384   1.4812   0.5060 C.3            1 S1                 0.0000
      6 ****        -1.8959   0.1588   0.5015 N.3            1 S1                 0.0000
      7 ****        -0.4164   0.1646   0.5726 C.3            1 S1                 0.0000
      8 ****         0.0646   0.9502   1.8165 C.3            1 S1                 0.0000
      9 ****         0.1388  -1.2859   0.5847 C.3            1 S1                 0.0000
     10 ****         1.5955  -1.3385   0.6837 N.am           1 S1                 0.0000
     11 ****         2.2881  -1.7808   1.7441 C.2            1 S1                 0.0000
     12 ****         1.7617  -2.1715   2.7857 O.2            1 S1                 0.0000
     13 ****         3.6102  -1.7363   1.5132 N.am           1 S1                 0.0000
     14 ****         4.6563  -2.1368   2.3812 C.2            1 S1                 0.0000
     15 ****         5.9175  -2.0505   1.9539 N.2            1 S1                 0.0000
     16 ****         6.8302  -2.4831   2.9202 C.2            1 S1                 0.0000
     17 ****         6.2412  -2.8981   4.0889 C.2            1 S1                 0.0000
     18 ****         4.5046  -2.7622   4.0254 S.3            1 S1                 0.0000
     19 ****        -2.4761  -0.5688  -0.6368 C.3            1 S1                 0.0000
     20 ****        -2.1837   0.1347  -1.9791 C.3            1 S1                 0.0000
     21 ****        -3.2553   2.3380  -5.2846 H              1 S1                 0.0000
     22 ****        -4.4257   1.6890  -4.1425 H              1 S1                 0.0000
     23 ****        -3.0712   0.6985  -4.6894 H              1 S1                 0.0000
     24 ****        -1.4590   2.2367  -3.5036 H              1 S1                 0.0000
     25 ****        -2.7874   3.2964  -3.0936 H              1 S1                 0.0000
     26 ****        -1.1883   2.4809  -0.8965 H              1 S1                 0.0000
     27 ****        -2.7618   3.2263  -0.7466 H              1 S1                 0.0000
     28 ****        -2.2493   2.0638   1.3786 H              1 S1                 0.0000
     29 ****        -3.6157   1.3430   0.6104 H              1 S1                 0.0000
     30 ****        -0.0120   0.6650  -0.3063 H              1 S1                 0.0000
     31 ****         1.1478   0.9160   1.9255 H              1 S1                 0.0000
     32 ****        -0.3691   0.5485   2.7330 H              1 S1                 0.0000
     33 ****        -0.1792   2.0099   1.7591 H              1 S1                 0.0000
     34 ****        -0.3349  -1.8648   1.3797 H              1 S1                 0.0000
     35 ****        -0.0911  -1.7981  -0.3479 H              1 S1                 0.0000
     36 ****         2.1159  -1.0307  -0.1247 H              1 S1                 0.0000
     37 ****         3.9026  -1.3911   0.6111 H              1 S1                 0.0000
     38 ****         7.8856  -2.4620   2.6913 H              1 S1                 0.0000
     39 ****         6.7220  -3.2738   4.9798 H              1 S1                 0.0000
     40 ****        -2.1440  -1.6046  -0.6626 H              1 S1                 0.0000
     41 ****        -3.5561  -0.6302  -0.4942 H              1 S1                 0.0000
     42 ****        -2.6423  -0.4460  -2.7785 H              1 S1                 0.0000
     43 ****        -1.1135   0.1582  -2.1879 H              1 S1                 0.0000
     44 ****        -3.7398   1.4221  -1.8589 H              1 S1                 0.0000
     45 ****        -2.0932  -0.3234   1.3551 LP             1 S1                 0.0000
     46 ****         0.7656  -2.1700   2.8737 LP             1 S1                 0.0000
     47 ****         2.3301  -2.4905   3.5441 LP             1 S1                 0.0000
     48 ****         6.1790  -1.7156   1.0487 LP             1 S1                 0.0000
@<TRIPOS>BOND
    1    1    2 1     
    2    1   21 1     
    3    1   22 1     
    4    1   23 1     
    5    2    3 1     
    6    2   24 1     
    7    2   25 1     
    8    3   20 1     
    9    3    4 1     
   10    3   44 1     
   11    4    5 1     
   12    4   26 1     
   13    4   27 1     
   14    5    6 1     
   15    5   28 1     
   16    5   29 1     
   17    6    7 1     
   18    6   19 1     
   19    7    8 1     
   20    7    9 1     
   21    7   30 1     
   22    8   31 1     
   23    8   32 1     
   24    8   33 1     
   25    9   10 1     
   26    9   34 1     
   27    9   35 1     
   28   10   11 am    
   29   10   36 1     
   30   11   12 2     
   31   11   13 am    
   32   13   14 1     
   33   13   37 1     
   34   14   18 1     
   35   14   15 2     
   36   15   16 1     
   37   16   17 2     
   38   16   38 1     
   39   17   18 1     
   40   17   39 1     
   41   19   20 1     
   42   19   40 1     
   43   19   41 1     
   44   20   42 1     
   45   20   43 1     
   46    6   45 1     
   47   12   46 1     
   48   12   47 1     
   49   15   48 1     
@<TRIPOS>SUBSTRUCTURE
      1 S1             1
@<TRIPOS>SET
LONE_PAIRS      STATIC     ATOMS    <user>   **** ""
4 45 46 47 48
DONOR_HYDROGENS      STATIC     ATOMS    <user>   **** ""
3 44 36 37
ATOM$BLUE        STATIC     ATOMS    COLORGROUP SYSTEM
4 45 46 47 48
ATOM$RED        STATIC     ATOMS    COLORGROUP SYSTEM
3 44 36 37
