#       Name:                AV-unprocessed.smi:99
#       Creating user name   scv26
#       Creation time:       Thu Mar 26 17:38:44 2020


#       File generated by GOLD software.
#

@<TRIPOS>MOLECULE
AV-unprocessed.smi:99
    65    68     1
SMALL
NO_CHARGES


@<TRIPOS>ATOM
      1 ****        -3.5458  -1.0468   0.2787 O.2            1 S1                 0.0000
      2 ****        -2.8234  -0.1156   0.6395 C.2            1 S1                 0.0000
      3 ****        -1.6078  -0.2841   1.1930 O.3            1 S1                 0.0000
      4 ****        -1.0387  -1.5780   1.3111 C.3            1 S1                 0.0000
      5 ****         0.4757  -1.4314   1.5043 C.3            1 S1                 0.0000
      6 ****         1.0534  -2.6815   1.8725 O.3            1 S1                 0.0000
      7 ****         2.3565  -2.7867   1.3658 C.3            1 S1                 0.0000
      8 ****         2.4461  -4.0027   0.4689 N.am           1 S1                 0.0000
      9 ****         1.3202  -4.5144  -0.1552 C.2            1 S1                 0.0000
     10 ****         1.3943  -5.5894  -0.9664 C.2            1 S1                 0.0000
     11 ****         2.6879  -6.2268  -1.1957 C.2            1 S1                 0.0000
     12 ****         2.7445  -7.2121  -1.9288 O.2            1 S1                 0.0000
     13 ****         3.7841  -5.6942  -0.5826 N.pl3          1 S1                -1.0000
     14 ****         3.7134  -4.6023   0.2335 C.2            1 S1                 0.0000
     15 ****         4.6995  -4.1014   0.7744 O.2            1 S1                 0.0000
     16 ****         2.6522  -1.5127   0.5593 C.3            1 S1                 0.0000
     17 ****         3.3718  -0.5885   1.3548 O.3            1 S1                 0.0000
     18 ****         1.2436  -1.0391   0.2431 C.3            1 S1                 0.0000
     19 ****         1.2060   0.3503  -0.0694 O.3            1 S1                 0.0000
     20 ****         0.4436   0.8200  -1.0813 C.2            1 S1                 0.0000
     21 ****        -0.2186   0.1026  -1.8338 O.2            1 S1                 0.0000
     22 ****         0.4527   2.3081  -1.1683 C.ar           1 S1                 0.0000
     23 ****        -0.3722   2.9509  -2.1207 C.ar           1 S1                 0.0000
     24 ****        -0.4057   4.3560  -2.2086 C.ar           1 S1                 0.0000
     25 ****         0.3872   5.1353  -1.3462 C.ar           1 S1                 0.0000
     26 ****         1.2145   4.5077  -0.3969 C.ar           1 S1                 0.0000
     27 ****         1.2486   3.1025  -0.3067 C.ar           1 S1                 0.0000
     28 ****        -3.1916   1.3221   0.4895 C.ar           1 S1                 0.0000
     29 ****        -4.4135   1.6645  -0.1349 C.ar           1 S1                 0.0000
     30 ****        -4.7758   3.0144  -0.3097 C.ar           1 S1                 0.0000
     31 ****        -3.9208   4.0386   0.1373 C.ar           1 S1                 0.0000
     32 ****        -2.7045   3.7113   0.7638 C.ar           1 S1                 0.0000
     33 ****        -2.3421   2.3622   0.9420 C.ar           1 S1                 0.0000
     34 ****        -1.4838  -2.0803   2.1704 H              1 S1                 0.0000
     35 ****        -1.2462  -2.1858   0.4291 H              1 S1                 0.0000
     36 ****         0.6877  -0.7247   2.3086 H              1 S1                 0.0000
     37 ****         3.0497  -2.9708   2.1885 H              1 S1                 0.0000
     38 ****         0.3572  -4.0511  -0.0035 H              1 S1                 0.0000
     39 ****         0.5061  -5.9741  -1.4457 H              1 S1                 0.0000
     40 ****         3.2294  -1.7291  -0.3406 H              1 S1                 0.0000
     41 ****         2.8849  -0.4361   2.1498 H              1 S1                 0.0000
     42 ****         0.8784  -1.6420  -0.5896 H              1 S1                 0.0000
     43 ****        -0.9958   2.3738  -2.7883 H              1 S1                 0.0000
     44 ****        -1.0437   4.8354  -2.9363 H              1 S1                 0.0000
     45 ****         0.3604   6.2130  -1.4125 H              1 S1                 0.0000
     46 ****         1.8236   5.1048   0.2658 H              1 S1                 0.0000
     47 ****         1.8915   2.6526   0.4360 H              1 S1                 0.0000
     48 ****        -5.0833   0.8955  -0.4919 H              1 S1                 0.0000
     49 ****        -5.7102   3.2639  -0.7906 H              1 S1                 0.0000
     50 ****        -4.1972   5.0735  -0.0006 H              1 S1                 0.0000
     51 ****        -2.0445   4.4955   1.1042 H              1 S1                 0.0000
     52 ****        -1.3981   2.1473   1.4210 H              1 S1                 0.0000
     53 ****        -3.2375  -1.9914   0.3912 LP             1 S1                 0.0000
     54 ****        -4.4403  -0.8577  -0.1266 LP             1 S1                 0.0000
     55 ****         0.4951  -3.4241   1.5024 LP             1 S1                 0.0000
     56 ****         1.0812  -2.7505   2.8697 LP             1 S1                 0.0000
     57 ****         1.9127  -7.5649  -2.3573 LP             1 S1                 0.0000
     58 ****         3.6223  -7.6607  -2.0966 LP             1 S1                 0.0000
     59 ****         4.6752  -6.1209  -0.7373 LP             1 S1                 0.0000
     60 ****         4.5945  -3.2968   1.3589 LP             1 S1                 0.0000
     61 ****         5.6054  -4.4991   0.6292 LP             1 S1                 0.0000
     62 ****         3.4824   0.2714   0.8566 LP             1 S1                 0.0000
     63 ****         4.2719  -0.9633   1.5768 LP             1 S1                 0.0000
     64 ****        -0.2112  -0.8901  -1.7130 LP             1 S1                 0.0000
     65 ****        -0.7632   0.5132  -2.5651 LP             1 S1                 0.0000
@<TRIPOS>BOND
    1    1    2 2     
    2    2    3 1     
    3    2   28 1     
    4    3    4 1     
    5    4    5 1     
    6    4   34 1     
    7    4   35 1     
    8    5   18 1     
    9    5    6 1     
   10    5   36 1     
   11    6    7 1     
   12    7    8 1     
   13    7   16 1     
   14    7   37 1     
   15    8   14 am    
   16    8    9 1     
   17    9   10 2     
   18    9   38 1     
   19   10   11 1     
   20   10   39 1     
   21   11   12 2     
   22   11   13 1     
   23   13   14 1     
   24   14   15 2     
   25   16   17 1     
   26   16   18 1     
   27   16   40 1     
   28   17   41 1     
   29   18   19 1     
   30   18   42 1     
   31   19   20 1     
   32   20   21 2     
   33   20   22 1     
   34   22   27 ar    
   35   22   23 ar    
   36   23   24 ar    
   37   23   43 1     
   38   24   25 ar    
   39   24   44 1     
   40   25   26 ar    
   41   25   45 1     
   42   26   27 ar    
   43   26   46 1     
   44   27   47 1     
   45   28   33 ar    
   46   28   29 ar    
   47   29   30 ar    
   48   29   48 1     
   49   30   31 ar    
   50   30   49 1     
   51   31   32 ar    
   52   31   50 1     
   53   32   33 ar    
   54   32   51 1     
   55   33   52 1     
   56    1   53 1     
   57    1   54 1     
   58    6   55 1     
   59    6   56 1     
   60   12   57 1     
   61   12   58 1     
   62   13   59 1     
   63   15   60 1     
   64   15   61 1     
   65   17   62 1     
   66   17   63 1     
   67   21   64 1     
   68   21   65 1     
@<TRIPOS>SUBSTRUCTURE
      1 S1             1
@<TRIPOS>SET
LONE_PAIRS      STATIC     ATOMS    <user>   **** ""
13 53 54 55 56 57 58 59 60 61 62 63 64 65
DONOR_HYDROGENS      STATIC     ATOMS    <user>   **** ""
1 41
ATOM$BLUE        STATIC     ATOMS    COLORGROUP SYSTEM
13 53 54 55 56 57 58 59 60 61 62 63 64 65
ATOM$RED        STATIC     ATOMS    COLORGROUP SYSTEM
1 41
