AV-unprocessed.smi:212|AV-procd|sdf|1627|dock7
  -GOLD-   2262019573D 1   1.00000     0.00000
 Structure written by MMmdl.
 65 68  0  0  0  0  0  0  0  0  2 V2000
  146.9914  142.1744  157.5982 C   0  0  0  0  0  0  0  0  0  0  0  0
  148.0214  141.0323  157.6241 C   0  0  2  0  0  0  0  0  0  0  0  0
  149.3729  141.4809  158.2191 C   0  0  0  0  0  0  0  0  0  0  0  0
  150.1135  142.3703  157.2854 N   0  3  1  0  0  0  0  0  0  0  0  0
  151.3591  142.9333  157.8703 C   0  0  0  0  0  0  0  0  0  0  0  0
  151.1061  144.2301  158.6749 C   0  0  0  0  0  0  0  0  0  0  0  0
  150.0408  143.9825  159.7562 C   0  0  0  0  0  0  0  0  0  0  0  0
  152.3941  144.7819  159.3138 C   0  0  0  0  0  0  0  0  0  0  0  0
  150.5800  145.2184  157.8118 O   0  0  0  0  0  0  0  0  0  0  0  0
  150.3226  141.7357  155.9598 C   0  0  0  0  0  0  0  0  0  0  0  0
  148.9848  141.2772  155.3506 C   0  0  0  0  0  0  0  0  0  0  0  0
  148.2235  140.4547  156.2926 N   0  0  0  0  0  0  0  0  0  0  0  0
  148.3620  139.1036  156.2431 C   0  0  0  0  0  0  0  0  0  0  0  0
  149.1557  138.5366  155.2958 N   0  0  0  0  0  0  0  0  0  0  0  0
  149.3075  137.2097  155.2468 C   0  0  0  0  0  0  0  0  0  0  0  0
  148.7658  136.2784  156.0334 N   0  0  0  0  0  0  0  0  0  0  0  0
  147.9610  136.8391  156.9806 C   0  0  0  0  0  0  0  0  0  0  0  0
  147.7066  138.2287  157.1554 C   0  0  0  0  0  0  0  0  0  0  0  0
  146.8309  138.4188  158.2182 N   0  0  0  0  0  0  0  0  0  0  0  0
  146.5894  137.2119  158.6529 C   0  0  0  0  0  0  0  0  0  0  0  0
  147.2302  136.2042  157.9694 N   0  0  0  0  0  0  0  0  0  0  0  0
  147.1349  134.7804  158.2396 C   0  0  0  0  0  0  0  0  0  0  0  0
  148.1773  134.2938  159.2810 C   0  0  2  0  0  0  0  0  0  0  0  0
  148.5247  132.7988  159.0826 C   0  0  0  0  0  0  0  0  0  0  0  0
  149.0999  132.5697  157.8132 O   0  0  0  0  0  0  0  0  0  0  0  0
  147.7578  134.6031  160.7467 C   0  0  1  0  0  0  0  0  0  0  0  0
  148.6198  133.9059  161.8034 C   0  0  0  0  0  0  0  0  0  0  0  0
  149.0045  135.0231  162.7704 C   0  0  0  0  0  0  0  0  0  0  0  0
  148.9817  136.1849  161.9596 O   0  0  0  0  0  0  0  0  0  0  0  0
  147.8243  136.0867  161.1454 C   0  0  0  0  0  0  0  0  0  0  0  0
  146.8073  142.5541  158.6033 H   0  0  0  0  0  0  0  0  0  0  0  0
  146.0372  141.8282  157.1998 H   0  0  0  0  0  0  0  0  0  0  0  0
  147.3228  143.0139  156.9869 H   0  0  0  0  0  0  0  0  0  0  0  0
  147.6224  140.2740  158.2975 H   0  0  0  0  0  0  0  0  0  0  0  0
  149.2090  141.9802  159.1741 H   0  0  0  0  0  0  0  0  0  0  0  0
  149.9867  140.6037  158.4305 H   0  0  0  0  0  0  0  0  0  0  0  0
  151.8561  142.1843  158.4891 H   0  0  0  0  0  0  0  0  0  0  0  0
  152.0669  143.1631  157.0720 H   0  0  0  0  0  0  0  0  0  0  0  0
  150.3751  143.2333  160.4749 H   0  0  0  0  0  0  0  0  0  0  0  0
  149.1055  143.6272  159.3218 H   0  0  0  0  0  0  0  0  0  0  0  0
  149.8184  144.8933  160.3136 H   0  0  0  0  0  0  0  0  0  0  0  0
  152.8478  144.0478  159.9804 H   0  0  0  0  0  0  0  0  0  0  0  0
  152.1918  145.6777  159.9023 H   0  0  0  0  0  0  0  0  0  0  0  0
  153.1379  145.0505  158.5631 H   0  0  0  0  0  0  0  0  0  0  0  0
  149.9733  144.8066  157.2153 H   0  0  0  0  0  0  0  0  0  0  0  0
  150.8027  142.4434  155.2830 H   0  0  0  0  0  0  0  0  0  0  0  0
  151.0021  140.8892  156.0692 H   0  0  0  0  0  0  0  0  0  0  0  0
  148.3827  142.1483  155.0921 H   0  0  0  0  0  0  0  0  0  0  0  0
  149.1526  140.7469  154.4123 H   0  0  0  0  0  0  0  0  0  0  0  0
  149.9566  136.8414  154.4660 H   0  0  0  0  0  0  0  0  0  0  0  0
  145.9332  137.0212  159.4900 H   0  0  0  0  0  0  0  0  0  0  0  0
  146.1174  134.5818  158.5739 H   0  0  0  0  0  0  0  0  0  0  0  0
  147.2504  134.2439  157.2980 H   0  0  0  0  0  0  0  0  0  0  0  0
  149.0958  134.8534  159.0952 H   0  0  0  0  0  0  0  0  0  0  0  0
  149.2067  132.4478  159.8573 H   0  0  0  0  0  0  0  0  0  0  0  0
  147.6327  132.1763  159.1419 H   0  0  0  0  0  0  0  0  0  0  0  0
  149.2078  131.6381  157.6958 H   0  0  0  0  0  0  0  0  0  0  0  0
  146.7309  134.2666  160.8917 H   0  0  0  0  0  0  0  0  0  0  0  0
  148.0842  133.1034  162.3116 H   0  0  0  0  0  0  0  0  0  0  0  0
  149.5156  133.4640  161.3687 H   0  0  0  0  0  0  0  0  0  0  0  0
  148.2652  135.1204  163.5671 H   0  0  0  0  0  0  0  0  0  0  0  0
  149.9826  134.8685  163.2261 H   0  0  0  0  0  0  0  0  0  0  0  0
  147.8699  136.7737  160.3009 H   0  0  0  0  0  0  0  0  0  0  0  0
  146.9511  136.3587  161.7405 H   0  0  0  0  0  0  0  0  0  0  0  0
  149.5105  143.1626  157.1156 H   0  0  0  0  0  0  0  0  0  0  0  0
  1  2  1  0  0  0  0
  1 31  1  0  0  0  0
  1 32  1  0  0  0  0
  1 33  1  0  0  0  0
  2 12  1  0  0  0  0
  2  3  1  0  0  0  0
  2 34  1  0  0  0  0
  3  4  1  0  0  0  0
  3 35  1  0  0  0  0
  3 36  1  0  0  0  0
  4  5  1  0  0  0  0
  4 10  1  0  0  0  0
  4 65  1  0  0  0  0
  5  6  1  0  0  0  0
  5 37  1  0  0  0  0
  5 38  1  0  0  0  0
  6  7  1  0  0  0  0
  6  8  1  0  0  0  0
  6  9  1  0  0  0  0
  7 39  1  0  0  0  0
  7 40  1  0  0  0  0
  7 41  1  0  0  0  0
  8 42  1  0  0  0  0
  8 43  1  0  0  0  0
  8 44  1  0  0  0  0
  9 45  1  0  0  0  0
 10 11  1  0  0  0  0
 10 46  1  0  0  0  0
 10 47  1  0  0  0  0
 11 12  1  0  0  0  0
 11 48  1  0  0  0  0
 11 49  1  0  0  0  0
 12 13  1  0  0  0  0
 13 18  1  0  0  0  0
 13 14  2  0  0  0  0
 14 15  1  0  0  0  0
 15 16  2  0  0  0  0
 15 50  1  0  0  0  0
 16 17  1  0  0  0  0
 17 21  1  0  0  0  0
 17 18  2  0  0  0  0
 18 19  1  0  0  0  0
 19 20  2  0  0  0  0
 20 21  1  0  0  0  0
 20 51  1  0  0  0  0
 21 22  1  0  0  0  0
 22 23  1  0  0  0  0
 22 52  1  0  0  0  0
 22 53  1  0  0  0  0
 23 24  1  0  0  0  0
 23 26  1  0  0  0  0
 23 54  1  0  0  0  0
 24 25  1  0  0  0  0
 24 55  1  0  0  0  0
 24 56  1  0  0  0  0
 25 57  1  0  0  0  0
 26 30  1  0  0  0  0
 26 27  1  0  0  0  0
 26 58  1  0  0  0  0
 27 28  1  0  0  0  0
 27 59  1  0  0  0  0
 27 60  1  0  0  0  0
 28 29  1  0  0  0  0
 28 61  1  0  0  0  0
 28 62  1  0  0  0  0
 29 30  1  0  0  0  0
 30 63  1  0  0  0  0
 30 64  1  0  0  0  0
M  CHG  1   4   1
M  END
> <s_m_source_file>
AV-unprocessed.smi

> <i_m_source_file_index>
212

> <i_lp_mmshare_version>
43012

> <i_f3d_flags>
0

> <s_epik_input>
W0NIM11bQ0BASF0xW0NIMl1OKFtDSDJdQyhbQ0gzXSkoW0NIM10pW09IXSlbQ0gyXVtDSDJdTjFjKG5bY0hdbjIpYyhjMjMpbltjSF1uM1tDSDJdW0NASF0oW0NIMl1bT0hdKVtDQEBIXTRbQ0gyXVtDSDJdT1tDSDJdNA==

> <s_epik_cmdline>
J2VwaWtfcHl0aG9uJywgJy1waCcsICc3LjAnLCAnLXRuJywgJzgnLCAnLW1hJywgJzIwMCcsICctbWV0YWxfYmluZGluZycsICctaW1hZScsICc8aW5maWxlLm1hZT4nLCAnLW9tYWUnLCAnPG91dGZpbGUubWFlPic=

> <r_lp_tautomer_probability>
1

> <r_epik_Ionization_Penalty>
0.00182193

> <r_epik_Ionization_Penalty_Charging>
0.00173996

> <r_epik_Ionization_Penalty_Neutral>
8.19718e-05

> <r_epik_State_Penalty>
-0

> <r_epik_Charging_Adjusted_Penalty>
0.00173996

> <i_epik_Tot_Q>
1

> <i_epik_Tot_abs_Q>
1

> <r_epik_Metal_State_Penalty>
-0

> <b_epik_Metal_Only>
0

> <s_lp_Force_Field>
OPLS_2005

> <r_lp_Energy>
60.0337

> <b_lp_Chiralities_Consistent>
1

> <s_lp_Variant>
AV-unprocessed.smi:212-11

> <Gold.Version>
5.8.1

> <Gold.Id.Protein>
6NUR|6NUR_protein|mol2

> <Gold.PLP.Fitness>
46.0085

> <Gold.PLP.PLP>
-35.9690

> <Gold.PLP.part.hbond>
-4.1500

> <Gold.PLP.part.metal>
0.0000

> <Gold.PLP.part.buried>
-2.1562

> <Gold.PLP.part.nonpolar>
-29.0902

> <Gold.PLP.part.repulsive>
0.1006

> <Gold.PLP.ligand.clash>
0.0000

> <Gold.PLP.ligand.torsion>
1.4680

> <Gold.PLP.Chemscore.Hbond>
4.0000

> <Gold.PLP.Chemscore.CHOScore>
0.0000

> <Gold.PLP.Chemscore.Metal>
0.0000

> <Gold.Chemscore.Hbonds>
donor molecule, donor type, donor heavy atom, donor atom, acceptor molecule, acceptor atom, score
      L1  H     4    65       P1  8028  1.00
      L1  H     9    45       P1  8028  0.80
      P1  H  6931  6943       L1    29  0.77
      L1  C    15    50       P1  7948  0.23

> <Gold.PLP.Chemscore.Internal.Correction>
0.9754

> <Gold.Rescore>
     Score         DG    S(hbond)    S(metal)    S(lipo)     H(rot)  DE(clash)    DE(int)     intcor
     11.69     -17.13       2.48        0.00     103.24       3.40       1.73       3.70       ----

> <Gold.Chemscore.Fitness>
11.6940

> <Gold.Chemscore.DG>
-17.1279

> <Gold.Chemscore.ZeroCoef>
-5.4800

> <Gold.Chemscore.Hbond>
2.4760

> <Gold.Chemscore.Metal>
0.0000

> <Gold.Chemscore.Lipo>
103.2360

> <Gold.Chemscore.Internal_Hbond>
0.0000

> <Gold.Chemscore.DEClash>
1.7327

> <Gold.Chemscore.DEInternal>
3.7011

> <Gold.Chemscore.Rot>
3.3986

> <Gold.Chemscore.Internal.Correction>
   9.000000E+99

> <Gold.Chemscore.Hbonds>
donor molecule, donor type, donor heavy atom, donor atom, acceptor molecule, acceptor atom, score
      L1  H     4    65       P1  8028  0.48
      L1  H     9    45       P1  8028  0.11
      P1  H  6931  6943       L1    29  0.11

> <Gold.Chemscore.Hbond.Weighted>
-8.2697

> <Gold.Chemscore.Metal.Weighted>
-0.0000

> <Gold.Chemscore.Lipo.Weighted>
-12.0786

> <Gold.Chemscore.Internal_Hbond.Weighted>
0.0000

> <Gold.Chemscore.DEClash.Weighted>
1.7327

> <Gold.Chemscore.DEInternal.Weighted>
3.7011

> <Gold.Chemscore.Rot.Weighted>
8.7005

> <Gold.Chemscore.Internal.Correction.Weighted>
   9.000000E+99

> <Gold.Protein.RotatedTorsions>
[ 6907 6896 6895 6894 ] final  -51.14 input  -60.11 | X-H torsion
[ 7974 7965 7964 7962 ] final -155.49 input  175.53 | X-H torsion
[ 8008 7997 7996 7995 ] final -133.81 input   59.86 | X-H torsion
[ 10167 10162 10161 10158 ] final  164.14 input  -65.29 | X-H torsion
[ 10718 10713 10712 10709 ] final  -41.63 input   66.30 | X-H torsion
[ 10763 10752 10751 10750 ] final -108.46 input  -60.55 | X-H torsion
[ 11005 11000 10999 10996 ] final  -51.00 input  -57.11 | X-H torsion

> <Gold.Protein.ActiveResidues>
 VAL166  LYS551  ARG553  GLY616  TRP617  ASP618  TYR619  PRO620  LYS621  CYS622 
 ASP623  PHE694  ASN695  SER759  ASP760  ASP761  ALA762  ILE779  LEU786  VAL792 
 PHE793  MET794  SER795  GLU796  ALA797  LYS798  CYS799  TRP800  GLU811  SER814 

> <Gold.Protein.RotatedAtoms>
  150.8639  134.7998  159.7103 H   0  0  0  0  0  0  0  0  0  0  0  0  # atno 6907 bound_to 6896
  152.4667  134.5055  159.9747 H   0  0  0  0  0  0  0  0  0  0  0  0  # atno 6908 bound_to 6896
  151.5154  133.3438  159.2928 H   0  0  0  0  0  0  0  0  0  0  0  0  # atno 6909 bound_to 6896
  144.7638  140.4242  143.5957 H   0  0  0  0  0  0  0  0  0  0  0  0  # atno 7974 bound_to 7965
  155.3517  140.0477  157.3046 H   0  0  0  0  0  0  0  0  0  0  0  0  # atno 8008 bound_to 7997
  154.5224  140.2229  155.8916 H   0  0  0  0  0  0  0  0  0  0  0  0  # atno 8009 bound_to 7997
  156.1703  140.3097  155.8968 H   0  0  0  0  0  0  0  0  0  0  0  0  # atno 8010 bound_to 7997
  139.4884  144.4265  151.9122 H   0  0  0  0  0  0  0  0  0  0  0  0  # atno 10167 bound_to 10162
  156.2683  130.4204  149.8465 H   0  0  0  0  0  0  0  0  0  0  0  0  # atno 10718 bound_to 10713
  154.8136  135.4637  154.0583 H   0  0  0  0  0  0  0  0  0  0  0  0  # atno 10763 bound_to 10752
  153.1994  135.6866  153.8257 H   0  0  0  0  0  0  0  0  0  0  0  0  # atno 10764 bound_to 10752
  153.7747  135.3265  155.3334 H   0  0  0  0  0  0  0  0  0  0  0  0  # atno 10765 bound_to 10752
  141.0847  133.6645  156.3813 H   0  0  0  0  0  0  0  0  0  0  0  0  # atno 11005 bound_to 11000
  145.6536  139.1569  143.2848 LP  0  0  0  0  0  0  0  0  0  0  0  0  # atno 17320 bound_to 7965
  146.1726  140.6622  142.9226 LP  0  0  0  0  0  0  0  0  0  0  0  0  # atno 17321 bound_to 7965
  140.3711  144.2854  150.5920 LP  0  0  0  0  0  0  0  0  0  0  0  0  # atno 17342 bound_to 10162
  140.5318  143.2242  151.8227 LP  0  0  0  0  0  0  0  0  0  0  0  0  # atno 17343 bound_to 10162
  156.5956  130.8525  151.3419 LP  0  0  0  0  0  0  0  0  0  0  0  0  # atno 17370 bound_to 10713
  157.7275  130.9644  150.1702 LP  0  0  0  0  0  0  0  0  0  0  0  0  # atno 17371 bound_to 10713
  140.5390  134.6139  157.5374 LP  0  0  0  0  0  0  0  0  0  0  0  0  # atno 17394 bound_to 11000
  139.9664  134.7366  156.0130 LP  0  0  0  0  0  0  0  0  0  0  0  0  # atno 17395 bound_to 11000

$$$$
