AV-unprocessed.smi:3287|AV-procd|sdf|12593|dock10
  -GOLD-   2272018513D 1   1.00000     0.00000
 Structure written by MMmdl.
 43 44  0  0  0  0  0  0  0  0  2 V2000
  150.1672  141.5564  155.5932 C   0  0  0  0  0  0  0  0  0  0  0  0
  149.2381  140.8992  154.5594 C   0  0  1  0  0  0  0  0  0  0  0  0
  148.9449  139.4265  154.9061 C   0  0  0  0  0  0  0  0  0  0  0  0
  148.0858  138.7513  153.8248 C   0  0  0  0  0  0  0  0  0  0  0  0
  146.7755  139.5242  153.5680 C   0  0  2  0  0  0  0  0  0  0  0  0
  145.9938  138.9160  152.4687 N   0  3  0  0  0  0  0  0  0  0  0  0
  145.7066  137.4731  152.6178 C   0  0  0  0  0  0  0  0  0  0  0  0
  146.3057  136.6587  151.4580 C   0  0  2  0  0  0  0  0  0  0  0  0
  146.1590  137.3937  150.2582 O   0  0  0  0  0  0  0  0  0  0  0  0
  145.6577  135.2870  151.3602 C   0  0  0  0  0  0  0  0  0  0  0  0
  144.2671  135.1657  151.1558 C   0  0  0  0  0  0  0  0  0  0  0  0
  143.7098  133.8746  151.0633 C   0  0  0  0  0  0  0  0  0  0  0  0
  144.4403  132.7432  151.1586 N   0  0  0  0  0  0  0  0  0  0  0  0
  145.7708  132.8642  151.3522 C   0  0  0  0  0  0  0  0  0  0  0  0
  146.4268  134.1070  151.4581 C   0  0  0  0  0  0  0  0  0  0  0  0
  147.0823  140.9968  153.2299 C   0  0  0  0  0  0  0  0  0  0  0  0
  147.9315  141.6956  154.3126 C   0  0  1  0  0  0  0  0  0  0  0  0
  147.1117  141.9779  155.5881 C   0  0  0  0  0  0  0  0  0  0  0  0
  149.7430  141.5249  156.5968 H   0  0  0  0  0  0  0  0  0  0  0  0
  150.3607  142.5996  155.3423 H   0  0  0  0  0  0  0  0  0  0  0  0
  151.1294  141.0450  155.6315 H   0  0  0  0  0  0  0  0  0  0  0  0
  149.7874  140.8980  153.6164 H   0  0  0  0  0  0  0  0  0  0  0  0
  149.8820  138.8790  155.0139 H   0  0  0  0  0  0  0  0  0  0  0  0
  148.4430  139.3588  155.8716 H   0  0  0  0  0  0  0  0  0  0  0  0
  148.6602  138.6853  152.8997 H   0  0  0  0  0  0  0  0  0  0  0  0
  147.8760  137.7266  154.1309 H   0  0  0  0  0  0  0  0  0  0  0  0
  146.1611  139.4989  154.4688 H   0  0  0  0  0  0  0  0  0  0  0  0
  145.1018  139.3889  152.4279 H   0  0  0  0  0  0  0  0  0  0  0  0
  146.1281  137.1207  153.5593 H   0  0  0  0  0  0  0  0  0  0  0  0
  144.6280  137.3178  152.6718 H   0  0  0  0  0  0  0  0  0  0  0  0
  147.3749  136.5233  151.6281 H   0  0  0  0  0  0  0  0  0  0  0  0
  145.2932  137.7737  150.2439 H   0  0  0  0  0  0  0  0  0  0  0  0
  143.6363  136.0385  151.0708 H   0  0  0  0  0  0  0  0  0  0  0  0
  142.6486  133.7478  150.9065 H   0  0  0  0  0  0  0  0  0  0  0  0
  146.3306  131.9433  151.4228 H   0  0  0  0  0  0  0  0  0  0  0  0
  147.4955  134.1478  151.6097 H   0  0  0  0  0  0  0  0  0  0  0  0
  147.6170  141.0425  152.2796 H   0  0  0  0  0  0  0  0  0  0  0  0
  146.1528  141.5468  153.0765 H   0  0  0  0  0  0  0  0  0  0  0  0
  148.2150  142.6696  153.9112 H   0  0  0  0  0  0  0  0  0  0  0  0
  146.8369  141.0640  156.1138 H   0  0  0  0  0  0  0  0  0  0  0  0
  146.1892  142.5072  155.3481 H   0  0  0  0  0  0  0  0  0  0  0  0
  147.6639  142.6068  156.2861 H   0  0  0  0  0  0  0  0  0  0  0  0
  146.4772  139.0727  151.5959 H   0  0  0  0  0  0  0  0  0  0  0  0
  1  2  1  0  0  0  0
  1 19  1  0  0  0  0
  1 20  1  0  0  0  0
  1 21  1  0  0  0  0
  2 17  1  0  0  0  0
  2  3  1  0  0  0  0
  2 22  1  0  0  0  0
  3  4  1  0  0  0  0
  3 23  1  0  0  0  0
  3 24  1  0  0  0  0
  4  5  1  0  0  0  0
  4 25  1  0  0  0  0
  4 26  1  0  0  0  0
  5  6  1  0  0  0  0
  5 16  1  0  0  0  0
  5 27  1  0  0  0  0
  6  7  1  0  0  0  0
  6 28  1  0  0  0  0
  6 43  1  0  0  0  0
  7  8  1  0  0  0  0
  7 29  1  0  0  0  0
  7 30  1  0  0  0  0
  8  9  1  0  0  0  0
  8 10  1  0  0  0  0
  8 31  1  0  0  0  0
  9 32  1  0  0  0  0
 10 15  1  0  0  0  0
 10 11  2  0  0  0  0
 11 12  1  0  0  0  0
 11 33  1  0  0  0  0
 12 13  2  0  0  0  0
 12 34  1  0  0  0  0
 13 14  1  0  0  0  0
 14 15  2  0  0  0  0
 14 35  1  0  0  0  0
 15 36  1  0  0  0  0
 16 17  1  0  0  0  0
 16 37  1  0  0  0  0
 16 38  1  0  0  0  0
 17 18  1  0  0  0  0
 17 39  1  0  0  0  0
 18 40  1  0  0  0  0
 18 41  1  0  0  0  0
 18 42  1  0  0  0  0
M  CHG  1   6   1
M  END
> <s_m_source_file>
AV-unprocessed.smi

> <i_m_source_file_index>
3287

> <i_lp_mmshare_version>
43012

> <i_f3d_flags>
0

> <s_epik_input>
W0NIM11bQ0BASF0xW0NIMl1bQ0gyXVtDQEhdKFtDSDJdW0NASF0xW0NIM10pW05IXVtDSDJdW0NASF0oW09IXSljMltjSF1bY0hdbltjSF1bY0hdMg==

> <s_epik_cmdline>
J2VwaWtfcHl0aG9uJywgJy1waCcsICc3LjAnLCAnLXRuJywgJzgnLCAnLW1hJywgJzIwMCcsICctbWV0YWxfYmluZGluZycsICctaW1hZScsICc8aW5maWxlLm1hZT4nLCAnLW9tYWUnLCAnPG91dGZpbGUubWFlPic=

> <r_lp_tautomer_probability>
1

> <r_epik_Ionization_Penalty>
0.00537262

> <r_epik_Ionization_Penalty_Charging>
0.00321624

> <r_epik_Ionization_Penalty_Neutral>
0.00215638

> <r_epik_State_Penalty>
-0

> <r_epik_Charging_Adjusted_Penalty>
0.00321624

> <i_epik_Tot_Q>
1

> <i_epik_Tot_abs_Q>
1

> <r_epik_Metal_State_Penalty>
-0

> <b_epik_Metal_Only>
0

> <s_lp_Force_Field>
OPLS_2005

> <r_lp_Energy>
18.3798

> <b_lp_Chiralities_Consistent>
1

> <s_lp_Variant>
AV-unprocessed.smi:3287-4

> <Gold.Version>
5.8.1

> <Gold.Id.Protein>
6NUR|6NUR_protein|mol2

> <Gold.PLP.Fitness>
46.8635

> <Gold.PLP.PLP>
-32.3385

> <Gold.PLP.part.hbond>
-3.0000

> <Gold.PLP.part.metal>
0.0000

> <Gold.PLP.part.buried>
-0.8241

> <Gold.PLP.part.nonpolar>
-28.0243

> <Gold.PLP.part.repulsive>
0.1503

> <Gold.PLP.ligand.clash>
0.0000

> <Gold.PLP.ligand.torsion>
0.5865

> <Gold.PLP.Chemscore.Hbond>
3.5888

> <Gold.PLP.Chemscore.CHOScore>
1.6374

> <Gold.PLP.Chemscore.Metal>
0.0000

> <Gold.Chemscore.Hbonds>
donor molecule, donor type, donor heavy atom, donor atom, acceptor molecule, acceptor atom, score
      L1  H     6    28       P1 10175  2.00
      L1  H     9    32       P1 10171  1.00
      P1  H  7954  7966       L1     9  0.66
      L1  C    12    34       P1 10186  1.00

> <Gold.PLP.Chemscore.Internal.Correction>
0.0196

> <Gold.Rescore>
     Score         DG    S(hbond)    S(metal)    S(lipo)     H(rot)  DE(clash)    DE(int)     intcor
     18.12     -20.43       2.73        0.00      91.58       1.90       1.67       0.63       ----

> <Gold.Chemscore.Fitness>
18.1230

> <Gold.Chemscore.DG>
-20.4299

> <Gold.Chemscore.ZeroCoef>
-5.4800

> <Gold.Chemscore.Hbond>
2.7268

> <Gold.Chemscore.Metal>
0.0000

> <Gold.Chemscore.Lipo>
91.5841

> <Gold.Chemscore.Internal_Hbond>
0.0000

> <Gold.Chemscore.DEClash>
1.6739

> <Gold.Chemscore.DEInternal>
0.6330

> <Gold.Chemscore.Rot>
1.9035

> <Gold.Chemscore.Internal.Correction>
   9.000000E+99

> <Gold.Chemscore.Hbonds>
donor molecule, donor type, donor heavy atom, donor atom, acceptor molecule, acceptor atom, score
      L1  H     6    28       P1 10175  1.00
      L1  H     9    32       P1 10171  1.00
      P1  H  7954  7966       L1     9  0.17

> <Gold.Chemscore.Hbond.Weighted>
-9.1074

> <Gold.Chemscore.Metal.Weighted>
-0.0000

> <Gold.Chemscore.Lipo.Weighted>
-10.7153

> <Gold.Chemscore.Internal_Hbond.Weighted>
0.0000

> <Gold.Chemscore.DEClash.Weighted>
1.6739

> <Gold.Chemscore.DEInternal.Weighted>
0.6330

> <Gold.Chemscore.Rot.Weighted>
4.8729

> <Gold.Chemscore.Internal.Correction.Weighted>
   9.000000E+99

> <Gold.Protein.RotatedTorsions>
[ 6907 6896 6895 6894 ] final  179.82 input  -60.11 | X-H torsion
[ 7974 7965 7964 7962 ] final  -31.55 input  175.53 | X-H torsion
[ 8008 7997 7996 7995 ] final   71.05 input   59.86 | X-H torsion
[ 10167 10162 10161 10158 ] final   21.84 input  -65.29 | X-H torsion
[ 10718 10713 10712 10709 ] final   51.03 input   66.30 | X-H torsion
[ 10763 10752 10751 10750 ] final  -52.16 input  -60.55 | X-H torsion
[ 11005 11000 10999 10996 ] final   71.74 input  -57.11 | X-H torsion

> <Gold.Protein.ActiveResidues>
 VAL166  LYS551  ARG553  GLY616  TRP617  ASP618  TYR619  PRO620  LYS621  CYS622 
 ASP623  PHE694  ASN695  SER759  ASP760  ASP761  ALA762  ILE779  LEU786  VAL792 
 PHE793  MET794  SER795  GLU796  ALA797  LYS798  CYS799  TRP800  GLU811  SER814 

> <Gold.Protein.RotatedAtoms>
  151.6655  133.3315  159.3183 H   0  0  0  0  0  0  0  0  0  0  0  0  # atno 6907 bound_to 6896
  150.7893  134.6907  159.6505 H   0  0  0  0  0  0  0  0  0  0  0  0  # atno 6908 bound_to 6896
  152.3969  134.6354  160.0137 H   0  0  0  0  0  0  0  0  0  0  0  0  # atno 6909 bound_to 6896
  146.1058  140.5682  142.8800 H   0  0  0  0  0  0  0  0  0  0  0  0  # atno 7974 bound_to 7965
  155.7480  140.3489  155.5136 H   0  0  0  0  0  0  0  0  0  0  0  0  # atno 8008 bound_to 7997
  155.9031  140.1037  157.1356 H   0  0  0  0  0  0  0  0  0  0  0  0  # atno 8009 bound_to 7997
  154.4046  140.1282  156.4449 H   0  0  0  0  0  0  0  0  0  0  0  0  # atno 8010 bound_to 7997
  140.5396  143.9701  150.6511 H   0  0  0  0  0  0  0  0  0  0  0  0  # atno 10167 bound_to 10162
  157.4941  130.8395  149.8238 H   0  0  0  0  0  0  0  0  0  0  0  0  # atno 10718 bound_to 10713
  154.1382  135.6509  153.4936 H   0  0  0  0  0  0  0  0  0  0  0  0  # atno 10763 bound_to 10752
  153.0174  135.5309  154.6931 H   0  0  0  0  0  0  0  0  0  0  0  0  # atno 10764 bound_to 10752
  154.6185  135.2962  155.0323 H   0  0  0  0  0  0  0  0  0  0  0  0  # atno 10765 bound_to 10752
  139.9527  134.7198  156.0824 H   0  0  0  0  0  0  0  0  0  0  0  0  # atno 11005 bound_to 11000
  144.7470  140.5093  143.6829 LP  0  0  0  0  0  0  0  0  0  0  0  0  # atno 17320 bound_to 7965
  145.5763  139.1486  143.3260 LP  0  0  0  0  0  0  0  0  0  0  0  0  # atno 17321 bound_to 7965
  140.3098  143.3206  152.0890 LP  0  0  0  0  0  0  0  0  0  0  0  0  # atno 17342 bound_to 10162
  139.4983  144.6644  151.6391 LP  0  0  0  0  0  0  0  0  0  0  0  0  # atno 17343 bound_to 10162
  156.0190  130.3802  150.2019 LP  0  0  0  0  0  0  0  0  0  0  0  0  # atno 17370 bound_to 10713
  157.0208  130.9979  151.3340 LP  0  0  0  0  0  0  0  0  0  0  0  0  # atno 17371 bound_to 10713
  141.1193  133.6617  156.3175 LP  0  0  0  0  0  0  0  0  0  0  0  0  # atno 17394 bound_to 11000
  140.5680  134.5868  157.5450 LP  0  0  0  0  0  0  0  0  0  0  0  0  # atno 17395 bound_to 11000

$$$$
