#       Name:                AV-unprocessed.smi:3317
#       Creating user name   scv26
#       Creation time:       Fri Mar 27 19:09:57 2020


#       File generated by GOLD software.
#

@<TRIPOS>MOLECULE
AV-unprocessed.smi:3317
    43    44     1
SMALL
NO_CHARGES


@<TRIPOS>ATOM
      1 ****        -2.6221  -2.9808  -0.6608 C.3            1 S1                 0.0000
      2 ****        -2.0509  -1.6849  -0.7653 O.3            1 S1                 0.0000
      3 ****        -2.9002  -0.6058  -0.9153 C.ar           1 S1                 0.0000
      4 ****        -4.3133  -0.7197  -0.9575 C.ar           1 S1                 0.0000
      5 ****        -5.0943   0.4384  -1.1125 C.ar           1 S1                 0.0000
      6 ****        -4.4354   1.6740  -1.2207 C.ar           1 S1                 0.0000
      7 ****        -3.0942   1.7967  -1.1837 N.ar           1 S1                 0.0000
      8 ****        -2.3278   0.6876  -1.0340 C.ar           1 S1                 0.0000
      9 ****        -0.9076   0.7314  -0.9882 N.am           1 S1                 0.0000
     10 ****        -0.0940   1.8018  -1.0609 C.2            1 S1                 0.0000
     11 ****        -0.4734   2.9650  -1.1943 O.2            1 S1                 0.0000
     12 ****         1.4039   1.5065  -0.9907 C.3            1 S1                 0.0000
     13 ****         1.6366   0.5061  -0.0081 O.3            1 S1                 0.0000
     14 ****         3.0021   0.1369   0.1313 C.3            1 S1                 0.0000
     15 ****         3.0520  -1.1877   0.8928 C.3            1 S1                 0.0000
     16 ****         2.9072  -0.8085   2.3708 C.3            1 S1                 0.0000
     17 ****         3.3692   0.6522   2.4862 C.3            1 S1                 0.0000
     18 ****         3.7401   1.1008   1.0677 C.3            1 S1                 0.0000
     19 ****        -1.8257  -3.7158  -0.5446 H              1 S1                 0.0000
     20 ****        -3.1828  -3.2420  -1.5594 H              1 S1                 0.0000
     21 ****        -3.2742  -3.0622   0.2098 H              1 S1                 0.0000
     22 ****        -4.8150  -1.6718  -0.8737 H              1 S1                 0.0000
     23 ****        -6.1721   0.3804  -1.1477 H              1 S1                 0.0000
     24 ****        -4.9989   2.5874  -1.3407 H              1 S1                 0.0000
     25 ****        -0.4528  -0.1633  -0.8770 H              1 S1                 0.0000
     26 ****         1.7408   1.1639  -1.9700 H              1 S1                 0.0000
     27 ****         1.9456   2.4227  -0.7535 H              1 S1                 0.0000
     28 ****         3.4830   0.0464  -0.8443 H              1 S1                 0.0000
     29 ****         2.2907  -1.8952   0.5622 H              1 S1                 0.0000
     30 ****         4.0243  -1.6563   0.7355 H              1 S1                 0.0000
     31 ****         1.8629  -0.8873   2.6755 H              1 S1                 0.0000
     32 ****         3.4855  -1.4739   3.0124 H              1 S1                 0.0000
     33 ****         2.5551   1.2662   2.8734 H              1 S1                 0.0000
     34 ****         4.2123   0.7601   3.1691 H              1 S1                 0.0000
     35 ****         4.8148   0.9803   0.9252 H              1 S1                 0.0000
     36 ****         3.5091   2.1506   0.8892 H              1 S1                 0.0000
     37 ****        -1.4401  -1.6934  -1.5570 LP             1 S1                 0.0000
     38 ****        -1.5172  -1.5285   0.0658 LP             1 S1                 0.0000
     39 ****        -2.6676   2.6974  -1.2658 LP             1 S1                 0.0000
     40 ****        -1.4506   3.1682  -1.2568 LP             1 S1                 0.0000
     41 ****         0.1955   3.7069  -1.2401 LP             1 S1                 0.0000
     42 ****         1.1149  -0.3090  -0.2599 LP             1 S1                 0.0000
     43 ****         1.3126   0.8500   0.8733 LP             1 S1                 0.0000
@<TRIPOS>BOND
    1    1    2 1     
    2    1   19 1     
    3    1   20 1     
    4    1   21 1     
    5    2    3 1     
    6    3    8 ar    
    7    3    4 ar    
    8    4    5 ar    
    9    4   22 1     
   10    5    6 ar    
   11    5   23 1     
   12    6    7 ar    
   13    6   24 1     
   14    7    8 ar    
   15    8    9 1     
   16    9   10 am    
   17    9   25 1     
   18   10   11 2     
   19   10   12 1     
   20   12   13 1     
   21   12   26 1     
   22   12   27 1     
   23   13   14 1     
   24   14   18 1     
   25   14   15 1     
   26   14   28 1     
   27   15   16 1     
   28   15   29 1     
   29   15   30 1     
   30   16   17 1     
   31   16   31 1     
   32   16   32 1     
   33   17   18 1     
   34   17   33 1     
   35   17   34 1     
   36   18   35 1     
   37   18   36 1     
   38    2   37 1     
   39    2   38 1     
   40    7   39 1     
   41   11   40 1     
   42   11   41 1     
   43   13   42 1     
   44   13   43 1     
@<TRIPOS>SUBSTRUCTURE
      1 S1             1
@<TRIPOS>SET
LONE_PAIRS      STATIC     ATOMS    <user>   **** ""
7 37 38 39 40 41 42 43
DONOR_HYDROGENS      STATIC     ATOMS    <user>   **** ""
1 25
ATOM$BLUE        STATIC     ATOMS    COLORGROUP SYSTEM
7 37 38 39 40 41 42 43
ATOM$RED        STATIC     ATOMS    COLORGROUP SYSTEM
1 25
