AV-unprocessed.smi:569|AV-procd|sdf|2960|dock5
  -GOLD-   2262023463D 1   1.00000     0.00000
 Structure written by MMmdl.
 37 38  0  0  0  0  0  0  0  0  1 V2000
  153.0869  142.5944  161.1646 C   0  0  0  0  0  0  0  0  0  0  0  0
  152.4325  143.1016  159.9256 C   0  0  0  0  0  0  0  0  0  0  0  0
  152.2100  142.3463  158.8472 N   0  0  0  0  0  0  0  0  0  0  0  0
  151.5823  143.0505  157.8146 C   0  0  0  0  0  0  0  0  0  0  0  0
  151.2382  142.3515  156.5300 C   0  0  0  0  0  0  0  0  0  0  0  0
  150.0533  141.4098  156.7500 C   0  0  0  0  0  0  0  0  0  0  0  0
  149.8843  140.8711  157.8436 O   0  0  0  0  0  0  0  0  0  0  0  0
  149.2328  141.2364  155.7025 N   0  0  0  0  0  0  0  0  0  0  0  0
  147.9822  140.4819  155.7095 C   0  0  2  0  0  0  0  0  0  0  0  0
  147.4082  140.4046  154.2822 C   0  0  0  0  0  0  0  0  0  0  0  0
  146.9171  141.7748  153.7787 C   0  0  0  0  0  0  0  0  0  0  0  0
  145.8923  142.4046  154.7423 C   0  0  2  0  0  0  0  0  0  0  0  0
  145.4265  143.7796  154.2432 C   0  0  0  0  0  0  0  0  0  0  0  0
  146.4691  142.4914  156.1687 C   0  0  0  0  0  0  0  0  0  0  0  0
  146.9545  141.1190  156.6690 C   0  0  0  0  0  0  0  0  0  0  0  0
  151.3429  144.3666  158.1281 C   0  0  0  0  0  0  0  0  0  0  0  0
  151.8797  144.7609  159.7373 S   0  0  0  0  0  0  0  0  0  0  0  0
  153.0012  141.5091  161.2252 H   0  0  0  0  0  0  0  0  0  0  0  0
  152.6132  143.0303  162.0443 H   0  0  0  0  0  0  0  0  0  0  0  0
  154.1431  142.8638  161.1646 H   0  0  0  0  0  0  0  0  0  0  0  0
  150.9842  143.0740  155.7536 H   0  0  0  0  0  0  0  0  0  0  0  0
  152.0901  141.7820  156.1552 H   0  0  0  0  0  0  0  0  0  0  0  0
  149.4629  141.7153  154.8442 H   0  0  0  0  0  0  0  0  0  0  0  0
  148.1976  139.4659  156.0454 H   0  0  0  0  0  0  0  0  0  0  0  0
  148.1547  140.0010  153.5970 H   0  0  0  0  0  0  0  0  0  0  0  0
  146.5747  139.7012  154.2698 H   0  0  0  0  0  0  0  0  0  0  0  0
  147.7674  142.4468  153.6545 H   0  0  0  0  0  0  0  0  0  0  0  0
  146.4741  141.6594  152.7890 H   0  0  0  0  0  0  0  0  0  0  0  0
  145.0180  141.7529  154.7738 H   0  0  0  0  0  0  0  0  0  0  0  0
  146.2574  144.4838  154.1891 H   0  0  0  0  0  0  0  0  0  0  0  0
  144.6733  144.2037  154.9078 H   0  0  0  0  0  0  0  0  0  0  0  0
  144.9850  143.7079  153.2488 H   0  0  0  0  0  0  0  0  0  0  0  0
  147.2950  143.2040  156.1922 H   0  0  0  0  0  0  0  0  0  0  0  0
  145.7133  142.8793  156.8523 H   0  0  0  0  0  0  0  0  0  0  0  0
  146.0968  140.4525  156.7671 H   0  0  0  0  0  0  0  0  0  0  0  0
  147.3742  141.2160  157.6710 H   0  0  0  0  0  0  0  0  0  0  0  0
  150.8737  145.1223  157.5159 H   0  0  0  0  0  0  0  0  0  0  0  0
  1  2  1  0  0  0  0
  1 18  1  0  0  0  0
  1 19  1  0  0  0  0
  1 20  1  0  0  0  0
  2 17  1  0  0  0  0
  2  3  2  0  0  0  0
  3  4  1  0  0  0  0
  4  5  1  0  0  0  0
  4 16  2  0  0  0  0
  5  6  1  0  0  0  0
  5 21  1  0  0  0  0
  5 22  1  0  0  0  0
  6  7  2  0  0  0  0
  6  8  1  0  0  0  0
  8  9  1  0  0  0  0
  8 23  1  0  0  0  0
  9 15  1  0  0  0  0
  9 10  1  0  0  0  0
  9 24  1  0  0  0  0
 10 11  1  0  0  0  0
 10 25  1  0  0  0  0
 10 26  1  0  0  0  0
 11 12  1  0  0  0  0
 11 27  1  0  0  0  0
 11 28  1  0  0  0  0
 12 13  1  0  0  0  0
 12 14  1  0  0  0  0
 12 29  1  0  0  0  0
 13 30  1  0  0  0  0
 13 31  1  0  0  0  0
 13 32  1  0  0  0  0
 14 15  1  0  0  0  0
 14 33  1  0  0  0  0
 14 34  1  0  0  0  0
 15 35  1  0  0  0  0
 15 36  1  0  0  0  0
 16 17  1  0  0  0  0
 16 37  1  0  0  0  0
M  END
> <s_m_source_file>
AV-unprocessed.smi

> <i_m_source_file_index>
569

> <i_lp_mmshare_version>
43012

> <i_f3d_flags>
0

> <s_epik_input>
W0NIM11jMW5jKFtjSF1zMSlbQ0gyXUMoPU8pW05IXVtDQEBIXTJbQ0gyXVtDSDJdW0NAQEhdKFtDSDNdKVtDSDJdW0NIMl0y

> <s_epik_cmdline>
J2VwaWtfcHl0aG9uJywgJy1waCcsICc3LjAnLCAnLXRuJywgJzgnLCAnLW1hJywgJzIwMCcsICctbWV0YWxfYmluZGluZycsICctaW1hZScsICc8aW5maWxlLm1hZT4nLCAnLW9tYWUnLCAnPG91dGZpbGUubWFlPic=

> <r_lp_tautomer_probability>
1

> <r_epik_Ionization_Penalty>
6.63234e-05

> <r_epik_Ionization_Penalty_Charging>
0

> <r_epik_Ionization_Penalty_Neutral>
6.63234e-05

> <r_epik_State_Penalty>
-0

> <r_epik_Charging_Adjusted_Penalty>
0

> <i_epik_Tot_Q>
0

> <i_epik_Tot_abs_Q>
0

> <r_epik_Metal_State_Penalty>
-0

> <b_epik_Metal_Only>
0

> <s_lp_Force_Field>
OPLS_2005

> <r_lp_Energy>
5.61603

> <b_lp_Chiralities_Consistent>
1

> <s_lp_Variant>
AV-unprocessed.smi:569-2

> <Gold.Version>
5.8.1

> <Gold.Id.Protein>
6NUR|6NUR_protein|mol2

> <Gold.PLP.Fitness>
37.2815

> <Gold.PLP.PLP>
-35.5220

> <Gold.PLP.part.hbond>
0.0000

> <Gold.PLP.part.metal>
0.0000

> <Gold.PLP.part.buried>
-6.1639

> <Gold.PLP.part.nonpolar>
-29.4042

> <Gold.PLP.part.repulsive>
0.1141

> <Gold.PLP.ligand.clash>
0.0000

> <Gold.PLP.ligand.torsion>
0.5429

> <Gold.PLP.Chemscore.Hbond>
0.0000

> <Gold.PLP.Chemscore.CHOScore>
0.9471

> <Gold.PLP.Chemscore.Metal>
0.0000

> <Gold.Chemscore.Hbonds>
donor molecule, donor type, donor heavy atom, donor atom, acceptor molecule, acceptor atom, score
      L1  C    16    37       P1  8028  0.55

> <Gold.PLP.Chemscore.Internal.Correction>
0.0042

> <Gold.Rescore>
     Score         DG    S(hbond)    S(metal)    S(lipo)     H(rot)  DE(clash)    DE(int)     intcor
     12.04     -13.95       0.00        0.00     100.01       1.26       0.18       1.73       ----

> <Gold.Chemscore.Fitness>
12.0352

> <Gold.Chemscore.DG>
-13.9500

> <Gold.Chemscore.ZeroCoef>
-5.4800

> <Gold.Chemscore.Hbond>
0.0000

> <Gold.Chemscore.Metal>
0.0000

> <Gold.Chemscore.Lipo>
100.0052

> <Gold.Chemscore.Internal_Hbond>
0.0000

> <Gold.Chemscore.DEClash>
0.1812

> <Gold.Chemscore.DEInternal>
1.7336

> <Gold.Chemscore.Rot>
1.2620

> <Gold.Chemscore.Internal.Correction>
   9.000000E+99

> <Gold.Chemscore.Hbond.Weighted>
-0.0000

> <Gold.Chemscore.Metal.Weighted>
-0.0000

> <Gold.Chemscore.Lipo.Weighted>
-11.7006

> <Gold.Chemscore.Internal_Hbond.Weighted>
0.0000

> <Gold.Chemscore.DEClash.Weighted>
0.1812

> <Gold.Chemscore.DEInternal.Weighted>
1.7336

> <Gold.Chemscore.Rot.Weighted>
3.2306

> <Gold.Chemscore.Internal.Correction.Weighted>
   9.000000E+99

> <Gold.Protein.RotatedTorsions>
[ 6907 6896 6895 6894 ] final  -91.14 input  -60.11 | X-H torsion
[ 7974 7965 7964 7962 ] final -100.38 input  175.53 | X-H torsion
[ 8008 7997 7996 7995 ] final  117.92 input   59.86 | X-H torsion
[ 10167 10162 10161 10158 ] final   -3.31 input  -65.29 | X-H torsion
[ 10718 10713 10712 10709 ] final   -4.76 input   66.30 | X-H torsion
[ 10763 10752 10751 10750 ] final -125.70 input  -60.55 | X-H torsion
[ 11005 11000 10999 10996 ] final   90.87 input  -57.11 | X-H torsion

> <Gold.Protein.ActiveResidues>
 VAL166  LYS551  ARG553  GLY616  TRP617  ASP618  TYR619  PRO620  LYS621  CYS622 
 ASP623  PHE694  ASN695  SER759  ASP760  ASP761  ALA762  ILE779  LEU786  VAL792 
 PHE793  MET794  SER795  GLU796  ALA797  LYS798  CYS799  TRP800  GLU811  SER814 

> <Gold.Protein.RotatedAtoms>
  150.6889  134.2324  159.4439 H   0  0  0  0  0  0  0  0  0  0  0  0  # atno 6907 bound_to 6896
  152.0273  134.9785  160.0581 H   0  0  0  0  0  0  0  0  0  0  0  0  # atno 6908 bound_to 6896
  152.1339  133.4389  159.4771 H   0  0  0  0  0  0  0  0  0  0  0  0  # atno 6909 bound_to 6896
  145.2953  140.9363  143.2855 H   0  0  0  0  0  0  0  0  0  0  0  0  # atno 7974 bound_to 7965
  156.2519  140.2886  156.0753 H   0  0  0  0  0  0  0  0  0  0  0  0  # atno 8008 bound_to 7997
  155.1626  140.0400  157.2863 H   0  0  0  0  0  0  0  0  0  0  0  0  # atno 8009 bound_to 7997
  154.6382  140.2516  155.7360 H   0  0  0  0  0  0  0  0  0  0  0  0  # atno 8010 bound_to 7997
  140.6885  143.6554  150.8313 H   0  0  0  0  0  0  0  0  0  0  0  0  # atno 10167 bound_to 10162
  156.7566  130.5256  149.5793 H   0  0  0  0  0  0  0  0  0  0  0  0  # atno 10718 bound_to 10713
  154.8738  135.4020  154.3310 H   0  0  0  0  0  0  0  0  0  0  0  0  # atno 10763 bound_to 10752
  153.4124  135.7021  153.6355 H   0  0  0  0  0  0  0  0  0  0  0  0  # atno 10764 bound_to 10752
  153.5052  135.3719  155.2530 H   0  0  0  0  0  0  0  0  0  0  0  0  # atno 10765 bound_to 10752
  139.8848  134.8640  156.3347 H   0  0  0  0  0  0  0  0  0  0  0  0  # atno 11005 bound_to 11000
  144.9139  139.4495  143.6574 LP  0  0  0  0  0  0  0  0  0  0  0  0  # atno 17320 bound_to 7965
  146.3171  139.7962  142.8975 LP  0  0  0  0  0  0  0  0  0  0  0  0  # atno 17321 bound_to 7965
  140.0264  143.5488  152.2779 LP  0  0  0  0  0  0  0  0  0  0  0  0  # atno 17342 bound_to 10162
  139.6265  144.7638  151.2626 LP  0  0  0  0  0  0  0  0  0  0  0  0  # atno 17343 bound_to 10162
  156.1366  130.6216  151.0409 LP  0  0  0  0  0  0  0  0  0  0  0  0  # atno 17370 bound_to 10713
  157.6753  131.0852  150.7509 LP  0  0  0  0  0  0  0  0  0  0  0  0  # atno 17371 bound_to 10713
  140.9699  133.7334  156.0520 LP  0  0  0  0  0  0  0  0  0  0  0  0  # atno 17394 bound_to 11000
  140.7884  134.3646  157.5471 LP  0  0  0  0  0  0  0  0  0  0  0  0  # atno 17395 bound_to 11000

$$$$
