AV-unprocessed.smi:49|AV-procd|sdf|469|dock3
  -GOLD-   2262016333D 1   1.00000     0.00000
 Structure written by MMmdl.
 28 29  0  0  0  0  0  0  0  0  2 V2000
  152.5879  143.4346  160.8675 C   0  0  0  0  0  0  0  0  0  0  0  0
  153.1298  143.0787  159.4787 C   0  0  0  0  0  0  0  0  0  0  0  0
  152.0408  142.9261  158.4688 C   0  0  0  0  0  0  0  0  0  0  0  0
  151.4874  141.7159  158.1544 N   0  0  0  0  0  0  0  0  0  0  0  0
  150.6284  142.0858  157.2063 C   0  0  0  0  0  0  0  0  0  0  0  0
  149.6872  141.1826  156.4661 C   0  0  2  0  0  0  0  0  0  0  0  0
  150.0627  140.9138  155.0073 C   0  0  0  0  0  0  0  0  0  0  0  0
  148.6972  140.7303  154.3523 C   0  0  2  0  0  0  0  0  0  0  0  0
  148.7399  140.9620  152.9605 O   0  0  0  0  0  0  0  0  0  0  0  0
  147.8166  141.7507  155.0831 C   0  0  0  0  0  0  0  0  0  0  0  0
  148.3954  141.9004  156.4337 N   0  3  0  0  0  0  0  0  0  0  0  0
  150.6688  143.3997  156.9727 N   0  0  0  0  0  0  0  0  0  0  0  0
  151.5920  143.9701  157.7745 N   0  0  0  0  0  0  0  0  0  0  0  0
  149.5524  140.2444  157.0066 H   0  0  0  0  0  0  0  0  0  0  0  0
  148.3298  139.7210  154.5431 H   0  0  0  0  0  0  0  0  0  0  0  0
  150.1186  143.9250  156.3081 H   0  0  0  0  0  0  0  0  0  0  0  0
  153.4008  143.5364  161.5870 H   0  0  0  0  0  0  0  0  0  0  0  0
  151.9116  142.6628  161.2363 H   0  0  0  0  0  0  0  0  0  0  0  0
  152.0415  144.3780  160.8466 H   0  0  0  0  0  0  0  0  0  0  0  0
  153.8218  143.8514  159.1421 H   0  0  0  0  0  0  0  0  0  0  0  0
  153.7035  142.1524  159.5317 H   0  0  0  0  0  0  0  0  0  0  0  0
  150.5561  141.7890  154.5801 H   0  0  0  0  0  0  0  0  0  0  0  0
  150.7291  140.0594  154.8851 H   0  0  0  0  0  0  0  0  0  0  0  0
  149.3336  140.3406  152.5665 H   0  0  0  0  0  0  0  0  0  0  0  0
  147.8636  142.7239  154.5919 H   0  0  0  0  0  0  0  0  0  0  0  0
  146.7710  141.4449  155.1241 H   0  0  0  0  0  0  0  0  0  0  0  0
  147.7747  141.5228  157.1351 H   0  0  0  0  0  0  0  0  0  0  0  0
  148.5571  142.8817  156.6128 H   0  0  0  0  0  0  0  0  0  0  0  0
  1  2  1  0  0  0  0
  1 17  1  0  0  0  0
  1 18  1  0  0  0  0
  1 19  1  0  0  0  0
  2 20  1  0  0  0  0
  2 21  1  0  0  0  0
  2  3  1  0  0  0  0
  3  4  1  0  0  0  0
  3 13  2  0  0  0  0
  4  5  2  0  0  0  0
  5  6  1  0  0  0  0
  5 12  1  0  0  0  0
  6 14  1  0  0  0  0
  6 11  1  0  0  0  0
  6  7  1  0  0  0  0
  7  8  1  0  0  0  0
  7 22  1  0  0  0  0
  7 23  1  0  0  0  0
  8 15  1  0  0  0  0
  8  9  1  0  0  0  0
  8 10  1  0  0  0  0
  9 24  1  0  0  0  0
 10 11  1  0  0  0  0
 10 25  1  0  0  0  0
 10 26  1  0  0  0  0
 11 27  1  0  0  0  0
 11 28  1  0  0  0  0
 12 13  1  0  0  0  0
 12 16  1  0  0  0  0
M  CHG  1  11   1
M  END
> <s_m_source_file>
AV-unprocessed.smi

> <i_m_source_file_index>
49

> <i_lp_mmshare_version>
43012

> <i_f3d_flags>
0

> <s_epik_input>
W0NIM11bQ0gyXWMxbmMobltuSF0xKVtDQEBIXTJbQ0gyXVtDQEBIXShbT0hdKVtDSDJdW05IXTI=

> <s_epik_cmdline>
J2VwaWtfcHl0aG9uJywgJy1waCcsICc3LjAnLCAnLXRuJywgJzgnLCAnLW1hJywgJzIwMCcsICctbWV0YWxfYmluZGluZycsICctaW1hZScsICc8aW5maWxlLm1hZT4nLCAnLW9tYWUnLCAnPG91dGZpbGUubWFlPic=

> <r_epik_Ionization_Penalty>
0.372103

> <r_epik_Ionization_Penalty_Charging>
0.0688988

> <r_epik_Ionization_Penalty_Neutral>
0.303204

> <r_epik_State_Penalty>
0.737493

> <r_epik_Charging_Adjusted_Penalty>
0.806392

> <i_epik_Tot_Q>
1

> <i_epik_Tot_abs_Q>
1

> <r_epik_Metal_State_Penalty>
1.01235

> <b_epik_Metal_Only>
0

> <s_lp_Force_Field>
OPLS_2005

> <r_lp_Energy>
17.8034

> <b_lp_Chiralities_Consistent>
1

> <s_lp_Variant>
AV-unprocessed.smi:49-7

> <Gold.Version>
5.8.1

> <Gold.Id.Protein>
6NUR|6NUR_protein|mol2

> <Gold.PLP.Fitness>
37.1842

> <Gold.PLP.PLP>
-25.7348

> <Gold.PLP.part.hbond>
-2.3525

> <Gold.PLP.part.metal>
0.0000

> <Gold.PLP.part.buried>
-3.2154

> <Gold.PLP.part.nonpolar>
-20.1873

> <Gold.PLP.part.repulsive>
0.1640

> <Gold.PLP.ligand.clash>
0.0000

> <Gold.PLP.ligand.torsion>
0.7160

> <Gold.PLP.Chemscore.Hbond>
4.2880

> <Gold.PLP.Chemscore.CHOScore>
0.0000

> <Gold.PLP.Chemscore.Metal>
0.0000

> <Gold.Chemscore.Hbonds>
donor molecule, donor type, donor heavy atom, donor atom, acceptor molecule, acceptor atom, score
      L1  H     9    24       P1  7957  0.50
      L1  H    11    28       P1  8028  1.49
      L1  H    12    16       P1  8028  1.00
      P1  H  8011  8017       L1     9  0.55

> <Gold.PLP.Chemscore.Internal.Correction>
0.0174

> <Gold.Rescore>
     Score         DG    S(hbond)    S(metal)    S(lipo)     H(rot)  DE(clash)    DE(int)     intcor
     14.02     -14.84       2.51        0.00      49.53       1.89       0.01       0.81       ----

> <Gold.Chemscore.Fitness>
14.0210

> <Gold.Chemscore.DG>
-14.8351

> <Gold.Chemscore.ZeroCoef>
-5.4800

> <Gold.Chemscore.Hbond>
2.5131

> <Gold.Chemscore.Metal>
0.0000

> <Gold.Chemscore.Lipo>
49.5314

> <Gold.Chemscore.Internal_Hbond>
0.0000

> <Gold.Chemscore.DEClash>
0.0090

> <Gold.Chemscore.DEInternal>
0.8051

> <Gold.Chemscore.Rot>
1.8883

> <Gold.Chemscore.Internal.Correction>
   9.000000E+99

> <Gold.Chemscore.Hbonds>
donor molecule, donor type, donor heavy atom, donor atom, acceptor molecule, acceptor atom, score
      L1  H     9    24       P1  7957  0.49
      L1  H    11    28       P1  8028  0.61
      L1  H    12    16       P1  8028  0.98
      P1  H  8011  8017       L1     9  0.03

> <Gold.Chemscore.Hbond.Weighted>
-8.3939

> <Gold.Chemscore.Metal.Weighted>
-0.0000

> <Gold.Chemscore.Lipo.Weighted>
-5.7952

> <Gold.Chemscore.Internal_Hbond.Weighted>
0.0000

> <Gold.Chemscore.DEClash.Weighted>
0.0090

> <Gold.Chemscore.DEInternal.Weighted>
0.8051

> <Gold.Chemscore.Rot.Weighted>
4.8340

> <Gold.Chemscore.Internal.Correction.Weighted>
   9.000000E+99

> <Gold.Protein.RotatedTorsions>
[ 6907 6896 6895 6894 ] final  -95.84 input  -60.11 | X-H torsion
[ 7974 7965 7964 7962 ] final -150.44 input  175.53 | X-H torsion
[ 8008 7997 7996 7995 ] final  -77.95 input   59.86 | X-H torsion
[ 10167 10162 10161 10158 ] final   23.16 input  -65.29 | X-H torsion
[ 10718 10713 10712 10709 ] final   -6.56 input   66.30 | X-H torsion
[ 10763 10752 10751 10750 ] final  -58.10 input  -60.55 | X-H torsion
[ 11005 11000 10999 10996 ] final  112.14 input  -57.11 | X-H torsion

> <Gold.Protein.ActiveResidues>
 VAL166  LYS551  ARG553  GLY616  TRP617  ASP618  TYR619  PRO620  LYS621  CYS622 
 ASP623  PHE694  ASN695  SER759  ASP760  ASP761  ALA762  ILE779  LEU786  VAL792 
 PHE793  MET794  SER795  GLU796  ALA797  LYS798  CYS799  TRP800  GLU811  SER814 

> <Gold.Protein.RotatedAtoms>
  150.6973  134.1595  159.4170 H   0  0  0  0  0  0  0  0  0  0  0  0  # atno 6907 bound_to 6896
  151.9576  135.0137  160.0555 H   0  0  0  0  0  0  0  0  0  0  0  0  # atno 6908 bound_to 6896
  152.1955  133.4768  159.5067 H   0  0  0  0  0  0  0  0  0  0  0  0  # atno 6909 bound_to 6896
  144.7907  140.4931  143.5774 H   0  0  0  0  0  0  0  0  0  0  0  0  # atno 7974 bound_to 7965
  154.5643  140.0702  156.8868 H   0  0  0  0  0  0  0  0  0  0  0  0  # atno 8008 bound_to 7997
  155.2752  140.3368  155.4244 H   0  0  0  0  0  0  0  0  0  0  0  0  # atno 8009 bound_to 7997
  156.2068  140.1743  156.7768 H   0  0  0  0  0  0  0  0  0  0  0  0  # atno 8010 bound_to 7997
  140.5291  143.9873  150.6456 H   0  0  0  0  0  0  0  0  0  0  0  0  # atno 10167 bound_to 10162
  156.7300  130.5177  149.5848 H   0  0  0  0  0  0  0  0  0  0  0  0  # atno 10718 bound_to 10713
  154.2328  135.6357  153.5181 H   0  0  0  0  0  0  0  0  0  0  0  0  # atno 10763 bound_to 10752
  152.9945  135.5523  154.5994 H   0  0  0  0  0  0  0  0  0  0  0  0  # atno 10764 bound_to 10752
  154.5481  135.2899  155.1008 H   0  0  0  0  0  0  0  0  0  0  0  0  # atno 10765 bound_to 10752
  139.8920  134.9523  156.6540 H   0  0  0  0  0  0  0  0  0  0  0  0  # atno 11005 bound_to 11000
  145.5801  139.1488  143.3240 LP  0  0  0  0  0  0  0  0  0  0  0  0  # atno 17320 bound_to 7965
  146.2158  140.5931  142.9039 LP  0  0  0  0  0  0  0  0  0  0  0  0  # atno 17321 bound_to 7965
  140.3243  143.3118  152.0753 LP  0  0  0  0  0  0  0  0  0  0  0  0  # atno 17342 bound_to 10162
  139.4948  144.6553  151.6586 LP  0  0  0  0  0  0  0  0  0  0  0  0  # atno 17343 bound_to 10162
  156.1535  130.6326  151.0627 LP  0  0  0  0  0  0  0  0  0  0  0  0  # atno 17370 bound_to 10713
  157.6863  131.0824  150.7234 LP  0  0  0  0  0  0  0  0  0  0  0  0  # atno 17371 bound_to 10713
  140.7498  133.8906  155.8339 LP  0  0  0  0  0  0  0  0  0  0  0  0  # atno 17394 bound_to 11000
  141.0009  134.1151  157.4318 LP  0  0  0  0  0  0  0  0  0  0  0  0  # atno 17395 bound_to 11000

$$$$
