AV-unprocessed.smi:1372|AV-procd|sdf|5582|dock3
  -GOLD-   22720 5183D 1   1.00000     0.00000
 Structure written by MMmdl.
 41 43  0  0  0  0  0  0  0  0  1 V2000
  151.6232  137.6684  157.6083 C   0  0  0  0  0  0  0  0  0  0  0  0
  152.5081  137.5476  156.0007 S   0  0  0  0  0  0  0  0  0  0  0  0
  153.9208  137.2433  156.2754 O   0  0  0  0  0  0  0  0  0  0  0  0
  151.7335  136.6681  155.1121 O   0  0  0  0  0  0  0  0  0  0  0  0
  152.3865  139.2835  155.3763 C   0  0  0  0  0  0  0  0  0  0  0  0
  150.9829  139.6434  154.9731 C   0  0  0  0  0  0  0  0  0  0  0  0
  150.2221  138.8435  154.2227 N   0  0  0  0  0  0  0  0  0  0  0  0
  149.0442  139.5530  154.1067 C   0  0  0  0  0  0  0  0  0  0  0  0
  147.8398  139.2327  153.4403 C   0  0  0  0  0  0  0  0  0  0  0  0
  146.7532  140.1318  153.4589 C   0  0  0  0  0  0  0  0  0  0  0  0
  146.8560  141.3613  154.1415 C   0  0  0  0  0  0  0  0  0  0  0  0
  148.0479  141.6992  154.8109 C   0  0  0  0  0  0  0  0  0  0  0  0
  149.1284  140.7971  154.7906 C   0  0  0  0  0  0  0  0  0  0  0  0
  150.4086  140.8210  155.3353 N   0  0  0  0  0  0  0  0  0  0  0  0
  150.9710  141.9117  156.1221 C   0  0  0  0  0  0  0  0  0  0  0  0
  151.4811  141.4433  157.5005 C   0  0  2  0  0  0  0  0  0  0  0  0
  150.5561  140.5093  158.0192 O   0  0  0  0  0  0  0  0  0  0  0  0
  151.7333  142.6004  158.4576 C   0  0  0  0  0  0  0  0  0  0  0  0
  151.4610  143.9230  158.0467 C   0  0  0  0  0  0  0  0  0  0  0  0
  151.6741  144.9995  158.9290 C   0  0  0  0  0  0  0  0  0  0  0  0
  152.1551  144.7599  160.2304 C   0  0  0  0  0  0  0  0  0  0  0  0
  152.4270  143.4431  160.6476 C   0  0  0  0  0  0  0  0  0  0  0  0
  152.2193  142.3665  159.7637 C   0  0  0  0  0  0  0  0  0  0  0  0
  151.6284  136.6944  158.0973 H   0  0  0  0  0  0  0  0  0  0  0  0
  150.5932  137.9793  157.4346 H   0  0  0  0  0  0  0  0  0  0  0  0
  152.1221  138.3967  158.2472 H   0  0  0  0  0  0  0  0  0  0  0  0
  152.7359  139.9326  156.1751 H   0  0  0  0  0  0  0  0  0  0  0  0
  153.0568  139.3989  154.5251 H   0  0  0  0  0  0  0  0  0  0  0  0
  147.7524  138.2933  152.9148 H   0  0  0  0  0  0  0  0  0  0  0  0
  145.8371  139.8771  152.9465 H   0  0  0  0  0  0  0  0  0  0  0  0
  146.0195  142.0448  154.1507 H   0  0  0  0  0  0  0  0  0  0  0  0
  148.1300  142.6397  155.3349 H   0  0  0  0  0  0  0  0  0  0  0  0
  151.7540  142.4199  155.5597 H   0  0  0  0  0  0  0  0  0  0  0  0
  150.1809  142.6515  156.2585 H   0  0  0  0  0  0  0  0  0  0  0  0
  152.4167  140.8988  157.3667 H   0  0  0  0  0  0  0  0  0  0  0  0
  150.1720  140.8731  158.8024 H   0  0  0  0  0  0  0  0  0  0  0  0
  151.0791  144.1156  157.0546 H   0  0  0  0  0  0  0  0  0  0  0  0
  151.4597  146.0088  158.6099 H   0  0  0  0  0  0  0  0  0  0  0  0
  152.3121  145.5857  160.9085 H   0  0  0  0  0  0  0  0  0  0  0  0
  152.7929  143.2585  161.6468 H   0  0  0  0  0  0  0  0  0  0  0  0
  152.4245  141.3595  160.0965 H   0  0  0  0  0  0  0  0  0  0  0  0
  1  2  1  0  0  0  0
  1 24  1  0  0  0  0
  1 25  1  0  0  0  0
  1 26  1  0  0  0  0
  2  3  2  0  0  0  0
  2  4  2  0  0  0  0
  2  5  1  0  0  0  0
  5  6  1  0  0  0  0
  5 27  1  0  0  0  0
  5 28  1  0  0  0  0
  6 14  1  0  0  0  0
  6  7  2  0  0  0  0
  7  8  1  0  0  0  0
  8 13  2  0  0  0  0
  8  9  1  0  0  0  0
  9 10  2  0  0  0  0
  9 29  1  0  0  0  0
 10 11  1  0  0  0  0
 10 30  1  0  0  0  0
 11 12  2  0  0  0  0
 11 31  1  0  0  0  0
 12 13  1  0  0  0  0
 12 32  1  0  0  0  0
 13 14  1  0  0  0  0
 14 15  1  0  0  0  0
 15 16  1  0  0  0  0
 15 33  1  0  0  0  0
 15 34  1  0  0  0  0
 16 17  1  0  0  0  0
 16 18  1  0  0  0  0
 16 35  1  0  0  0  0
 17 36  1  0  0  0  0
 18 23  1  0  0  0  0
 18 19  2  0  0  0  0
 19 20  1  0  0  0  0
 19 37  1  0  0  0  0
 20 21  2  0  0  0  0
 20 38  1  0  0  0  0
 21 22  1  0  0  0  0
 21 39  1  0  0  0  0
 22 23  2  0  0  0  0
 22 40  1  0  0  0  0
 23 41  1  0  0  0  0
M  END
> <s_m_source_file>
AV-unprocessed.smi

> <i_m_source_file_index>
1372

> <i_lp_mmshare_version>
43012

> <i_f3d_flags>
0

> <s_epik_input>
W2NIXTFbY0hdW2NIXVtjSF1jKGMxMiluKGMobjIpW0NIMl1TKD1PKSg9TylbQ0gzXSlbQ0gyXVtDQEhdKFtPSF0pYzNbY0hdW2NIXVtjSF1bY0hdW2NIXTM=

> <s_epik_cmdline>
J2VwaWtfcHl0aG9uJywgJy1waCcsICc3LjAnLCAnLXRuJywgJzgnLCAnLW1hJywgJzIwMCcsICctbWV0YWxfYmluZGluZycsICctaW1hZScsICc8aW5maWxlLm1hZT4nLCAnLW9tYWUnLCAnPG91dGZpbGUubWFlPic=

> <r_epik_Ionization_Penalty>
0.0151431

> <r_epik_Ionization_Penalty_Charging>
0

> <r_epik_Ionization_Penalty_Neutral>
0.0151431

> <r_epik_State_Penalty>
0.0118835

> <r_epik_Charging_Adjusted_Penalty>
0.0118835

> <i_epik_Tot_Q>
0

> <i_epik_Tot_abs_Q>
0

> <r_epik_Metal_State_Penalty>
1.20034e-05

> <b_epik_Metal_Only>
0

> <s_lp_Force_Field>
OPLS_2005

> <r_lp_Energy>
10.1971

> <b_lp_Chiralities_Consistent>
1

> <s_lp_Variant>
AV-unprocessed.smi:1372-1

> <Gold.Version>
5.8.1

> <Gold.Id.Protein>
6NUR|6NUR_protein|mol2

> <Gold.PLP.Fitness>
51.9735

> <Gold.PLP.PLP>
-49.3028

> <Gold.PLP.part.hbond>
-2.0000

> <Gold.PLP.part.metal>
0.0000

> <Gold.PLP.part.buried>
-2.2826

> <Gold.PLP.part.nonpolar>
-44.4228

> <Gold.PLP.part.repulsive>
0.2838

> <Gold.PLP.ligand.clash>
0.0000

> <Gold.PLP.ligand.torsion>
0.4990

> <Gold.PLP.Chemscore.Hbond>
1.1854

> <Gold.PLP.Chemscore.CHOScore>
0.0000

> <Gold.PLP.Chemscore.Metal>
0.0000

> <Gold.Chemscore.Hbonds>
donor molecule, donor type, donor heavy atom, donor atom, acceptor molecule, acceptor atom, score
      P1  H 10752 10763       L1     4  1.00
      P1  H 10752 10764       L1     3  0.19

> <Gold.PLP.Chemscore.Internal.Correction>
0.1123

> <Gold.Rescore>
     Score         DG    S(hbond)    S(metal)    S(lipo)     H(rot)  DE(clash)    DE(int)     intcor
     16.38     -18.01       0.90        0.00     132.44       2.33       0.06       1.57       ----

> <Gold.Chemscore.Fitness>
16.3828

> <Gold.Chemscore.DG>
-18.0136

> <Gold.Chemscore.ZeroCoef>
-5.4800

> <Gold.Chemscore.Hbond>
0.8996

> <Gold.Chemscore.Metal>
0.0000

> <Gold.Chemscore.Lipo>
132.4392

> <Gold.Chemscore.Internal_Hbond>
0.0000

> <Gold.Chemscore.DEClash>
0.0614

> <Gold.Chemscore.DEInternal>
1.5694

> <Gold.Chemscore.Rot>
2.3306

> <Gold.Chemscore.Internal.Correction>
   9.000000E+99

> <Gold.Chemscore.Hbonds>
donor molecule, donor type, donor heavy atom, donor atom, acceptor molecule, acceptor atom, score
      P1  H 10752 10763       L1     4  0.43
      P1  H 10752 10764       L1     3  0.10

> <Gold.Chemscore.Hbond.Weighted>
-3.0046

> <Gold.Chemscore.Metal.Weighted>
-0.0000

> <Gold.Chemscore.Lipo.Weighted>
-15.4954

> <Gold.Chemscore.Internal_Hbond.Weighted>
0.0000

> <Gold.Chemscore.DEClash.Weighted>
0.0614

> <Gold.Chemscore.DEInternal.Weighted>
1.5694

> <Gold.Chemscore.Rot.Weighted>
5.9664

> <Gold.Chemscore.Internal.Correction.Weighted>
   9.000000E+99

> <Gold.Protein.RotatedTorsions>
[ 6907 6896 6895 6894 ] final  -45.83 input  -60.11 | X-H torsion
[ 7974 7965 7964 7962 ] final -131.91 input  175.53 | X-H torsion
[ 8008 7997 7996 7995 ] final  165.18 input   59.86 | X-H torsion
[ 10167 10162 10161 10158 ] final -132.22 input  -65.29 | X-H torsion
[ 10718 10713 10712 10709 ] final  138.39 input   66.30 | X-H torsion
[ 10763 10752 10751 10750 ] final   46.56 input  -60.55 | X-H torsion
[ 11005 11000 10999 10996 ] final -140.56 input  -57.11 | X-H torsion

> <Gold.Protein.ActiveResidues>
 VAL166  LYS551  ARG553  GLY616  TRP617  ASP618  TYR619  PRO620  LYS621  CYS622 
 ASP623  PHE694  ASN695  SER759  ASP760  ASP761  ALA762  ILE779  LEU786  VAL792 
 PHE793  MET794  SER795  GLU796  ALA797  LYS798  CYS799  TRP800  GLU811  SER814 

> <Gold.Protein.RotatedAtoms>
  150.9177  134.8595  159.7467 H   0  0  0  0  0  0  0  0  0  0  0  0  # atno 6907 bound_to 6896
  152.4977  134.4264  159.9507 H   0  0  0  0  0  0  0  0  0  0  0  0  # atno 6908 bound_to 6896
  151.4301  133.3633  159.2802 H   0  0  0  0  0  0  0  0  0  0  0  0  # atno 6909 bound_to 6896
  144.9335  140.7156  143.4891 H   0  0  0  0  0  0  0  0  0  0  0  0  # atno 7974 bound_to 7965
  156.1821  140.1677  156.8254 H   0  0  0  0  0  0  0  0  0  0  0  0  # atno 8008 bound_to 7997
  154.5372  140.0744  156.8481 H   0  0  0  0  0  0  0  0  0  0  0  0  # atno 8009 bound_to 7997
  155.3287  140.3378  155.4242 H   0  0  0  0  0  0  0  0  0  0  0  0  # atno 8010 bound_to 7997
  139.9108  143.6496  152.2576 H   0  0  0  0  0  0  0  0  0  0  0  0  # atno 10167 bound_to 10162
  157.4258  131.1043  151.0304 H   0  0  0  0  0  0  0  0  0  0  0  0  # atno 10718 bound_to 10713
  152.9809  135.6004  154.3620 H   0  0  0  0  0  0  0  0  0  0  0  0  # atno 10763 bound_to 10752
  154.3301  135.2768  155.2478 H   0  0  0  0  0  0  0  0  0  0  0  0  # atno 10764 bound_to 10752
  154.4606  135.5967  153.6308 H   0  0  0  0  0  0  0  0  0  0  0  0  # atno 10765 bound_to 10752
  140.8410  134.2402  157.4810 H   0  0  0  0  0  0  0  0  0  0  0  0  # atno 11005 bound_to 11000
  145.3104  139.1820  143.4642 LP  0  0  0  0  0  0  0  0  0  0  0  0  # atno 17320 bound_to 7965
  146.3257  140.3108  142.8626 LP  0  0  0  0  0  0  0  0  0  0  0  0  # atno 17321 bound_to 7965
  139.6944  144.7643  151.1382 LP  0  0  0  0  0  0  0  0  0  0  0  0  # atno 17342 bound_to 10162
  140.7686  143.5544  150.9169 LP  0  0  0  0  0  0  0  0  0  0  0  0  # atno 17343 bound_to 10162
  157.1218  130.6065  149.5507 LP  0  0  0  0  0  0  0  0  0  0  0  0  # atno 17370 bound_to 10713
  155.9896  130.4944  150.7220 LP  0  0  0  0  0  0  0  0  0  0  0  0  # atno 17371 bound_to 10713
  139.8703  134.9635  156.4465 LP  0  0  0  0  0  0  0  0  0  0  0  0  # atno 17394 bound_to 11000
  140.8895  133.7858  155.9556 LP  0  0  0  0  0  0  0  0  0  0  0  0  # atno 17395 bound_to 11000

$$$$
