AV-unprocessed.smi:783|AV-procd|sdf|3717|dock1
  -GOLD-   22720 1143D 1   1.00000     0.00000
 Structure written by MMmdl.
 45 46  0  0  0  0  0  0  0  0  1 V2000
  151.8497  144.1723  157.6040 C   0  0  0  0  0  0  0  0  0  0  0  0
  151.0034  143.7335  158.8167 C   0  0  1  0  0  0  0  0  0  0  0  0
  149.9562  142.6694  158.4541 C   0  0  0  0  0  0  0  0  0  0  0  0
  148.7595  142.8662  158.6684 O   0  0  0  0  0  0  0  0  0  0  0  0
  150.4292  141.5387  157.9065 N   0  0  0  0  0  0  0  0  0  0  0  0
  149.6310  140.3817  157.5003 C   0  0  0  0  0  0  0  0  0  0  0  0
  149.8484  139.9695  156.0114 C   0  0  0  0  0  0  0  0  0  0  0  0
  149.1344  140.9564  155.0245 C   0  0  0  0  0  0  0  0  0  0  0  0
  149.7991  141.4187  154.0937 O   0  0  0  0  0  0  0  0  0  0  0  0
  147.8296  141.3186  155.1610 N   0  0  0  0  0  0  0  0  0  0  0  0
  147.2181  142.1985  154.1588 C   0  0  0  0  0  0  0  0  0  0  0  0
  146.8938  140.9466  156.2257 C   0  0  0  0  0  0  0  0  0  0  0  0
  151.3758  139.9136  155.7261 C   0  0  0  0  0  0  0  0  0  0  0  0
  151.5735  138.9945  154.5162 C   0  0  0  0  0  0  0  0  0  0  0  0
  150.3651  138.0557  154.5229 C   0  0  0  0  0  0  0  0  0  0  0  0
  149.5078  138.4849  155.7211 C   0  0  0  0  0  0  0  0  0  0  0  0
  151.8234  143.2756  159.9326 N   0  0  0  0  0  0  0  0  0  0  0  0
  152.8146  142.3151  159.9164 C   0  0  0  0  0  0  0  0  0  0  0  0
  153.3414  142.2456  161.1742 C   0  0  0  0  0  0  0  0  0  0  0  0
  152.6091  143.2246  161.9012 C   0  0  0  0  0  0  0  0  0  0  0  0
  151.7101  143.8452  161.1554 N   0  0  0  0  0  0  0  0  0  0  0  0
  151.2168  144.5537  156.8019 H   0  0  0  0  0  0  0  0  0  0  0  0
  152.4407  143.3518  157.1950 H   0  0  0  0  0  0  0  0  0  0  0  0
  152.5397  144.9696  157.8815 H   0  0  0  0  0  0  0  0  0  0  0  0
  150.4617  144.6164  159.1609 H   0  0  0  0  0  0  0  0  0  0  0  0
  151.4269  141.4678  157.7700 H   0  0  0  0  0  0  0  0  0  0  0  0
  149.8396  139.5360  158.1578 H   0  0  0  0  0  0  0  0  0  0  0  0
  148.5947  140.6302  157.7092 H   0  0  0  0  0  0  0  0  0  0  0  0
  147.3226  141.7779  153.1574 H   0  0  0  0  0  0  0  0  0  0  0  0
  147.6944  143.1798  154.1689 H   0  0  0  0  0  0  0  0  0  0  0  0
  146.1515  142.3502  154.3305 H   0  0  0  0  0  0  0  0  0  0  0  0
  147.3387  140.4779  157.0957 H   0  0  0  0  0  0  0  0  0  0  0  0
  146.1459  140.2580  155.8313 H   0  0  0  0  0  0  0  0  0  0  0  0
  146.3692  141.8300  156.5919 H   0  0  0  0  0  0  0  0  0  0  0  0
  151.8441  140.8881  155.5817 H   0  0  0  0  0  0  0  0  0  0  0  0
  151.8902  139.4647  156.5773 H   0  0  0  0  0  0  0  0  0  0  0  0
  151.5884  139.5766  153.5939 H   0  0  0  0  0  0  0  0  0  0  0  0
  152.5171  138.4513  154.5761 H   0  0  0  0  0  0  0  0  0  0  0  0
  149.8036  138.1696  153.5947 H   0  0  0  0  0  0  0  0  0  0  0  0
  150.6601  137.0087  154.6006 H   0  0  0  0  0  0  0  0  0  0  0  0
  149.7830  137.8786  156.5853 H   0  0  0  0  0  0  0  0  0  0  0  0
  148.4607  138.2705  155.5258 H   0  0  0  0  0  0  0  0  0  0  0  0
  153.0607  141.7664  159.0193 H   0  0  0  0  0  0  0  0  0  0  0  0
  154.1331  141.5982  161.5211 H   0  0  0  0  0  0  0  0  0  0  0  0
  152.7066  143.5046  162.9397 H   0  0  0  0  0  0  0  0  0  0  0  0
  1  2  1  0  0  0  0
  1 22  1  0  0  0  0
  1 23  1  0  0  0  0
  1 24  1  0  0  0  0
  2  3  1  0  0  0  0
  2 17  1  0  0  0  0
  2 25  1  0  0  0  0
  3  4  2  0  0  0  0
  3  5  1  0  0  0  0
  5  6  1  0  0  0  0
  5 26  1  0  0  0  0
  6  7  1  0  0  0  0
  6 27  1  0  0  0  0
  6 28  1  0  0  0  0
  7 16  1  0  0  0  0
  7  8  1  0  0  0  0
  7 13  1  0  0  0  0
  8  9  2  0  0  0  0
  8 10  1  0  0  0  0
 10 11  1  0  0  0  0
 10 12  1  0  0  0  0
 11 29  1  0  0  0  0
 11 30  1  0  0  0  0
 11 31  1  0  0  0  0
 12 32  1  0  0  0  0
 12 33  1  0  0  0  0
 12 34  1  0  0  0  0
 13 14  1  0  0  0  0
 13 35  1  0  0  0  0
 13 36  1  0  0  0  0
 14 15  1  0  0  0  0
 14 37  1  0  0  0  0
 14 38  1  0  0  0  0
 15 16  1  0  0  0  0
 15 39  1  0  0  0  0
 15 40  1  0  0  0  0
 16 41  1  0  0  0  0
 16 42  1  0  0  0  0
 17 21  1  0  0  0  0
 17 18  1  0  0  0  0
 18 19  2  0  0  0  0
 18 43  1  0  0  0  0
 19 20  1  0  0  0  0
 19 44  1  0  0  0  0
 20 21  2  0  0  0  0
 20 45  1  0  0  0  0
M  END
> <s_m_source_file>
AV-unprocessed.smi

> <i_m_source_file_index>
783

> <i_lp_mmshare_version>
43012

> <i_f3d_flags>
0

> <s_epik_input>
bjFbY0hdW2NIXVtjSF1uMVtDQEhdKFtDSDNdKUMoPU8pW05IXVtDSDJdQzIoQyg9TylOKFtDSDNdKVtDSDNdKVtDSDJdW0NIMl1bQ0gyXVtDSDJdMg==

> <s_epik_cmdline>
J2VwaWtfcHl0aG9uJywgJy1waCcsICc3LjAnLCAnLXRuJywgJzgnLCAnLW1hJywgJzIwMCcsICctbWV0YWxfYmluZGluZycsICctaW1hZScsICc8aW5maWxlLm1hZT4nLCAnLW9tYWUnLCAnPG91dGZpbGUubWFlPic=

> <r_lp_tautomer_probability>
1

> <r_epik_Ionization_Penalty>
3.31274e-05

> <r_epik_Ionization_Penalty_Charging>
0

> <r_epik_Ionization_Penalty_Neutral>
3.31274e-05

> <r_epik_State_Penalty>
-0

> <r_epik_Charging_Adjusted_Penalty>
0

> <i_epik_Tot_Q>
0

> <i_epik_Tot_abs_Q>
0

> <r_epik_Metal_State_Penalty>
-0

> <b_epik_Metal_Only>
0

> <s_lp_Force_Field>
OPLS_2005

> <r_lp_Energy>
40.1786

> <b_lp_Chiralities_Consistent>
1

> <s_lp_Variant>
AV-unprocessed.smi:783-2

> <Gold.Version>
5.8.1

> <Gold.Id.Protein>
6NUR|6NUR_protein|mol2

> <Gold.PLP.Fitness>
44.5687

> <Gold.PLP.PLP>
-43.1537

> <Gold.PLP.part.hbond>
-2.1322

> <Gold.PLP.part.metal>
0.0000

> <Gold.PLP.part.buried>
-3.8588

> <Gold.PLP.part.nonpolar>
-37.3547

> <Gold.PLP.part.repulsive>
0.5866

> <Gold.PLP.ligand.clash>
0.0000

> <Gold.PLP.ligand.torsion>
0.8957

> <Gold.PLP.Chemscore.Hbond>
0.9436

> <Gold.PLP.Chemscore.CHOScore>
0.0000

> <Gold.PLP.Chemscore.Metal>
0.0000

> <Gold.Chemscore.Hbonds>
donor molecule, donor type, donor heavy atom, donor atom, acceptor molecule, acceptor atom, score
      P1  H  7989  7998       L1     9  0.29
      P1  H  8011  8017       L1     9  0.66

> <Gold.PLP.Chemscore.Internal.Correction>
0.3757

> <Gold.Rescore>
     Score         DG    S(hbond)    S(metal)    S(lipo)     H(rot)  DE(clash)    DE(int)     intcor
     14.30     -15.07       0.86        0.00      97.67       1.84       0.39       0.37       ----

> <Gold.Chemscore.Fitness>
14.3047

> <Gold.Chemscore.DG>
-15.0677

> <Gold.Chemscore.ZeroCoef>
-5.4800

> <Gold.Chemscore.Hbond>
0.8633

> <Gold.Chemscore.Metal>
0.0000

> <Gold.Chemscore.Lipo>
97.6680

> <Gold.Chemscore.Internal_Hbond>
0.0000

> <Gold.Chemscore.DEClash>
0.3924

> <Gold.Chemscore.DEInternal>
0.3706

> <Gold.Chemscore.Rot>
1.8449

> <Gold.Chemscore.Internal.Correction>
   9.000000E+99

> <Gold.Chemscore.Hbonds>
donor molecule, donor type, donor heavy atom, donor atom, acceptor molecule, acceptor atom, score
      P1  H  7989  7998       L1     9  0.28
      P1  H  8011  8017       L1     9  0.60

> <Gold.Chemscore.Hbond.Weighted>
-2.8834

> <Gold.Chemscore.Metal.Weighted>
-0.0000

> <Gold.Chemscore.Lipo.Weighted>
-11.4272

> <Gold.Chemscore.Internal_Hbond.Weighted>
0.0000

> <Gold.Chemscore.DEClash.Weighted>
0.3924

> <Gold.Chemscore.DEInternal.Weighted>
0.3706

> <Gold.Chemscore.Rot.Weighted>
4.7229

> <Gold.Chemscore.Internal.Correction.Weighted>
   9.000000E+99

> <Gold.Protein.RotatedTorsions>
[ 6907 6896 6895 6894 ] final   37.06 input  -60.11 | X-H torsion
[ 7974 7965 7964 7962 ] final -114.86 input  175.53 | X-H torsion
[ 8008 7997 7996 7995 ] final   90.97 input   59.86 | X-H torsion
[ 10167 10162 10161 10158 ] final  122.10 input  -65.29 | X-H torsion
[ 10718 10713 10712 10709 ] final -139.23 input   66.30 | X-H torsion
[ 10763 10752 10751 10750 ] final  117.57 input  -60.55 | X-H torsion
[ 11005 11000 10999 10996 ] final  -94.80 input  -57.11 | X-H torsion

> <Gold.Protein.ActiveResidues>
 VAL166  LYS551  ARG553  GLY616  TRP617  ASP618  TYR619  PRO620  LYS621  CYS622 
 ASP623  PHE694  ASN695  SER759  ASP760  ASP761  ALA762  ILE779  LEU786  VAL792 
 PHE793  MET794  SER795  GLU796  ALA797  LYS798  CYS799  TRP800  GLU811  SER814 

> <Gold.Protein.RotatedAtoms>
  152.1381  134.9084  160.0555 H   0  0  0  0  0  0  0  0  0  0  0  0  # atno 6907 bound_to 6896
  152.0162  133.3876  159.4248 H   0  0  0  0  0  0  0  0  0  0  0  0  # atno 6908 bound_to 6896
  150.6862  134.3597  159.4989 H   0  0  0  0  0  0  0  0  0  0  0  0  # atno 6909 bound_to 6896
  145.1152  140.8636  143.3846 H   0  0  0  0  0  0  0  0  0  0  0  0  # atno 7974 bound_to 7965
  156.0182  140.3343  155.7011 H   0  0  0  0  0  0  0  0  0  0  0  0  # atno 8008 bound_to 7997
  155.6060  140.0660  157.2737 H   0  0  0  0  0  0  0  0  0  0  0  0  # atno 8009 bound_to 7997
  154.4306  140.1802  156.1210 H   0  0  0  0  0  0  0  0  0  0  0  0  # atno 8010 bound_to 7997
  139.5879  144.7014  151.3363 H   0  0  0  0  0  0  0  0  0  0  0  0  # atno 10167 bound_to 10162
  156.3084  130.7468  151.1537 H   0  0  0  0  0  0  0  0  0  0  0  0  # atno 10718 bound_to 10713
  153.5543  135.3533  155.2773 H   0  0  0  0  0  0  0  0  0  0  0  0  # atno 10763 bound_to 10752
  154.8703  135.4121  154.2902 H   0  0  0  0  0  0  0  0  0  0  0  0  # atno 10764 bound_to 10752
  153.3634  135.7061  153.6763 H   0  0  0  0  0  0  0  0  0  0  0  0  # atno 10765 bound_to 10752
  141.1460  133.7981  157.0348 H   0  0  0  0  0  0  0  0  0  0  0  0  # atno 11005 bound_to 11000
  145.0802  139.2966  143.5787 LP  0  0  0  0  0  0  0  0  0  0  0  0  # atno 17320 bound_to 7965
  146.3524  140.0305  142.8651 LP  0  0  0  0  0  0  0  0  0  0  0  0  # atno 17321 bound_to 7965
  140.7147  143.7297  150.7633 LP  0  0  0  0  0  0  0  0  0  0  0  0  # atno 17342 bound_to 10162
  140.0845  143.4936  152.2512 LP  0  0  0  0  0  0  0  0  0  0  0  0  # atno 17343 bound_to 10162
  157.7385  131.0540  150.5291 LP  0  0  0  0  0  0  0  0  0  0  0  0  # atno 17370 bound_to 10713
  156.5427  130.4212  149.6146 LP  0  0  0  0  0  0  0  0  0  0  0  0  # atno 17371 bound_to 10713
  140.0731  134.9691  157.1500 LP  0  0  0  0  0  0  0  0  0  0  0  0  # atno 17394 bound_to 11000
  140.3683  134.2418  155.7180 LP  0  0  0  0  0  0  0  0  0  0  0  0  # atno 17395 bound_to 11000

$$$$
