AV-unprocessed.smi:2955|AV-procd|sdf|11304|dock5
  -GOLD-   2272016203D 1   1.00000     0.00000
 Structure written by MMmdl.
 46 48  0  0  0  0  0  0  0  0  2 V2000
  144.8821  137.2904  162.3900 C   0  0  0  0  0  0  0  0  0  0  0  0
  145.9275  136.2534  162.0334 C   0  0  0  0  0  0  0  0  0  0  0  0
  145.9125  134.9903  162.6573 C   0  0  0  0  0  0  0  0  0  0  0  0
  146.8852  134.0303  162.3234 C   0  0  0  0  0  0  0  0  0  0  0  0
  147.8721  134.3312  161.3659 C   0  0  0  0  0  0  0  0  0  0  0  0
  147.9003  135.5890  160.7297 C   0  0  0  0  0  0  0  0  0  0  0  0
  148.9005  135.7984  159.8056 O   0  0  0  0  0  0  0  0  0  0  0  0
  148.7253  136.8278  158.8408 C   0  0  0  0  0  0  0  0  0  0  0  0
  150.0584  137.0760  158.1217 C   0  0  0  0  0  0  0  0  0  0  0  0
  149.8688  137.4361  156.7081 N   0  0  0  0  0  0  0  0  0  0  0  0
  149.8403  136.6556  155.5875 C   0  0  0  0  0  0  0  0  0  0  0  0
  150.0206  135.1668  155.5133 C   0  0  1  0  0  0  0  0  0  0  0  0
  149.1872  134.4571  156.5901 C   0  0  0  0  0  0  0  0  0  0  0  0
  149.6701  134.6482  154.1973 N   0  0  0  0  0  0  0  0  0  0  0  0
  149.7168  133.3523  153.8641 C   0  0  0  0  0  0  0  0  0  0  0  0
  150.0596  132.4700  154.6464 O   0  0  0  0  0  0  0  0  0  0  0  0
  149.6466  137.4888  154.5249 N   0  3  0  0  0  0  0  0  0  0  0  0
  149.5272  138.8054  154.9688 C   0  0  0  0  0  0  0  0  0  0  0  0
  149.3154  139.9878  154.2666 C   0  0  0  0  0  0  0  0  0  0  0  0
  149.2381  141.1713  155.0295 C   0  0  0  0  0  0  0  0  0  0  0  0
  149.3688  141.1495  156.4334 C   0  0  0  0  0  0  0  0  0  0  0  0
  149.5848  139.9444  157.1337 C   0  0  0  0  0  0  0  0  0  0  0  0
  149.6631  138.7788  156.3715 C   0  0  0  0  0  0  0  0  0  0  0  0
  146.9157  136.5506  161.0717 C   0  0  0  0  0  0  0  0  0  0  0  0
  144.4607  137.0998  163.3776 H   0  0  0  0  0  0  0  0  0  0  0  0
  144.0712  137.2735  161.6617 H   0  0  0  0  0  0  0  0  0  0  0  0
  145.3176  138.2900  162.3973 H   0  0  0  0  0  0  0  0  0  0  0  0
  145.1574  134.7539  163.3928 H   0  0  0  0  0  0  0  0  0  0  0  0
  146.8749  133.0624  162.8024 H   0  0  0  0  0  0  0  0  0  0  0  0
  148.6162  133.5886  161.1188 H   0  0  0  0  0  0  0  0  0  0  0  0
  147.9632  136.5388  158.1153 H   0  0  0  0  0  0  0  0  0  0  0  0
  148.3997  137.7496  159.3250 H   0  0  0  0  0  0  0  0  0  0  0  0
  150.6304  137.8598  158.6182 H   0  0  0  0  0  0  0  0  0  0  0  0
  150.6795  136.1814  158.1614 H   0  0  0  0  0  0  0  0  0  0  0  0
  151.0672  134.9275  155.7042 H   0  0  0  0  0  0  0  0  0  0  0  0
  149.4538  134.8117  157.5863 H   0  0  0  0  0  0  0  0  0  0  0  0
  149.3560  133.3800  156.5695 H   0  0  0  0  0  0  0  0  0  0  0  0
  148.1190  134.6276  156.4517 H   0  0  0  0  0  0  0  0  0  0  0  0
  149.3671  135.3123  153.4996 H   0  0  0  0  0  0  0  0  0  0  0  0
  149.4104  133.1842  152.8200 H   0  0  0  0  0  0  0  0  0  0  0  0
  149.2128  140.0062  153.1915 H   0  0  0  0  0  0  0  0  0  0  0  0
  149.0738  142.1143  154.5283 H   0  0  0  0  0  0  0  0  0  0  0  0
  149.3023  142.0763  156.9847 H   0  0  0  0  0  0  0  0  0  0  0  0
  149.6805  139.9397  158.2092 H   0  0  0  0  0  0  0  0  0  0  0  0
  146.8995  137.5255  160.6089 H   0  0  0  0  0  0  0  0  0  0  0  0
  149.5958  137.1733  153.5649 H   0  0  0  0  0  0  0  0  0  0  0  0
  1  2  1  0  0  0  0
  1 25  1  0  0  0  0
  1 26  1  0  0  0  0
  1 27  1  0  0  0  0
  2 24  1  0  0  0  0
  2  3  2  0  0  0  0
  3  4  1  0  0  0  0
  3 28  1  0  0  0  0
  4  5  2  0  0  0  0
  4 29  1  0  0  0  0
  5  6  1  0  0  0  0
  5 30  1  0  0  0  0
  6  7  1  0  0  0  0
  6 24  2  0  0  0  0
  7  8  1  0  0  0  0
  8  9  1  0  0  0  0
  8 31  1  0  0  0  0
  8 32  1  0  0  0  0
  9 10  1  0  0  0  0
  9 33  1  0  0  0  0
  9 34  1  0  0  0  0
 10 23  1  0  0  0  0
 10 11  1  0  0  0  0
 11 12  1  0  0  0  0
 11 17  2  0  0  0  0
 12 13  1  0  0  0  0
 12 14  1  0  0  0  0
 12 35  1  0  0  0  0
 13 36  1  0  0  0  0
 13 37  1  0  0  0  0
 13 38  1  0  0  0  0
 14 15  1  0  0  0  0
 14 39  1  0  0  0  0
 15 16  2  0  0  0  0
 15 40  1  0  0  0  0
 17 18  1  0  0  0  0
 17 46  1  0  0  0  0
 18 23  2  0  0  0  0
 18 19  1  0  0  0  0
 19 20  2  0  0  0  0
 19 41  1  0  0  0  0
 20 21  1  0  0  0  0
 20 42  1  0  0  0  0
 21 22  2  0  0  0  0
 21 43  1  0  0  0  0
 22 23  1  0  0  0  0
 22 44  1  0  0  0  0
 24 45  1  0  0  0  0
M  CHG  1  17   1
M  END
> <s_m_source_file>
AV-unprocessed.smi

> <i_m_source_file_index>
2955

> <i_lp_mmshare_version>
43012

> <i_f3d_flags>
0

> <s_epik_input>
W0NIM11jMVtjSF1bY0hdW2NIXWMoW2NIXTEpT1tDSDJdW0NIMl1uKGMobjIpW0NASF0oW0NIM10pW05IXVtDSF09TyljKGMyMylbY0hdW2NIXVtjSF1bY0hdMw==

> <s_epik_cmdline>
J2VwaWtfcHl0aG9uJywgJy1waCcsICc3LjAnLCAnLXRuJywgJzgnLCAnLW1hJywgJzIwMCcsICctbWV0YWxfYmluZGluZycsICctaW1hZScsICc8aW5maWxlLm1hZT4nLCAnLW9tYWUnLCAnPG91dGZpbGUubWFlPic=

> <r_lp_tautomer_probability>
1

> <r_epik_Ionization_Penalty>
1.15027

> <r_epik_Ionization_Penalty_Charging>
1.15027

> <r_epik_Ionization_Penalty_Neutral>
5.5802e-08

> <r_epik_State_Penalty>
1.21159

> <r_epik_Charging_Adjusted_Penalty>
2.36186

> <i_epik_Tot_Q>
1

> <i_epik_Tot_abs_Q>
1

> <r_epik_Metal_State_Penalty>
1.29223

> <b_epik_Metal_Only>
0

> <s_lp_Force_Field>
OPLS_2005

> <r_lp_Energy>
16.9999

> <b_lp_Chiralities_Consistent>
1

> <s_lp_Variant>
AV-unprocessed.smi:2955-4

> <Gold.Version>
5.8.1

> <Gold.Id.Protein>
6NUR|6NUR_protein|mol2

> <Gold.PLP.Fitness>
48.1980

> <Gold.PLP.PLP>
-38.6102

> <Gold.PLP.part.hbond>
-3.0000

> <Gold.PLP.part.metal>
0.0000

> <Gold.PLP.part.buried>
-4.6947

> <Gold.PLP.part.nonpolar>
-31.3741

> <Gold.PLP.part.repulsive>
0.0830

> <Gold.PLP.ligand.clash>
0.0000

> <Gold.PLP.ligand.torsion>
1.2503

> <Gold.PLP.Chemscore.Hbond>
3.9913

> <Gold.PLP.Chemscore.CHOScore>
0.0000

> <Gold.PLP.Chemscore.Metal>
0.0000

> <Gold.Chemscore.Hbonds>
donor molecule, donor type, donor heavy atom, donor atom, acceptor molecule, acceptor atom, score
      L1  H    14    39       P1  7948  0.90
      L1  H    17    46       P1  7948  2.00
      P1  H  6896  6908       L1     7  0.70

> <Gold.PLP.Chemscore.Internal.Correction>
0.1148

> <Gold.Rescore>
     Score         DG    S(hbond)    S(metal)    S(lipo)     H(rot)  DE(clash)    DE(int)     intcor
     17.22     -20.39       2.77        0.00      99.09       2.32       0.43       2.74       ----

> <Gold.Chemscore.Fitness>
17.2235

> <Gold.Chemscore.DG>
-20.3887

> <Gold.Chemscore.ZeroCoef>
-5.4800

> <Gold.Chemscore.Hbond>
2.7727

> <Gold.Chemscore.Metal>
0.0000

> <Gold.Chemscore.Lipo>
99.0851

> <Gold.Chemscore.Internal_Hbond>
0.0000

> <Gold.Chemscore.DEClash>
0.4275

> <Gold.Chemscore.DEInternal>
2.7377

> <Gold.Chemscore.Rot>
2.3223

> <Gold.Chemscore.Internal.Correction>
   9.000000E+99

> <Gold.Chemscore.Hbonds>
donor molecule, donor type, donor heavy atom, donor atom, acceptor molecule, acceptor atom, score
      L1  H    14    39       P1  7948  0.18
      L1  H    17    46       P1  7948  0.77
      P1  H  6896  6908       L1     7  0.63

> <Gold.Chemscore.Hbond.Weighted>
-9.2607

> <Gold.Chemscore.Metal.Weighted>
-0.0000

> <Gold.Chemscore.Lipo.Weighted>
-11.5930

> <Gold.Chemscore.Internal_Hbond.Weighted>
0.0000

> <Gold.Chemscore.DEClash.Weighted>
0.4275

> <Gold.Chemscore.DEInternal.Weighted>
2.7377

> <Gold.Chemscore.Rot.Weighted>
5.9450

> <Gold.Chemscore.Internal.Correction.Weighted>
   9.000000E+99

> <Gold.Protein.RotatedTorsions>
[ 6907 6896 6895 6894 ] final  170.67 input  -60.11 | X-H torsion
[ 7974 7965 7964 7962 ] final -112.78 input  175.53 | X-H torsion
[ 8008 7997 7996 7995 ] final  111.16 input   59.86 | X-H torsion
[ 10167 10162 10161 10158 ] final  -14.61 input  -65.29 | X-H torsion
[ 10718 10713 10712 10709 ] final   85.22 input   66.30 | X-H torsion
[ 10763 10752 10751 10750 ] final  162.91 input  -60.55 | X-H torsion
[ 11005 11000 10999 10996 ] final -142.01 input  -57.11 | X-H torsion

> <Gold.Protein.ActiveResidues>
 VAL166  LYS551  ARG553  GLY616  TRP617  ASP618  TYR619  PRO620  LYS621  CYS622 
 ASP623  PHE694  ASN695  SER759  ASP760  ASP761  ALA762  ILE779  LEU786  VAL792 
 PHE793  MET794  SER795  GLU796  ALA797  LYS798  CYS799  TRP800  GLU811  SER814 

> <Gold.Protein.RotatedAtoms>
  151.8124  133.3383  159.3558 H   0  0  0  0  0  0  0  0  0  0  0  0  # atno 6907 bound_to 6896
  150.7322  134.5652  159.5871 H   0  0  0  0  0  0  0  0  0  0  0  0  # atno 6908 bound_to 6896
  152.3066  134.7549  160.0397 H   0  0  0  0  0  0  0  0  0  0  0  0  # atno 6909 bound_to 6896
  145.1398  140.8771  143.3708 H   0  0  0  0  0  0  0  0  0  0  0  0  # atno 7974 bound_to 7965
  156.2104  140.3024  155.9721 H   0  0  0  0  0  0  0  0  0  0  0  0  # atno 8008 bound_to 7997
  155.2737  140.0435  157.3026 H   0  0  0  0  0  0  0  0  0  0  0  0  # atno 8009 bound_to 7997
  154.5692  140.2343  155.8225 H   0  0  0  0  0  0  0  0  0  0  0  0  # atno 8010 bound_to 7997
  140.7204  143.5303  150.9527 H   0  0  0  0  0  0  0  0  0  0  0  0  # atno 10167 bound_to 10162
  157.6911  131.0165  150.2789 H   0  0  0  0  0  0  0  0  0  0  0  0  # atno 10718 bound_to 10713
  154.2856  135.2762  155.2678 H   0  0  0  0  0  0  0  0  0  0  0  0  # atno 10763 bound_to 10752
  154.5179  135.5764  153.6660 H   0  0  0  0  0  0  0  0  0  0  0  0  # atno 10764 bound_to 10752
  152.9922  135.6197  154.3018 H   0  0  0  0  0  0  0  0  0  0  0  0  # atno 10765 bound_to 10752
  140.8268  134.2565  157.4875 H   0  0  0  0  0  0  0  0  0  0  0  0  # atno 11005 bound_to 11000
  145.0544  139.3155  143.5912 LP  0  0  0  0  0  0  0  0  0  0  0  0  # atno 17320 bound_to 7965
  146.3506  139.9964  142.8680 LP  0  0  0  0  0  0  0  0  0  0  0  0  # atno 17321 bound_to 7965
  139.9023  143.6820  152.3129 LP  0  0  0  0  0  0  0  0  0  0  0  0  # atno 17342 bound_to 10162
  139.7174  144.7609  151.1011 LP  0  0  0  0  0  0  0  0  0  0  0  0  # atno 17343 bound_to 10162
  156.3339  130.3804  149.7467 LP  0  0  0  0  0  0  0  0  0  0  0  0  # atno 17370 bound_to 10713
  156.4997  130.8123  151.3128 LP  0  0  0  0  0  0  0  0  0  0  0  0  # atno 17371 bound_to 10713
  139.8706  134.9565  156.4238 LP  0  0  0  0  0  0  0  0  0  0  0  0  # atno 17394 bound_to 11000
  140.9041  133.7758  155.9714 LP  0  0  0  0  0  0  0  0  0  0  0  0  # atno 17395 bound_to 11000

$$$$
