AV-unprocessed.smi:35|AV-procd|sdf|265|dock4
  -GOLD-   2262016 33D 1   1.00000     0.00000
 Structure written by MMmdl.
 28 29  0  0  0  0  0  0  0  0  2 V2000
  151.0264  134.7289  156.7741 O   0  0  0  0  0  0  0  0  0  0  0  0
  151.0148  135.8761  156.3310 C   0  0  0  0  0  0  0  0  0  0  0  0
  152.1475  136.6190  156.1672 N   0  5  0  0  0  0  0  0  0  0  0  0
  152.1298  137.8943  155.6781 C   0  0  0  0  0  0  0  0  0  0  0  0
  153.1498  138.5608  155.5042 O   0  0  0  0  0  0  0  0  0  0  0  0
  150.8799  138.4841  155.3428 N   0  0  0  0  0  0  0  0  0  0  0  0
  150.8407  139.8942  154.7955 C   0  0  2  0  0  0  0  0  0  0  0  0
  151.3425  140.7697  155.7652 O   0  0  0  0  0  0  0  0  0  0  0  0
  150.4053  141.8077  156.0332 C   0  0  2  0  0  0  0  0  0  0  0  0
  150.5551  142.2627  157.4935 C   0  0  0  0  0  0  0  0  0  0  0  0
  149.5705  143.2210  157.8196 O   0  0  0  0  0  0  0  0  0  0  0  0
  149.0543  141.1771  155.6891 C   0  0  1  0  0  0  0  0  0  0  0  0
  148.0442  142.1302  155.4172 O   0  0  0  0  0  0  0  0  0  0  0  0
  149.3920  140.3032  154.4871 C   0  0  1  0  0  0  0  0  0  0  0  0
  149.3176  141.0052  153.2598 O   0  0  0  0  0  0  0  0  0  0  0  0
  149.7156  137.7472  155.4802 C   0  0  0  0  0  0  0  0  0  0  0  0
  149.7421  136.4861  155.9555 C   0  0  0  0  0  0  0  0  0  0  0  0
  148.0003  135.5520  156.0958 Br  0  0  0  0  0  0  0  0  0  0  0  0
  151.5040  139.9061  153.9292 H   0  0  0  0  0  0  0  0  0  0  0  0
  150.6256  142.6296  155.3495 H   0  0  0  0  0  0  0  0  0  0  0  0
  150.4870  141.4171  158.1785 H   0  0  0  0  0  0  0  0  0  0  0  0
  151.5344  142.7181  157.6420 H   0  0  0  0  0  0  0  0  0  0  0  0
  149.3599  143.7125  157.0404 H   0  0  0  0  0  0  0  0  0  0  0  0
  148.7272  140.5393  156.5114 H   0  0  0  0  0  0  0  0  0  0  0  0
  148.3736  142.9862  155.6456 H   0  0  0  0  0  0  0  0  0  0  0  0
  148.7405  139.4307  154.4209 H   0  0  0  0  0  0  0  0  0  0  0  0
  149.1607  140.3805  152.5687 H   0  0  0  0  0  0  0  0  0  0  0  0
  148.7664  138.1778  155.2002 H   0  0  0  0  0  0  0  0  0  0  0  0
  1  2  2  0  0  0  0
  2 17  1  0  0  0  0
  2  3  1  0  0  0  0
  3  4  1  0  0  0  0
  4  5  2  0  0  0  0
  4  6  1  0  0  0  0
  6  7  1  0  0  0  0
  6 16  1  0  0  0  0
  7 14  1  0  0  0  0
  7  8  1  0  0  0  0
  7 19  1  0  0  0  0
  8  9  1  0  0  0  0
  9 10  1  0  0  0  0
  9 12  1  0  0  0  0
  9 20  1  0  0  0  0
 10 11  1  0  0  0  0
 10 21  1  0  0  0  0
 10 22  1  0  0  0  0
 11 23  1  0  0  0  0
 12 13  1  0  0  0  0
 12 14  1  0  0  0  0
 12 24  1  0  0  0  0
 13 25  1  0  0  0  0
 14 15  1  0  0  0  0
 14 26  1  0  0  0  0
 15 27  1  0  0  0  0
 16 17  2  0  0  0  0
 16 28  1  0  0  0  0
 17 18  1  0  0  0  0
M  CHG  1   3  -1
M  END
> <s_m_source_file>
AV-unprocessed.smi

> <i_m_source_file_index>
35

> <i_lp_mmshare_version>
43012

> <i_f3d_flags>
0

> <s_epik_input>
Tz1jMVtuSF1jKD1PKW4oW2NIXWMxQnIpW0NAQEhdMk9bQ0BASF0oW0NIMl1bT0hdKVtDQEBIXShbT0hdKVtDQEhdMltPSF0=

> <s_epik_cmdline>
J2VwaWtfcHl0aG9uJywgJy1waCcsICc3LjAnLCAnLXRuJywgJzgnLCAnLW1hJywgJzIwMCcsICctbWV0YWxfYmluZGluZycsICctaW1hZScsICc8aW5maWxlLm1hZT4nLCAnLW9tYWUnLCAnPG91dGZpbGUubWFlPic=

> <r_epik_Ionization_Penalty>
1.06112

> <r_epik_Ionization_Penalty_Charging>
2.1796e-09

> <r_epik_Ionization_Penalty_Neutral>
1.06112

> <r_epik_State_Penalty>
1.11484

> <r_epik_Charging_Adjusted_Penalty>
1.11484

> <i_epik_Tot_Q>
-1

> <i_epik_Tot_abs_Q>
1

> <r_epik_Metal_State_Penalty>
0.0032876

> <b_epik_Metal_Only>
0

> <s_epik_Chemistry_Notes>
This compound contains an acetal/aminal-like group ( X-CH(R)-Y where X, Y are N, S, or O) that may be acid/base labile, releasing an aldehyde.

> <s_lp_Force_Field>
OPLS_2005

> <r_lp_Energy>
41.5323

> <b_lp_Chiralities_Consistent>
1

> <s_lp_Variant>
AV-unprocessed.smi:35-19

> <Gold.Version>
5.8.1

> <Gold.Id.Protein>
6NUR|6NUR_protein|mol2

> <Gold.PLP.Fitness>
46.5883

> <Gold.PLP.PLP>
-26.8687

> <Gold.PLP.part.hbond>
-7.4840

> <Gold.PLP.part.metal>
0.0000

> <Gold.PLP.part.buried>
-3.8156

> <Gold.PLP.part.nonpolar>
-17.3991

> <Gold.PLP.part.repulsive>
0.0283

> <Gold.PLP.ligand.clash>
0.0000

> <Gold.PLP.ligand.torsion>
0.0095

> <Gold.PLP.Chemscore.Hbond>
6.5759

> <Gold.PLP.Chemscore.CHOScore>
0.0000

> <Gold.PLP.Chemscore.Metal>
0.0000

> <Gold.Chemscore.Hbonds>
donor molecule, donor type, donor heavy atom, donor atom, acceptor molecule, acceptor atom, score
      L1  H    11    23       P1  8028  1.00
      L1  H    13    25       P1  8028  1.00
      L1  H    15    27       P1  7957  0.78
      P1  H  7989  7998       L1    15  0.01
      P1  H  7997  8009       L1     5  0.84
      P1  H  8011  8017       L1    15  1.00
      P1  H 10752 10765       L1     3  1.90

> <Gold.PLP.Chemscore.Internal.Correction>
0.0109

> <Gold.Rescore>
     Score         DG    S(hbond)    S(metal)    S(lipo)     H(rot)  DE(clash)    DE(int)     intcor
     10.89     -13.39       3.92        0.00      35.11       3.63       1.17       1.34       ----

> <Gold.Chemscore.Fitness>
10.8875

> <Gold.Chemscore.DG>
-13.3942

> <Gold.Chemscore.ZeroCoef>
-5.4800

> <Gold.Chemscore.Hbond>
3.9190

> <Gold.Chemscore.Metal>
0.0000

> <Gold.Chemscore.Lipo>
35.1065

> <Gold.Chemscore.Internal_Hbond>
0.0000

> <Gold.Chemscore.DEClash>
1.1711

> <Gold.Chemscore.DEInternal>
1.3357

> <Gold.Chemscore.Rot>
3.6261

> <Gold.Chemscore.Internal.Correction>
   9.000000E+99

> <Gold.Chemscore.Hbonds>
donor molecule, donor type, donor heavy atom, donor atom, acceptor molecule, acceptor atom, score
      L1  H    11    23       P1  8028  0.74
      L1  H    13    25       P1  8028  0.98
      L1  H    15    27       P1  7957  0.74
      P1  H  7997  8009       L1     5  0.79
      P1  H  8011  8017       L1    15  0.30
      P1  H 10752 10765       L1     3  0.11

> <Gold.Chemscore.Hbond.Weighted>
-13.0895

> <Gold.Chemscore.Metal.Weighted>
-0.0000

> <Gold.Chemscore.Lipo.Weighted>
-4.1075

> <Gold.Chemscore.Internal_Hbond.Weighted>
0.0000

> <Gold.Chemscore.DEClash.Weighted>
1.1711

> <Gold.Chemscore.DEInternal.Weighted>
1.3357

> <Gold.Chemscore.Rot.Weighted>
9.2828

> <Gold.Chemscore.Internal.Correction.Weighted>
   9.000000E+99

> <Gold.Protein.RotatedTorsions>
[ 6907 6896 6895 6894 ] final   64.71 input  -60.11 | X-H torsion
[ 7974 7965 7964 7962 ] final  -22.76 input  175.53 | X-H torsion
[ 8008 7997 7996 7995 ] final -153.93 input   59.86 | X-H torsion
[ 10167 10162 10161 10158 ] final  -60.90 input  -65.29 | X-H torsion
[ 10718 10713 10712 10709 ] final  109.05 input   66.30 | X-H torsion
[ 10763 10752 10751 10750 ] final -166.63 input  -60.55 | X-H torsion
[ 11005 11000 10999 10996 ] final   65.51 input  -57.11 | X-H torsion

> <Gold.Protein.ActiveResidues>
 VAL166  LYS551  ARG553  GLY616  TRP617  ASP618  TYR619  PRO620  LYS621  CYS622 
 ASP623  PHE694  ASN695  SER759  ASP760  ASP761  ALA762  ILE779  LEU786  VAL792 
 PHE793  MET794  SER795  GLU796  ALA797  LYS798  CYS799  TRP800  GLU811  SER814 

> <Gold.Protein.RotatedAtoms>
  152.4352  134.5700  159.9918 H   0  0  0  0  0  0  0  0  0  0  0  0  # atno 6907 bound_to 6896
  151.5812  133.3372  159.3017 H   0  0  0  0  0  0  0  0  0  0  0  0  # atno 6908 bound_to 6896
  150.8250  134.7511  159.6869 H   0  0  0  0  0  0  0  0  0  0  0  0  # atno 6909 bound_to 6896
  146.1657  140.4523  142.8553 H   0  0  0  0  0  0  0  0  0  0  0  0  # atno 7974 bound_to 7965
  155.6785  140.0741  157.2494 H   0  0  0  0  0  0  0  0  0  0  0  0  # atno 8008 bound_to 7997
  154.4110  140.1686  156.2008 H   0  0  0  0  0  0  0  0  0  0  0  0  # atno 8009 bound_to 7997
  155.9555  140.3374  155.6448 H   0  0  0  0  0  0  0  0  0  0  0  0  # atno 8010 bound_to 7997
  140.6041  143.2369  151.5862 H   0  0  0  0  0  0  0  0  0  0  0  0  # atno 10167 bound_to 10162
  157.6559  131.0906  150.6396 H   0  0  0  0  0  0  0  0  0  0  0  0  # atno 10718 bound_to 10713
  154.6814  135.2955  154.9607 H   0  0  0  0  0  0  0  0  0  0  0  0  # atno 10763 bound_to 10752
  154.0601  135.6632  153.4815 H   0  0  0  0  0  0  0  0  0  0  0  0  # atno 10764 bound_to 10752
  153.0550  135.5150  154.7859 H   0  0  0  0  0  0  0  0  0  0  0  0  # atno 10765 bound_to 10752
  139.9890  134.6622  156.0125 H   0  0  0  0  0  0  0  0  0  0  0  0  # atno 11005 bound_to 11000
  144.8089  140.6349  143.6429 LP  0  0  0  0  0  0  0  0  0  0  0  0  # atno 17320 bound_to 7965
  145.4474  139.1528  143.3937 LP  0  0  0  0  0  0  0  0  0  0  0  0  # atno 17321 bound_to 7965
  139.5312  144.2911  152.1151 LP  0  0  0  0  0  0  0  0  0  0  0  0  # atno 17342 bound_to 10162
  140.2097  144.4575  150.6391 LP  0  0  0  0  0  0  0  0  0  0  0  0  # atno 17343 bound_to 10162
  156.6703  130.4537  149.5659 LP  0  0  0  0  0  0  0  0  0  0  0  0  # atno 17370 bound_to 10713
  156.2002  130.6615  151.1159 LP  0  0  0  0  0  0  0  0  0  0  0  0  # atno 17371 bound_to 10713
  141.1549  133.6544  156.4130 LP  0  0  0  0  0  0  0  0  0  0  0  0  # atno 17394 bound_to 11000
  140.4946  134.6543  157.5224 LP  0  0  0  0  0  0  0  0  0  0  0  0  # atno 17395 bound_to 11000

$$$$
