AV-unprocessed.smi:3329|AV-procd|sdf|12795|dock2
  -GOLD-   2272019153D 1   1.00000     0.00000
 Structure written by MMmdl.
 42 43  0  0  0  0  0  0  0  0  2 V2000
  151.7127  144.9423  158.5714 C   0  0  0  0  0  0  0  0  0  0  0  0
  152.1711  143.6316  159.1432 C   0  0  0  0  0  0  0  0  0  0  0  0
  151.8349  142.3212  158.6997 C   0  0  0  0  0  0  0  0  0  0  0  0
  152.4076  141.3716  159.4217 N   0  0  0  0  0  0  0  0  0  0  0  0
  153.1286  142.0390  160.3468 N   0  0  0  0  0  0  0  0  0  0  0  0
  153.8995  141.3013  161.3320 C   0  0  0  0  0  0  0  0  0  0  0  0
  154.8815  140.3079  160.6881 C   0  0  0  0  0  0  0  0  0  0  0  0
  154.2320  139.5272  159.6166 N   0  3  0  0  0  0  0  0  0  0  0  0
  153.5626  138.2954  160.0813 C   0  0  0  0  0  0  0  0  0  0  0  0
  152.4245  137.8699  159.1517 C   0  0  0  0  0  0  0  0  0  0  0  0
  151.7736  136.8509  159.3830 O   0  0  0  0  0  0  0  0  0  0  0  0
  152.1995  138.6669  158.0946 N   0  0  0  0  0  0  0  0  0  0  0  0
  151.1837  138.4763  157.0576 C   0  0  1  0  0  0  0  0  0  0  0  0
  151.2666  137.0012  156.6320 C   0  0  0  0  0  0  0  0  0  0  0  0
  149.8349  138.7147  157.6113 C   0  0  0  0  0  0  0  0  0  0  0  0
  148.7797  138.9022  158.0476 N   0  0  0  0  0  0  0  0  0  0  0  0
  151.4207  139.3541  155.8259 C   0  0  0  0  0  0  0  0  0  0  0  0
  151.0027  138.9554  154.4260 C   0  0  0  0  0  0  0  0  0  0  0  0
  152.4677  139.0068  154.7899 C   0  0  0  0  0  0  0  0  0  0  0  0
  152.9983  143.4046  160.2066 C   0  0  0  0  0  0  0  0  0  0  0  0
  150.6668  145.1388  158.8076 H   0  0  0  0  0  0  0  0  0  0  0  0
  151.8072  144.9628  157.4856 H   0  0  0  0  0  0  0  0  0  0  0  0
  152.2927  145.7804  158.9587 H   0  0  0  0  0  0  0  0  0  0  0  0
  151.1951  142.0340  157.8783 H   0  0  0  0  0  0  0  0  0  0  0  0
  154.4371  142.0121  161.9612 H   0  0  0  0  0  0  0  0  0  0  0  0
  153.2031  140.7711  161.9829 H   0  0  0  0  0  0  0  0  0  0  0  0
  155.7296  140.8505  160.2688 H   0  0  0  0  0  0  0  0  0  0  0  0
  155.2817  139.6284  161.4421 H   0  0  0  0  0  0  0  0  0  0  0  0
  153.5400  140.1132  159.1710 H   0  0  0  0  0  0  0  0  0  0  0  0
  154.2933  137.4879  160.1471 H   0  0  0  0  0  0  0  0  0  0  0  0
  153.1597  138.4577  161.0821 H   0  0  0  0  0  0  0  0  0  0  0  0
  152.7903  139.4792  157.9899 H   0  0  0  0  0  0  0  0  0  0  0  0
  150.5199  136.7668  155.8722 H   0  0  0  0  0  0  0  0  0  0  0  0
  151.0908  136.3336  157.4765 H   0  0  0  0  0  0  0  0  0  0  0  0
  152.2455  136.7588  156.2159 H   0  0  0  0  0  0  0  0  0  0  0  0
  151.3378  140.4168  156.0474 H   0  0  0  0  0  0  0  0  0  0  0  0
  150.5598  137.9733  154.2742 H   0  0  0  0  0  0  0  0  0  0  0  0
  150.6188  139.7399  153.7772 H   0  0  0  0  0  0  0  0  0  0  0  0
  153.0581  139.8242  154.3812 H   0  0  0  0  0  0  0  0  0  0  0  0
  152.9928  138.0589  154.8872 H   0  0  0  0  0  0  0  0  0  0  0  0
  153.5015  144.0966  160.8658 H   0  0  0  0  0  0  0  0  0  0  0  0
  154.9273  139.2743  158.9289 H   0  0  0  0  0  0  0  0  0  0  0  0
  1  2  1  0  0  0  0
  1 21  1  0  0  0  0
  1 22  1  0  0  0  0
  1 23  1  0  0  0  0
  2 20  2  0  0  0  0
  2  3  1  0  0  0  0
  3  4  2  0  0  0  0
  3 24  1  0  0  0  0
  4  5  1  0  0  0  0
  5  6  1  0  0  0  0
  5 20  1  0  0  0  0
  6  7  1  0  0  0  0
  6 25  1  0  0  0  0
  6 26  1  0  0  0  0
  7  8  1  0  0  0  0
  7 27  1  0  0  0  0
  7 28  1  0  0  0  0
  8  9  1  0  0  0  0
  8 29  1  0  0  0  0
  8 42  1  0  0  0  0
  9 10  1  0  0  0  0
  9 30  1  0  0  0  0
  9 31  1  0  0  0  0
 10 11  2  0  0  0  0
 10 12  1  0  0  0  0
 12 13  1  0  0  0  0
 12 32  1  0  0  0  0
 13 14  1  0  0  0  0
 13 15  1  0  0  0  0
 13 17  1  0  0  0  0
 14 33  1  0  0  0  0
 14 34  1  0  0  0  0
 14 35  1  0  0  0  0
 15 16  3  0  0  0  0
 17 19  1  0  0  0  0
 17 18  1  0  0  0  0
 17 36  1  0  0  0  0
 18 19  1  0  0  0  0
 18 37  1  0  0  0  0
 18 38  1  0  0  0  0
 19 39  1  0  0  0  0
 19 40  1  0  0  0  0
 20 41  1  0  0  0  0
M  CHG  1   8   1
M  END
> <s_m_source_file>
AV-unprocessed.smi

> <i_m_source_file_index>
3329

> <i_lp_mmshare_version>
43012

> <i_f3d_flags>
0

> <s_epik_input>
W0NIM11jMVtjSF1ubihbY0hdMSlbQ0gyXVtDSDJdW05IXVtDSDJdQyg9TylbTkhdW0NAQF0oW0NIM10pKEMjTilbQ0hdMltDSDJdW0NIMl0y

> <s_epik_cmdline>
J2VwaWtfcHl0aG9uJywgJy1waCcsICc3LjAnLCAnLXRuJywgJzgnLCAnLW1hJywgJzIwMCcsICctbWV0YWxfYmluZGluZycsICctaW1hZScsICc8aW5maWxlLm1hZT4nLCAnLW9tYWUnLCAnPG91dGZpbGUubWFlPic=

> <r_lp_tautomer_probability>
1

> <r_epik_Ionization_Penalty>
0.350291

> <r_epik_Ionization_Penalty_Charging>
0.350239

> <r_epik_Ionization_Penalty_Neutral>
5.12768e-05

> <r_epik_State_Penalty>
0.347656

> <r_epik_Charging_Adjusted_Penalty>
0.697895

> <i_epik_Tot_Q>
1

> <i_epik_Tot_abs_Q>
1

> <r_epik_Metal_State_Penalty>
0.371739

> <b_epik_Metal_Only>
0

> <s_lp_Force_Field>
OPLS_2005

> <r_lp_Energy>
10.54

> <b_lp_Chiralities_Consistent>
1

> <s_lp_Variant>
AV-unprocessed.smi:3329-1

> <Gold.Version>
5.8.1

> <Gold.Id.Protein>
6NUR|6NUR_protein|mol2

> <Gold.PLP.Fitness>
41.9475

> <Gold.PLP.PLP>
-40.0688

> <Gold.PLP.part.hbond>
-1.6909

> <Gold.PLP.part.metal>
0.0000

> <Gold.PLP.part.buried>
-5.3823

> <Gold.PLP.part.nonpolar>
-32.8547

> <Gold.PLP.part.repulsive>
0.1448

> <Gold.PLP.ligand.clash>
0.0000

> <Gold.PLP.ligand.torsion>
1.3719

> <Gold.PLP.Chemscore.Hbond>
1.0000

> <Gold.PLP.Chemscore.CHOScore>
0.0000

> <Gold.PLP.Chemscore.Metal>
0.0000

> <Gold.Chemscore.Hbonds>
donor molecule, donor type, donor heavy atom, donor atom, acceptor molecule, acceptor atom, score
      P1  H  6896  6908       L1    11  0.86

> <Gold.PLP.Chemscore.Internal.Correction>
1.6226

> <Gold.Rescore>
     Score         DG    S(hbond)    S(metal)    S(lipo)     H(rot)  DE(clash)    DE(int)     intcor
     12.75     -15.22       0.99        0.00     107.41       2.40       0.09       2.39       ----

> <Gold.Chemscore.Fitness>
12.7457

> <Gold.Chemscore.DG>
-15.2226

> <Gold.Chemscore.ZeroCoef>
-5.4800

> <Gold.Chemscore.Hbond>
0.9917

> <Gold.Chemscore.Metal>
0.0000

> <Gold.Chemscore.Lipo>
107.4117

> <Gold.Chemscore.Internal_Hbond>
0.0000

> <Gold.Chemscore.DEClash>
0.0866

> <Gold.Chemscore.DEInternal>
2.3903

> <Gold.Chemscore.Rot>
2.3972

> <Gold.Chemscore.Internal.Correction>
   9.000000E+99

> <Gold.Chemscore.Hbonds>
donor molecule, donor type, donor heavy atom, donor atom, acceptor molecule, acceptor atom, score
      P1  H  6896  6908       L1    11  0.86

> <Gold.Chemscore.Hbond.Weighted>
-3.3123

> <Gold.Chemscore.Metal.Weighted>
-0.0000

> <Gold.Chemscore.Lipo.Weighted>
-12.5672

> <Gold.Chemscore.Internal_Hbond.Weighted>
0.0000

> <Gold.Chemscore.DEClash.Weighted>
0.0866

> <Gold.Chemscore.DEInternal.Weighted>
2.3903

> <Gold.Chemscore.Rot.Weighted>
6.1369

> <Gold.Chemscore.Internal.Correction.Weighted>
   9.000000E+99

> <Gold.Protein.RotatedTorsions>
[ 6907 6896 6895 6894 ] final -142.14 input  -60.11 | X-H torsion
[ 7974 7965 7964 7962 ] final  154.34 input  175.53 | X-H torsion
[ 8008 7997 7996 7995 ] final -146.89 input   59.86 | X-H torsion
[ 10167 10162 10161 10158 ] final   32.47 input  -65.29 | X-H torsion
[ 10718 10713 10712 10709 ] final   19.40 input   66.30 | X-H torsion
[ 10763 10752 10751 10750 ] final  165.59 input  -60.55 | X-H torsion
[ 11005 11000 10999 10996 ] final  106.13 input  -57.11 | X-H torsion

> <Gold.Protein.ActiveResidues>
 VAL166  LYS551  ARG553  GLY616  TRP617  ASP618  TYR619  PRO620  LYS621  CYS622 
 ASP623  PHE694  ASN695  SER759  ASP760  ASP761  ALA762  ILE779  LEU786  VAL792 
 PHE793  MET794  SER795  GLU796  ALA797  LYS798  CYS799  TRP800  GLU811  SER814 

> <Gold.Protein.RotatedAtoms>
  151.0831  133.5374  159.2619 H   0  0  0  0  0  0  0  0  0  0  0  0  # atno 6907 bound_to 6896
  151.2270  135.0539  159.8982 H   0  0  0  0  0  0  0  0  0  0  0  0  # atno 6908 bound_to 6896
  152.5426  134.0625  159.8212 H   0  0  0  0  0  0  0  0  0  0  0  0  # atno 6909 bound_to 6896
  144.8095  139.6921  143.6147 H   0  0  0  0  0  0  0  0  0  0  0  0  # atno 7974 bound_to 7965
  155.5667  140.0630  157.2816 H   0  0  0  0  0  0  0  0  0  0  0  0  # atno 8008 bound_to 7997
  154.4373  140.1876  156.0883 H   0  0  0  0  0  0  0  0  0  0  0  0  # atno 8009 bound_to 7997
  156.0407  140.3296  155.7244 H   0  0  0  0  0  0  0  0  0  0  0  0  # atno 8010 bound_to 7997
  140.4495  144.1069  150.6189 H   0  0  0  0  0  0  0  0  0  0  0  0  # atno 10167 bound_to 10162
  157.1100  130.6504  149.5895 H   0  0  0  0  0  0  0  0  0  0  0  0  # atno 10718 bound_to 10713
  154.3264  135.2755  155.2494 H   0  0  0  0  0  0  0  0  0  0  0  0  # atno 10763 bound_to 10752
  154.4825  135.5854  153.6403 H   0  0  0  0  0  0  0  0  0  0  0  0  # atno 10764 bound_to 10752
  152.9871  135.6115  154.3452 H   0  0  0  0  0  0  0  0  0  0  0  0  # atno 10765 bound_to 10752
  139.8810  134.9359  156.5619 H   0  0  0  0  0  0  0  0  0  0  0  0  # atno 11005 bound_to 11000
  146.2391  139.5966  142.9503 LP  0  0  0  0  0  0  0  0  0  0  0  0  # atno 17320 bound_to 7965
  145.5358  141.0424  143.2358 LP  0  0  0  0  0  0  0  0  0  0  0  0  # atno 17321 bound_to 7965
  140.4223  143.2606  151.9699 LP  0  0  0  0  0  0  0  0  0  0  0  0  # atno 17342 bound_to 10162
  139.4795  144.5819  151.7918 LP  0  0  0  0  0  0  0  0  0  0  0  0  # atno 17343 bound_to 10162
  155.9853  130.4882  150.7024 LP  0  0  0  0  0  0  0  0  0  0  0  0  # atno 17370 bound_to 10713
  157.4568  131.0878  151.0788 LP  0  0  0  0  0  0  0  0  0  0  0  0  # atno 17371 bound_to 10713
  140.8163  133.8389  155.8855 LP  0  0  0  0  0  0  0  0  0  0  0  0  # atno 17394 bound_to 11000
  140.9460  134.1840  157.4763 LP  0  0  0  0  0  0  0  0  0  0  0  0  # atno 17395 bound_to 11000

$$$$
