AV-unprocessed.smi:502|AV-procd|sdf|2744|dock1
  -GOLD-   2262023203D 1   1.00000     0.00000
 Structure written by MMmdl.
 48 50  0  0  0  0  0  0  0  0  1 V2000
  149.3495  135.5459  155.7706 C   0  0  0  0  0  0  0  0  0  0  0  0
  150.6062  136.1057  156.4269 C   0  0  0  0  0  0  0  0  0  0  0  0
  151.3967  135.3515  156.9929 O   0  0  0  0  0  0  0  0  0  0  0  0
  150.7722  137.4343  156.3531 N   0  0  0  0  0  0  0  0  0  0  0  0
  151.8967  138.1696  156.9234 C   0  0  0  0  0  0  0  0  0  0  0  0
  152.0369  139.5895  156.3419 C   0  0  0  0  0  0  0  0  0  0  0  0
  150.7513  140.1551  155.8080 C   0  0  0  0  0  0  0  0  0  0  0  0
  150.2618  139.7682  154.6291 N   0  0  0  0  0  0  0  0  0  0  0  0
  149.1091  140.5191  154.5141 C   0  0  0  0  0  0  0  0  0  0  0  0
  148.1454  140.5704  153.4816 C   0  0  0  0  0  0  0  0  0  0  0  0
  147.0359  141.4352  153.5828 C   0  0  0  0  0  0  0  0  0  0  0  0
  146.8738  142.2582  154.7159 C   0  0  0  0  0  0  0  0  0  0  0  0
  147.8213  142.2205  155.7568 C   0  0  0  0  0  0  0  0  0  0  0  0
  148.9272  141.3553  155.6511 C   0  0  0  0  0  0  0  0  0  0  0  0
  150.0190  141.0868  156.4717 N   0  0  0  0  0  0  0  0  0  0  0  0
  150.2926  141.7155  157.7566 C   0  0  0  0  0  0  0  0  0  0  0  0
  151.6099  142.5034  157.7411 C   0  0  0  0  0  0  0  0  0  0  0  0
  151.8800  142.9767  159.0536 O   0  0  0  0  0  0  0  0  0  0  0  0
  152.6055  142.1758  159.9091 C   0  0  0  0  0  0  0  0  0  0  0  0
  153.0742  140.8818  159.5676 C   0  0  0  0  0  0  0  0  0  0  0  0
  153.8071  140.1190  160.4967 C   0  0  0  0  0  0  0  0  0  0  0  0
  154.0800  140.6365  161.7755 C   0  0  0  0  0  0  0  0  0  0  0  0
  153.6201  141.9192  162.1248 C   0  0  0  0  0  0  0  0  0  0  0  0
  152.8859  142.6880  161.1974 C   0  0  0  0  0  0  0  0  0  0  0  0
  152.4025  144.0733  161.5854 C   0  0  0  0  0  0  0  0  0  0  0  0
  149.3679  135.7286  154.6958 H   0  0  0  0  0  0  0  0  0  0  0  0
  148.4599  136.0186  156.1879 H   0  0  0  0  0  0  0  0  0  0  0  0
  149.2729  134.4703  155.9338 H   0  0  0  0  0  0  0  0  0  0  0  0
  150.0687  137.9764  155.8724 H   0  0  0  0  0  0  0  0  0  0  0  0
  151.8095  138.2145  158.0101 H   0  0  0  0  0  0  0  0  0  0  0  0
  152.8025  137.5999  156.7150 H   0  0  0  0  0  0  0  0  0  0  0  0
  152.4645  140.2554  157.0898 H   0  0  0  0  0  0  0  0  0  0  0  0
  152.7607  139.5705  155.5264 H   0  0  0  0  0  0  0  0  0  0  0  0
  148.2616  139.9453  152.6087 H   0  0  0  0  0  0  0  0  0  0  0  0
  146.3065  141.4684  152.7869 H   0  0  0  0  0  0  0  0  0  0  0  0
  146.0226  142.9196  154.7852 H   0  0  0  0  0  0  0  0  0  0  0  0
  147.7029  142.8547  156.6228 H   0  0  0  0  0  0  0  0  0  0  0  0
  149.4653  142.3839  157.9970 H   0  0  0  0  0  0  0  0  0  0  0  0
  150.3053  140.9610  158.5408 H   0  0  0  0  0  0  0  0  0  0  0  0
  152.4182  141.8574  157.3961 H   0  0  0  0  0  0  0  0  0  0  0  0
  151.5285  143.3426  157.0487 H   0  0  0  0  0  0  0  0  0  0  0  0
  152.8813  140.4492  158.5979 H   0  0  0  0  0  0  0  0  0  0  0  0
  154.1593  139.1342  160.2271 H   0  0  0  0  0  0  0  0  0  0  0  0
  154.6417  140.0501  162.4877 H   0  0  0  0  0  0  0  0  0  0  0  0
  153.8346  142.3111  163.1084 H   0  0  0  0  0  0  0  0  0  0  0  0
  152.7148  144.3376  162.5961 H   0  0  0  0  0  0  0  0  0  0  0  0
  151.3141  144.1205  161.5426 H   0  0  0  0  0  0  0  0  0  0  0  0
  152.8052  144.8207  160.9008 H   0  0  0  0  0  0  0  0  0  0  0  0
  1  2  1  0  0  0  0
  1 26  1  0  0  0  0
  1 27  1  0  0  0  0
  1 28  1  0  0  0  0
  2  3  2  0  0  0  0
  2  4  1  0  0  0  0
  4  5  1  0  0  0  0
  4 29  1  0  0  0  0
  5  6  1  0  0  0  0
  5 30  1  0  0  0  0
  5 31  1  0  0  0  0
  6  7  1  0  0  0  0
  6 32  1  0  0  0  0
  6 33  1  0  0  0  0
  7 15  1  0  0  0  0
  7  8  2  0  0  0  0
  8  9  1  0  0  0  0
  9 14  2  0  0  0  0
  9 10  1  0  0  0  0
 10 11  2  0  0  0  0
 10 34  1  0  0  0  0
 11 12  1  0  0  0  0
 11 35  1  0  0  0  0
 12 13  2  0  0  0  0
 12 36  1  0  0  0  0
 13 14  1  0  0  0  0
 13 37  1  0  0  0  0
 14 15  1  0  0  0  0
 15 16  1  0  0  0  0
 16 17  1  0  0  0  0
 16 38  1  0  0  0  0
 16 39  1  0  0  0  0
 17 18  1  0  0  0  0
 17 40  1  0  0  0  0
 17 41  1  0  0  0  0
 18 19  1  0  0  0  0
 19 24  1  0  0  0  0
 19 20  2  0  0  0  0
 20 21  1  0  0  0  0
 20 42  1  0  0  0  0
 21 22  2  0  0  0  0
 21 43  1  0  0  0  0
 22 23  1  0  0  0  0
 22 44  1  0  0  0  0
 23 24  2  0  0  0  0
 23 45  1  0  0  0  0
 24 25  1  0  0  0  0
 25 46  1  0  0  0  0
 25 47  1  0  0  0  0
 25 48  1  0  0  0  0
M  END
> <s_m_source_file>
AV-unprocessed.smi

> <i_m_source_file_index>
502

> <i_lp_mmshare_version>
43012

> <i_f3d_flags>
0

> <s_epik_input>
W0NIM11DKD1PKVtOSF1bQ0gyXVtDSDJdYyhuMSluKGMoYzEyKVtjSF1bY0hdW2NIXVtjSF0yKVtDSDJdW0NIMl1PYzNbY0hdW2NIXVtjSF1bY0hdYzNbQ0gzXQ==

> <s_epik_cmdline>
J2VwaWtfcHl0aG9uJywgJy1waCcsICc3LjAnLCAnLXRuJywgJzgnLCAnLW1hJywgJzIwMCcsICctbWV0YWxfYmluZGluZycsICctaW1hZScsICc8aW5maWxlLm1hZT4nLCAnLW9tYWUnLCAnPG91dGZpbGUubWFlPic=

> <r_lp_tautomer_probability>
1

> <r_epik_Ionization_Penalty>
0.0991824

> <r_epik_Ionization_Penalty_Charging>
0

> <r_epik_Ionization_Penalty_Neutral>
0.0991824

> <r_epik_State_Penalty>
0.0892428

> <r_epik_Charging_Adjusted_Penalty>
0.0892428

> <i_epik_Tot_Q>
0

> <i_epik_Tot_abs_Q>
0

> <r_epik_Metal_State_Penalty>
0.076345

> <b_epik_Metal_Only>
0

> <s_lp_Force_Field>
OPLS_2005

> <r_lp_Energy>
12.9543

> <b_lp_Chiralities_Consistent>
1

> <s_lp_Variant>
AV-unprocessed.smi:502-1

> <Gold.Version>
5.8.1

> <Gold.Id.Protein>
6NUR|6NUR_protein|mol2

> <Gold.PLP.Fitness>
55.8030

> <Gold.PLP.PLP>
-51.7538

> <Gold.PLP.part.hbond>
-2.0000

> <Gold.PLP.part.metal>
0.0000

> <Gold.PLP.part.buried>
-0.5428

> <Gold.PLP.part.nonpolar>
-48.3097

> <Gold.PLP.part.repulsive>
0.1713

> <Gold.PLP.ligand.clash>
0.0000

> <Gold.PLP.ligand.torsion>
0.7622

> <Gold.PLP.Chemscore.Hbond>
1.8000

> <Gold.PLP.Chemscore.CHOScore>
0.0000

> <Gold.PLP.Chemscore.Metal>
0.0000

> <Gold.Chemscore.Hbonds>
donor molecule, donor type, donor heavy atom, donor atom, acceptor molecule, acceptor atom, score
      P1  H  7989  7998       L1     8  0.65

> <Gold.PLP.Chemscore.Internal.Correction>
0.1736

> <Gold.Rescore>
     Score         DG    S(hbond)    S(metal)    S(lipo)     H(rot)  DE(clash)    DE(int)     intcor
     17.44     -19.91       1.00        0.00     140.92       2.11       1.34       1.14       ----

> <Gold.Chemscore.Fitness>
17.4356

> <Gold.Chemscore.DG>
-19.9123

> <Gold.Chemscore.ZeroCoef>
-5.4800

> <Gold.Chemscore.Hbond>
1.0003

> <Gold.Chemscore.Metal>
0.0000

> <Gold.Chemscore.Lipo>
140.9184

> <Gold.Chemscore.Internal_Hbond>
0.0000

> <Gold.Chemscore.DEClash>
1.3380

> <Gold.Chemscore.DEInternal>
1.1387

> <Gold.Chemscore.Rot>
2.1078

> <Gold.Chemscore.Internal.Correction>
   9.000000E+99

> <Gold.Chemscore.Hbonds>
donor molecule, donor type, donor heavy atom, donor atom, acceptor molecule, acceptor atom, score
      P1  H  7989  7998       L1     8  0.03

> <Gold.Chemscore.Hbond.Weighted>
-3.3409

> <Gold.Chemscore.Metal.Weighted>
-0.0000

> <Gold.Chemscore.Lipo.Weighted>
-16.4875

> <Gold.Chemscore.Internal_Hbond.Weighted>
0.0000

> <Gold.Chemscore.DEClash.Weighted>
1.3380

> <Gold.Chemscore.DEInternal.Weighted>
1.1387

> <Gold.Chemscore.Rot.Weighted>
5.3961

> <Gold.Chemscore.Internal.Correction.Weighted>
   9.000000E+99

> <Gold.Protein.RotatedTorsions>
[ 6907 6896 6895 6894 ] final   69.59 input  -60.11 | X-H torsion
[ 7974 7965 7964 7962 ] final  -47.33 input  175.53 | X-H torsion
[ 8008 7997 7996 7995 ] final -127.04 input   59.86 | X-H torsion
[ 10167 10162 10161 10158 ] final  144.19 input  -65.29 | X-H torsion
[ 10718 10713 10712 10709 ] final  -23.57 input   66.30 | X-H torsion
[ 10763 10752 10751 10750 ] final   89.95 input  -60.55 | X-H torsion
[ 11005 11000 10999 10996 ] final  141.00 input  -57.11 | X-H torsion

> <Gold.Protein.ActiveResidues>
 VAL166  LYS551  ARG553  GLY616  TRP617  ASP618  TYR619  PRO620  LYS621  CYS622 
 ASP623  PHE694  ASN695  SER759  ASP760  ASP761  ALA762  ILE779  LEU786  VAL792 
 PHE793  MET794  SER795  GLU796  ALA797  LYS798  CYS799  TRP800  GLU811  SER814 

> <Gold.Protein.RotatedAtoms>
  152.4696  134.4993  159.9719 H   0  0  0  0  0  0  0  0  0  0  0  0  # atno 6907 bound_to 6896
  151.5023  133.3496  159.2879 H   0  0  0  0  0  0  0  0  0  0  0  0  # atno 6908 bound_to 6896
  150.8698  134.8098  159.7208 H   0  0  0  0  0  0  0  0  0  0  0  0  # atno 6909 bound_to 6896
  145.9627  140.7463  142.9449 H   0  0  0  0  0  0  0  0  0  0  0  0  # atno 7974 bound_to 7965
  155.2396  140.0428  157.2973 H   0  0  0  0  0  0  0  0  0  0  0  0  # atno 8008 bound_to 7997
  154.5836  140.2407  155.7988 H   0  0  0  0  0  0  0  0  0  0  0  0  # atno 8009 bound_to 7997
  156.2211  140.2969  155.9962 H   0  0  0  0  0  0  0  0  0  0  0  0  # atno 8010 bound_to 7997
  139.4952  144.5989  151.6524 H   0  0  0  0  0  0  0  0  0  0  0  0  # atno 10167 bound_to 10162
  156.4892  130.4562  149.6765 H   0  0  0  0  0  0  0  0  0  0  0  0  # atno 10718 bound_to 10713
  153.1925  135.4451  155.0166 H   0  0  0  0  0  0  0  0  0  0  0  0  # atno 10763 bound_to 10752
  154.8098  135.3290  154.7336 H   0  0  0  0  0  0  0  0  0  0  0  0  # atno 10764 bound_to 10752
  153.7789  135.6979  153.4947 H   0  0  0  0  0  0  0  0  0  0  0  0  # atno 10765 bound_to 10752
  140.0369  134.9324  157.0769 H   0  0  0  0  0  0  0  0  0  0  0  0  # atno 11005 bound_to 11000
  144.6818  140.2617  143.7318 LP  0  0  0  0  0  0  0  0  0  0  0  0  # atno 17320 bound_to 7965
  145.8017  139.1967  143.2044 LP  0  0  0  0  0  0  0  0  0  0  0  0  # atno 17321 bound_to 7965
  140.5634  144.0231  150.6180 LP  0  0  0  0  0  0  0  0  0  0  0  0  # atno 17342 bound_to 10162
  140.3324  143.3069  152.0673 LP  0  0  0  0  0  0  0  0  0  0  0  0  # atno 17343 bound_to 10162
  156.3443  130.7398  151.2349 LP  0  0  0  0  0  0  0  0  0  0  0  0  # atno 17370 bound_to 10713
  157.7475  131.0395  150.4552 LP  0  0  0  0  0  0  0  0  0  0  0  0  # atno 17371 bound_to 10713
  140.4133  134.1958  155.7163 LP  0  0  0  0  0  0  0  0  0  0  0  0  # atno 17394 bound_to 11000
  141.1862  133.8307  157.1077 LP  0  0  0  0  0  0  0  0  0  0  0  0  # atno 17395 bound_to 11000

$$$$
