AV-unprocessed.smi:3029|AV-procd|sdf|11527|dock3
  -GOLD-   2272016473D 1   1.00000     0.00000
 Structure written by MMmdl.
 42 43  0  0  0  0  0  0  0  0  4 V2000
  147.5329  137.1276  161.0857 O   0  0  0  0  0  0  0  0  0  0  0  0
  147.5927  135.8992  161.0332 C   0  0  0  0  0  0  0  0  0  0  0  0
  146.8908  135.0419  161.9936 C   0  0  0  0  0  0  0  0  0  0  0  0
  146.9483  133.6977  161.9169 C   0  0  0  0  0  0  0  0  0  0  0  0
  147.7136  133.0529  160.8673 C   0  0  0  0  0  0  0  0  0  0  0  0
  147.7704  131.6112  160.7660 N   0  3  0  0  0  0  0  0  0  0  0  0
  147.1383  130.9331  161.5705 O   0  0  0  0  0  0  0  0  0  0  0  0
  148.4507  131.1101  159.8767 O   0  5  0  0  0  0  0  0  0  0  0  0
  148.3634  133.8433  159.9902 C   0  0  0  0  0  0  0  0  0  0  0  0
  148.3154  135.2484  160.0722 N   0  0  0  0  0  0  0  0  0  0  0  0
  149.0653  136.0030  159.0588 C   0  0  0  0  0  0  0  0  0  0  0  0
  148.1595  136.9948  158.3115 C   0  0  0  0  0  0  0  0  0  0  0  0
  148.7847  137.4217  157.0428 N   0  3  0  0  0  0  0  0  0  0  0  0
  149.2937  138.8144  157.0172 C   0  0  2  0  0  0  0  0  0  0  0  0
  148.1365  139.8386  157.0107 C   0  0  0  0  0  0  0  0  0  0  0  0
  147.3474  139.8107  155.6903 C   0  0  0  0  0  0  0  0  0  0  0  0
  148.2731  140.0287  154.4845 C   0  0  0  0  0  0  0  0  0  0  0  0
  149.4345  139.0215  154.4752 C   0  0  0  0  0  0  0  0  0  0  0  0
  150.2275  139.0558  155.8008 C   0  0  2  0  0  0  0  0  0  0  0  0
  151.4712  138.1378  155.7744 C   0  0  0  0  0  0  0  0  0  0  0  0
  152.1969  138.2643  156.8858 F   0  0  0  0  0  0  0  0  0  0  0  0
  151.0890  136.8663  155.6605 F   0  0  0  0  0  0  0  0  0  0  0  0
  152.2356  138.4372  154.7246 F   0  0  0  0  0  0  0  0  0  0  0  0
  146.3139  135.5013  162.7828 H   0  0  0  0  0  0  0  0  0  0  0  0
  146.4155  133.1079  162.6483 H   0  0  0  0  0  0  0  0  0  0  0  0
  148.9551  133.4615  159.1706 H   0  0  0  0  0  0  0  0  0  0  0  0
  149.9015  136.5319  159.5207 H   0  0  0  0  0  0  0  0  0  0  0  0
  149.5257  135.3175  158.3452 H   0  0  0  0  0  0  0  0  0  0  0  0
  147.1940  136.5302  158.1128 H   0  0  0  0  0  0  0  0  0  0  0  0
  147.9739  137.8738  158.9299 H   0  0  0  0  0  0  0  0  0  0  0  0
  149.5708  136.8085  156.8787 H   0  0  0  0  0  0  0  0  0  0  0  0
  149.8803  138.9672  157.9241 H   0  0  0  0  0  0  0  0  0  0  0  0
  147.4627  139.6794  157.8521 H   0  0  0  0  0  0  0  0  0  0  0  0
  148.5482  140.8389  157.1518 H   0  0  0  0  0  0  0  0  0  0  0  0
  146.8290  138.8567  155.5880 H   0  0  0  0  0  0  0  0  0  0  0  0
  146.5738  140.5789  155.7049 H   0  0  0  0  0  0  0  0  0  0  0  0
  147.7031  139.9477  153.5585 H   0  0  0  0  0  0  0  0  0  0  0  0
  148.6723  141.0434  154.5118 H   0  0  0  0  0  0  0  0  0  0  0  0
  149.0477  138.0179  154.2951 H   0  0  0  0  0  0  0  0  0  0  0  0
  150.0955  139.2472  153.6379 H   0  0  0  0  0  0  0  0  0  0  0  0
  150.6111  140.0721  155.9069 H   0  0  0  0  0  0  0  0  0  0  0  0
  148.1252  137.3024  156.2869 H   0  0  0  0  0  0  0  0  0  0  0  0
  1  2  2  0  0  0  0
  2 10  1  0  0  0  0
  2  3  1  0  0  0  0
  3  4  2  0  0  0  0
  3 24  1  0  0  0  0
  4  5  1  0  0  0  0
  4 25  1  0  0  0  0
  5  6  1  0  0  0  0
  5  9  2  0  0  0  0
  6  7  2  0  0  0  0
  6  8  1  0  0  0  0
  9 10  1  0  0  0  0
  9 26  1  0  0  0  0
 10 11  1  0  0  0  0
 11 12  1  0  0  0  0
 11 27  1  0  0  0  0
 11 28  1  0  0  0  0
 12 13  1  0  0  0  0
 12 29  1  0  0  0  0
 12 30  1  0  0  0  0
 13 14  1  0  0  0  0
 13 31  1  0  0  0  0
 13 42  1  0  0  0  0
 14 19  1  0  0  0  0
 14 15  1  0  0  0  0
 14 32  1  0  0  0  0
 15 16  1  0  0  0  0
 15 33  1  0  0  0  0
 15 34  1  0  0  0  0
 16 17  1  0  0  0  0
 16 35  1  0  0  0  0
 16 36  1  0  0  0  0
 17 18  1  0  0  0  0
 17 37  1  0  0  0  0
 17 38  1  0  0  0  0
 18 19  1  0  0  0  0
 18 39  1  0  0  0  0
 18 40  1  0  0  0  0
 19 20  1  0  0  0  0
 19 41  1  0  0  0  0
 20 21  1  0  0  0  0
 20 22  1  0  0  0  0
 20 23  1  0  0  0  0
M  CHG  1   6   1
M  CHG  1   8  -1
M  CHG  1  13   1
M  END
> <s_m_source_file>
AV-unprocessed.smi

> <i_m_source_file_index>
3029

> <i_lp_mmshare_version>
43012

> <i_f3d_flags>
0

> <s_epik_input>
Tz1jMVtjSF1bY0hdYyhbTitdKD1PKVtPLV0pW2NIXW4xW0NIMl1bQ0gyXVtOSF1bQ0BASF0yW0NIMl1bQ0gyXVtDSDJdW0NIMl1bQ0BIXTJDKEYpKEYpRg==

> <s_epik_cmdline>
J2VwaWtfcHl0aG9uJywgJy1waCcsICc3LjAnLCAnLXRuJywgJzgnLCAnLW1hJywgJzIwMCcsICctbWV0YWxfYmluZGluZycsICctaW1hZScsICc8aW5maWxlLm1hZT4nLCAnLW9tYWUnLCAnPG91dGZpbGUubWFlPic=

> <r_lp_tautomer_probability>
1

> <r_epik_Ionization_Penalty>
0.037386

> <r_epik_Ionization_Penalty_Charging>
0.037386

> <r_epik_Ionization_Penalty_Neutral>
0

> <r_epik_State_Penalty>
0.0312892

> <r_epik_Charging_Adjusted_Penalty>
0.0686752

> <i_epik_Tot_Q>
1

> <i_epik_Tot_abs_Q>
3

> <r_epik_Metal_State_Penalty>
0.0312892

> <b_epik_Metal_Only>
0

> <s_lp_Force_Field>
OPLS_2005

> <r_lp_Energy>
34.7992

> <b_lp_Chiralities_Consistent>
1

> <s_lp_Variant>
AV-unprocessed.smi:3029-3

> <Gold.Version>
5.8.1

> <Gold.Id.Protein>
6NUR|6NUR_protein|mol2

> <Gold.PLP.Fitness>
35.8387

> <Gold.PLP.PLP>
-31.4496

> <Gold.PLP.part.hbond>
-2.0000

> <Gold.PLP.part.metal>
0.0000

> <Gold.PLP.part.buried>
-4.3936

> <Gold.PLP.part.nonpolar>
-25.5489

> <Gold.PLP.part.repulsive>
0.0508

> <Gold.PLP.ligand.clash>
0.0000

> <Gold.PLP.ligand.torsion>
0.5460

> <Gold.PLP.Chemscore.Hbond>
1.7280

> <Gold.PLP.Chemscore.CHOScore>
0.0000

> <Gold.PLP.Chemscore.Metal>
0.0000

> <Gold.Chemscore.Hbonds>
donor molecule, donor type, donor heavy atom, donor atom, acceptor molecule, acceptor atom, score
      P1  H  6931  6943       L1     1  0.89
      P1  H  6934  6947       L1     1  0.98

> <Gold.PLP.Chemscore.Internal.Correction>
0.2972

> <Gold.Rescore>
     Score         DG    S(hbond)    S(metal)    S(lipo)     H(rot)  DE(clash)    DE(int)     intcor
     10.13     -13.53       1.71        0.00      61.81       1.90       0.05       3.35       ----

> <Gold.Chemscore.Fitness>
10.1301

> <Gold.Chemscore.DG>
-13.5338

> <Gold.Chemscore.ZeroCoef>
-5.4800

> <Gold.Chemscore.Hbond>
1.7054

> <Gold.Chemscore.Metal>
0.0000

> <Gold.Chemscore.Lipo>
61.8064

> <Gold.Chemscore.Internal_Hbond>
0.0000

> <Gold.Chemscore.DEClash>
0.0497

> <Gold.Chemscore.DEInternal>
3.3540

> <Gold.Chemscore.Rot>
1.9037

> <Gold.Chemscore.Internal.Correction>
   9.000000E+99

> <Gold.Chemscore.Hbonds>
donor molecule, donor type, donor heavy atom, donor atom, acceptor molecule, acceptor atom, score
      P1  H  6931  6943       L1     1  0.79
      P1  H  6934  6947       L1     1  0.92

> <Gold.Chemscore.Hbond.Weighted>
-5.6960

> <Gold.Chemscore.Metal.Weighted>
-0.0000

> <Gold.Chemscore.Lipo.Weighted>
-7.2313

> <Gold.Chemscore.Internal_Hbond.Weighted>
0.0000

> <Gold.Chemscore.DEClash.Weighted>
0.0497

> <Gold.Chemscore.DEInternal.Weighted>
3.3540

> <Gold.Chemscore.Rot.Weighted>
4.8736

> <Gold.Chemscore.Internal.Correction.Weighted>
   9.000000E+99

> <Gold.Protein.RotatedTorsions>
[ 6907 6896 6895 6894 ] final -114.39 input  -60.11 | X-H torsion
[ 7974 7965 7964 7962 ] final -170.62 input  175.53 | X-H torsion
[ 8008 7997 7996 7995 ] final   40.50 input   59.86 | X-H torsion
[ 10167 10162 10161 10158 ] final  -60.31 input  -65.29 | X-H torsion
[ 10718 10713 10712 10709 ] final  -14.64 input   66.30 | X-H torsion
[ 10763 10752 10751 10750 ] final  -76.14 input  -60.55 | X-H torsion
[ 11005 11000 10999 10996 ] final  -68.32 input  -57.11 | X-H torsion

> <Gold.Protein.ActiveResidues>
 VAL166  LYS551  ARG553  GLY616  TRP617  ASP618  TYR619  PRO620  LYS621  CYS622 
 ASP623  PHE694  ASN695  SER759  ASP760  ASP761  ALA762  ILE779  LEU786  VAL792 
 PHE793  MET794  SER795  GLU796  ALA797  LYS798  CYS799  TRP800  GLU811  SER814 

> <Gold.Protein.RotatedAtoms>
  150.7899  133.8807  159.3284 H   0  0  0  0  0  0  0  0  0  0  0  0  # atno 6907 bound_to 6896
  151.6648  135.0982  160.0196 H   0  0  0  0  0  0  0  0  0  0  0  0  # atno 6908 bound_to 6896
  152.3971  133.6724  159.6320 H   0  0  0  0  0  0  0  0  0  0  0  0  # atno 6909 bound_to 6896
  144.7167  140.2045  143.6334 H   0  0  0  0  0  0  0  0  0  0  0  0  # atno 7974 bound_to 7965
  155.2542  140.3354  155.4279 H   0  0  0  0  0  0  0  0  0  0  0  0  # atno 8008 bound_to 7997
  156.2203  140.1806  156.7537 H   0  0  0  0  0  0  0  0  0  0  0  0  # atno 8009 bound_to 7997
  154.5814  140.0653  156.9095 H   0  0  0  0  0  0  0  0  0  0  0  0  # atno 8010 bound_to 7997
  140.6080  143.2379  151.5777 H   0  0  0  0  0  0  0  0  0  0  0  0  # atno 10167 bound_to 10162
  156.6131  130.4855  149.6193 H   0  0  0  0  0  0  0  0  0  0  0  0  # atno 10718 bound_to 10713
  154.4958  135.5808  153.6494 H   0  0  0  0  0  0  0  0  0  0  0  0  # atno 10763 bound_to 10752
  152.9870  135.6124  154.3066 H   0  0  0  0  0  0  0  0  0  0  0  0  # atno 10764 bound_to 10752
  154.2969  135.2847  155.2608 H   0  0  0  0  0  0  0  0  0  0  0  0  # atno 10765 bound_to 10752
  141.1529  133.6738  156.6428 H   0  0  0  0  0  0  0  0  0  0  0  0  # atno 11005 bound_to 11000
  145.8649  139.2242  143.1695 LP  0  0  0  0  0  0  0  0  0  0  0  0  # atno 17320 bound_to 7965
  146.0139  140.8410  142.9957 LP  0  0  0  0  0  0  0  0  0  0  0  0  # atno 17321 bound_to 7965
  139.5339  144.2836  152.1209 LP  0  0  0  0  0  0  0  0  0  0  0  0  # atno 17342 bound_to 10162
  140.2030  144.4639  150.6422 LP  0  0  0  0  0  0  0  0  0  0  0  0  # atno 17343 bound_to 10162
  156.2373  130.6830  151.1522 LP  0  0  0  0  0  0  0  0  0  0  0  0  # atno 17370 bound_to 10713
  157.7248  131.0657  150.5978 LP  0  0  0  0  0  0  0  0  0  0  0  0  # atno 17371 bound_to 10713
  140.3380  134.7873  157.4376 LP  0  0  0  0  0  0  0  0  0  0  0  0  # atno 17394 bound_to 11000
  140.0961  134.5535  155.8397 LP  0  0  0  0  0  0  0  0  0  0  0  0  # atno 17395 bound_to 11000

$$$$
