AV-unprocessed.smi:157|AV-procd|sdf|1305|dock7
  -GOLD-   2262018593D 1   1.00000     0.00000
 Structure written by MMmdl.
 35 37  0  0  0  0  0  0  0  0  1 V2000
  149.2420  138.2538  153.3403 O   0  0  0  0  0  0  0  0  0  0  0  0
  150.4552  138.8542  153.7414 C   0  0  0  0  0  0  0  0  0  0  0  0
  150.2282  139.7498  154.9717 C   0  0  1  0  0  0  0  0  0  0  0  0
  151.2750  140.7029  155.1127 O   0  0  0  0  0  0  0  0  0  0  0  0
  150.8330  141.7904  155.8724 C   0  0  2  0  0  0  0  0  0  0  0  0
  151.4596  141.7225  157.2342 N   0  0  0  0  0  0  0  0  0  0  0  0
  152.2017  140.7237  157.7322 C   0  0  0  0  0  0  0  0  0  0  0  0
  152.6269  140.9186  158.9686 N   0  0  0  0  0  0  0  0  0  0  0  0
  152.1216  142.1746  159.3046 C   0  0  0  0  0  0  0  0  0  0  0  0
  151.3771  142.6815  158.2484 C   0  0  0  0  0  0  0  0  0  0  0  0
  150.6337  143.8216  158.0008 N   0  0  0  0  0  0  0  0  0  0  0  0
  150.3712  144.6264  158.9832 C   0  0  0  0  0  0  0  0  0  0  0  0
  150.7941  144.6143  160.3055 N   0  0  0  0  0  0  0  0  0  0  0  0
  152.1428  144.2725  160.7141 C   0  0  0  0  0  0  0  0  0  0  0  0
  152.3932  142.7653  160.6594 C   0  0  2  0  0  0  0  0  0  0  0  0
  153.7541  142.5275  160.9588 O   0  0  0  0  0  0  0  0  0  0  0  0
  149.3048  141.6825  155.9938 C   0  0  0  0  0  0  0  0  0  0  0  0
  148.9573  140.6081  154.9801 C   0  0  1  0  0  0  0  0  0  0  0  0
  148.6893  141.1810  153.7141 O   0  0  0  0  0  0  0  0  0  0  0  0
  150.2349  139.1297  155.8702 H   0  0  0  0  0  0  0  0  0  0  0  0
  151.1847  142.7268  155.4377 H   0  0  0  0  0  0  0  0  0  0  0  0
  151.7823  142.2644  161.4111 H   0  0  0  0  0  0  0  0  0  0  0  0
  148.0843  140.0307  155.2864 H   0  0  0  0  0  0  0  0  0  0  0  0
  149.4336  137.5981  152.6872 H   0  0  0  0  0  0  0  0  0  0  0  0
  151.1645  138.0630  153.9854 H   0  0  0  0  0  0  0  0  0  0  0  0
  150.8812  139.4151  152.9093 H   0  0  0  0  0  0  0  0  0  0  0  0
  152.4362  139.8257  157.1798 H   0  0  0  0  0  0  0  0  0  0  0  0
  149.7222  145.4807  158.7854 H   0  0  0  0  0  0  0  0  0  0  0  0
  150.3461  145.2331  160.9661 H   0  0  0  0  0  0  0  0  0  0  0  0
  152.8473  144.7959  160.0654 H   0  0  0  0  0  0  0  0  0  0  0  0
  152.3093  144.6458  161.7249 H   0  0  0  0  0  0  0  0  0  0  0  0
  154.0098  143.1160  161.6530 H   0  0  0  0  0  0  0  0  0  0  0  0
  149.0346  141.3500  156.9977 H   0  0  0  0  0  0  0  0  0  0  0  0
  148.8250  142.6441  155.8066 H   0  0  0  0  0  0  0  0  0  0  0  0
  148.6947  140.4914  153.0680 H   0  0  0  0  0  0  0  0  0  0  0  0
  1  2  1  0  0  0  0
  1 24  1  0  0  0  0
  2  3  1  0  0  0  0
  2 25  1  0  0  0  0
  2 26  1  0  0  0  0
  3 20  1  0  0  0  0
  3 18  1  0  0  0  0
  3  4  1  0  0  0  0
  4  5  1  0  0  0  0
  5 21  1  0  0  0  0
  5  6  1  0  0  0  0
  5 17  1  0  0  0  0
  6 10  1  0  0  0  0
  6  7  1  0  0  0  0
  7  8  2  0  0  0  0
  7 27  1  0  0  0  0
  8  9  1  0  0  0  0
  9 15  1  0  0  0  0
  9 10  2  0  0  0  0
 10 11  1  0  0  0  0
 11 12  2  0  0  0  0
 12 13  1  0  0  0  0
 12 28  1  0  0  0  0
 13 14  1  0  0  0  0
 13 29  1  0  0  0  0
 14 15  1  0  0  0  0
 14 30  1  0  0  0  0
 14 31  1  0  0  0  0
 15 22  1  0  0  0  0
 15 16  1  0  0  0  0
 16 32  1  0  0  0  0
 17 18  1  0  0  0  0
 17 33  1  0  0  0  0
 17 34  1  0  0  0  0
 18 23  1  0  0  0  0
 18 19  1  0  0  0  0
 19 35  1  0  0  0  0
M  END
> <s_m_source_file>
AV-unprocessed.smi

> <i_m_source_file_index>
157

> <i_lp_mmshare_version>
43012

> <i_f3d_flags>
0

> <s_epik_input>
W09IXVtDSDJdW0NASF0xT1tDQEhdKFtDSDJdW0NAQEhdMVtPSF0pbihbY0hdbjIpYyhjMjMpTj1bQ0hdW05IXVtDSDJdW0NASF0zW09IXQ==

> <s_epik_cmdline>
J2VwaWtfcHl0aG9uJywgJy1waCcsICc3LjAnLCAnLXRuJywgJzgnLCAnLW1hJywgJzIwMCcsICctbWV0YWxfYmluZGluZycsICctaW1hZScsICc8aW5maWxlLm1hZT4nLCAnLW9tYWUnLCAnPG91dGZpbGUubWFlPic=

> <r_lp_tautomer_probability>
1

> <r_epik_Ionization_Penalty>
0.0357149

> <r_epik_Ionization_Penalty_Charging>
0.0355056

> <r_epik_Ionization_Penalty_Neutral>
0.000209255

> <r_epik_State_Penalty>
0.0296046

> <r_epik_Charging_Adjusted_Penalty>
0.0651102

> <i_epik_Tot_Q>
0

> <i_epik_Tot_abs_Q>
0

> <r_epik_Metal_State_Penalty>
3.03559e-05

> <b_epik_Metal_Only>
0

> <s_epik_Chemistry_Notes>
This compound has an imine and may undergo hydrolysis. This compound contains an acetal/aminal-like group ( X-CH(R)-Y where X, Y are N, S, or O) that may be acid/base labile, releasing an aldehyde.

> <s_lp_Force_Field>
OPLS_2005

> <r_lp_Energy>
41.6449

> <b_lp_Chiralities_Consistent>
1

> <s_lp_Variant>
AV-unprocessed.smi:157-15

> <Gold.Version>
5.8.1

> <Gold.Id.Protein>
6NUR|6NUR_protein|mol2

> <Gold.PLP.Fitness>
48.4579

> <Gold.PLP.PLP>
-35.8018

> <Gold.PLP.part.hbond>
-5.7083

> <Gold.PLP.part.metal>
0.0000

> <Gold.PLP.part.buried>
-6.5951

> <Gold.PLP.part.nonpolar>
-24.4644

> <Gold.PLP.part.repulsive>
0.8371

> <Gold.PLP.ligand.clash>
0.0000

> <Gold.PLP.ligand.torsion>
0.3067

> <Gold.PLP.Chemscore.Hbond>
3.5216

> <Gold.PLP.Chemscore.CHOScore>
0.8993

> <Gold.PLP.Chemscore.Metal>
0.0000

> <Gold.Chemscore.Hbonds>
donor molecule, donor type, donor heavy atom, donor atom, acceptor molecule, acceptor atom, score
      L1  H     1    24       P1  7948  1.00
      L1  H    19    35       P1  7957  0.54
      P1  H  7989  7998       L1     4  0.79
      P1  H  8011  8017       L1    19  0.27
      L1  C    12    28       P1  8029  1.00

> <Gold.PLP.Chemscore.Internal.Correction>
0.0067

> <Gold.Rescore>
     Score         DG    S(hbond)    S(metal)    S(lipo)     H(rot)  DE(clash)    DE(int)     intcor
      8.81      -9.92       1.96        0.00      61.67       3.64       0.96       0.15       ----

> <Gold.Chemscore.Fitness>
8.8075

> <Gold.Chemscore.DG>
-9.9165

> <Gold.Chemscore.ZeroCoef>
-5.4800

> <Gold.Chemscore.Hbond>
1.9551

> <Gold.Chemscore.Metal>
0.0000

> <Gold.Chemscore.Lipo>
61.6681

> <Gold.Chemscore.Internal_Hbond>
0.0000

> <Gold.Chemscore.DEClash>
0.9587

> <Gold.Chemscore.DEInternal>
0.1503

> <Gold.Chemscore.Rot>
3.6362

> <Gold.Chemscore.Internal.Correction>
   9.000000E+99

> <Gold.Chemscore.Hbonds>
donor molecule, donor type, donor heavy atom, donor atom, acceptor molecule, acceptor atom, score
      L1  H     1    24       P1  7948  0.74
      L1  H    19    35       P1  7957  0.52
      P1  H  7989  7998       L1     4  0.17
      P1  H  8011  8017       L1    19  0.01

> <Gold.Chemscore.Hbond.Weighted>
-6.5301

> <Gold.Chemscore.Metal.Weighted>
-0.0000

> <Gold.Chemscore.Lipo.Weighted>
-7.2152

> <Gold.Chemscore.Internal_Hbond.Weighted>
0.0000

> <Gold.Chemscore.DEClash.Weighted>
0.9587

> <Gold.Chemscore.DEInternal.Weighted>
0.1503

> <Gold.Chemscore.Rot.Weighted>
9.3087

> <Gold.Chemscore.Internal.Correction.Weighted>
   9.000000E+99

> <Gold.Protein.RotatedTorsions>
[ 6907 6896 6895 6894 ] final  142.04 input  -60.11 | X-H torsion
[ 7974 7965 7964 7962 ] final  103.28 input  175.53 | X-H torsion
[ 8008 7997 7996 7995 ] final   73.28 input   59.86 | X-H torsion
[ 10167 10162 10161 10158 ] final   71.13 input  -65.29 | X-H torsion
[ 10718 10713 10712 10709 ] final   12.51 input   66.30 | X-H torsion
[ 10763 10752 10751 10750 ] final   46.74 input  -60.55 | X-H torsion
[ 11005 11000 10999 10996 ] final   16.83 input  -57.11 | X-H torsion

> <Gold.Protein.ActiveResidues>
 VAL166  LYS551  ARG553  GLY616  TRP617  ASP618  TYR619  PRO620  LYS621  CYS622 
 ASP623  PHE694  ASN695  SER759  ASP760  ASP761  ALA762  ILE779  LEU786  VAL792 
 PHE793  MET794  SER795  GLU796  ALA797  LYS798  CYS799  TRP800  GLU811  SER814 

> <Gold.Protein.RotatedAtoms>
  152.2236  133.5003  159.5175 H   0  0  0  0  0  0  0  0  0  0  0  0  # atno 6907 bound_to 6896
  150.7019  134.1310  159.4078 H   0  0  0  0  0  0  0  0  0  0  0  0  # atno 6908 bound_to 6896
  151.9231  135.0289  160.0574 H   0  0  0  0  0  0  0  0  0  0  0  0  # atno 6909 bound_to 6896
  145.3480  139.2446  143.3573 H   0  0  0  0  0  0  0  0  0  0  0  0  # atno 7974 bound_to 7965
  155.7814  140.3482  155.5299 H   0  0  0  0  0  0  0  0  0  0  0  0  # atno 8008 bound_to 7997
  155.8725  140.0989  157.1561 H   0  0  0  0  0  0  0  0  0  0  0  0  # atno 8009 bound_to 7997
  154.4018  140.1338  156.4083 H   0  0  0  0  0  0  0  0  0  0  0  0  # atno 8010 bound_to 7997
  140.0494  144.5324  150.7374 H   0  0  0  0  0  0  0  0  0  0  0  0  # atno 10167 bound_to 10162
  157.0112  130.6117  149.5708 H   0  0  0  0  0  0  0  0  0  0  0  0  # atno 10718 bound_to 10713
  152.9807  135.5998  154.3649 H   0  0  0  0  0  0  0  0  0  0  0  0  # atno 10763 bound_to 10752
  154.3327  135.2768  155.2465 H   0  0  0  0  0  0  0  0  0  0  0  0  # atno 10764 bound_to 10752
  154.4582  135.5972  153.6293 H   0  0  0  0  0  0  0  0  0  0  0  0  # atno 10765 bound_to 10752
  140.4427  134.1305  155.7692 H   0  0  0  0  0  0  0  0  0  0  0  0  # atno 11005 bound_to 11000
  146.2980  140.4091  142.8714 LP  0  0  0  0  0  0  0  0  0  0  0  0  # atno 17320 bound_to 7965
  144.8739  140.7310  143.6029 LP  0  0  0  0  0  0  0  0  0  0  0  0  # atno 17321 bound_to 7965
  140.7224  143.2601  151.4236 LP  0  0  0  0  0  0  0  0  0  0  0  0  # atno 17342 bound_to 10162
  139.5963  144.1391  152.2147 LP  0  0  0  0  0  0  0  0  0  0  0  0  # atno 17343 bound_to 10162
  156.0135  130.5228  150.8064 LP  0  0  0  0  0  0  0  0  0  0  0  0  # atno 17370 bound_to 10713
  157.5319  131.0937  150.9943 LP  0  0  0  0  0  0  0  0  0  0  0  0  # atno 17371 bound_to 10713
  141.1698  133.8630  157.1604 LP  0  0  0  0  0  0  0  0  0  0  0  0  # atno 17394 bound_to 11000
  140.0059  135.0008  157.0291 LP  0  0  0  0  0  0  0  0  0  0  0  0  # atno 17395 bound_to 11000

$$$$
