AV-unprocessed.smi:2178|AV-procd|sdf|8852|dock4
  -GOLD-   2272012 43D 1   1.00000     0.00000
 Structure written by MMmdl.
 46 48  0  0  0  0  0  0  0  0  1 V2000
  146.8888  136.6904  155.5626 C   0  0  0  0  0  0  0  0  0  0  0  0
  146.8721  137.6201  154.3630 C   0  0  0  0  0  0  0  0  0  0  0  0
  146.4471  137.1250  153.1130 C   0  0  0  0  0  0  0  0  0  0  0  0
  146.4413  137.9627  151.9825 C   0  0  0  0  0  0  0  0  0  0  0  0
  146.8657  139.2992  152.0951 C   0  0  0  0  0  0  0  0  0  0  0  0
  147.2901  139.8064  153.3405 C   0  0  0  0  0  0  0  0  0  0  0  0
  147.7527  141.2476  153.4472 C   0  0  0  0  0  0  0  0  0  0  0  0
  147.2802  138.9707  154.4815 C   0  0  0  0  0  0  0  0  0  0  0  0
  147.6939  139.4700  155.6894 O   0  0  0  0  0  0  0  0  0  0  0  0
  149.0923  139.7073  155.7606 C   0  0  0  0  0  0  0  0  0  0  0  0
  149.3452  140.9142  156.6761 C   0  0  2  0  0  0  0  0  0  0  0  0
  148.3956  141.9170  156.3706 O   0  0  0  0  0  0  0  0  0  0  0  0
  150.7647  141.4876  156.4920 C   0  0  0  0  0  0  0  0  0  0  0  0
  151.4357  141.7460  157.7593 N   0  0  0  0  0  0  0  0  0  0  0  0
  152.1713  140.8847  158.5068 C   0  0  0  0  0  0  0  0  0  0  0  0
  152.4097  139.4658  158.0900 C   0  0  0  0  0  0  0  0  0  0  0  0
  153.7795  139.1699  157.9226 O   0  0  0  0  0  0  0  0  0  0  0  0
  152.6774  141.3817  159.6357 N   0  0  0  0  0  0  0  0  0  0  0  0
  152.2310  142.6886  159.6188 C   0  0  0  0  0  0  0  0  0  0  0  0
  152.4313  143.7383  160.5437 C   0  0  0  0  0  0  0  0  0  0  0  0
  151.8691  145.0108  160.3120 C   0  0  0  0  0  0  0  0  0  0  0  0
  151.1010  145.2515  159.1544 C   0  0  0  0  0  0  0  0  0  0  0  0
  150.8899  144.2196  158.2197 C   0  0  0  0  0  0  0  0  0  0  0  0
  151.4522  142.9507  158.4561 C   0  0  0  0  0  0  0  0  0  0  0  0
  147.0296  135.6554  155.2499 H   0  0  0  0  0  0  0  0  0  0  0  0
  145.9452  136.7566  156.1043 H   0  0  0  0  0  0  0  0  0  0  0  0
  147.6985  136.9435  156.2476 H   0  0  0  0  0  0  0  0  0  0  0  0
  146.1268  136.0980  153.0161 H   0  0  0  0  0  0  0  0  0  0  0  0
  146.1169  137.5779  151.0267 H   0  0  0  0  0  0  0  0  0  0  0  0
  146.8652  139.9332  151.2203 H   0  0  0  0  0  0  0  0  0  0  0  0
  148.6957  141.3090  153.9912 H   0  0  0  0  0  0  0  0  0  0  0  0
  147.0099  141.8452  153.9758 H   0  0  0  0  0  0  0  0  0  0  0  0
  147.9047  141.6888  152.4617 H   0  0  0  0  0  0  0  0  0  0  0  0
  149.5656  138.8203  156.1848 H   0  0  0  0  0  0  0  0  0  0  0  0
  149.5350  139.8597  154.7751 H   0  0  0  0  0  0  0  0  0  0  0  0
  149.2119  140.6132  157.7154 H   0  0  0  0  0  0  0  0  0  0  0  0
  148.8521  142.7339  156.2398 H   0  0  0  0  0  0  0  0  0  0  0  0
  151.3777  140.8021  155.9068 H   0  0  0  0  0  0  0  0  0  0  0  0
  150.7277  142.4162  155.9209 H   0  0  0  0  0  0  0  0  0  0  0  0
  151.9986  138.7952  158.8455 H   0  0  0  0  0  0  0  0  0  0  0  0
  151.8779  139.2549  157.1628 H   0  0  0  0  0  0  0  0  0  0  0  0
  153.8898  138.2321  157.9568 H   0  0  0  0  0  0  0  0  0  0  0  0
  153.0187  143.5635  161.4328 H   0  0  0  0  0  0  0  0  0  0  0  0
  152.0281  145.8056  161.0260 H   0  0  0  0  0  0  0  0  0  0  0  0
  150.6736  146.2288  158.9848 H   0  0  0  0  0  0  0  0  0  0  0  0
  150.3009  144.4011  157.3333 H   0  0  0  0  0  0  0  0  0  0  0  0
  1  2  1  0  0  0  0
  1 25  1  0  0  0  0
  1 26  1  0  0  0  0
  1 27  1  0  0  0  0
  2  8  1  0  0  0  0
  2  3  2  0  0  0  0
  3  4  1  0  0  0  0
  3 28  1  0  0  0  0
  4  5  2  0  0  0  0
  4 29  1  0  0  0  0
  5  6  1  0  0  0  0
  5 30  1  0  0  0  0
  6  7  1  0  0  0  0
  6  8  2  0  0  0  0
  7 31  1  0  0  0  0
  7 32  1  0  0  0  0
  7 33  1  0  0  0  0
  8  9  1  0  0  0  0
  9 10  1  0  0  0  0
 10 11  1  0  0  0  0
 10 34  1  0  0  0  0
 10 35  1  0  0  0  0
 11 12  1  0  0  0  0
 11 13  1  0  0  0  0
 11 36  1  0  0  0  0
 12 37  1  0  0  0  0
 13 14  1  0  0  0  0
 13 38  1  0  0  0  0
 13 39  1  0  0  0  0
 14 24  1  0  0  0  0
 14 15  1  0  0  0  0
 15 16  1  0  0  0  0
 15 18  2  0  0  0  0
 16 17  1  0  0  0  0
 16 40  1  0  0  0  0
 16 41  1  0  0  0  0
 17 42  1  0  0  0  0
 18 19  1  0  0  0  0
 19 24  2  0  0  0  0
 19 20  1  0  0  0  0
 20 21  2  0  0  0  0
 20 43  1  0  0  0  0
 21 22  1  0  0  0  0
 21 44  1  0  0  0  0
 22 23  2  0  0  0  0
 22 45  1  0  0  0  0
 23 24  1  0  0  0  0
 23 46  1  0  0  0  0
M  END
> <s_m_source_file>
AV-unprocessed.smi

> <i_m_source_file_index>
2178

> <i_lp_mmshare_version>
43012

> <i_f3d_flags>
0

> <s_epik_input>
W0NIM11jMVtjSF1bY0hdW2NIXWMoW0NIM10pYzFPW0NIMl1bQ0BIXShbT0hdKVtDSDJdbihjKG4yKVtDSDJdW09IXSljKGMyMylbY0hdW2NIXVtjSF1bY0hdMw==

> <s_epik_cmdline>
J2VwaWtfcHl0aG9uJywgJy1waCcsICc3LjAnLCAnLXRuJywgJzgnLCAnLW1hJywgJzIwMCcsICctbWV0YWxfYmluZGluZycsICctaW1hZScsICc8aW5maWxlLm1hZT4nLCAnLW9tYWUnLCAnPG91dGZpbGUubWFlPic=

> <r_lp_tautomer_probability>
1

> <r_epik_Ionization_Penalty>
0.0555874

> <r_epik_Ionization_Penalty_Charging>
0

> <r_epik_Ionization_Penalty_Neutral>
0.0555874

> <r_epik_State_Penalty>
0.0478234

> <r_epik_Charging_Adjusted_Penalty>
0.0478234

> <i_epik_Tot_Q>
0

> <i_epik_Tot_abs_Q>
0

> <r_epik_Metal_State_Penalty>
4.98044e-05

> <b_epik_Metal_Only>
0

> <s_lp_Force_Field>
OPLS_2005

> <r_lp_Energy>
19.7692

> <b_lp_Chiralities_Consistent>
1

> <s_lp_Variant>
AV-unprocessed.smi:2178-1

> <Gold.Version>
5.8.1

> <Gold.Id.Protein>
6NUR|6NUR_protein|mol2

> <Gold.PLP.Fitness>
47.0065

> <Gold.PLP.PLP>
-44.0189

> <Gold.PLP.part.hbond>
-2.0000

> <Gold.PLP.part.metal>
0.0000

> <Gold.PLP.part.buried>
-4.2754

> <Gold.PLP.part.nonpolar>
-38.5084

> <Gold.PLP.part.repulsive>
0.0000

> <Gold.PLP.ligand.clash>
0.0000

> <Gold.PLP.ligand.torsion>
1.4854

> <Gold.PLP.Chemscore.Hbond>
1.9440

> <Gold.PLP.Chemscore.CHOScore>
0.0000

> <Gold.PLP.Chemscore.Metal>
0.0000

> <Gold.Chemscore.Hbonds>
donor molecule, donor type, donor heavy atom, donor atom, acceptor molecule, acceptor atom, score
      L1  H    12    37       P1  8028  0.91
      P1  H  7997  8008       L1    17  1.00

> <Gold.PLP.Chemscore.Internal.Correction>
0.1264

> <Gold.Rescore>
     Score         DG    S(hbond)    S(metal)    S(lipo)     H(rot)  DE(clash)    DE(int)     intcor
     16.56     -19.22       1.77        0.00     131.55       2.96       0.75       1.92       ----

> <Gold.Chemscore.Fitness>
16.5592

> <Gold.Chemscore.DG>
-19.2243

> <Gold.Chemscore.ZeroCoef>
-5.4800

> <Gold.Chemscore.Hbond>
1.7725

> <Gold.Chemscore.Metal>
0.0000

> <Gold.Chemscore.Lipo>
131.5538

> <Gold.Chemscore.Internal_Hbond>
0.0000

> <Gold.Chemscore.DEClash>
0.7470

> <Gold.Chemscore.DEInternal>
1.9181

> <Gold.Chemscore.Rot>
2.9561

> <Gold.Chemscore.Internal.Correction>
   9.000000E+99

> <Gold.Chemscore.Hbonds>
donor molecule, donor type, donor heavy atom, donor atom, acceptor molecule, acceptor atom, score
      L1  H    12    37       P1  8028  0.83
      P1  H  7997  8008       L1    17  0.80

> <Gold.Chemscore.Hbond.Weighted>
-5.9202

> <Gold.Chemscore.Metal.Weighted>
-0.0000

> <Gold.Chemscore.Lipo.Weighted>
-15.3918

> <Gold.Chemscore.Internal_Hbond.Weighted>
0.0000

> <Gold.Chemscore.DEClash.Weighted>
0.7470

> <Gold.Chemscore.DEInternal.Weighted>
1.9181

> <Gold.Chemscore.Rot.Weighted>
7.5677

> <Gold.Chemscore.Internal.Correction.Weighted>
   9.000000E+99

> <Gold.Protein.RotatedTorsions>
[ 6907 6896 6895 6894 ] final  -56.25 input  -60.11 | X-H torsion
[ 7974 7965 7964 7962 ] final -131.28 input  175.53 | X-H torsion
[ 8008 7997 7996 7995 ] final  -72.22 input   59.86 | X-H torsion
[ 10167 10162 10161 10158 ] final   25.94 input  -65.29 | X-H torsion
[ 10718 10713 10712 10709 ] final  -46.38 input   66.30 | X-H torsion
[ 10763 10752 10751 10750 ] final   63.17 input  -60.55 | X-H torsion
[ 11005 11000 10999 10996 ] final   50.22 input  -57.11 | X-H torsion

> <Gold.Protein.ActiveResidues>
 VAL166  LYS551  ARG553  GLY616  TRP617  ASP618  TYR619  PRO620  LYS621  CYS622 
 ASP623  PHE694  ASN695  SER759  ASP760  ASP761  ALA762  ILE779  LEU786  VAL792 
 PHE793  MET794  SER795  GLU796  ALA797  LYS798  CYS799  TRP800  GLU811  SER814 

> <Gold.Protein.RotatedAtoms>
  150.8183  134.7377  159.6749 H   0  0  0  0  0  0  0  0  0  0  0  0  # atno 6907 bound_to 6896
  152.4300  134.5792  159.9953 H   0  0  0  0  0  0  0  0  0  0  0  0  # atno 6908 bound_to 6896
  151.5983  133.3321  159.3078 H   0  0  0  0  0  0  0  0  0  0  0  0  # atno 6909 bound_to 6896
  144.9394  140.7221  143.4856 H   0  0  0  0  0  0  0  0  0  0  0  0  # atno 7974 bound_to 7965
  154.5149  140.0801  156.8062 H   0  0  0  0  0  0  0  0  0  0  0  0  # atno 8008 bound_to 7997
  155.3702  140.3422  155.4225 H   0  0  0  0  0  0  0  0  0  0  0  0  # atno 8009 bound_to 7997
  156.1616  140.1590  156.8589 H   0  0  0  0  0  0  0  0  0  0  0  0  # atno 8010 bound_to 7997
  140.5064  144.0232  150.6354 H   0  0  0  0  0  0  0  0  0  0  0  0  # atno 10167 bound_to 10162
  156.2189  130.4165  149.9019 H   0  0  0  0  0  0  0  0  0  0  0  0  # atno 10718 bound_to 10713
  153.0008  135.5438  154.6310 H   0  0  0  0  0  0  0  0  0  0  0  0  # atno 10763 bound_to 10752
  154.5587  135.2832  155.0941 H   0  0  0  0  0  0  0  0  0  0  0  0  # atno 10764 bound_to 10752
  154.2152  135.6460  153.5180 H   0  0  0  0  0  0  0  0  0  0  0  0  # atno 10765 bound_to 10752
  140.1036  134.5049  155.8740 H   0  0  0  0  0  0  0  0  0  0  0  0  # atno 11005 bound_to 11000
  145.3015  139.1849  143.4687 LP  0  0  0  0  0  0  0  0  0  0  0  0  # atno 17320 bound_to 7965
  146.3279  140.3007  142.8620 LP  0  0  0  0  0  0  0  0  0  0  0  0  # atno 17321 bound_to 7965
  140.3542  143.2945  152.0454 LP  0  0  0  0  0  0  0  0  0  0  0  0  # atno 17342 bound_to 10162
  139.4885  144.6351  151.6991 LP  0  0  0  0  0  0  0  0  0  0  0  0  # atno 17343 bound_to 10162
  156.6672  130.8805  151.3556 LP  0  0  0  0  0  0  0  0  0  0  0  0  # atno 17370 bound_to 10713
  157.7077  130.9404  150.0985 LP  0  0  0  0  0  0  0  0  0  0  0  0  # atno 17371 bound_to 10713
  141.2112  133.6704  156.6566 LP  0  0  0  0  0  0  0  0  0  0  0  0  # atno 17394 bound_to 11000
  140.3187  134.8026  157.4235 LP  0  0  0  0  0  0  0  0  0  0  0  0  # atno 17395 bound_to 11000

$$$$
