#       Name:                AV-unprocessed.smi:1701
#       Creating user name   scv26
#       Creation time:       Fri Mar 27 08:02:10 2020


#       File generated by GOLD software.
#

@<TRIPOS>MOLECULE
AV-unprocessed.smi:1701
    57    59     1
SMALL
NO_CHARGES


@<TRIPOS>ATOM
      1 ****        -6.1522  -1.7969   2.3858 C.3            1 S1                 0.0000
      2 ****        -5.9523  -2.1037   0.8940 C.3            1 S1                 0.0000
      3 ****        -5.3511  -0.9961   0.1511 N.pl3          1 S1                 0.0000
      4 ****        -6.2175   0.0161  -0.4582 C.3            1 S1                 0.0000
      5 ****        -6.4485   1.2383   0.4437 C.3            1 S1                 0.0000
      6 ****        -3.9489  -0.7978   0.1805 C.ar           1 S1                 0.0000
      7 ****        -3.0539  -1.6278   0.9008 C.ar           1 S1                 0.0000
      8 ****        -1.6702  -1.3602   0.8753 C.ar           1 S1                 0.0000
      9 ****        -1.1745  -0.2685   0.1337 C.ar           1 S1                 0.0000
     10 ****         0.2342  -0.0624   0.1541 N.am           1 S1                 0.0000
     11 ****         1.0011   0.8977  -0.4204 C.2            1 S1                 0.0000
     12 ****         0.4682   1.7839  -1.0831 O.2            1 S1                 0.0000
     13 ****         2.3573   0.8708  -0.2506 N.pl3          1 S1                -1.0000
     14 ****         3.1931  -0.0978   0.4805 C.3            1 S1                 0.0000
     15 ****         3.7414   0.5520   1.7562 C.3            1 S1                 0.0000
     16 ****         5.0212   1.2954   1.3270 C.3            1 S1                 0.0000
     17 ****         5.4329   0.7426   0.0106 N.4            1 S1                 1.0000
     18 ****         5.5366   1.7919  -1.0446 C.3            1 S1                 0.0000
     19 ****         5.7232   1.1963  -2.4448 C.3            1 S1                 0.0000
     20 ****         4.5403   0.2880  -2.7856 C.3            1 S1                 0.0000
     21 ****         4.4586  -0.8527  -1.7625 C.3            1 S1                 0.0000
     22 ****         4.5046  -0.3861  -0.2802 C.3            1 S1                 0.0000
     23 ****        -2.1060   0.5301  -0.5721 C.ar           1 S1                 0.0000
     24 ****        -3.4233   0.2375  -0.5192 N.pl3          1 S1                 1.0000
     25 ****        -6.5533  -2.6683   2.9034 H              1 S1                 0.0000
     26 ****        -6.8566  -0.9799   2.5364 H              1 S1                 0.0000
     27 ****        -5.2151  -1.5272   2.8729 H              1 S1                 0.0000
     28 ****        -5.3573  -3.0077   0.7656 H              1 S1                 0.0000
     29 ****        -6.9204  -2.3379   0.4503 H              1 S1                 0.0000
     30 ****        -5.8078   0.3301  -1.4187 H              1 S1                 0.0000
     31 ****        -7.1812  -0.4377  -0.6912 H              1 S1                 0.0000
     32 ****        -7.0715   1.9747  -0.0638 H              1 S1                 0.0000
     33 ****        -5.5103   1.7276   0.7064 H              1 S1                 0.0000
     34 ****        -6.9555   0.9678   1.3687 H              1 S1                 0.0000
     35 ****        -3.3996  -2.4686   1.4821 H              1 S1                 0.0000
     36 ****        -0.9927  -1.9953   1.4275 H              1 S1                 0.0000
     37 ****         0.7521  -0.7449   0.6880 H              1 S1                 0.0000
     38 ****         2.6689  -1.0266   0.7094 H              1 S1                 0.0000
     39 ****         3.0221   1.2050   2.2530 H              1 S1                 0.0000
     40 ****         4.0051  -0.2309   2.4685 H              1 S1                 0.0000
     41 ****         4.8328   2.3694   1.2664 H              1 S1                 0.0000
     42 ****         5.8189   1.1551   2.0572 H              1 S1                 0.0000
     43 ****         4.6402   2.4143  -1.0432 H              1 S1                 0.0000
     44 ****         6.3718   2.4507  -0.8049 H              1 S1                 0.0000
     45 ****         5.7974   1.9976  -3.1805 H              1 S1                 0.0000
     46 ****         6.6578   0.6363  -2.4957 H              1 S1                 0.0000
     47 ****         3.6146   0.8644  -2.7898 H              1 S1                 0.0000
     48 ****         4.6552  -0.1198  -3.7903 H              1 S1                 0.0000
     49 ****         3.5868  -1.4788  -1.9617 H              1 S1                 0.0000
     50 ****         5.3189  -1.5011  -1.9338 H              1 S1                 0.0000
     51 ****         4.9421  -1.2297   0.2574 H              1 S1                 0.0000
     52 ****        -1.8697   1.3892  -1.1797 H              1 S1                 0.0000
     53 ****         6.3546   0.3424   0.1072 H              1 S1                 0.0000
     54 ****        -4.0628   0.8367  -1.0412 H              1 S1                 0.0000
     55 ****        -0.5253   1.7947  -1.1964 LP             1 S1                 0.0000
     56 ****         1.0278   2.4947  -1.5092 LP             1 S1                 0.0000
     57 ****         2.8561   1.6195  -0.6873 LP             1 S1                 0.0000
@<TRIPOS>BOND
    1    1    2 1     
    2    1   25 1     
    3    1   26 1     
    4    1   27 1     
    5    2    3 1     
    6    2   28 1     
    7    2   29 1     
    8    3    4 1     
    9    3    6 1     
   10    4    5 1     
   11    4   30 1     
   12    4   31 1     
   13    5   32 1     
   14    5   33 1     
   15    5   34 1     
   16    6   24 ar    
   17    6    7 ar    
   18    7    8 ar    
   19    7   35 1     
   20    8    9 ar    
   21    8   36 1     
   22    9   10 1     
   23    9   23 ar    
   24   10   11 am    
   25   10   37 1     
   26   11   12 2     
   27   11   13 1     
   28   13   14 1     
   29   14   22 1     
   30   14   15 1     
   31   14   38 1     
   32   15   16 1     
   33   15   39 1     
   34   15   40 1     
   35   16   17 1     
   36   16   41 1     
   37   16   42 1     
   38   17   22 1     
   39   17   18 1     
   40   17   53 1     
   41   18   19 1     
   42   18   43 1     
   43   18   44 1     
   44   19   20 1     
   45   19   45 1     
   46   19   46 1     
   47   20   21 1     
   48   20   47 1     
   49   20   48 1     
   50   21   22 1     
   51   21   49 1     
   52   21   50 1     
   53   22   51 1     
   54   23   24 ar    
   55   23   52 1     
   56   24   54 1     
   57   12   55 1     
   58   12   56 1     
   59   13   57 1     
@<TRIPOS>SUBSTRUCTURE
      1 S1             1
@<TRIPOS>SET
LONE_PAIRS      STATIC     ATOMS    <user>   **** ""
3 55 56 57
DONOR_HYDROGENS      STATIC     ATOMS    <user>   **** ""
3 37 53 54
ATOM$BLUE        STATIC     ATOMS    COLORGROUP SYSTEM
3 55 56 57
ATOM$RED        STATIC     ATOMS    COLORGROUP SYSTEM
3 37 53 54
