#       Name:                AV-unprocessed.smi:1586
#       Creating user name   scv26
#       Creation time:       Fri Mar 27 07:00:17 2020


#       File generated by GOLD software.
#

@<TRIPOS>MOLECULE
AV-unprocessed.smi:1586
    53    54     1
SMALL
NO_CHARGES


@<TRIPOS>ATOM
      1 ****        -3.1847  -5.2044  -1.3974 C.3            1 S1                 0.0000
      2 ****        -3.4869  -3.7342  -1.7204 C.3            1 S1                 0.0000
      3 ****        -2.9162  -2.8010  -0.7175 N.4            1 S1                 1.0000
      4 ****        -3.5575  -1.4648  -0.7626 C.3            1 S1                 0.0000
      5 ****        -2.9736  -0.5473   0.3320 C.3            1 S1                 0.0000
      6 ****        -1.5234  -0.3675   0.1785 N.3            1 S1                 0.0000
      7 ****        -1.1044   0.4150  -1.0054 C.3            1 S1                 0.0000
      8 ****        -1.8025   1.7920  -1.0489 C.3            1 S1                 0.0000
      9 ****         0.4305   0.6109  -1.0607 C.3            1 S1                 0.0000
     10 ****         0.9364   1.2712   0.1377 N.am           1 S1                 0.0000
     11 ****         2.1847   1.7333   0.2818 C.2            1 S1                 0.0000
     12 ****         3.0464   1.6362  -0.5918 O.2            1 S1                 0.0000
     13 ****         2.3556   2.2988   1.4885 N.am           1 S1                 0.0000
     14 ****         3.5145   2.9269   2.0122 C.2            1 S1                 0.0000
     15 ****         4.7374   3.1563   1.3170 C.2            1 S1                 0.0000
     16 ****         5.5076   3.7868   2.2531 C.2            1 S1                 0.0000
     17 ****         6.8988   4.3204   2.2299 C.3            1 S1                 0.0000
     18 ****         4.8164   3.9333   3.4153 O.3            1 S1                 0.0000
     19 ****         3.5405   3.3817   3.2513 N.2            1 S1                 0.0000
     20 ****        -0.9210  -1.7034   0.2906 C.3            1 S1                 0.0000
     21 ****        -1.4394  -2.6678  -0.7982 C.3            1 S1                 0.0000
     22 ****        -3.6974  -5.8625  -2.0992 H              1 S1                 0.0000
     23 ****        -3.5232  -5.4660  -0.3943 H              1 S1                 0.0000
     24 ****        -2.1204  -5.4283  -1.4647 H              1 S1                 0.0000
     25 ****        -3.1286  -3.4780  -2.7187 H              1 S1                 0.0000
     26 ****        -4.5710  -3.6133  -1.7410 H              1 S1                 0.0000
     27 ****        -3.4420  -1.0231  -1.7533 H              1 S1                 0.0000
     28 ****        -4.6293  -1.5766  -0.5955 H              1 S1                 0.0000
     29 ****        -3.4909   0.4106   0.3475 H              1 S1                 0.0000
     30 ****        -3.1671  -0.9881   1.3110 H              1 S1                 0.0000
     31 ****        -1.3910  -0.1188  -1.9104 H              1 S1                 0.0000
     32 ****        -1.3836   2.4161  -1.8387 H              1 S1                 0.0000
     33 ****        -1.6875   2.3337  -0.1092 H              1 S1                 0.0000
     34 ****        -2.8672   1.7058  -1.2636 H              1 S1                 0.0000
     35 ****         0.9528  -0.3341  -1.2089 H              1 S1                 0.0000
     36 ****         0.6827   1.2169  -1.9327 H              1 S1                 0.0000
     37 ****         0.2885   1.3850   0.9036 H              1 S1                 0.0000
     38 ****         1.5597   2.2802   2.1089 H              1 S1                 0.0000
     39 ****         5.0186   2.9094   0.3046 H              1 S1                 0.0000
     40 ****         7.4370   3.9685   1.3496 H              1 S1                 0.0000
     41 ****         7.4516   4.0007   3.1135 H              1 S1                 0.0000
     42 ****         6.8933   5.4102   2.2094 H              1 S1                 0.0000
     43 ****         0.1660  -1.6497   0.2688 H              1 S1                 0.0000
     44 ****        -1.1636  -2.1100   1.2736 H              1 S1                 0.0000
     45 ****        -0.9744  -3.6412  -0.6474 H              1 S1                 0.0000
     46 ****        -1.1423  -2.3347  -1.7932 H              1 S1                 0.0000
     47 ****        -3.1283  -3.1834   0.1930 H              1 S1                 0.0000
     48 ****        -1.1776   0.2236   0.9072 LP             1 S1                 0.0000
     49 ****         2.8286   1.1942  -1.4619 LP             1 S1                 0.0000
     50 ****         3.9642   1.9992  -0.4313 LP             1 S1                 0.0000
     51 ****         4.7368   4.9046   3.6394 LP             1 S1                 0.0000
     52 ****         5.2956   3.4590   4.1539 LP             1 S1                 0.0000
     53 ****         2.8055   3.3408   3.9282 LP             1 S1                 0.0000
@<TRIPOS>BOND
    1    1    2 1     
    2    1   22 1     
    3    1   23 1     
    4    1   24 1     
    5    2    3 1     
    6    2   25 1     
    7    2   26 1     
    8    3   21 1     
    9    3    4 1     
   10    3   47 1     
   11    4    5 1     
   12    4   27 1     
   13    4   28 1     
   14    5    6 1     
   15    5   29 1     
   16    5   30 1     
   17    6    7 1     
   18    6   20 1     
   19    7    8 1     
   20    7    9 1     
   21    7   31 1     
   22    8   32 1     
   23    8   33 1     
   24    8   34 1     
   25    9   10 1     
   26    9   35 1     
   27    9   36 1     
   28   10   11 am    
   29   10   37 1     
   30   11   12 2     
   31   11   13 am    
   32   13   14 1     
   33   13   38 1     
   34   14   19 2     
   35   14   15 1     
   36   15   16 2     
   37   15   39 1     
   38   16   17 1     
   39   16   18 1     
   40   17   40 1     
   41   17   41 1     
   42   17   42 1     
   43   18   19 1     
   44   20   21 1     
   45   20   43 1     
   46   20   44 1     
   47   21   45 1     
   48   21   46 1     
   49    6   48 1     
   50   12   49 1     
   51   12   50 1     
   52   18   51 1     
   53   18   52 1     
   54   19   53 1     
@<TRIPOS>SUBSTRUCTURE
      1 S1             1
@<TRIPOS>SET
LONE_PAIRS      STATIC     ATOMS    <user>   **** ""
6 48 49 50 51 52 53
DONOR_HYDROGENS      STATIC     ATOMS    <user>   **** ""
3 47 37 38
ATOM$BLUE        STATIC     ATOMS    COLORGROUP SYSTEM
6 48 49 50 51 52 53
ATOM$RED        STATIC     ATOMS    COLORGROUP SYSTEM
3 47 37 38
