AV-unprocessed.smi:283|AV-procd|sdf|2144|dock10
  -GOLD-   2262021473D 1   1.00000     0.00000
 Structure written by MMmdl.
 48 51  0  0  0  0  0  0  0  0  1 V2000
  149.2557  141.7428  156.9598 C   0  0  0  0  0  0  0  0  0  0  0  0
  150.6078  141.2496  157.4925 C   0  0  1  0  0  0  0  0  0  0  0  0
  151.5124  140.9878  156.3746 N   0  0  0  0  0  0  0  0  0  0  0  0
  151.6844  139.7331  155.9033 C   0  0  0  0  0  0  0  0  0  0  0  0
  152.8190  139.5231  155.1945 N   0  0  0  0  0  0  0  0  0  0  0  0
  153.0927  138.3082  154.7121 C   0  0  0  0  0  0  0  0  0  0  0  0
  152.3774  137.1876  154.8218 N   0  0  0  0  0  0  0  0  0  0  0  0
  151.2231  137.3931  155.5194 C   0  0  0  0  0  0  0  0  0  0  0  0
  150.7994  138.6296  156.0856 C   0  0  0  0  0  0  0  0  0  0  0  0
  149.5664  138.4522  156.7025 N   0  0  0  0  0  0  0  0  0  0  0  0
  149.2923  137.1893  156.5253 C   0  0  0  0  0  0  0  0  0  0  0  0
  150.2397  136.4752  155.8286 N   0  0  0  0  0  0  0  0  0  0  0  0
  150.2101  135.0221  155.4842 C   0  0  1  0  0  0  0  0  0  0  0  0
  150.4980  134.2944  156.6367 O   0  0  0  0  0  0  0  0  0  0  0  0
  149.7032  133.1146  156.6893 C   0  0  2  0  0  0  0  0  0  0  0  0
  150.4458  131.9754  155.9643 C   0  0  0  0  0  0  0  0  0  0  0  0
  151.6397  131.6669  156.6506 O   0  0  0  0  0  0  0  0  0  0  0  0
  148.4022  133.5215  155.9833 C   0  0  1  0  0  0  0  0  0  0  0  0
  147.4951  134.0338  156.9390 O   0  0  0  0  0  0  0  0  0  0  0  0
  148.8156  134.6047  154.9898 C   0  0  2  0  0  0  0  0  0  0  0  0
  148.8838  134.0517  153.6904 O   0  0  0  0  0  0  0  0  0  0  0  0
  151.1518  142.2229  158.5428 C   0  0  0  0  0  0  0  0  0  0  0  0
  150.6046  143.5233  158.6487 C   0  0  0  0  0  0  0  0  0  0  0  0
  151.0946  144.4342  159.6031 C   0  0  0  0  0  0  0  0  0  0  0  0
  152.1330  144.0516  160.4707 C   0  0  0  0  0  0  0  0  0  0  0  0
  152.6742  142.7555  160.3861 C   0  0  0  0  0  0  0  0  0  0  0  0
  152.1873  141.8393  159.4324 C   0  0  0  0  0  0  0  0  0  0  0  0
  152.8802  140.2557  159.3862 Cl  0  0  0  0  0  0  0  0  0  0  0  0
  150.9991  134.8917  154.7417 H   0  0  0  0  0  0  0  0  0  0  0  0
  149.5130  132.8245  157.7242 H   0  0  0  0  0  0  0  0  0  0  0  0
  147.9113  132.6744  155.5015 H   0  0  0  0  0  0  0  0  0  0  0  0
  148.1248  135.4499  154.9823 H   0  0  0  0  0  0  0  0  0  0  0  0
  148.5346  141.8590  157.7694 H   0  0  0  0  0  0  0  0  0  0  0  0
  148.8334  141.0372  156.2435 H   0  0  0  0  0  0  0  0  0  0  0  0
  149.3533  142.7073  156.4605 H   0  0  0  0  0  0  0  0  0  0  0  0
  150.4251  140.2848  157.9618 H   0  0  0  0  0  0  0  0  0  0  0  0
  152.1965  141.7120  156.2108 H   0  0  0  0  0  0  0  0  0  0  0  0
  154.0188  138.2200  154.1636 H   0  0  0  0  0  0  0  0  0  0  0  0
  148.3860  136.7406  156.9056 H   0  0  0  0  0  0  0  0  0  0  0  0
  149.8358  131.0718  155.9582 H   0  0  0  0  0  0  0  0  0  0  0  0
  150.6617  132.2239  154.9250 H   0  0  0  0  0  0  0  0  0  0  0  0
  151.5080  130.8657  157.1346 H   0  0  0  0  0  0  0  0  0  0  0  0
  147.5185  133.4750  157.7021 H   0  0  0  0  0  0  0  0  0  0  0  0
  148.7466  134.7443  153.0623 H   0  0  0  0  0  0  0  0  0  0  0  0
  149.8046  143.8331  157.9927 H   0  0  0  0  0  0  0  0  0  0  0  0
  150.6724  145.4261  159.6690 H   0  0  0  0  0  0  0  0  0  0  0  0
  152.5108  144.7490  161.2039 H   0  0  0  0  0  0  0  0  0  0  0  0
  153.4666  142.4626  161.0592 H   0  0  0  0  0  0  0  0  0  0  0  0
  1  2  1  0  0  0  0
  1 33  1  0  0  0  0
  1 34  1  0  0  0  0
  1 35  1  0  0  0  0
  2  3  1  0  0  0  0
  2 22  1  0  0  0  0
  2 36  1  0  0  0  0
  3  4  1  0  0  0  0
  3 37  1  0  0  0  0
  4  9  1  0  0  0  0
  4  5  2  0  0  0  0
  5  6  1  0  0  0  0
  6  7  2  0  0  0  0
  6 38  1  0  0  0  0
  7  8  1  0  0  0  0
  8 12  1  0  0  0  0
  8  9  2  0  0  0  0
  9 10  1  0  0  0  0
 10 11  2  0  0  0  0
 11 12  1  0  0  0  0
 11 39  1  0  0  0  0
 12 13  1  0  0  0  0
 13 29  1  0  0  0  0
 13 20  1  0  0  0  0
 13 14  1  0  0  0  0
 14 15  1  0  0  0  0
 15 30  1  0  0  0  0
 15 16  1  0  0  0  0
 15 18  1  0  0  0  0
 16 17  1  0  0  0  0
 16 40  1  0  0  0  0
 16 41  1  0  0  0  0
 17 42  1  0  0  0  0
 18 31  1  0  0  0  0
 18 19  1  0  0  0  0
 18 20  1  0  0  0  0
 19 43  1  0  0  0  0
 20 32  1  0  0  0  0
 20 21  1  0  0  0  0
 21 44  1  0  0  0  0
 22 27  1  0  0  0  0
 22 23  2  0  0  0  0
 23 24  1  0  0  0  0
 23 45  1  0  0  0  0
 24 25  2  0  0  0  0
 24 46  1  0  0  0  0
 25 26  1  0  0  0  0
 25 47  1  0  0  0  0
 26 27  2  0  0  0  0
 26 48  1  0  0  0  0
 27 28  1  0  0  0  0
M  END
> <s_m_source_file>
AV-unprocessed.smi

> <i_m_source_file_index>
283

> <i_lp_mmshare_version>
43012

> <i_f3d_flags>
0

> <s_epik_input>
Q2xjMVtjSF1bY0hdW2NIXVtjSF1jMVtDQEhdKFtDSDNdKVtOSF1jKG5bY0hdbjIpYyhjMjMpbltjSF1uM1tDQEBIXTRPW0NASF0oW0NIMl1bT0hdKVtDQEBIXShbT0hdKVtDQEhdNFtPSF0=

> <s_epik_cmdline>
J2VwaWtfcHl0aG9uJywgJy1waCcsICc3LjAnLCAnLXRuJywgJzgnLCAnLW1hJywgJzIwMCcsICctbWV0YWxfYmluZGluZycsICctaW1hZScsICc8aW5maWxlLm1hZT4nLCAnLW9tYWUnLCAnPG91dGZpbGUubWFlPic=

> <r_lp_tautomer_probability>
1

> <r_epik_Ionization_Penalty>
0.000266407

> <r_epik_Ionization_Penalty_Charging>
0

> <r_epik_Ionization_Penalty_Neutral>
0.000266407

> <r_epik_State_Penalty>
-0

> <r_epik_Charging_Adjusted_Penalty>
0

> <i_epik_Tot_Q>
0

> <i_epik_Tot_abs_Q>
0

> <r_epik_Metal_State_Penalty>
-0

> <b_epik_Metal_Only>
0

> <s_epik_Chemistry_Notes>
This compound contains an acetal/aminal-like group ( X-CH(R)-Y where X, Y are N, S, or O) that may be acid/base labile, releasing an aldehyde.

> <s_lp_Force_Field>
OPLS_2005

> <r_lp_Energy>
38.3642

> <b_lp_Chiralities_Consistent>
1

> <s_lp_Variant>
AV-unprocessed.smi:283-20

> <Gold.Version>
5.8.1

> <Gold.Id.Protein>
6NUR|6NUR_protein|mol2

> <Gold.PLP.Fitness>
50.6347

> <Gold.PLP.PLP>
-44.0295

> <Gold.PLP.part.hbond>
-3.9641

> <Gold.PLP.part.metal>
0.0000

> <Gold.PLP.part.buried>
-7.4827

> <Gold.PLP.part.nonpolar>
-33.7130

> <Gold.PLP.part.repulsive>
0.2557

> <Gold.PLP.ligand.clash>
0.0000

> <Gold.PLP.ligand.torsion>
1.1083

> <Gold.PLP.Chemscore.Hbond>
2.9023

> <Gold.PLP.Chemscore.CHOScore>
0.0000

> <Gold.PLP.Chemscore.Metal>
0.0000

> <Gold.Chemscore.Hbonds>
donor molecule, donor type, donor heavy atom, donor atom, acceptor molecule, acceptor atom, score
      L1  H    21    44       P1  7948  0.95
      P1  H  7997  8009       L1     5  1.00
      P1  H 10752 10765       L1     7  0.66

> <Gold.PLP.Chemscore.Internal.Correction>
0.1148

> <Gold.Rescore>
     Score         DG    S(hbond)    S(metal)    S(lipo)     H(rot)  DE(clash)    DE(int)     intcor
     12.55     -13.96       2.27        0.00      97.44       4.10       0.13       1.28       ----

> <Gold.Chemscore.Fitness>
12.5475

> <Gold.Chemscore.DG>
-13.9612

> <Gold.Chemscore.ZeroCoef>
-5.4800

> <Gold.Chemscore.Hbond>
2.2662

> <Gold.Chemscore.Metal>
0.0000

> <Gold.Chemscore.Lipo>
97.4355

> <Gold.Chemscore.Internal_Hbond>
0.0000

> <Gold.Chemscore.DEClash>
0.1325

> <Gold.Chemscore.DEInternal>
1.2812

> <Gold.Chemscore.Rot>
4.0968

> <Gold.Chemscore.Internal.Correction>
   9.000000E+99

> <Gold.Chemscore.Hbonds>
donor molecule, donor type, donor heavy atom, donor atom, acceptor molecule, acceptor atom, score
      L1  H    21    44       P1  7948  0.22
      P1  H  7997  8009       L1     5  0.53
      P1  H 10752 10765       L1     7  0.65

> <Gold.Chemscore.Hbond.Weighted>
-7.5692

> <Gold.Chemscore.Metal.Weighted>
-0.0000

> <Gold.Chemscore.Lipo.Weighted>
-11.4000

> <Gold.Chemscore.Internal_Hbond.Weighted>
0.0000

> <Gold.Chemscore.DEClash.Weighted>
0.1325

> <Gold.Chemscore.DEInternal.Weighted>
1.2812

> <Gold.Chemscore.Rot.Weighted>
10.4879

> <Gold.Chemscore.Internal.Correction.Weighted>
   9.000000E+99

> <Gold.Protein.RotatedTorsions>
[ 6907 6896 6895 6894 ] final   52.98 input  -60.11 | X-H torsion
[ 7974 7965 7964 7962 ] final  148.69 input  175.53 | X-H torsion
[ 8008 7997 7996 7995 ] final -133.22 input   59.86 | X-H torsion
[ 10167 10162 10161 10158 ] final   19.74 input  -65.29 | X-H torsion
[ 10718 10713 10712 10709 ] final -150.56 input   66.30 | X-H torsion
[ 10763 10752 10751 10750 ] final  159.07 input  -60.55 | X-H torsion
[ 11005 11000 10999 10996 ] final   -0.46 input  -57.11 | X-H torsion

> <Gold.Protein.ActiveResidues>
 VAL166  LYS551  ARG553  GLY616  TRP617  ASP618  TYR619  PRO620  LYS621  CYS622 
 ASP623  PHE694  ASN695  SER759  ASP760  ASP761  ALA762  ILE779  LEU786  VAL792 
 PHE793  MET794  SER795  GLU796  ALA797  LYS798  CYS799  TRP800  GLU811  SER814 

> <Gold.Protein.RotatedAtoms>
  152.3289  134.7285  160.0294 H   0  0  0  0  0  0  0  0  0  0  0  0  # atno 6907 bound_to 6896
  151.7708  133.3335  159.3452 H   0  0  0  0  0  0  0  0  0  0  0  0  # atno 6908 bound_to 6896
  150.7412  134.5952  159.6052 H   0  0  0  0  0  0  0  0  0  0  0  0  # atno 6909 bound_to 6896
  144.8494  139.6186  143.5980 H   0  0  0  0  0  0  0  0  0  0  0  0  # atno 7974 bound_to 7965
  155.3419  140.0472  157.3045 H   0  0  0  0  0  0  0  0  0  0  0  0  # atno 8008 bound_to 7997
  154.5273  140.2245  155.8833 H   0  0  0  0  0  0  0  0  0  0  0  0  # atno 8009 bound_to 7997
  156.1752  140.3087  155.9052 H   0  0  0  0  0  0  0  0  0  0  0  0  # atno 8010 bound_to 7997
  140.5556  143.9431  150.6607 H   0  0  0  0  0  0  0  0  0  0  0  0  # atno 10167 bound_to 10162
  156.4477  130.8153  151.2383 H   0  0  0  0  0  0  0  0  0  0  0  0  # atno 10718 bound_to 10713
  154.2260  135.2780  155.2907 H   0  0  0  0  0  0  0  0  0  0  0  0  # atno 10763 bound_to 10752
  154.5663  135.5632  153.7057 H   0  0  0  0  0  0  0  0  0  0  0  0  # atno 10764 bound_to 10752
  153.0031  135.6310  154.2401 H   0  0  0  0  0  0  0  0  0  0  0  0  # atno 10765 bound_to 10752
  140.6365  133.9528  155.8303 H   0  0  0  0  0  0  0  0  0  0  0  0  # atno 11005 bound_to 11000
  146.2772  139.6783  142.9254 LP  0  0  0  0  0  0  0  0  0  0  0  0  # atno 17320 bound_to 7965
  145.4530  141.0429  143.2794 LP  0  0  0  0  0  0  0  0  0  0  0  0  # atno 17321 bound_to 7965
  140.2868  143.3351  152.1100 LP  0  0  0  0  0  0  0  0  0  0  0  0  # atno 17342 bound_to 10162
  139.5046  144.6779  151.6082 LP  0  0  0  0  0  0  0  0  0  0  0  0  # atno 17343 bound_to 10162
  157.7504  131.0148  150.3477 LP  0  0  0  0  0  0  0  0  0  0  0  0  # atno 17370 bound_to 10713
  156.3849  130.3887  149.7073 LP  0  0  0  0  0  0  0  0  0  0  0  0  # atno 17371 bound_to 10713
  141.0637  134.0308  157.3623 LP  0  0  0  0  0  0  0  0  0  0  0  0  # atno 17394 bound_to 11000
  139.9096  135.0187  156.7635 LP  0  0  0  0  0  0  0  0  0  0  0  0  # atno 17395 bound_to 11000

$$$$
