AV-unprocessed.smi:3032|AV-procd|sdf|11568|dock7
  -GOLD-   2272016533D 1   1.00000     0.00000
 Structure written by MMmdl.
 37 38  0  0  0  0  0  0  0  0  1 V2000
  152.7776  142.7626  162.5266 C   0  0  0  0  0  0  0  0  0  0  0  0
  152.1250  143.1738  161.1990 C   0  0  1  0  0  0  0  0  0  0  0  0
  151.9175  144.6978  161.1247 C   0  0  0  0  0  0  0  0  0  0  0  0
  151.2611  145.1147  159.8000 C   0  0  0  0  0  0  0  0  0  0  0  0
  152.0777  144.6246  158.5903 C   0  0  0  0  0  0  0  0  0  0  0  0
  152.3778  143.1077  158.6194 C   0  0  2  0  0  0  0  0  0  0  0  0
  151.1708  142.2494  158.1955 C   0  0  0  0  0  0  0  0  0  0  0  0
  150.7581  141.3375  158.9118 O   0  0  0  0  0  0  0  0  0  0  0  0
  150.6117  142.5531  157.0134 N   0  0  0  0  0  0  0  0  0  0  0  0
  149.4793  141.8539  156.4171 C   0  0  0  0  0  0  0  0  0  0  0  0
  149.7826  141.4160  154.9750 C   0  0  0  0  0  0  0  0  0  0  0  0
  150.4057  140.0604  154.9077 C   0  0  0  0  0  0  0  0  0  0  0  0
  150.9233  139.4048  155.9538 N   0  0  0  0  0  0  0  0  0  0  0  0
  151.3716  138.1939  155.4497 N   0  0  0  0  0  0  0  0  0  0  0  0
  151.0764  138.2350  154.1494 C   0  0  0  0  0  0  0  0  0  0  0  0
  150.4756  139.3660  153.7617 N   0  0  0  0  0  0  0  0  0  0  0  0
  152.9544  142.6841  159.9916 C   0  0  0  0  0  0  0  0  0  0  0  0
  150.1571  139.6290  152.8405 H   0  0  0  0  0  0  0  0  0  0  0  0
  153.7668  143.2076  162.6379 H   0  0  0  0  0  0  0  0  0  0  0  0
  152.8902  141.6798  162.5893 H   0  0  0  0  0  0  0  0  0  0  0  0
  152.1723  143.0795  163.3762 H   0  0  0  0  0  0  0  0  0  0  0  0
  151.1452  142.6976  161.1669 H   0  0  0  0  0  0  0  0  0  0  0  0
  151.2986  145.0317  161.9582 H   0  0  0  0  0  0  0  0  0  0  0  0
  152.8769  145.2062  161.2298 H   0  0  0  0  0  0  0  0  0  0  0  0
  150.2443  144.7254  159.7546 H   0  0  0  0  0  0  0  0  0  0  0  0
  151.1681  146.2003  159.7624 H   0  0  0  0  0  0  0  0  0  0  0  0
  151.5601  144.8900  157.6674 H   0  0  0  0  0  0  0  0  0  0  0  0
  153.0237  145.1671  158.5647 H   0  0  0  0  0  0  0  0  0  0  0  0
  153.1592  142.9283  157.8788 H   0  0  0  0  0  0  0  0  0  0  0  0
  151.0055  143.3187  156.4858 H   0  0  0  0  0  0  0  0  0  0  0  0
  149.2033  140.9938  157.0297 H   0  0  0  0  0  0  0  0  0  0  0  0
  148.6233  142.5288  156.4267 H   0  0  0  0  0  0  0  0  0  0  0  0
  148.8661  141.4134  154.3834 H   0  0  0  0  0  0  0  0  0  0  0  0
  150.4573  142.1276  154.4974 H   0  0  0  0  0  0  0  0  0  0  0  0
  151.3014  137.4257  153.4703 H   0  0  0  0  0  0  0  0  0  0  0  0
  153.9688  143.0759  160.0767 H   0  0  0  0  0  0  0  0  0  0  0  0
  153.0548  141.5983  160.0315 H   0  0  0  0  0  0  0  0  0  0  0  0
  1  2  1  0  0  0  0
  1 19  1  0  0  0  0
  1 20  1  0  0  0  0
  1 21  1  0  0  0  0
  2 17  1  0  0  0  0
  2  3  1  0  0  0  0
  2 22  1  0  0  0  0
  3  4  1  0  0  0  0
  3 23  1  0  0  0  0
  3 24  1  0  0  0  0
  4  5  1  0  0  0  0
  4 25  1  0  0  0  0
  4 26  1  0  0  0  0
  5  6  1  0  0  0  0
  5 27  1  0  0  0  0
  5 28  1  0  0  0  0
  6  7  1  0  0  0  0
  6 17  1  0  0  0  0
  6 29  1  0  0  0  0
  7  8  2  0  0  0  0
  7  9  1  0  0  0  0
  9 10  1  0  0  0  0
  9 30  1  0  0  0  0
 10 11  1  0  0  0  0
 10 31  1  0  0  0  0
 10 32  1  0  0  0  0
 11 12  1  0  0  0  0
 11 33  1  0  0  0  0
 11 34  1  0  0  0  0
 12 16  1  0  0  0  0
 12 13  2  0  0  0  0
 13 14  1  0  0  0  0
 14 15  2  0  0  0  0
 15 16  1  0  0  0  0
 15 35  1  0  0  0  0
 16 18  1  0  0  0  0
 17 36  1  0  0  0  0
 17 37  1  0  0  0  0
M  END
> <s_m_source_file>
AV-unprocessed.smi

> <i_m_source_file_index>
3032

> <i_lp_mmshare_version>
43012

> <i_f3d_flags>
0

> <s_epik_input>
W0NIM11bQ0BASF0xW0NIMl1bQ0gyXVtDSDJdW0NASF0oW0NIMl0xKUMoPU8pW05IXVtDSDJdW0NIMl1jMm5uW2NIXVtuSF0y

> <s_epik_cmdline>
J2VwaWtfcHl0aG9uJywgJy1waCcsICc3LjAnLCAnLXRuJywgJzgnLCAnLW1hJywgJzIwMCcsICctbWV0YWxfYmluZGluZycsICctaW1hZScsICc8aW5maWxlLm1hZT4nLCAnLW9tYWUnLCAnPG91dGZpbGUubWFlPic=

> <r_lp_tautomer_probability>
0.0517155

> <r_epik_Ionization_Penalty>
0.00149837

> <r_epik_Ionization_Penalty_Charging>
0

> <r_epik_Ionization_Penalty_Neutral>
0.00149837

> <r_epik_State_Penalty>
2.1109

> <r_epik_Charging_Adjusted_Penalty>
2.1109

> <i_epik_Tot_Q>
0

> <i_epik_Tot_abs_Q>
0

> <r_epik_Metal_State_Penalty>
2.23635

> <b_epik_Metal_Only>
0

> <s_lp_Force_Field>
OPLS_2005

> <r_lp_Energy>
9.23597

> <b_lp_Chiralities_Consistent>
1

> <s_lp_Variant>
AV-unprocessed.smi:3032-12

> <Gold.Version>
5.8.1

> <Gold.Id.Protein>
6NUR|6NUR_protein|mol2

> <Gold.PLP.Fitness>
48.1443

> <Gold.PLP.PLP>
-42.6404

> <Gold.PLP.part.hbond>
-2.1540

> <Gold.PLP.part.metal>
0.0000

> <Gold.PLP.part.buried>
-4.1272

> <Gold.PLP.part.nonpolar>
-35.5536

> <Gold.PLP.part.repulsive>
0.4505

> <Gold.PLP.ligand.clash>
0.0000

> <Gold.PLP.ligand.torsion>
0.4344

> <Gold.PLP.Chemscore.Hbond>
1.0000

> <Gold.PLP.Chemscore.CHOScore>
1.1078

> <Gold.PLP.Chemscore.Metal>
0.0000

> <Gold.Chemscore.Hbonds>
donor molecule, donor type, donor heavy atom, donor atom, acceptor molecule, acceptor atom, score
      L1  H    16    18       P1  7957  1.00
      L1  C    15    35       P1  7949  1.00

> <Gold.PLP.Chemscore.Internal.Correction>
0.0491

> <Gold.Rescore>
     Score         DG    S(hbond)    S(metal)    S(lipo)     H(rot)  DE(clash)    DE(int)     intcor
     14.16     -14.58       0.99        0.00      98.68       2.25       0.14       0.28       ----

> <Gold.Chemscore.Fitness>
14.1557

> <Gold.Chemscore.DG>
-14.5762

> <Gold.Chemscore.ZeroCoef>
-5.4800

> <Gold.Chemscore.Hbond>
0.9913

> <Gold.Chemscore.Metal>
0.0000

> <Gold.Chemscore.Lipo>
98.6794

> <Gold.Chemscore.Internal_Hbond>
0.0000

> <Gold.Chemscore.DEClash>
0.1363

> <Gold.Chemscore.DEInternal>
0.2842

> <Gold.Chemscore.Rot>
2.2501

> <Gold.Chemscore.Internal.Correction>
   9.000000E+99

> <Gold.Chemscore.Hbonds>
donor molecule, donor type, donor heavy atom, donor atom, acceptor molecule, acceptor atom, score
      L1  H    16    18       P1  7957  0.98

> <Gold.Chemscore.Hbond.Weighted>
-3.3110

> <Gold.Chemscore.Metal.Weighted>
-0.0000

> <Gold.Chemscore.Lipo.Weighted>
-11.5455

> <Gold.Chemscore.Internal_Hbond.Weighted>
0.0000

> <Gold.Chemscore.DEClash.Weighted>
0.1363

> <Gold.Chemscore.DEInternal.Weighted>
0.2842

> <Gold.Chemscore.Rot.Weighted>
5.7603

> <Gold.Chemscore.Internal.Correction.Weighted>
   9.000000E+99

> <Gold.Protein.RotatedTorsions>
[ 6907 6896 6895 6894 ] final   58.50 input  -60.11 | X-H torsion
[ 7974 7965 7964 7962 ] final  153.51 input  175.53 | X-H torsion
[ 8008 7997 7996 7995 ] final   87.41 input   59.86 | X-H torsion
[ 10167 10162 10161 10158 ] final -178.07 input  -65.29 | X-H torsion
[ 10718 10713 10712 10709 ] final -119.43 input   66.30 | X-H torsion
[ 10763 10752 10751 10750 ] final  122.67 input  -60.55 | X-H torsion
[ 11005 11000 10999 10996 ] final  152.75 input  -57.11 | X-H torsion

> <Gold.Protein.ActiveResidues>
 VAL166  LYS551  ARG553  GLY616  TRP617  ASP618  TYR619  PRO620  LYS621  CYS622 
 ASP623  PHE694  ASN695  SER759  ASP760  ASP761  ALA762  ILE779  LEU786  VAL792 
 PHE793  MET794  SER795  GLU796  ALA797  LYS798  CYS799  TRP800  GLU811  SER814 

> <Gold.Protein.RotatedAtoms>
  152.3829  134.6562  160.0135 H   0  0  0  0  0  0  0  0  0  0  0  0  # atno 6907 bound_to 6896
  151.6819  133.3306  159.3229 H   0  0  0  0  0  0  0  0  0  0  0  0  # atno 6908 bound_to 6896
  150.7762  134.6709  159.6436 H   0  0  0  0  0  0  0  0  0  0  0  0  # atno 6909 bound_to 6896
  144.8150  139.6810  143.6125 H   0  0  0  0  0  0  0  0  0  0  0  0  # atno 7974 bound_to 7965
  155.9750  140.3382  155.6610 H   0  0  0  0  0  0  0  0  0  0  0  0  # atno 8008 bound_to 7997
  155.6624  140.0717  157.2567 H   0  0  0  0  0  0  0  0  0  0  0  0  # atno 8009 bound_to 7997
  154.4176  140.1706  156.1778 H   0  0  0  0  0  0  0  0  0  0  0  0  # atno 8010 bound_to 7997
  139.5449  144.2261  152.0969 H   0  0  0  0  0  0  0  0  0  0  0  0  # atno 10167 bound_to 10162
  156.1180  130.6301  150.9415 H   0  0  0  0  0  0  0  0  0  0  0  0  # atno 10718 bound_to 10713
  153.6334  135.3392  155.3049 H   0  0  0  0  0  0  0  0  0  0  0  0  # atno 10763 bound_to 10752
  154.8575  135.4301  154.2081 H   0  0  0  0  0  0  0  0  0  0  0  0  # atno 10764 bound_to 10752
  153.2982  135.7022  153.7301 H   0  0  0  0  0  0  0  0  0  0  0  0  # atno 10765 bound_to 10752
  140.1335  134.8786  157.2236 H   0  0  0  0  0  0  0  0  0  0  0  0  # atno 11005 bound_to 11000
  146.2452  139.6083  142.9464 LP  0  0  0  0  0  0  0  0  0  0  0  0  # atno 17320 bound_to 7965
  145.5236  141.0430  143.2421 LP  0  0  0  0  0  0  0  0  0  0  0  0  # atno 17321 bound_to 7965
  140.1746  144.4903  150.6561 LP  0  0  0  0  0  0  0  0  0  0  0  0  # atno 17342 bound_to 10162
  140.6694  143.2280  151.5663 LP  0  0  0  0  0  0  0  0  0  0  0  0  # atno 17343 bound_to 10162
  157.6364  131.0915  150.8340 LP  0  0  0  0  0  0  0  0  0  0  0  0  # atno 17370 bound_to 10713
  156.8440  130.5058  149.5318 LP  0  0  0  0  0  0  0  0  0  0  0  0  # atno 17371 bound_to 10713
  140.2811  134.3348  155.7343 LP  0  0  0  0  0  0  0  0  0  0  0  0  # atno 17394 bound_to 11000
  141.2174  133.7479  156.9366 LP  0  0  0  0  0  0  0  0  0  0  0  0  # atno 17395 bound_to 11000

$$$$
