AV-unprocessed.smi:2845|AV-procd|sdf|10946|dock2
  -GOLD-   2272015393D 1   1.00000     0.00000
 Structure written by MMmdl.
 42 44  0  0  0  0  0  0  0  0  1 V2000
  152.7507  143.3699  161.3716 C   0  0  0  0  0  0  0  0  0  0  0  0
  152.2305  142.8712  160.0351 C   0  0  0  0  0  0  0  0  0  0  0  0
  152.7176  141.6483  159.5216 C   0  0  0  0  0  0  0  0  0  0  0  0
  152.2610  141.1498  158.2820 C   0  0  0  0  0  0  0  0  0  0  0  0
  152.6015  139.9947  157.5993 N   0  0  0  0  0  0  0  0  0  0  0  0
  151.8440  140.0947  156.5111 C   0  0  0  0  0  0  0  0  0  0  0  0
  151.0487  141.1769  156.4091 N   0  0  0  0  0  0  0  0  0  0  0  0
  150.1469  141.4939  155.3155 C   0  0  0  0  0  0  0  0  0  0  0  0
  148.8841  140.6120  155.3167 C   0  0  1  0  0  0  0  0  0  0  0  0
  148.0687  140.9501  156.4233 O   0  0  0  0  0  0  0  0  0  0  0  0
  148.0794  140.7563  154.0111 C   0  0  0  0  0  0  0  0  0  0  0  0
  147.1393  139.6672  153.8183 N   0  0  0  0  0  0  0  0  0  0  0  0
  147.1425  138.6714  152.9273 C   0  0  0  0  0  0  0  0  0  0  0  0
  146.1181  137.8372  153.0462 N   0  0  0  0  0  0  0  0  0  0  0  0
  145.4877  138.4251  154.1037 C   0  0  0  0  0  0  0  0  0  0  0  0
  143.9499  137.7343  154.7908 S   0  0  2  0  0  0  0  0  0  0  0  0
  143.2488  137.1788  153.1657 C   0  0  0  0  0  0  0  0  0  0  0  0
  143.1192  138.9329  155.2539 O   0  0  0  0  0  0  0  0  0  0  0  0
  146.0481  139.5234  154.6073 N   0  0  0  0  0  0  0  0  0  0  0  0
  151.2936  141.9129  157.5640 C   0  0  0  0  0  0  0  0  0  0  0  0
  150.8001  143.1304  158.0660 C   0  0  0  0  0  0  0  0  0  0  0  0
  151.2688  143.6150  159.3053 C   0  0  0  0  0  0  0  0  0  0  0  0
  150.7314  144.9320  159.8369 C   0  0  0  0  0  0  0  0  0  0  0  0
  153.4888  142.6863  161.7922 H   0  0  0  0  0  0  0  0  0  0  0  0
  151.9345  143.4630  162.0883 H   0  0  0  0  0  0  0  0  0  0  0  0
  153.2253  144.3447  161.2575 H   0  0  0  0  0  0  0  0  0  0  0  0
  153.4497  141.0807  160.0771 H   0  0  0  0  0  0  0  0  0  0  0  0
  151.8664  139.3357  155.7426 H   0  0  0  0  0  0  0  0  0  0  0  0
  149.8752  142.5486  155.3740 H   0  0  0  0  0  0  0  0  0  0  0  0
  150.6936  141.3653  154.3806 H   0  0  0  0  0  0  0  0  0  0  0  0
  149.1829  139.5690  155.4311 H   0  0  0  0  0  0  0  0  0  0  0  0
  148.1872  140.2968  157.0962 H   0  0  0  0  0  0  0  0  0  0  0  0
  147.5383  141.7040  153.9924 H   0  0  0  0  0  0  0  0  0  0  0  0
  148.7556  140.7669  153.1553 H   0  0  0  0  0  0  0  0  0  0  0  0
  147.9121  138.5531  152.1786 H   0  0  0  0  0  0  0  0  0  0  0  0
  144.0341  137.0436  152.4219 H   0  0  0  0  0  0  0  0  0  0  0  0
  142.5391  137.9161  152.7906 H   0  0  0  0  0  0  0  0  0  0  0  0
  142.7282  136.2294  153.2898 H   0  0  0  0  0  0  0  0  0  0  0  0
  150.0661  143.6864  157.5020 H   0  0  0  0  0  0  0  0  0  0  0  0
  149.9855  145.3575  159.1651 H   0  0  0  0  0  0  0  0  0  0  0  0
  151.5378  145.6576  159.9438 H   0  0  0  0  0  0  0  0  0  0  0  0
  150.2615  144.7891  160.8102 H   0  0  0  0  0  0  0  0  0  0  0  0
  1  2  1  0  0  0  0
  1 24  1  0  0  0  0
  1 25  1  0  0  0  0
  1 26  1  0  0  0  0
  2 22  1  0  0  0  0
  2  3  2  0  0  0  0
  3  4  1  0  0  0  0
  3 27  1  0  0  0  0
  4 20  2  0  0  0  0
  4  5  1  0  0  0  0
  5  6  2  0  0  0  0
  6  7  1  0  0  0  0
  6 28  1  0  0  0  0
  7  8  1  0  0  0  0
  7 20  1  0  0  0  0
  8  9  1  0  0  0  0
  8 29  1  0  0  0  0
  8 30  1  0  0  0  0
  9 10  1  0  0  0  0
  9 11  1  0  0  0  0
  9 31  1  0  0  0  0
 10 32  1  0  0  0  0
 11 12  1  0  0  0  0
 11 33  1  0  0  0  0
 11 34  1  0  0  0  0
 12 19  1  0  0  0  0
 12 13  1  0  0  0  0
 13 14  2  0  0  0  0
 13 35  1  0  0  0  0
 14 15  1  0  0  0  0
 15 16  1  0  0  0  0
 15 19  2  0  0  0  0
 16 17  1  0  0  0  0
 16 18  2  0  0  0  0
 17 36  1  0  0  0  0
 17 37  1  0  0  0  0
 17 38  1  0  0  0  0
 20 21  1  0  0  0  0
 21 22  2  0  0  0  0
 21 39  1  0  0  0  0
 22 23  1  0  0  0  0
 23 40  1  0  0  0  0
 23 41  1  0  0  0  0
 23 42  1  0  0  0  0
M  END
> <s_m_source_file>
AV-unprocessed.smi

> <i_m_source_file_index>
2845

> <i_lp_mmshare_version>
43012

> <i_f3d_flags>
0

> <s_epik_input>
W0NIM11jKFtjSF0xKWMoW0NIM10pW2NIXWMoYzEyKW4oW2NIXW4yKVtDSDJdW0NASF0oW09IXSlbQ0gyXW4zW2NIXW5jKG4zKVtTQF0oPU8pW0NIM10=

> <s_epik_cmdline>
J2VwaWtfcHl0aG9uJywgJy1waCcsICc3LjAnLCAnLXRuJywgJzgnLCAnLW1hJywgJzIwMCcsICctbWV0YWxfYmluZGluZycsICctaW1hZScsICc8aW5maWxlLm1hZT4nLCAnLW9tYWUnLCAnPG91dGZpbGUubWFlPic=

> <r_lp_tautomer_probability>
1

> <r_epik_Ionization_Penalty>
0.0968684

> <r_epik_Ionization_Penalty_Charging>
0

> <r_epik_Ionization_Penalty_Neutral>
0.0968684

> <r_epik_State_Penalty>
0.0870047

> <r_epik_Charging_Adjusted_Penalty>
0.0870047

> <i_epik_Tot_Q>
0

> <i_epik_Tot_abs_Q>
0

> <r_epik_Metal_State_Penalty>
0.0746849

> <b_epik_Metal_Only>
0

> <s_lp_Force_Field>
OPLS_2005

> <r_lp_Energy>
9.68664

> <b_lp_Chiralities_Consistent>
1

> <s_lp_Variant>
AV-unprocessed.smi:2845-4

> <Gold.Version>
5.8.1

> <Gold.Id.Protein>
6NUR|6NUR_protein|mol2

> <Gold.PLP.Fitness>
46.1794

> <Gold.PLP.PLP>
-38.4821

> <Gold.PLP.part.hbond>
-1.0000

> <Gold.PLP.part.metal>
0.0000

> <Gold.PLP.part.buried>
-3.8601

> <Gold.PLP.part.nonpolar>
-34.1266

> <Gold.PLP.part.repulsive>
0.4267

> <Gold.PLP.ligand.clash>
0.0000

> <Gold.PLP.ligand.torsion>
0.9215

> <Gold.PLP.Chemscore.Hbond>
0.9913

> <Gold.PLP.Chemscore.CHOScore>
1.7981

> <Gold.PLP.Chemscore.Metal>
0.0000

> <Gold.Chemscore.Hbonds>
donor molecule, donor type, donor heavy atom, donor atom, acceptor molecule, acceptor atom, score
      P1  H  7997  8008       L1     5  0.99
      L1  C    13    35       P1  7948  0.79
      L1  C    13    35       P1  7957  1.00

> <Gold.PLP.Chemscore.Internal.Correction>
1.1722

> <Gold.Rescore>
     Score         DG    S(hbond)    S(metal)    S(lipo)     H(rot)  DE(clash)    DE(int)     intcor
      9.23     -11.21       0.17        0.00     103.56       2.71       0.16       1.82       ----

> <Gold.Chemscore.Fitness>
9.2261

> <Gold.Chemscore.DG>
-11.2111

> <Gold.Chemscore.ZeroCoef>
-5.4800

> <Gold.Chemscore.Hbond>
0.1658

> <Gold.Chemscore.Metal>
0.0000

> <Gold.Chemscore.Lipo>
103.5633

> <Gold.Chemscore.Internal_Hbond>
0.0000

> <Gold.Chemscore.DEClash>
0.1612

> <Gold.Chemscore.DEInternal>
1.8239

> <Gold.Chemscore.Rot>
2.7108

> <Gold.Chemscore.Internal.Correction>
   9.000000E+99

> <Gold.Chemscore.Hbonds>
donor molecule, donor type, donor heavy atom, donor atom, acceptor molecule, acceptor atom, score
      P1  H  7997  8008       L1     5  0.38

> <Gold.Chemscore.Hbond.Weighted>
-0.5539

> <Gold.Chemscore.Metal.Weighted>
-0.0000

> <Gold.Chemscore.Lipo.Weighted>
-12.1169

> <Gold.Chemscore.Internal_Hbond.Weighted>
0.0000

> <Gold.Chemscore.DEClash.Weighted>
0.1612

> <Gold.Chemscore.DEInternal.Weighted>
1.8239

> <Gold.Chemscore.Rot.Weighted>
6.9396

> <Gold.Chemscore.Internal.Correction.Weighted>
   9.000000E+99

> <Gold.Protein.RotatedTorsions>
[ 6907 6896 6895 6894 ] final  -42.13 input  -60.11 | X-H torsion
[ 7974 7965 7964 7962 ] final  145.60 input  175.53 | X-H torsion
[ 8008 7997 7996 7995 ] final  -80.85 input   59.86 | X-H torsion
[ 10167 10162 10161 10158 ] final  100.53 input  -65.29 | X-H torsion
[ 10718 10713 10712 10709 ] final  -58.09 input   66.30 | X-H torsion
[ 10763 10752 10751 10750 ] final   -1.17 input  -60.55 | X-H torsion
[ 11005 11000 10999 10996 ] final   71.79 input  -57.11 | X-H torsion

> <Gold.Protein.ActiveResidues>
 VAL166  LYS551  ARG553  GLY616  TRP617  ASP618  TYR619  PRO620  LYS621  CYS622 
 ASP623  PHE694  ASN695  SER759  ASP760  ASP761  ALA762  ILE779  LEU786  VAL792 
 PHE793  MET794  SER795  GLU796  ALA797  LYS798  CYS799  TRP800  GLU811  SER814 

> <Gold.Protein.RotatedAtoms>
  150.9587  134.8978  159.7716 H   0  0  0  0  0  0  0  0  0  0  0  0  # atno 6907 bound_to 6896
  152.5148  134.3703  159.9326 H   0  0  0  0  0  0  0  0  0  0  0  0  # atno 6908 bound_to 6896
  151.3716  133.3812  159.2735 H   0  0  0  0  0  0  0  0  0  0  0  0  # atno 6909 bound_to 6896
  144.8739  139.5802  143.5874 H   0  0  0  0  0  0  0  0  0  0  0  0  # atno 7974 bound_to 7965
  154.5925  140.0656  156.9258 H   0  0  0  0  0  0  0  0  0  0  0  0  # atno 8008 bound_to 7997
  155.2271  140.3334  155.4290 H   0  0  0  0  0  0  0  0  0  0  0  0  # atno 8009 bound_to 7997
  156.2265  140.1821  156.7334 H   0  0  0  0  0  0  0  0  0  0  0  0  # atno 8010 bound_to 7997
  139.7518  144.6981  151.0420 H   0  0  0  0  0  0  0  0  0  0  0  0  # atno 10167 bound_to 10162
  156.1161  130.4170  150.0530 H   0  0  0  0  0  0  0  0  0  0  0  0  # atno 10718 bound_to 10713
  153.3413  135.6981  153.6864 H   0  0  0  0  0  0  0  0  0  0  0  0  # atno 10763 bound_to 10752
  153.5628  135.3531  155.2807 H   0  0  0  0  0  0  0  0  0  0  0  0  # atno 10764 bound_to 10752
  154.8637  135.4253  154.2627 H   0  0  0  0  0  0  0  0  0  0  0  0  # atno 10765 bound_to 10752
  139.9524  134.7203  156.0830 H   0  0  0  0  0  0  0  0  0  0  0  0  # atno 11005 bound_to 11000
  146.2949  139.7249  142.9134 LP  0  0  0  0  0  0  0  0  0  0  0  0  # atno 17320 bound_to 7965
  145.4078  141.0393  143.3034 LP  0  0  0  0  0  0  0  0  0  0  0  0  # atno 17321 bound_to 7965
  140.7798  143.4799  151.0032 LP  0  0  0  0  0  0  0  0  0  0  0  0  # atno 17342 bound_to 10162
  139.8487  143.7467  152.3178 LP  0  0  0  0  0  0  0  0  0  0  0  0  # atno 17343 bound_to 10162
  156.8481  130.9449  151.3627 LP  0  0  0  0  0  0  0  0  0  0  0  0  # atno 17370 bound_to 10713
  157.6344  130.8755  149.9332 LP  0  0  0  0  0  0  0  0  0  0  0  0  # atno 17371 bound_to 10713
  141.1190  133.6618  156.3166 LP  0  0  0  0  0  0  0  0  0  0  0  0  # atno 17394 bound_to 11000
  140.5687  134.5862  157.5452 LP  0  0  0  0  0  0  0  0  0  0  0  0  # atno 17395 bound_to 11000

$$$$
