AV-unprocessed.smi:189|AV-procd|sdf|1489|dock8
  -GOLD-   2262019313D 1   1.00000     0.00000
 Structure written by MMmdl.
 53 57  0  0  0  0  0  0  0  0  1 V2000
  152.6743  139.0061  156.6527 C   0  0  0  0  0  0  0  0  0  0  0  0
  151.7159  139.6121  155.6088 C   0  0  2  0  0  0  0  0  0  0  0  0
  150.9923  140.8900  156.0500 C   0  0  0  0  0  0  0  0  0  0  0  0
  149.8425  141.0034  155.0383 C   0  0  2  0  0  0  0  0  0  0  0  0
  148.4928  141.4421  155.6330 C   0  0  0  0  0  0  0  0  0  0  0  0
  147.3623  141.4196  154.5810 C   0  0  0  0  0  0  0  0  0  0  0  0
  147.4702  140.2564  153.5678 C   0  0  0  0  0  0  0  0  0  0  0  0
  148.3353  139.1017  154.0934 C   0  0  0  0  0  0  0  0  0  0  0  0
  149.7729  139.6107  154.3709 C   0  0  2  0  0  0  0  0  0  0  0  0
  150.6687  138.7178  155.1126 N   0  0  0  0  0  0  0  0  0  0  0  0
  150.1093  137.8601  156.0032 C   0  0  0  0  0  0  0  0  0  0  0  0
  149.4027  138.3164  157.0720 N   0  0  0  0  0  0  0  0  0  0  0  0
  148.8648  137.4516  157.9369 C   0  0  0  0  0  0  0  0  0  0  0  0
  148.9163  136.1178  157.9250 N   0  0  0  0  0  0  0  0  0  0  0  0
  149.6271  135.6591  156.8548 C   0  0  0  0  0  0  0  0  0  0  0  0
  150.2443  136.4562  155.8513 C   0  0  0  0  0  0  0  0  0  0  0  0
  150.8688  135.6459  154.9124 N   0  0  0  0  0  0  0  0  0  0  0  0
  150.6394  134.4345  155.3407 C   0  0  0  0  0  0  0  0  0  0  0  0
  149.9146  134.3502  156.5089 N   0  0  0  0  0  0  0  0  0  0  0  0
  149.5373  133.1347  157.2131 C   0  0  0  0  0  0  0  0  0  0  0  0
  150.5541  131.9828  157.0326 C   0  0  2  0  0  0  0  0  0  0  0  0
  151.8395  132.4375  157.4190 O   0  0  0  0  0  0  0  0  0  0  0  0
  150.6428  131.4437  155.6072 C   0  0  0  0  0  0  0  0  0  0  0  0
  150.9691  129.9723  155.8198 C   0  0  0  0  0  0  0  0  0  0  0  0
  150.1698  129.6410  156.9421 O   0  0  0  0  0  0  0  0  0  0  0  0
  150.2113  130.7284  157.8609 C   0  0  0  0  0  0  0  0  0  0  0  0
  153.4870  139.6977  156.8747 H   0  0  0  0  0  0  0  0  0  0  0  0
  153.1200  138.0815  156.2847 H   0  0  0  0  0  0  0  0  0  0  0  0
  152.1723  138.7848  157.5949 H   0  0  0  0  0  0  0  0  0  0  0  0
  152.3229  139.8605  154.7364 H   0  0  0  0  0  0  0  0  0  0  0  0
  150.6071  140.7818  157.0643 H   0  0  0  0  0  0  0  0  0  0  0  0
  151.6463  141.7623  156.0387 H   0  0  0  0  0  0  0  0  0  0  0  0
  150.1254  141.7269  154.2721 H   0  0  0  0  0  0  0  0  0  0  0  0
  148.2272  140.7704  156.4501 H   0  0  0  0  0  0  0  0  0  0  0  0
  148.5742  142.4357  156.0744 H   0  0  0  0  0  0  0  0  0  0  0  0
  146.4051  141.3669  155.1007 H   0  0  0  0  0  0  0  0  0  0  0  0
  147.3520  142.3621  154.0324 H   0  0  0  0  0  0  0  0  0  0  0  0
  146.4743  139.8979  153.3059 H   0  0  0  0  0  0  0  0  0  0  0  0
  147.9107  140.6264  152.6409 H   0  0  0  0  0  0  0  0  0  0  0  0
  147.8565  138.7105  154.9908 H   0  0  0  0  0  0  0  0  0  0  0  0
  148.3612  138.2822  153.3749 H   0  0  0  0  0  0  0  0  0  0  0  0
  150.2437  139.7156  153.3921 H   0  0  0  0  0  0  0  0  0  0  0  0
  148.3172  137.8913  158.7573 H   0  0  0  0  0  0  0  0  0  0  0  0
  151.0038  133.5631  154.8165 H   0  0  0  0  0  0  0  0  0  0  0  0
  149.4118  133.3698  158.2708 H   0  0  0  0  0  0  0  0  0  0  0  0
  148.5558  132.8271  156.8495 H   0  0  0  0  0  0  0  0  0  0  0  0
  152.4830  132.0302  156.8596 H   0  0  0  0  0  0  0  0  0  0  0  0
  149.6728  131.5176  155.1141 H   0  0  0  0  0  0  0  0  0  0  0  0
  151.3728  131.9619  154.9837 H   0  0  0  0  0  0  0  0  0  0  0  0
  150.7259  129.3561  154.9539 H   0  0  0  0  0  0  0  0  0  0  0  0
  152.0240  129.8332  156.0621 H   0  0  0  0  0  0  0  0  0  0  0  0
  150.9591  130.5270  158.6297 H   0  0  0  0  0  0  0  0  0  0  0  0
  149.2456  130.8106  158.3607 H   0  0  0  0  0  0  0  0  0  0  0  0
  1  2  1  0  0  0  0
  1 27  1  0  0  0  0
  1 28  1  0  0  0  0
  1 29  1  0  0  0  0
  2 10  1  0  0  0  0
  2  3  1  0  0  0  0
  2 30  1  0  0  0  0
  3  4  1  0  0  0  0
  3 31  1  0  0  0  0
  3 32  1  0  0  0  0
  4  9  1  0  0  0  0
  4  5  1  0  0  0  0
  4 33  1  0  0  0  0
  5  6  1  0  0  0  0
  5 34  1  0  0  0  0
  5 35  1  0  0  0  0
  6  7  1  0  0  0  0
  6 36  1  0  0  0  0
  6 37  1  0  0  0  0
  7  8  1  0  0  0  0
  7 38  1  0  0  0  0
  7 39  1  0  0  0  0
  8  9  1  0  0  0  0
  8 40  1  0  0  0  0
  8 41  1  0  0  0  0
  9 10  1  0  0  0  0
  9 42  1  0  0  0  0
 10 11  1  0  0  0  0
 11 16  1  0  0  0  0
 11 12  2  0  0  0  0
 12 13  1  0  0  0  0
 13 14  2  0  0  0  0
 13 43  1  0  0  0  0
 14 15  1  0  0  0  0
 15 19  1  0  0  0  0
 15 16  2  0  0  0  0
 16 17  1  0  0  0  0
 17 18  2  0  0  0  0
 18 19  1  0  0  0  0
 18 44  1  0  0  0  0
 19 20  1  0  0  0  0
 20 21  1  0  0  0  0
 20 45  1  0  0  0  0
 20 46  1  0  0  0  0
 21 26  1  0  0  0  0
 21 22  1  0  0  0  0
 21 23  1  0  0  0  0
 22 47  1  0  0  0  0
 23 24  1  0  0  0  0
 23 48  1  0  0  0  0
 23 49  1  0  0  0  0
 24 25  1  0  0  0  0
 24 50  1  0  0  0  0
 24 51  1  0  0  0  0
 25 26  1  0  0  0  0
 26 52  1  0  0  0  0
 26 53  1  0  0  0  0
M  END
> <s_m_source_file>
AV-unprocessed.smi

> <i_m_source_file_index>
189

> <i_lp_mmshare_version>
43012

> <i_f3d_flags>
0

> <s_epik_input>
W0NIMl0xW0NIMl1bQ0gyXVtDSDJdW0NASF0oW0NASF0xMilOKFtDQEhdKFtDSDNdKVtDSDJdMiljKG5bY0hdbjMpYyhjMzQpbltjSF1uNFtDSDJdW0NAQF01KFtPSF0pW0NIMl1bQ0gyXU9bQ0gyXTU=

> <s_epik_cmdline>
J2VwaWtfcHl0aG9uJywgJy1waCcsICc3LjAnLCAnLXRuJywgJzgnLCAnLW1hJywgJzIwMCcsICctbWV0YWxfYmluZGluZycsICctaW1hZScsICc8aW5maWxlLm1hZT4nLCAnLW9tYWUnLCAnPG91dGZpbGUubWFlPic=

> <r_lp_tautomer_probability>
1

> <r_epik_Ionization_Penalty>
0.00594261

> <r_epik_Ionization_Penalty_Charging>
0

> <r_epik_Ionization_Penalty_Neutral>
0.00594261

> <r_epik_State_Penalty>
0.00429776

> <r_epik_Charging_Adjusted_Penalty>
0.00429776

> <i_epik_Tot_Q>
0

> <i_epik_Tot_abs_Q>
0

> <r_epik_Metal_State_Penalty>
-0

> <b_epik_Metal_Only>
0

> <s_lp_Force_Field>
OPLS_2005

> <r_lp_Energy>
67.2452

> <b_lp_Chiralities_Consistent>
1

> <s_lp_Variant>
AV-unprocessed.smi:189-15

> <Gold.Version>
5.8.1

> <Gold.Id.Protein>
6NUR|6NUR_protein|mol2

> <Gold.PLP.Fitness>
36.7182

> <Gold.PLP.PLP>
-31.5439

> <Gold.PLP.part.hbond>
-2.0000

> <Gold.PLP.part.metal>
0.0000

> <Gold.PLP.part.buried>
-1.5565

> <Gold.PLP.part.nonpolar>
-28.4011

> <Gold.PLP.part.repulsive>
0.2403

> <Gold.PLP.ligand.clash>
0.0000

> <Gold.PLP.ligand.torsion>
0.4133

> <Gold.PLP.Chemscore.Hbond>
1.9913

> <Gold.PLP.Chemscore.CHOScore>
0.0000

> <Gold.PLP.Chemscore.Metal>
0.0000

> <Gold.Chemscore.Hbonds>
donor molecule, donor type, donor heavy atom, donor atom, acceptor molecule, acceptor atom, score
      P1  H  6896  6909       L1    22  0.91
      P1  H 10752 10764       L1    17  0.86

> <Gold.PLP.Chemscore.Internal.Correction>
0.0272

> <Gold.Rescore>
     Score         DG    S(hbond)    S(metal)    S(lipo)     H(rot)  DE(clash)    DE(int)     intcor
     13.55     -15.12       1.68        0.00      78.99       2.03       0.06       1.52       ----

> <Gold.Chemscore.Fitness>
13.5478

> <Gold.Chemscore.DG>
-15.1213

> <Gold.Chemscore.ZeroCoef>
-5.4800

> <Gold.Chemscore.Hbond>
1.6754

> <Gold.Chemscore.Metal>
0.0000

> <Gold.Chemscore.Lipo>
78.9860

> <Gold.Chemscore.Internal_Hbond>
0.0000

> <Gold.Chemscore.DEClash>
0.0569

> <Gold.Chemscore.DEInternal>
1.5166

> <Gold.Chemscore.Rot>
2.0297

> <Gold.Chemscore.Internal.Correction>
   9.000000E+99

> <Gold.Chemscore.Hbonds>
donor molecule, donor type, donor heavy atom, donor atom, acceptor molecule, acceptor atom, score
      P1  H  6896  6909       L1    22  0.68
      P1  H 10752 10764       L1    17  0.21

> <Gold.Chemscore.Hbond.Weighted>
-5.5959

> <Gold.Chemscore.Metal.Weighted>
-0.0000

> <Gold.Chemscore.Lipo.Weighted>
-9.2414

> <Gold.Chemscore.Internal_Hbond.Weighted>
0.0000

> <Gold.Chemscore.DEClash.Weighted>
0.0569

> <Gold.Chemscore.DEInternal.Weighted>
1.5166

> <Gold.Chemscore.Rot.Weighted>
5.1960

> <Gold.Chemscore.Internal.Correction.Weighted>
   9.000000E+99

> <Gold.Protein.RotatedTorsions>
[ 6907 6896 6895 6894 ] final  -69.13 input  -60.11 | X-H torsion
[ 7974 7965 7964 7962 ] final -165.99 input  175.53 | X-H torsion
[ 8008 7997 7996 7995 ] final   33.12 input   59.86 | X-H torsion
[ 10167 10162 10161 10158 ] final  137.16 input  -65.29 | X-H torsion
[ 10718 10713 10712 10709 ] final   29.05 input   66.30 | X-H torsion
[ 10763 10752 10751 10750 ] final  -55.71 input  -60.55 | X-H torsion
[ 11005 11000 10999 10996 ] final -113.13 input  -57.11 | X-H torsion

> <Gold.Protein.ActiveResidues>
 VAL166  LYS551  ARG553  GLY616  TRP617  ASP618  TYR619  PRO620  LYS621  CYS622 
 ASP623  PHE694  ASN695  SER759  ASP760  ASP761  ALA762  ILE779  LEU786  VAL792 
 PHE793  MET794  SER795  GLU796  ALA797  LYS798  CYS799  TRP800  GLU811  SER814 

> <Gold.Protein.RotatedAtoms>
  150.7321  134.5641  159.5856 H   0  0  0  0  0  0  0  0  0  0  0  0  # atno 6907 bound_to 6896
  152.3097  134.7509  160.0348 H   0  0  0  0  0  0  0  0  0  0  0  0  # atno 6908 bound_to 6896
  151.8062  133.3340  159.3578 H   0  0  0  0  0  0  0  0  0  0  0  0  # atno 6909 bound_to 6896
  144.7256  140.2733  143.6247 H   0  0  0  0  0  0  0  0  0  0  0  0  # atno 7974 bound_to 7965
  155.1334  140.3259  155.4469 H   0  0  0  0  0  0  0  0  0  0  0  0  # atno 8008 bound_to 7997
  156.2627  140.2006  156.6402 H   0  0  0  0  0  0  0  0  0  0  0  0  # atno 8009 bound_to 7997
  154.6595  140.0549  157.0033 H   0  0  0  0  0  0  0  0  0  0  0  0  # atno 8010 bound_to 7997
  139.5154  144.6425  151.5529 H   0  0  0  0  0  0  0  0  0  0  0  0  # atno 10167 bound_to 10162
  157.2416  130.7072  149.6361 H   0  0  0  0  0  0  0  0  0  0  0  0  # atno 10718 bound_to 10713
  154.1951  135.6420  153.5071 H   0  0  0  0  0  0  0  0  0  0  0  0  # atno 10763 bound_to 10752
  153.0025  135.5438  154.6374 H   0  0  0  0  0  0  0  0  0  0  0  0  # atno 10764 bound_to 10752
  154.5773  135.2922  155.0741 H   0  0  0  0  0  0  0  0  0  0  0  0  # atno 10765 bound_to 10752
  141.0633  133.9500  157.2626 H   0  0  0  0  0  0  0  0  0  0  0  0  # atno 11005 bound_to 11000
  145.8022  139.1969  143.2041 LP  0  0  0  0  0  0  0  0  0  0  0  0  # atno 17320 bound_to 7965
  146.0667  140.7913  142.9708 LP  0  0  0  0  0  0  0  0  0  0  0  0  # atno 17321 bound_to 7965
  140.6197  143.9281  150.6517 LP  0  0  0  0  0  0  0  0  0  0  0  0  # atno 17342 bound_to 10162
  140.2550  143.3565  152.1372 LP  0  0  0  0  0  0  0  0  0  0  0  0  # atno 17343 bound_to 10162
  155.9670  130.4456  150.5509 LP  0  0  0  0  0  0  0  0  0  0  0  0  # atno 17370 bound_to 10713
  157.3373  131.0710  151.1815 LP  0  0  0  0  0  0  0  0  0  0  0  0  # atno 17371 bound_to 10713
  139.9453  135.0185  156.8832 LP  0  0  0  0  0  0  0  0  0  0  0  0  # atno 17394 bound_to 11000
  140.5824  134.0339  155.7469 LP  0  0  0  0  0  0  0  0  0  0  0  0  # atno 17395 bound_to 11000

$$$$
