AV-unprocessed.smi:2710|AV-procd|sdf|10466|dock3
  -GOLD-   2272014503D 1   1.00000     0.00000
 Structure written by MMmdl.
 53 54  0  0  0  0  0  0  0  0  2 V2000
  144.1001  139.2807  156.4807 C   0  0  0  0  0  0  0  0  0  0  0  0
  145.4382  139.2039  155.7268 C   0  0  0  0  0  0  0  0  0  0  0  0
  145.2866  138.8549  154.2840 N   0  3  2  0  0  0  0  0  0  0  0  0
  144.5810  137.5539  154.1029 C   0  0  0  0  0  0  0  0  0  0  0  0
  144.2940  137.2529  152.6245 C   0  0  0  0  0  0  0  0  0  0  0  0
  145.5793  137.2602  151.7836 C   0  0  2  0  0  0  0  0  0  0  0  0
  146.4469  136.1225  152.0894 N   0  0  0  0  0  0  0  0  0  0  0  0
  146.0630  134.8378  152.0964 C   0  0  0  0  0  0  0  0  0  0  0  0
  144.9114  134.4773  151.8583 O   0  0  0  0  0  0  0  0  0  0  0  0
  147.0924  134.0263  152.3936 N   0  0  0  0  0  0  0  0  0  0  0  0
  147.1145  132.6089  152.5078 C   0  0  0  0  0  0  0  0  0  0  0  0
  146.1676  131.7167  151.9479 C   0  0  0  0  0  0  0  0  0  0  0  0
  146.2707  130.3807  152.1107 N   0  0  0  0  0  0  0  0  0  0  0  0
  147.2854  129.9156  152.8505 C   0  0  0  0  0  0  0  0  0  0  0  0
  147.4725  128.3891  152.9045 C   0  0  0  0  0  0  0  0  0  0  0  0
  146.2765  127.7051  153.6079 C   0  0  0  0  0  0  0  0  0  0  0  0
  148.7721  128.0585  153.6611 C   0  0  0  0  0  0  0  0  0  0  0  0
  147.5328  127.7855  151.4814 C   0  0  0  0  0  0  0  0  0  0  0  0
  148.2548  130.6698  153.3849 N   0  0  0  0  0  0  0  0  0  0  0  0
  148.1638  132.0071  153.2315 C   0  0  0  0  0  0  0  0  0  0  0  0
  146.3193  138.5854  152.0120 C   0  0  0  0  0  0  0  0  0  0  0  0
  146.5695  138.8944  153.5071 C   0  0  1  0  0  0  0  0  0  0  0  0
  147.3051  140.2469  153.6099 C   0  0  0  0  0  0  0  0  0  0  0  0
  144.2504  139.6938  157.4784 H   0  0  0  0  0  0  0  0  0  0  0  0
  143.6389  138.3028  156.6135 H   0  0  0  0  0  0  0  0  0  0  0  0
  143.3903  139.9264  155.9628 H   0  0  0  0  0  0  0  0  0  0  0  0
  145.8919  140.1860  155.8360 H   0  0  0  0  0  0  0  0  0  0  0  0
  146.1105  138.4960  156.2135 H   0  0  0  0  0  0  0  0  0  0  0  0
  145.1759  136.7521  154.5432 H   0  0  0  0  0  0  0  0  0  0  0  0
  143.6269  137.5561  154.6265 H   0  0  0  0  0  0  0  0  0  0  0  0
  143.7781  136.2967  152.5307 H   0  0  0  0  0  0  0  0  0  0  0  0
  143.6051  138.0038  152.2354 H   0  0  0  0  0  0  0  0  0  0  0  0
  145.3100  137.2018  150.7271 H   0  0  0  0  0  0  0  0  0  0  0  0
  147.4148  136.3267  152.2907 H   0  0  0  0  0  0  0  0  0  0  0  0
  147.9788  134.4806  152.5575 H   0  0  0  0  0  0  0  0  0  0  0  0
  145.3227  132.0398  151.3618 H   0  0  0  0  0  0  0  0  0  0  0  0
  146.3816  126.6195  153.6039 H   0  0  0  0  0  0  0  0  0  0  0  0
  145.3345  127.9447  153.1130 H   0  0  0  0  0  0  0  0  0  0  0  0
  146.1881  128.0079  154.6518 H   0  0  0  0  0  0  0  0  0  0  0  0
  148.7434  128.4411  154.6819 H   0  0  0  0  0  0  0  0  0  0  0  0
  149.6394  128.5004  153.1691 H   0  0  0  0  0  0  0  0  0  0  0  0
  148.9381  126.9822  153.7169 H   0  0  0  0  0  0  0  0  0  0  0  0
  147.6201  126.6989  151.5138 H   0  0  0  0  0  0  0  0  0  0  0  0
  148.3914  128.1523  150.9179 H   0  0  0  0  0  0  0  0  0  0  0  0
  146.6354  128.0249  150.9097 H   0  0  0  0  0  0  0  0  0  0  0  0
  148.9423  132.6014  153.6872 H   0  0  0  0  0  0  0  0  0  0  0  0
  147.2636  138.5722  151.4657 H   0  0  0  0  0  0  0  0  0  0  0  0
  145.7327  139.3945  151.5742 H   0  0  0  0  0  0  0  0  0  0  0  0
  147.2290  138.1251  153.9123 H   0  0  0  0  0  0  0  0  0  0  0  0
  148.1356  140.2928  152.9046 H   0  0  0  0  0  0  0  0  0  0  0  0
  147.7410  140.4096  154.5949 H   0  0  0  0  0  0  0  0  0  0  0  0
  146.6402  141.0816  153.3854 H   0  0  0  0  0  0  0  0  0  0  0  0
  144.6925  139.5664  153.8821 H   0  0  0  0  0  0  0  0  0  0  0  0
  1  2  1  0  0  0  0
  1 24  1  0  0  0  0
  1 25  1  0  0  0  0
  1 26  1  0  0  0  0
  2  3  1  0  0  0  0
  2 27  1  0  0  0  0
  2 28  1  0  0  0  0
  3 22  1  0  0  0  0
  3  4  1  0  0  0  0
  3 53  1  0  0  0  0
  4  5  1  0  0  0  0
  4 29  1  0  0  0  0
  4 30  1  0  0  0  0
  5  6  1  0  0  0  0
  5 31  1  0  0  0  0
  5 32  1  0  0  0  0
  6  7  1  0  0  0  0
  6 21  1  0  0  0  0
  6 33  1  0  0  0  0
  7  8  1  0  0  0  0
  7 34  1  0  0  0  0
  8  9  2  0  0  0  0
  8 10  1  0  0  0  0
 10 11  1  0  0  0  0
 10 35  1  0  0  0  0
 11 20  1  0  0  0  0
 11 12  2  0  0  0  0
 12 13  1  0  0  0  0
 12 36  1  0  0  0  0
 13 14  2  0  0  0  0
 14 15  1  0  0  0  0
 14 19  1  0  0  0  0
 15 16  1  0  0  0  0
 15 17  1  0  0  0  0
 15 18  1  0  0  0  0
 16 37  1  0  0  0  0
 16 38  1  0  0  0  0
 16 39  1  0  0  0  0
 17 40  1  0  0  0  0
 17 41  1  0  0  0  0
 17 42  1  0  0  0  0
 18 43  1  0  0  0  0
 18 44  1  0  0  0  0
 18 45  1  0  0  0  0
 19 20  2  0  0  0  0
 20 46  1  0  0  0  0
 21 22  1  0  0  0  0
 21 47  1  0  0  0  0
 21 48  1  0  0  0  0
 22 23  1  0  0  0  0
 22 49  1  0  0  0  0
 23 50  1  0  0  0  0
 23 51  1  0  0  0  0
 23 52  1  0  0  0  0
M  CHG  1   3   1
M  END
> <s_m_source_file>
AV-unprocessed.smi

> <i_m_source_file_index>
2710

> <i_lp_mmshare_version>
43012

> <i_f3d_flags>
0

> <s_epik_input>
W0NIM11bQ0gyXU4xW0NIMl1bQ0gyXVtDQEhdKFtDSDJdW0NASF0xW0NIM10pW05IXUMoPU8pW05IXWMyW2NIXW5jKEMoW0NIM10pKFtDSDNdKVtDSDNdKW5bY0hdMg==

> <s_epik_cmdline>
J2VwaWtfcHl0aG9uJywgJy1waCcsICc3LjAnLCAnLXRuJywgJzgnLCAnLW1hJywgJzIwMCcsICctbWV0YWxfYmluZGluZycsICctaW1hZScsICc8aW5maWxlLm1hZT4nLCAnLW9tYWUnLCAnPG91dGZpbGUubWFlPic=

> <r_lp_tautomer_probability>
1

> <r_epik_Ionization_Penalty>
0.00396003

> <r_epik_Ionization_Penalty_Charging>
0.0039379

> <r_epik_Ionization_Penalty_Neutral>
2.21316e-05

> <r_epik_State_Penalty>
0.00281651

> <r_epik_Charging_Adjusted_Penalty>
0.00675441

> <i_epik_Tot_Q>
1

> <i_epik_Tot_abs_Q>
1

> <r_epik_Metal_State_Penalty>
-0

> <b_epik_Metal_Only>
0

> <s_lp_Force_Field>
OPLS_2005

> <r_lp_Energy>
19.072

> <b_lp_Chiralities_Consistent>
1

> <s_lp_Variant>
AV-unprocessed.smi:2710-3

> <Gold.Version>
5.8.1

> <Gold.Id.Protein>
6NUR|6NUR_protein|mol2

> <Gold.PLP.Fitness>
41.8719

> <Gold.PLP.PLP>
-30.9131

> <Gold.PLP.part.hbond>
-2.7712

> <Gold.PLP.part.metal>
0.0000

> <Gold.PLP.part.buried>
1.2128

> <Gold.PLP.part.nonpolar>
-30.4575

> <Gold.PLP.part.repulsive>
0.4403

> <Gold.PLP.ligand.clash>
0.0000

> <Gold.PLP.ligand.torsion>
0.2212

> <Gold.PLP.Chemscore.Hbond>
3.7454

> <Gold.PLP.Chemscore.CHOScore>
0.0000

> <Gold.PLP.Chemscore.Metal>
0.0000

> <Gold.Chemscore.Hbonds>
donor molecule, donor type, donor heavy atom, donor atom, acceptor molecule, acceptor atom, score
      L1  H     3    53       P1 10175  2.00
      L1  H     7    34       P1  7948  0.94
      L1  H    10    35       P1  7948  0.63

> <Gold.PLP.Chemscore.Internal.Correction>
0.1650

> <Gold.Rescore>
     Score         DG    S(hbond)    S(metal)    S(lipo)     H(rot)  DE(clash)    DE(int)     intcor
     16.29     -19.31       2.39        0.00      78.52       1.31       1.32       1.70       ----

> <Gold.Chemscore.Fitness>
16.2887

> <Gold.Chemscore.DG>
-19.3123

> <Gold.Chemscore.ZeroCoef>
-5.4800

> <Gold.Chemscore.Hbond>
2.3935

> <Gold.Chemscore.Metal>
0.0000

> <Gold.Chemscore.Lipo>
78.5193

> <Gold.Chemscore.Internal_Hbond>
0.0000

> <Gold.Chemscore.DEClash>
1.3214

> <Gold.Chemscore.DEInternal>
1.7023

> <Gold.Chemscore.Rot>
1.3081

> <Gold.Chemscore.Internal.Correction>
   9.000000E+99

> <Gold.Chemscore.Hbonds>
donor molecule, donor type, donor heavy atom, donor atom, acceptor molecule, acceptor atom, score
      L1  H     3    53       P1 10175  0.98
      L1  H     7    34       P1  7948  0.90
      L1  H    10    35       P1  7948  0.31

> <Gold.Chemscore.Hbond.Weighted>
-7.9943

> <Gold.Chemscore.Metal.Weighted>
-0.0000

> <Gold.Chemscore.Lipo.Weighted>
-9.1868

> <Gold.Chemscore.Internal_Hbond.Weighted>
0.0000

> <Gold.Chemscore.DEClash.Weighted>
1.3214

> <Gold.Chemscore.DEInternal.Weighted>
1.7023

> <Gold.Chemscore.Rot.Weighted>
3.3488

> <Gold.Chemscore.Internal.Correction.Weighted>
   9.000000E+99

> <Gold.Protein.RotatedTorsions>
[ 6907 6896 6895 6894 ] final  -78.42 input  -60.11 | X-H torsion
[ 7974 7965 7964 7962 ] final  -56.41 input  175.53 | X-H torsion
[ 8008 7997 7996 7995 ] final  -52.56 input   59.86 | X-H torsion
[ 10167 10162 10161 10158 ] final   95.77 input  -65.29 | X-H torsion
[ 10718 10713 10712 10709 ] final -113.05 input   66.30 | X-H torsion
[ 10763 10752 10751 10750 ] final   44.78 input  -60.55 | X-H torsion
[ 11005 11000 10999 10996 ] final    5.31 input  -57.11 | X-H torsion

> <Gold.Protein.ActiveResidues>
 VAL166  LYS551  ARG553  GLY616  TRP617  ASP618  TYR619  PRO620  LYS621  CYS622 
 ASP623  PHE694  ASN695  SER759  ASP760  ASP761  ALA762  ILE779  LEU786  VAL792 
 PHE793  MET794  SER795  GLU796  ALA797  LYS798  CYS799  TRP800  GLU811  SER814 

> <Gold.Protein.RotatedAtoms>
  150.6973  134.4275  159.5232 H   0  0  0  0  0  0  0  0  0  0  0  0  # atno 6907 bound_to 6896
  152.2007  134.8587  160.0517 H   0  0  0  0  0  0  0  0  0  0  0  0  # atno 6908 bound_to 6896
  151.9508  133.3630  159.4036 H   0  0  0  0  0  0  0  0  0  0  0  0  # atno 6909 bound_to 6896
  145.8630  140.8272  142.9927 H   0  0  0  0  0  0  0  0  0  0  0  0  # atno 7974 bound_to 7965
  154.4110  140.1221  156.5011 H   0  0  0  0  0  0  0  0  0  0  0  0  # atno 8008 bound_to 7997
  155.6893  140.3495  155.4868 H   0  0  0  0  0  0  0  0  0  0  0  0  # atno 8009 bound_to 7997
  155.9482  140.1100  157.0988 H   0  0  0  0  0  0  0  0  0  0  0  0  # atno 8010 bound_to 7997
  139.7957  144.6834  150.9832 H   0  0  0  0  0  0  0  0  0  0  0  0  # atno 10167 bound_to 10162
  156.0743  130.5952  150.8590 H   0  0  0  0  0  0  0  0  0  0  0  0  # atno 10718 bound_to 10713
  152.9835  135.6060  154.3329 H   0  0  0  0  0  0  0  0  0  0  0  0  # atno 10763 bound_to 10752
  154.3031  135.2772  155.2603 H   0  0  0  0  0  0  0  0  0  0  0  0  # atno 10764 bound_to 10752
  154.4847  135.5908  153.6471 H   0  0  0  0  0  0  0  0  0  0  0  0  # atno 10765 bound_to 10752
  140.5722  134.0092  155.8013 H   0  0  0  0  0  0  0  0  0  0  0  0  # atno 11005 bound_to 11000
  144.6726  140.1124  143.7454 LP  0  0  0  0  0  0  0  0  0  0  0  0  # atno 17320 bound_to 7965
  145.9226  139.2555  143.1372 LP  0  0  0  0  0  0  0  0  0  0  0  0  # atno 17321 bound_to 7965
  140.7820  143.4334  151.0660 LP  0  0  0  0  0  0  0  0  0  0  0  0  # atno 17342 bound_to 10162
  139.8008  143.8086  152.3162 LP  0  0  0  0  0  0  0  0  0  0  0  0  # atno 17343 bound_to 10162
  157.5830  131.0946  150.9241 LP  0  0  0  0  0  0  0  0  0  0  0  0  # atno 17370 bound_to 10713
  156.9433  130.5392  149.5280 LP  0  0  0  0  0  0  0  0  0  0  0  0  # atno 17371 bound_to 10713
  141.1049  133.9709  157.3014 LP  0  0  0  0  0  0  0  0  0  0  0  0  # atno 17394 bound_to 11000
  139.9356  135.0196  156.8546 LP  0  0  0  0  0  0  0  0  0  0  0  0  # atno 17395 bound_to 11000

$$$$
