#       Name:                AV-unprocessed.smi:1592
#       Creating user name   scv26
#       Creation time:       Fri Mar 27 07:04:13 2020


#       File generated by GOLD software.
#

@<TRIPOS>MOLECULE
AV-unprocessed.smi:1592
    31    32     1
SMALL
NO_CHARGES


@<TRIPOS>ATOM
      1 ****        -0.1649   1.2341   0.9480 O.2            1 S1                 0.0000
      2 ****         0.2802   0.3449   0.2205 C.2            1 S1                 0.0000
      3 ****        -0.4689  -0.5792  -0.4083 N.am           1 S1                 0.0000
      4 ****        -1.8797  -0.7577  -0.3729 C.ar           1 S1                 0.0000
      5 ****        -2.7074   0.0521   0.3348 N.ar           1 S1                 0.0000
      6 ****        -4.0356  -0.1821   0.3180 C.ar           1 S1                 0.0000
      7 ****        -4.6235  -1.2365  -0.4024 C.ar           1 S1                 0.0000
      8 ****        -3.7796  -2.0844  -1.1402 C.ar           1 S1                 0.0000
      9 ****        -2.3904  -1.8466  -1.1283 C.ar           1 S1                 0.0000
     10 ****        -1.5697  -2.6743  -1.8461 O.co2          1 S1                -1.0000
     11 ****         1.7899   0.2528  -0.0276 C.3            1 S1                 0.0000
     12 ****         2.6385   0.3417   1.2551 C.3            1 S1                 0.0000
     13 ****         3.3665   1.6653   1.1188 C.3            1 S1                 0.0000
     14 ****         3.4502   1.8251  -0.3920 C.3            1 S1                 0.0000
     15 ****         2.1804   1.3675  -0.8273 O.3            1 S1                 0.0000
     16 ****         0.0260  -1.2467  -0.9823 H              1 S1                 0.0000
     17 ****        -4.6479   0.4926   0.8978 H              1 S1                 0.0000
     18 ****        -5.6920  -1.3909  -0.3897 H              1 S1                 0.0000
     19 ****        -4.1941  -2.9060  -1.7063 H              1 S1                 0.0000
     20 ****         2.0323  -0.6670  -0.5632 H              1 S1                 0.0000
     21 ****         2.0588   0.2897   2.1779 H              1 S1                 0.0000
     22 ****         3.3558  -0.4798   1.2764 H              1 S1                 0.0000
     23 ****         2.7649   2.4695   1.5451 H              1 S1                 0.0000
     24 ****         4.3424   1.6703   1.6048 H              1 S1                 0.0000
     25 ****         3.6345   2.8545  -0.6998 H              1 S1                 0.0000
     26 ****         4.2330   1.1907  -0.8105 H              1 S1                 0.0000
     27 ****        -1.1498   1.3049   1.1056 LP             1 S1                 0.0000
     28 ****         0.4588   1.8850   1.3808 LP             1 S1                 0.0000
     29 ****        -2.3361   0.8152   0.8637 LP             1 S1                 0.0000
     30 ****         1.5082   2.1015  -0.7306 LP             1 S1                 0.0000
     31 ****         2.2348   1.0896  -1.7864 LP             1 S1                 0.0000
@<TRIPOS>BOND
    1    1    2 2     
    2    2    3 am    
    3    2   11 1     
    4    3   16 1     
    5    3    4 1     
    6    4    9 ar    
    7    4    5 ar    
    8    5    6 ar    
    9    6   17 1     
   10    6    7 ar    
   11    7   18 1     
   12    7    8 ar    
   13    8    9 ar    
   14    8   19 1     
   15    9   10 ar    
   16   11   15 1     
   17   11   12 1     
   18   11   20 1     
   19   12   13 1     
   20   12   21 1     
   21   12   22 1     
   22   13   14 1     
   23   13   23 1     
   24   13   24 1     
   25   14   15 1     
   26   14   25 1     
   27   14   26 1     
   28    1   27 1     
   29    1   28 1     
   30    5   29 1     
   31   15   30 1     
   32   15   31 1     
@<TRIPOS>SUBSTRUCTURE
      1 S1             1
@<TRIPOS>SET
LONE_PAIRS      STATIC     ATOMS    <user>   **** ""
6 27 28 29 10 30 31
DONOR_HYDROGENS      STATIC     ATOMS    <user>   **** ""
1 16
ATOM$BLUE        STATIC     ATOMS    COLORGROUP SYSTEM
6 27 28 29 10 30 31
ATOM$RED        STATIC     ATOMS    COLORGROUP SYSTEM
1 16
