AV-unprocessed.smi:446|AV-procd|sdf|2595|dock3
  -GOLD-   2262022593D 1   1.00000     0.00000
 Structure written by MMmdl.
 36 38  0  0  0  0  0  0  0  0  2 V2000
  152.0425  138.1933  154.7621 C   0  0  0  0  0  0  0  0  0  0  0  0
  150.7865  138.9328  154.4436 C   0  0  0  0  0  0  0  0  0  0  0  0
  149.8024  138.5146  153.5982 N   0  3  0  0  0  0  0  0  0  0  0  0
  148.7828  139.4667  153.5522 C   0  0  0  0  0  0  0  0  0  0  0  0
  147.5856  139.4882  152.8432 C   0  0  0  0  0  0  0  0  0  0  0  0
  146.7629  140.6194  153.0251 C   0  0  0  0  0  0  0  0  0  0  0  0
  147.1415  141.6731  153.8825 C   0  0  0  0  0  0  0  0  0  0  0  0
  148.3583  141.6407  154.5951 C   0  0  0  0  0  0  0  0  0  0  0  0
  149.1641  140.5177  154.4110 C   0  0  0  0  0  0  0  0  0  0  0  0
  150.4049  140.1452  154.9383 N   0  0  0  0  0  0  0  0  0  0  0  0
  151.0793  141.0433  155.8875 C   0  0  0  0  0  0  0  0  0  0  0  0
  151.6729  140.3017  157.1020 C   0  0  2  0  0  0  0  0  0  0  0  0
  150.8302  139.2251  157.4643 O   0  0  0  0  0  0  0  0  0  0  0  0
  151.9187  141.2540  158.2611 C   0  0  0  0  0  0  0  0  0  0  0  0
  152.6587  140.8234  159.3834 C   0  0  0  0  0  0  0  0  0  0  0  0
  152.9004  141.7049  160.4551 C   0  0  0  0  0  0  0  0  0  0  0  0
  152.4057  143.0222  160.4099 C   0  0  0  0  0  0  0  0  0  0  0  0
  152.6401  143.8697  161.4396 F   0  0  0  0  0  0  0  0  0  0  0  0
  151.6687  143.4582  159.2922 C   0  0  0  0  0  0  0  0  0  0  0  0
  151.4263  142.5771  158.2203 C   0  0  0  0  0  0  0  0  0  0  0  0
  152.0904  137.2591  154.2023 H   0  0  0  0  0  0  0  0  0  0  0  0
  152.0838  137.9620  155.8266 H   0  0  0  0  0  0  0  0  0  0  0  0
  152.9120  138.7973  154.5026 H   0  0  0  0  0  0  0  0  0  0  0  0
  147.2938  138.6826  152.1854 H   0  0  0  0  0  0  0  0  0  0  0  0
  145.8228  140.6802  152.4960 H   0  0  0  0  0  0  0  0  0  0  0  0
  146.4853  142.5239  153.9963 H   0  0  0  0  0  0  0  0  0  0  0  0
  148.6408  142.4527  155.2487 H   0  0  0  0  0  0  0  0  0  0  0  0
  151.8549  141.5895  155.3489 H   0  0  0  0  0  0  0  0  0  0  0  0
  150.3525  141.7882  156.2137 H   0  0  0  0  0  0  0  0  0  0  0  0
  152.6288  139.8617  156.8154 H   0  0  0  0  0  0  0  0  0  0  0  0
  150.5338  139.3624  158.3512 H   0  0  0  0  0  0  0  0  0  0  0  0
  153.0457  139.8160  159.4271 H   0  0  0  0  0  0  0  0  0  0  0  0
  153.4671  141.3708  161.3116 H   0  0  0  0  0  0  0  0  0  0  0  0
  151.2907  144.4692  159.2558 H   0  0  0  0  0  0  0  0  0  0  0  0
  150.8640  142.9215  157.3646 H   0  0  0  0  0  0  0  0  0  0  0  0
  149.8289  137.6396  153.0909 H   0  0  0  0  0  0  0  0  0  0  0  0
  1  2  1  0  0  0  0
  1 21  1  0  0  0  0
  1 22  1  0  0  0  0
  1 23  1  0  0  0  0
  2 10  1  0  0  0  0
  2  3  2  0  0  0  0
  3  4  1  0  0  0  0
  3 36  1  0  0  0  0
  4  9  2  0  0  0  0
  4  5  1  0  0  0  0
  5  6  2  0  0  0  0
  5 24  1  0  0  0  0
  6  7  1  0  0  0  0
  6 25  1  0  0  0  0
  7  8  2  0  0  0  0
  7 26  1  0  0  0  0
  8  9  1  0  0  0  0
  8 27  1  0  0  0  0
  9 10  1  0  0  0  0
 10 11  1  0  0  0  0
 11 12  1  0  0  0  0
 11 28  1  0  0  0  0
 11 29  1  0  0  0  0
 12 13  1  0  0  0  0
 12 14  1  0  0  0  0
 12 30  1  0  0  0  0
 13 31  1  0  0  0  0
 14 20  1  0  0  0  0
 14 15  2  0  0  0  0
 15 16  1  0  0  0  0
 15 32  1  0  0  0  0
 16 17  2  0  0  0  0
 16 33  1  0  0  0  0
 17 18  1  0  0  0  0
 17 19  1  0  0  0  0
 19 20  2  0  0  0  0
 19 34  1  0  0  0  0
 20 35  1  0  0  0  0
M  CHG  1   3   1
M  END
> <s_m_source_file>
AV-unprocessed.smi

> <i_m_source_file_index>
446

> <i_lp_mmshare_version>
43012

> <i_f3d_flags>
0

> <s_epik_input>
W2NIXTFbY0hdW2NIXVtjSF1jKGMxMiluKGMobjIpW0NIM10pW0NIMl1bQ0BIXShbT0hdKWMzW2NIXVtjSF1jKEYpW2NIXVtjSF0z

> <s_epik_cmdline>
J2VwaWtfcHl0aG9uJywgJy1waCcsICc3LjAnLCAnLXRuJywgJzgnLCAnLW1hJywgJzIwMCcsICctbWV0YWxfYmluZGluZycsICctaW1hZScsICc8aW5maWxlLm1hZT4nLCAnLW9tYWUnLCAnPG91dGZpbGUubWFlPic=

> <r_epik_Ionization_Penalty>
0.963869

> <r_epik_Ionization_Penalty_Charging>
0.963868

> <r_epik_Ionization_Penalty_Neutral>
1.79538e-06

> <r_epik_State_Penalty>
1.00924

> <r_epik_Charging_Adjusted_Penalty>
1.9731

> <i_epik_Tot_Q>
1

> <i_epik_Tot_abs_Q>
1

> <r_epik_Metal_State_Penalty>
4.98304

> <b_epik_Metal_Only>
0

> <s_lp_Force_Field>
OPLS_2005

> <r_lp_Energy>
14.7156

> <b_lp_Chiralities_Consistent>
1

> <s_lp_Variant>
AV-unprocessed.smi:446-3

> <Gold.Version>
5.8.1

> <Gold.Id.Protein>
6NUR|6NUR_protein|mol2

> <Gold.PLP.Fitness>
50.8633

> <Gold.PLP.PLP>
-45.9765

> <Gold.PLP.part.hbond>
-2.0000

> <Gold.PLP.part.metal>
0.0000

> <Gold.PLP.part.buried>
4.8964

> <Gold.PLP.part.nonpolar>
-47.6004

> <Gold.PLP.part.repulsive>
0.0793

> <Gold.PLP.ligand.clash>
0.0000

> <Gold.PLP.ligand.torsion>
0.5683

> <Gold.PLP.Chemscore.Hbond>
2.0000

> <Gold.PLP.Chemscore.CHOScore>
0.0000

> <Gold.PLP.Chemscore.Metal>
0.0000

> <Gold.Chemscore.Hbonds>
donor molecule, donor type, donor heavy atom, donor atom, acceptor molecule, acceptor atom, score
      L1  H     3    36       P1  7948  2.00

> <Gold.PLP.Chemscore.Internal.Correction>
0.0236

> <Gold.Rescore>
     Score         DG    S(hbond)    S(metal)    S(lipo)     H(rot)  DE(clash)    DE(int)     intcor
     15.43     -17.31       0.98        0.00     113.51       1.85       1.57       0.32       ----

> <Gold.Chemscore.Fitness>
15.4291

> <Gold.Chemscore.DG>
-17.3130

> <Gold.Chemscore.ZeroCoef>
-5.4800

> <Gold.Chemscore.Hbond>
0.9820

> <Gold.Chemscore.Metal>
0.0000

> <Gold.Chemscore.Lipo>
113.5063

> <Gold.Chemscore.Internal_Hbond>
0.0000

> <Gold.Chemscore.DEClash>
1.5657

> <Gold.Chemscore.DEInternal>
0.3181

> <Gold.Chemscore.Rot>
1.8465

> <Gold.Chemscore.Internal.Correction>
   9.000000E+99

> <Gold.Chemscore.Hbonds>
donor molecule, donor type, donor heavy atom, donor atom, acceptor molecule, acceptor atom, score
      L1  H     3    36       P1  7948  0.45

> <Gold.Chemscore.Hbond.Weighted>
-3.2798

> <Gold.Chemscore.Metal.Weighted>
-0.0000

> <Gold.Chemscore.Lipo.Weighted>
-13.2802

> <Gold.Chemscore.Internal_Hbond.Weighted>
0.0000

> <Gold.Chemscore.DEClash.Weighted>
1.5657

> <Gold.Chemscore.DEInternal.Weighted>
0.3181

> <Gold.Chemscore.Rot.Weighted>
4.7270

> <Gold.Chemscore.Internal.Correction.Weighted>
   9.000000E+99

> <Gold.Protein.RotatedTorsions>
[ 6907 6896 6895 6894 ] final  -22.69 input  -60.11 | X-H torsion
[ 7974 7965 7964 7962 ] final  166.48 input  175.53 | X-H torsion
[ 8008 7997 7996 7995 ] final -168.35 input   59.86 | X-H torsion
[ 10167 10162 10161 10158 ] final -114.14 input  -65.29 | X-H torsion
[ 10718 10713 10712 10709 ] final  119.31 input   66.30 | X-H torsion
[ 10763 10752 10751 10750 ] final   11.17 input  -60.55 | X-H torsion
[ 11005 11000 10999 10996 ] final  -42.45 input  -57.11 | X-H torsion

> <Gold.Protein.ActiveResidues>
 VAL166  LYS551  ARG553  GLY616  TRP617  ASP618  TYR619  PRO620  LYS621  CYS622 
 ASP623  PHE694  ASN695  SER759  ASP760  ASP761  ALA762  ILE779  LEU786  VAL792 
 PHE793  MET794  SER795  GLU796  ALA797  LYS798  CYS799  TRP800  GLU811  SER814 

> <Gold.Protein.RotatedAtoms>
  151.2149  135.0496  159.8925 H   0  0  0  0  0  0  0  0  0  0  0  0  # atno 6907 bound_to 6896
  152.5421  134.0704  159.8202 H   0  0  0  0  0  0  0  0  0  0  0  0  # atno 6908 bound_to 6896
  151.0863  133.5303  159.2649 H   0  0  0  0  0  0  0  0  0  0  0  0  # atno 6909 bound_to 6896
  144.7461  139.8621  143.6381 H   0  0  0  0  0  0  0  0  0  0  0  0  # atno 7974 bound_to 7965
  155.8901  140.1023  157.1424 H   0  0  0  0  0  0  0  0  0  0  0  0  # atno 8008 bound_to 7997
  154.4014  140.1312  156.4369 H   0  0  0  0  0  0  0  0  0  0  0  0  # atno 8009 bound_to 7997
  155.7543  140.3464  155.5168 H   0  0  0  0  0  0  0  0  0  0  0  0  # atno 8010 bound_to 7997
  140.1042  143.4586  152.1793 H   0  0  0  0  0  0  0  0  0  0  0  0  # atno 10167 bound_to 10162
  157.5970  131.1056  150.7879 H   0  0  0  0  0  0  0  0  0  0  0  0  # atno 10718 bound_to 10713
  153.1954  135.6848  153.8299 H   0  0  0  0  0  0  0  0  0  0  0  0  # atno 10763 bound_to 10752
  153.7584  135.3213  155.3334 H   0  0  0  0  0  0  0  0  0  0  0  0  # atno 10764 bound_to 10752
  154.8141  135.4697  154.0696 H   0  0  0  0  0  0  0  0  0  0  0  0  # atno 10765 bound_to 10752
  141.0316  133.6817  156.2596 H   0  0  0  0  0  0  0  0  0  0  0  0  # atno 11005 bound_to 11000
  146.1341  139.4382  143.0150 LP  0  0  0  0  0  0  0  0  0  0  0  0  # atno 17320 bound_to 7965
  145.7119  141.0103  143.1449 LP  0  0  0  0  0  0  0  0  0  0  0  0  # atno 17321 bound_to 7965
  139.5654  144.7432  151.4036 LP  0  0  0  0  0  0  0  0  0  0  0  0  # atno 17342 bound_to 10162
  140.6961  143.7745  150.7329 LP  0  0  0  0  0  0  0  0  0  0  0  0  # atno 17343 bound_to 10162
  156.8287  130.5008  149.5334 LP  0  0  0  0  0  0  0  0  0  0  0  0  # atno 17370 bound_to 10713
  156.1035  130.5987  150.9932 LP  0  0  0  0  0  0  0  0  0  0  0  0  # atno 17371 bound_to 10713
  140.6396  134.5179  157.5568 LP  0  0  0  0  0  0  0  0  0  0  0  0  # atno 17394 bound_to 11000
  139.9212  134.8145  156.1207 LP  0  0  0  0  0  0  0  0  0  0  0  0  # atno 17395 bound_to 11000

$$$$
