AV-unprocessed.smi:1144|AV-procd|sdf|4878|dock2
  -GOLD-   22720 3453D 1   1.00000     0.00000
 Structure written by MMmdl.
 35 36  0  0  0  0  0  0  0  0  2 V2000
  148.1590  137.6842  154.9025 C   0  0  0  0  0  0  0  0  0  0  0  0
  149.2811  138.2111  154.0916 N   0  3  1  0  0  0  0  0  0  0  0  0
  148.9369  139.4265  153.3163 C   0  0  0  0  0  0  0  0  0  0  0  0
  148.9595  140.6823  154.2060 C   0  0  0  0  0  0  0  0  0  0  0  0
  150.2258  140.7862  154.8431 O   0  0  0  0  0  0  0  0  0  0  0  0
  150.4966  139.6885  155.7095 C   0  0  2  0  0  0  0  0  0  0  0  0
  151.8384  139.9351  156.4198 C   0  0  0  0  0  0  0  0  0  0  0  0
  151.8424  141.1791  157.1783 N   0  0  0  0  0  0  0  0  0  0  0  0
  152.4782  141.3632  158.3930 C   0  0  0  0  0  0  0  0  0  0  0  0
  152.1245  142.4104  159.1466 N   0  0  0  0  0  0  0  0  0  0  0  0
  152.7620  142.5611  160.3274 C   0  0  0  0  0  0  0  0  0  0  0  0
  153.7560  141.6588  160.7536 C   0  0  0  0  0  0  0  0  0  0  0  0
  154.0504  140.5909  159.8768 C   0  0  0  0  0  0  0  0  0  0  0  0
  155.1032  139.5424  160.2036 C   0  0  0  0  0  0  0  0  0  0  0  0
  155.1516  138.6351  159.2280 F   0  0  0  0  0  0  0  0  0  0  0  0
  156.3129  140.0879  160.3348 F   0  0  0  0  0  0  0  0  0  0  0  0
  154.7894  138.9310  161.3457 F   0  0  0  0  0  0  0  0  0  0  0  0
  153.4045  140.4517  158.6953 N   0  0  0  0  0  0  0  0  0  0  0  0
  150.5363  138.4005  154.8587 C   0  0  0  0  0  0  0  0  0  0  0  0
  147.8538  138.3838  155.6807 H   0  0  0  0  0  0  0  0  0  0  0  0
  148.4410  136.7459  155.3813 H   0  0  0  0  0  0  0  0  0  0  0  0
  147.2932  137.4832  154.2707 H   0  0  0  0  0  0  0  0  0  0  0  0
  149.6701  139.5404  152.5168 H   0  0  0  0  0  0  0  0  0  0  0  0
  147.9665  139.3092  152.8322 H   0  0  0  0  0  0  0  0  0  0  0  0
  148.7981  141.5734  153.5992 H   0  0  0  0  0  0  0  0  0  0  0  0
  148.1623  140.6593  154.9502 H   0  0  0  0  0  0  0  0  0  0  0  0
  149.7106  139.6100  156.4626 H   0  0  0  0  0  0  0  0  0  0  0  0
  152.0233  139.1297  157.1307 H   0  0  0  0  0  0  0  0  0  0  0  0
  152.6654  139.9101  155.7094 H   0  0  0  0  0  0  0  0  0  0  0  0
  151.4645  142.0036  156.7343 H   0  0  0  0  0  0  0  0  0  0  0  0
  152.4770  143.4068  160.9354 H   0  0  0  0  0  0  0  0  0  0  0  0
  154.2610  141.7868  161.6997 H   0  0  0  0  0  0  0  0  0  0  0  0
  150.7292  137.5274  155.4835 H   0  0  0  0  0  0  0  0  0  0  0  0
  151.3620  138.4599  154.1483 H   0  0  0  0  0  0  0  0  0  0  0  0
  149.4732  137.4895  153.4112 H   0  0  0  0  0  0  0  0  0  0  0  0
  1  2  1  0  0  0  0
  1 20  1  0  0  0  0
  1 21  1  0  0  0  0
  1 22  1  0  0  0  0
  2 19  1  0  0  0  0
  2  3  1  0  0  0  0
  2 35  1  0  0  0  0
  3  4  1  0  0  0  0
  3 23  1  0  0  0  0
  3 24  1  0  0  0  0
  4  5  1  0  0  0  0
  4 25  1  0  0  0  0
  4 26  1  0  0  0  0
  5  6  1  0  0  0  0
  6  7  1  0  0  0  0
  6 19  1  0  0  0  0
  6 27  1  0  0  0  0
  7  8  1  0  0  0  0
  7 28  1  0  0  0  0
  7 29  1  0  0  0  0
  8  9  1  0  0  0  0
  8 30  1  0  0  0  0
  9 18  1  0  0  0  0
  9 10  2  0  0  0  0
 10 11  1  0  0  0  0
 11 12  2  0  0  0  0
 11 31  1  0  0  0  0
 12 13  1  0  0  0  0
 12 32  1  0  0  0  0
 13 14  1  0  0  0  0
 13 18  2  0  0  0  0
 14 15  1  0  0  0  0
 14 16  1  0  0  0  0
 14 17  1  0  0  0  0
 19 33  1  0  0  0  0
 19 34  1  0  0  0  0
M  CHG  1   2   1
M  END
> <s_m_source_file>
AV-unprocessed.smi

> <i_m_source_file_index>
1144

> <i_lp_mmshare_version>
43012

> <i_f3d_flags>
0

> <s_epik_input>
W0NIM11OMVtDSDJdW0NIMl1PW0NASF0oW0NIMl0xKVtDSDJdW05IXWMybltjSF1bY0hdYyhuMilDKEYpKEYpRg==

> <s_epik_cmdline>
J2VwaWtfcHl0aG9uJywgJy1waCcsICc3LjAnLCAnLXRuJywgJzgnLCAnLW1hJywgJzIwMCcsICctbWV0YWxfYmluZGluZycsICctaW1hZScsICc8aW5maWxlLm1hZT4nLCAnLW9tYWUnLCAnPG91dGZpbGUubWFlPic=

> <r_lp_tautomer_probability>
1

> <r_epik_Ionization_Penalty>
0.178506

> <r_epik_Ionization_Penalty_Charging>
0.178504

> <r_epik_Ionization_Penalty_Neutral>
2.47225e-06

> <r_epik_State_Penalty>
0.167974

> <r_epik_Charging_Adjusted_Penalty>
0.346478

> <i_epik_Tot_Q>
1

> <i_epik_Tot_abs_Q>
1

> <r_epik_Metal_State_Penalty>
0.167974

> <b_epik_Metal_Only>
0

> <s_lp_Force_Field>
OPLS_2005

> <r_lp_Energy>
11.1237

> <b_lp_Chiralities_Consistent>
1

> <s_lp_Variant>
AV-unprocessed.smi:1144-3

> <Gold.Version>
5.8.1

> <Gold.Id.Protein>
6NUR|6NUR_protein|mol2

> <Gold.PLP.Fitness>
38.0257

> <Gold.PLP.PLP>
-27.7394

> <Gold.PLP.part.hbond>
-3.0000

> <Gold.PLP.part.metal>
0.0000

> <Gold.PLP.part.buried>
2.4139

> <Gold.PLP.part.nonpolar>
-26.8367

> <Gold.PLP.part.repulsive>
0.2252

> <Gold.PLP.ligand.clash>
0.0000

> <Gold.PLP.ligand.torsion>
0.2439

> <Gold.PLP.Chemscore.Hbond>
3.5899

> <Gold.PLP.Chemscore.CHOScore>
0.0000

> <Gold.PLP.Chemscore.Metal>
0.0000

> <Gold.Chemscore.Hbonds>
donor molecule, donor type, donor heavy atom, donor atom, acceptor molecule, acceptor atom, score
      L1  H     2    35       P1  7948  1.98
      P1  H  7989  7998       L1     5  0.82
      P1  H  7997  8009       L1    18  0.74

> <Gold.PLP.Chemscore.Internal.Correction>
0.0043

> <Gold.Rescore>
     Score         DG    S(hbond)    S(metal)    S(lipo)     H(rot)  DE(clash)    DE(int)     intcor
     15.65     -17.67       2.27        0.00      68.72       1.34       1.73       0.29       ----

> <Gold.Chemscore.Fitness>
15.6498

> <Gold.Chemscore.DG>
-17.6722

> <Gold.Chemscore.ZeroCoef>
-5.4800

> <Gold.Chemscore.Hbond>
2.2684

> <Gold.Chemscore.Metal>
0.0000

> <Gold.Chemscore.Lipo>
68.7234

> <Gold.Chemscore.Internal_Hbond>
0.0000

> <Gold.Chemscore.DEClash>
1.7290

> <Gold.Chemscore.DEInternal>
0.2934

> <Gold.Chemscore.Rot>
1.3379

> <Gold.Chemscore.Internal.Correction>
   9.000000E+99

> <Gold.Chemscore.Hbonds>
donor molecule, donor type, donor heavy atom, donor atom, acceptor molecule, acceptor atom, score
      L1  H     2    35       P1  7948  0.84
      P1  H  7989  7998       L1     5  0.39
      P1  H  7997  8009       L1    18  0.52

> <Gold.Chemscore.Hbond.Weighted>
-7.5766

> <Gold.Chemscore.Metal.Weighted>
-0.0000

> <Gold.Chemscore.Lipo.Weighted>
-8.0406

> <Gold.Chemscore.Internal_Hbond.Weighted>
0.0000

> <Gold.Chemscore.DEClash.Weighted>
1.7290

> <Gold.Chemscore.DEInternal.Weighted>
0.2934

> <Gold.Chemscore.Rot.Weighted>
3.4250

> <Gold.Chemscore.Internal.Correction.Weighted>
   9.000000E+99

> <Gold.Protein.RotatedTorsions>
[ 6907 6896 6895 6894 ] final   84.20 input  -60.11 | X-H torsion
[ 7974 7965 7964 7962 ] final  -55.61 input  175.53 | X-H torsion
[ 8008 7997 7996 7995 ] final  149.10 input   59.86 | X-H torsion
[ 10167 10162 10161 10158 ] final  -12.55 input  -65.29 | X-H torsion
[ 10718 10713 10712 10709 ] final  -76.55 input   66.30 | X-H torsion
[ 10763 10752 10751 10750 ] final   36.72 input  -60.55 | X-H torsion
[ 11005 11000 10999 10996 ] final   -5.29 input  -57.11 | X-H torsion

> <Gold.Protein.ActiveResidues>
 VAL166  LYS551  ARG553  GLY616  TRP617  ASP618  TYR619  PRO620  LYS621  CYS622 
 ASP623  PHE694  ASN695  SER759  ASP760  ASP761  ALA762  ILE779  LEU786  VAL792 
 PHE793  MET794  SER795  GLU796  ALA797  LYS798  CYS799  TRP800  GLU811  SER814 

> <Gold.Protein.RotatedAtoms>
  152.5346  134.2778  159.8995 H   0  0  0  0  0  0  0  0  0  0  0  0  # atno 6907 bound_to 6896
  151.2733  133.4238  159.2630 H   0  0  0  0  0  0  0  0  0  0  0  0  # atno 6908 bound_to 6896
  151.0348  134.9580  159.8187 H   0  0  0  0  0  0  0  0  0  0  0  0  # atno 6909 bound_to 6896
  145.8721  140.8208  142.9883 H   0  0  0  0  0  0  0  0  0  0  0  0  # atno 7974 bound_to 7965
  156.2767  140.2111  156.5804 H   0  0  0  0  0  0  0  0  0  0  0  0  # atno 8008 bound_to 7997
  154.7063  140.0516  157.0530 H   0  0  0  0  0  0  0  0  0  0  0  0  # atno 8009 bound_to 7997
  155.0666  140.3172  155.4647 H   0  0  0  0  0  0  0  0  0  0  0  0  # atno 8010 bound_to 7997
  140.7163  143.5521  150.9290 H   0  0  0  0  0  0  0  0  0  0  0  0  # atno 10167 bound_to 10162
  156.0171  130.4468  150.3210 H   0  0  0  0  0  0  0  0  0  0  0  0  # atno 10718 bound_to 10713
  153.0065  135.6298  154.2031 H   0  0  0  0  0  0  0  0  0  0  0  0  # atno 10763 bound_to 10752
  154.1774  135.2815  155.3064 H   0  0  0  0  0  0  0  0  0  0  0  0  # atno 10764 bound_to 10752
  154.5861  135.5632  153.7292 H   0  0  0  0  0  0  0  0  0  0  0  0  # atno 10765 bound_to 10752
  140.6895  133.9083  155.8608 H   0  0  0  0  0  0  0  0  0  0  0  0  # atno 11005 bound_to 11000
  144.6726  140.1255  143.7447 LP  0  0  0  0  0  0  0  0  0  0  0  0  # atno 17320 bound_to 7965
  145.9124  139.2495  143.1430 LP  0  0  0  0  0  0  0  0  0  0  0  0  # atno 17321 bound_to 7965
  139.9245  143.6566  152.3090 LP  0  0  0  0  0  0  0  0  0  0  0  0  # atno 17342 bound_to 10162
  139.6995  144.7637  151.1298 LP  0  0  0  0  0  0  0  0  0  0  0  0  # atno 17343 bound_to 10162
  157.1311  131.0272  151.2969 LP  0  0  0  0  0  0  0  0  0  0  0  0  # atno 17370 bound_to 10713
  157.4550  130.7620  149.7185 LP  0  0  0  0  0  0  0  0  0  0  0  0  # atno 17371 bound_to 10713
  141.0253  134.0832  157.4076 LP  0  0  0  0  0  0  0  0  0  0  0  0  # atno 17394 bound_to 11000
  139.8927  135.0126  156.6863 LP  0  0  0  0  0  0  0  0  0  0  0  0  # atno 17395 bound_to 11000

$$$$
