AV-unprocessed.smi:1278|AV-procd|sdf|5350|dock5
  -GOLD-   22720 4483D 1   1.00000     0.00000
 Structure written by MMmdl.
 39 40  0  0  0  0  0  0  0  0  2 V2000
  148.4829  140.0546  154.1011 C   0  0  0  0  0  0  0  0  0  0  0  0
  149.1759  138.6923  153.9571 C   0  0  1  0  0  0  0  0  0  0  0  0
  150.4798  138.6376  154.7708 C   0  0  0  0  0  0  0  0  0  0  0  0
  151.1359  137.2587  154.6308 C   0  0  0  0  0  0  0  0  0  0  0  0
  150.1562  136.1416  155.0224 C   0  0  0  0  0  0  0  0  0  0  0  0
  148.9095  136.2157  154.2172 N   0  3  1  0  0  0  0  0  0  0  0  0
  148.0068  135.0667  154.4785 C   0  0  0  0  0  0  0  0  0  0  0  0
  148.7264  133.7098  154.3472 C   0  0  0  0  0  0  0  0  0  0  0  0
  148.5603  133.1416  153.0142 N   0  0  0  0  0  0  0  0  0  0  0  0
  147.4168  133.1574  152.3138 C   0  0  0  0  0  0  0  0  0  0  0  0
  146.3772  133.6685  152.7317 O   0  0  0  0  0  0  0  0  0  0  0  0
  147.5637  132.5549  151.1208 N   0  0  0  0  0  0  0  0  0  0  0  0
  146.5928  132.3875  150.0984 C   0  0  0  0  0  0  0  0  0  0  0  0
  146.7929  131.6874  148.9758 N   0  0  0  0  0  0  0  0  0  0  0  0
  145.6667  131.6887  148.1490 C   0  0  0  0  0  0  0  0  0  0  0  0
  144.6102  132.3992  148.6617 C   0  0  0  0  0  0  0  0  0  0  0  0
  144.9896  133.0988  150.2131 S   0  0  0  0  0  0  0  0  0  0  0  0
  148.2409  137.5365  154.3667 C   0  0  0  0  0  0  0  0  0  0  0  0
  148.2016  140.2496  155.1365 H   0  0  0  0  0  0  0  0  0  0  0  0
  147.5773  140.1016  153.4958 H   0  0  0  0  0  0  0  0  0  0  0  0
  149.1377  140.8639  153.7764 H   0  0  0  0  0  0  0  0  0  0  0  0
  149.4297  138.5632  152.9036 H   0  0  0  0  0  0  0  0  0  0  0  0
  151.1698  139.4122  154.4340 H   0  0  0  0  0  0  0  0  0  0  0  0
  150.2729  138.8396  155.8227 H   0  0  0  0  0  0  0  0  0  0  0  0
  151.4675  137.1125  153.6018 H   0  0  0  0  0  0  0  0  0  0  0  0
  152.0292  137.2066  155.2540 H   0  0  0  0  0  0  0  0  0  0  0  0
  150.6398  135.1761  154.8692 H   0  0  0  0  0  0  0  0  0  0  0  0
  149.9106  136.2091  156.0834 H   0  0  0  0  0  0  0  0  0  0  0  0
  147.6167  135.1511  155.4937 H   0  0  0  0  0  0  0  0  0  0  0  0
  147.1427  135.1139  153.8137 H   0  0  0  0  0  0  0  0  0  0  0  0
  149.7965  133.8178  154.5198 H   0  0  0  0  0  0  0  0  0  0  0  0
  148.3592  133.0077  155.0980 H   0  0  0  0  0  0  0  0  0  0  0  0
  149.3681  132.6990  152.6006 H   0  0  0  0  0  0  0  0  0  0  0  0
  148.4764  132.1753  150.9167 H   0  0  0  0  0  0  0  0  0  0  0  0
  145.7044  131.1560  147.2103 H   0  0  0  0  0  0  0  0  0  0  0  0
  143.6356  132.5521  148.2223 H   0  0  0  0  0  0  0  0  0  0  0  0
  147.9146  137.6626  155.4006 H   0  0  0  0  0  0  0  0  0  0  0  0
  147.3448  137.5737  153.7483 H   0  0  0  0  0  0  0  0  0  0  0  0
  149.1965  136.1369  153.2520 H   0  0  0  0  0  0  0  0  0  0  0  0
  1  2  1  0  0  0  0
  1 19  1  0  0  0  0
  1 20  1  0  0  0  0
  1 21  1  0  0  0  0
  2 18  1  0  0  0  0
  2  3  1  0  0  0  0
  2 22  1  0  0  0  0
  3  4  1  0  0  0  0
  3 23  1  0  0  0  0
  3 24  1  0  0  0  0
  4  5  1  0  0  0  0
  4 25  1  0  0  0  0
  4 26  1  0  0  0  0
  5  6  1  0  0  0  0
  5 27  1  0  0  0  0
  5 28  1  0  0  0  0
  6  7  1  0  0  0  0
  6 18  1  0  0  0  0
  6 39  1  0  0  0  0
  7  8  1  0  0  0  0
  7 29  1  0  0  0  0
  7 30  1  0  0  0  0
  8  9  1  0  0  0  0
  8 31  1  0  0  0  0
  8 32  1  0  0  0  0
  9 10  1  0  0  0  0
  9 33  1  0  0  0  0
 10 11  2  0  0  0  0
 10 12  1  0  0  0  0
 12 13  1  0  0  0  0
 12 34  1  0  0  0  0
 13 17  1  0  0  0  0
 13 14  2  0  0  0  0
 14 15  1  0  0  0  0
 15 16  2  0  0  0  0
 15 35  1  0  0  0  0
 16 17  1  0  0  0  0
 16 36  1  0  0  0  0
 18 37  1  0  0  0  0
 18 38  1  0  0  0  0
M  CHG  1   6   1
M  END
> <s_m_source_file>
AV-unprocessed.smi

> <i_m_source_file_index>
1278

> <i_lp_mmshare_version>
43012

> <i_f3d_flags>
0

> <s_epik_input>
W0NIM11bQ0BASF0xW0NIMl1bQ0gyXVtDSDJdTihbQ0gyXTEpW0NIMl1bQ0gyXVtOSF1DKD1PKVtOSF1jMm5bY0hdW2NIXXMy

> <s_epik_cmdline>
J2VwaWtfcHl0aG9uJywgJy1waCcsICc3LjAnLCAnLXRuJywgJzgnLCAnLW1hJywgJzIwMCcsICctbWV0YWxfYmluZGluZycsICctaW1hZScsICc8aW5maWxlLm1hZT4nLCAnLW9tYWUnLCAnPG91dGZpbGUubWFlPic=

> <r_lp_tautomer_probability>
0.999

> <r_epik_Ionization_Penalty>
0.00222194

> <r_epik_Ionization_Penalty_Charging>
0.00208169

> <r_epik_Ionization_Penalty_Neutral>
0.000140251

> <r_epik_State_Penalty>
0.00142585

> <r_epik_Charging_Adjusted_Penalty>
0.00350754

> <i_epik_Tot_Q>
1

> <i_epik_Tot_abs_Q>
1

> <r_epik_Metal_State_Penalty>
0.0570424

> <b_epik_Metal_Only>
0

> <s_lp_Force_Field>
OPLS_2005

> <r_lp_Energy>
13.7049

> <b_lp_Chiralities_Consistent>
1

> <s_lp_Variant>
AV-unprocessed.smi:1278-4

> <Gold.Version>
5.8.1

> <Gold.Id.Protein>
6NUR|6NUR_protein|mol2

> <Gold.PLP.Fitness>
42.6961

> <Gold.PLP.PLP>
-31.9528

> <Gold.PLP.part.hbond>
-2.8718

> <Gold.PLP.part.metal>
0.0000

> <Gold.PLP.part.buried>
-1.9408

> <Gold.PLP.part.nonpolar>
-28.0840

> <Gold.PLP.part.repulsive>
0.6430

> <Gold.PLP.ligand.clash>
0.0000

> <Gold.PLP.ligand.torsion>
0.3854

> <Gold.PLP.Chemscore.Hbond>
2.8294

> <Gold.PLP.Chemscore.CHOScore>
1.0000

> <Gold.PLP.Chemscore.Metal>
0.0000

> <Gold.Chemscore.Hbonds>
donor molecule, donor type, donor heavy atom, donor atom, acceptor molecule, acceptor atom, score
      L1  H     6    39       P1  7948  1.30
      L1  H    12    34       P1 10747  0.70

> <Gold.PLP.Chemscore.Internal.Correction>
0.0258

> <Gold.Rescore>
     Score         DG    S(hbond)    S(metal)    S(lipo)     H(rot)  DE(clash)    DE(int)     intcor
     12.90     -16.14       1.80        0.00      74.64       1.60       0.10       3.15       ----

> <Gold.Chemscore.Fitness>
12.8997

> <Gold.Chemscore.DG>
-16.1437

> <Gold.Chemscore.ZeroCoef>
-5.4800

> <Gold.Chemscore.Hbond>
1.8045

> <Gold.Chemscore.Metal>
0.0000

> <Gold.Chemscore.Lipo>
74.6397

> <Gold.Chemscore.Internal_Hbond>
0.0000

> <Gold.Chemscore.DEClash>
0.0956

> <Gold.Chemscore.DEInternal>
3.1484

> <Gold.Chemscore.Rot>
1.6001

> <Gold.Chemscore.Internal.Correction>
   9.000000E+99

> <Gold.Chemscore.Hbonds>
donor molecule, donor type, donor heavy atom, donor atom, acceptor molecule, acceptor atom, score
      L1  H     6    39       P1  7948  0.54
      L1  H    12    34       P1 10747  0.67

> <Gold.Chemscore.Hbond.Weighted>
-6.0271

> <Gold.Chemscore.Metal.Weighted>
-0.0000

> <Gold.Chemscore.Lipo.Weighted>
-8.7328

> <Gold.Chemscore.Internal_Hbond.Weighted>
0.0000

> <Gold.Chemscore.DEClash.Weighted>
0.0956

> <Gold.Chemscore.DEInternal.Weighted>
3.1484

> <Gold.Chemscore.Rot.Weighted>
4.0963

> <Gold.Chemscore.Internal.Correction.Weighted>
   9.000000E+99

> <Gold.Protein.RotatedTorsions>
[ 6907 6896 6895 6894 ] final -111.06 input  -60.11 | X-H torsion
[ 7974 7965 7964 7962 ] final  -40.55 input  175.53 | X-H torsion
[ 8008 7997 7996 7995 ] final  -61.41 input   59.86 | X-H torsion
[ 10167 10162 10161 10158 ] final   85.66 input  -65.29 | X-H torsion
[ 10718 10713 10712 10709 ] final  173.18 input   66.30 | X-H torsion
[ 10763 10752 10751 10750 ] final  -88.65 input  -60.55 | X-H torsion
[ 11005 11000 10999 10996 ] final -123.32 input  -57.11 | X-H torsion

> <Gold.Protein.ActiveResidues>
 VAL166  LYS551  ARG553  GLY616  TRP617  ASP618  TYR619  PRO620  LYS621  CYS622 
 ASP623  PHE694  ASN695  SER759  ASP760  ASP761  ALA762  ILE779  LEU786  VAL792 
 PHE793  MET794  SER795  GLU796  ALA797  LYS798  CYS799  TRP800  GLU811  SER814 

> <Gold.Protein.RotatedAtoms>
  150.7665  133.9291  159.3421 H   0  0  0  0  0  0  0  0  0  0  0  0  # atno 6907 bound_to 6896
  151.7187  135.0896  160.0290 H   0  0  0  0  0  0  0  0  0  0  0  0  # atno 6908 bound_to 6896
  152.3663  133.6324  159.6089 H   0  0  0  0  0  0  0  0  0  0  0  0  # atno 6909 bound_to 6896
  146.0294  140.6751  142.9140 H   0  0  0  0  0  0  0  0  0  0  0  0  # atno 7974 bound_to 7965
  154.4446  140.1018  156.6426 H   0  0  0  0  0  0  0  0  0  0  0  0  # atno 8008 bound_to 7997
  155.5485  140.3485  155.4444 H   0  0  0  0  0  0  0  0  0  0  0  0  # atno 8009 bound_to 7997
  156.0546  140.1312  157.0000 H   0  0  0  0  0  0  0  0  0  0  0  0  # atno 8010 bound_to 7997
  139.8955  144.6360  150.8693 H   0  0  0  0  0  0  0  0  0  0  0  0  # atno 10167 bound_to 10162
  156.9680  131.0081  151.2912 H   0  0  0  0  0  0  0  0  0  0  0  0  # atno 10718 bound_to 10713
  154.6469  135.5369  153.7855 H   0  0  0  0  0  0  0  0  0  0  0  0  # atno 10763 bound_to 10752
  153.0364  135.6473  154.1076 H   0  0  0  0  0  0  0  0  0  0  0  0  # atno 10764 bound_to 10752
  154.0996  135.2934  155.3234 H   0  0  0  0  0  0  0  0  0  0  0  0  # atno 10765 bound_to 10752
  140.9928  134.0515  157.3634 H   0  0  0  0  0  0  0  0  0  0  0  0  # atno 11005 bound_to 11000
  144.7023  140.3708  143.7145 LP  0  0  0  0  0  0  0  0  0  0  0  0  # atno 17320 bound_to 7965
  145.7066  139.1674  143.2563 LP  0  0  0  0  0  0  0  0  0  0  0  0  # atno 17321 bound_to 7965
  140.7718  143.3477  151.2077 LP  0  0  0  0  0  0  0  0  0  0  0  0  # atno 17342 bound_to 10162
  139.7072  143.9436  152.2932 LP  0  0  0  0  0  0  0  0  0  0  0  0  # atno 17343 bound_to 10162
  157.5612  130.8247  149.8268 LP  0  0  0  0  0  0  0  0  0  0  0  0  # atno 17370 bound_to 10713
  156.0294  130.3769  150.1729 LP  0  0  0  0  0  0  0  0  0  0  0  0  # atno 17371 bound_to 10713
  139.9000  135.0161  156.7222 LP  0  0  0  0  0  0  0  0  0  0  0  0  # atno 17394 bound_to 11000
  140.7013  133.9303  155.8026 LP  0  0  0  0  0  0  0  0  0  0  0  0  # atno 17395 bound_to 11000

$$$$
