#       Name:                AV-unprocessed.smi:2789
#       Creating user name   scv26
#       Creation time:       Fri Mar 27 15:19:54 2020


#       File generated by GOLD software.
#

@<TRIPOS>MOLECULE
AV-unprocessed.smi:2789
    40    41     1
SMALL
NO_CHARGES


@<TRIPOS>ATOM
      1 ****        -1.2904  -1.4333   2.1736 C.3            1 S1                 0.0000
      2 ****        -1.7645  -1.6044   0.8479 O.3            1 S1                 0.0000
      3 ****        -2.6146  -0.5509   0.4020 C.3            1 S1                 0.0000
      4 ****        -3.8134  -1.2137  -0.2806 C.3            1 S1                 0.0000
      5 ****        -3.3406  -1.4738  -1.7072 C.3            1 S1                 0.0000
      6 ****        -2.4871  -0.2526  -2.0511 C.3            1 S1                 0.0000
      7 ****        -1.9421   0.2866  -0.7139 C.3            1 S1                 0.0000
      8 ****        -0.4827   0.2119  -0.6830 N.am           1 S1                 0.0000
      9 ****         0.3201   1.0501  -0.0129 C.2            1 S1                 0.0000
     10 ****        -0.0932   2.0022   0.6493 O.2            1 S1                 0.0000
     11 ****         1.6096   0.6976  -0.1530 N.am           1 S1                 0.0000
     12 ****         2.7161   1.2943   0.3649 C.2            1 S1                 0.0000
     13 ****         2.8071   2.4589   1.0778 C.2            1 S1                 0.0000
     14 ****         4.2052   2.5582   1.3297 C.2            1 S1                 0.0000
     15 ****         4.8988   1.5500   0.8168 N.2            1 S1                 0.0000
     16 ****         3.9805   0.7639   0.2143 N.pl3          1 S1                 0.0000
     17 ****         4.4128  -0.4477  -0.4556 C.3            1 S1                 0.0000
     18 ****        -0.6178  -2.2514   2.4307 H              1 S1                 0.0000
     19 ****        -2.1154  -1.4393   2.8870 H              1 S1                 0.0000
     20 ****        -0.7414  -0.4980   2.2837 H              1 S1                 0.0000
     21 ****        -2.9471   0.0775   1.2309 H              1 S1                 0.0000
     22 ****        -4.1448  -2.1202   0.2271 H              1 S1                 0.0000
     23 ****        -4.6547  -0.5196  -0.2991 H              1 S1                 0.0000
     24 ****        -2.7232  -2.3725  -1.7298 H              1 S1                 0.0000
     25 ****        -4.1663  -1.6189  -2.4044 H              1 S1                 0.0000
     26 ****        -1.7033  -0.5026  -2.7673 H              1 S1                 0.0000
     27 ****        -3.1137   0.5082  -2.5183 H              1 S1                 0.0000
     28 ****        -2.2621   1.3265  -0.6221 H              1 S1                 0.0000
     29 ****        -0.0589  -0.5489  -1.1930 H              1 S1                 0.0000
     30 ****         1.7859  -0.1275  -0.7069 H              1 S1                 0.0000
     31 ****         2.0233   3.1383   1.3769 H              1 S1                 0.0000
     32 ****         4.7361   3.3303   1.8671 H              1 S1                 0.0000
     33 ****         3.5950  -0.8841  -1.0289 H              1 S1                 0.0000
     34 ****         4.7521  -1.1731   0.2842 H              1 S1                 0.0000
     35 ****         5.2342  -0.2212  -1.1360 H              1 S1                 0.0000
     36 ****        -2.2760  -2.4626   0.8040 LP             1 S1                 0.0000
     37 ****        -0.9760  -1.6546   0.2348 LP             1 S1                 0.0000
     38 ****        -1.0751   2.1823   0.7071 LP             1 S1                 0.0000
     39 ****         0.5531   2.5954   1.1293 LP             1 S1                 0.0000
     40 ****         5.8869   1.4039   0.8657 LP             1 S1                 0.0000
@<TRIPOS>BOND
    1    1    2 1     
    2    1   18 1     
    3    1   19 1     
    4    1   20 1     
    5    2    3 1     
    6    3    7 1     
    7    3    4 1     
    8    3   21 1     
    9    4    5 1     
   10    4   22 1     
   11    4   23 1     
   12    5    6 1     
   13    5   24 1     
   14    5   25 1     
   15    6    7 1     
   16    6   26 1     
   17    6   27 1     
   18    7    8 1     
   19    7   28 1     
   20    8    9 am    
   21    8   29 1     
   22    9   10 2     
   23    9   11 am    
   24   11   12 1     
   25   11   30 1     
   26   12   16 1     
   27   12   13 2     
   28   13   14 1     
   29   13   31 1     
   30   14   15 2     
   31   14   32 1     
   32   15   16 1     
   33   16   17 1     
   34   17   33 1     
   35   17   34 1     
   36   17   35 1     
   37    2   36 1     
   38    2   37 1     
   39   10   38 1     
   40   10   39 1     
   41   15   40 1     
@<TRIPOS>SUBSTRUCTURE
      1 S1             1
@<TRIPOS>SET
LONE_PAIRS      STATIC     ATOMS    <user>   **** ""
5 36 37 38 39 40
DONOR_HYDROGENS      STATIC     ATOMS    <user>   **** ""
2 29 30
ATOM$BLUE        STATIC     ATOMS    COLORGROUP SYSTEM
5 36 37 38 39 40
ATOM$RED        STATIC     ATOMS    COLORGROUP SYSTEM
2 29 30
