AV-unprocessed.smi:287|AV-procd|sdf|2191|dock6
  -GOLD-   2262021583D 1   1.00000     0.00000
 Structure written by MMmdl.
 55 58  0  0  0  0  0  0  0  0  1 V2000
  145.1194  132.4045  162.4810 C   0  0  0  0  0  0  0  0  0  0  0  0
  145.7220  133.6810  162.0031 C   0  0  0  0  0  0  0  0  0  0  0  0
  146.4203  134.0359  160.8858 C   0  0  0  0  0  0  0  0  0  0  0  0
  146.7397  135.4219  161.0047 C   0  0  0  0  0  0  0  0  0  0  0  0
  147.5042  136.2620  159.9905 C   0  0  1  0  0  0  0  0  0  0  0  0
  146.5502  137.2712  159.3314 C   0  0  0  0  0  0  0  0  0  0  0  0
  148.5254  137.0400  160.5848 O   0  0  0  0  0  0  0  0  0  0  0  0
  148.2016  135.4063  158.9082 C   0  0  0  0  0  0  0  0  0  0  0  0
  147.2615  134.7934  157.9752 N   0  0  0  0  0  0  0  0  0  0  0  0
  147.0387  135.3559  156.7693 C   0  0  0  0  0  0  0  0  0  0  0  0
  147.1430  136.6990  156.5930 N   0  0  0  0  0  0  0  0  0  0  0  0
  146.9200  137.2325  155.3883 C   0  0  0  0  0  0  0  0  0  0  0  0
  146.5886  136.6163  154.2520 N   0  0  0  0  0  0  0  0  0  0  0  0
  146.4819  135.2663  154.4241 C   0  0  0  0  0  0  0  0  0  0  0  0
  146.6907  134.5652  155.6442 C   0  0  0  0  0  0  0  0  0  0  0  0
  146.5004  133.2040  155.4446 N   0  0  0  0  0  0  0  0  0  0  0  0
  146.2004  133.1100  154.1771 C   0  0  0  0  0  0  0  0  0  0  0  0
  146.1698  134.3011  153.4868 N   0  0  0  0  0  0  0  0  0  0  0  0
  145.8686  134.5031  152.0351 C   0  0  1  0  0  0  0  0  0  0  0  0
  145.6047  133.2745  151.4419 O   0  0  0  0  0  0  0  0  0  0  0  0
  144.7451  133.4688  150.3236 C   0  0  1  0  0  0  0  0  0  0  0  0
  143.7187  132.3218  150.2694 C   0  0  0  0  0  0  0  0  0  0  0  0
  143.0928  132.2290  149.0063 O   0  0  0  0  0  0  0  0  0  0  0  0
  144.1611  134.8941  150.4323 C   0  0  2  0  0  0  0  0  0  0  0  0
  144.7030  135.7021  149.4043 O   0  0  0  0  0  0  0  0  0  0  0  0
  144.6424  135.3933  151.7898 C   0  0  1  0  0  0  0  0  0  0  0  0
  143.6341  135.2496  152.7732 O   0  0  0  0  0  0  0  0  0  0  0  0
  146.1842  135.8070  162.2010 C   0  0  0  0  0  0  0  0  0  0  0  0
  146.1119  137.1028  162.9387 C   0  0  0  0  0  0  0  0  0  0  0  0
  145.5711  134.7569  162.8151 O   0  0  0  0  0  0  0  0  0  0  0  0
  146.7818  134.9203  151.6080 H   0  0  0  0  0  0  0  0  0  0  0  0
  145.3766  133.3908  149.4370 H   0  0  0  0  0  0  0  0  0  0  0  0
  143.0743  134.9218  150.3409 H   0  0  0  0  0  0  0  0  0  0  0  0
  144.9481  136.4404  151.7759 H   0  0  0  0  0  0  0  0  0  0  0  0
  145.3215  131.5926  161.7821 H   0  0  0  0  0  0  0  0  0  0  0  0
  144.0384  132.5015  162.5830 H   0  0  0  0  0  0  0  0  0  0  0  0
  145.5283  132.1237  163.4519 H   0  0  0  0  0  0  0  0  0  0  0  0
  146.6789  133.3732  160.0733 H   0  0  0  0  0  0  0  0  0  0  0  0
  145.7377  136.7633  158.8106 H   0  0  0  0  0  0  0  0  0  0  0  0
  147.0682  137.8942  158.6011 H   0  0  0  0  0  0  0  0  0  0  0  0
  146.1003  137.9338  160.0721 H   0  0  0  0  0  0  0  0  0  0  0  0
  149.3603  136.6557  160.3653 H   0  0  0  0  0  0  0  0  0  0  0  0
  148.8620  136.0497  158.3250 H   0  0  0  0  0  0  0  0  0  0  0  0
  148.8336  134.6432  159.3653 H   0  0  0  0  0  0  0  0  0  0  0  0
  146.8129  133.9444  158.2890 H   0  0  0  0  0  0  0  0  0  0  0  0
  147.0233  138.3055  155.3249 H   0  0  0  0  0  0  0  0  0  0  0  0
  145.9960  132.1597  153.7056 H   0  0  0  0  0  0  0  0  0  0  0  0
  144.2187  131.3725  150.4626 H   0  0  0  0  0  0  0  0  0  0  0  0
  142.9614  132.4471  151.0437 H   0  0  0  0  0  0  0  0  0  0  0  0
  142.4000  131.5887  149.0591 H   0  0  0  0  0  0  0  0  0  0  0  0
  145.1436  135.1434  148.7826 H   0  0  0  0  0  0  0  0  0  0  0  0
  142.8509  134.9273  152.3540 H   0  0  0  0  0  0  0  0  0  0  0  0
  145.7351  137.8947  162.2913 H   0  0  0  0  0  0  0  0  0  0  0  0
  147.0984  137.3976  163.2966 H   0  0  0  0  0  0  0  0  0  0  0  0
  145.4484  137.0307  163.8010 H   0  0  0  0  0  0  0  0  0  0  0  0
  1  2  1  0  0  0  0
  1 35  1  0  0  0  0
  1 36  1  0  0  0  0
  1 37  1  0  0  0  0
  2 30  1  0  0  0  0
  2  3  2  0  0  0  0
  3  4  1  0  0  0  0
  3 38  1  0  0  0  0
  4  5  1  0  0  0  0
  4 28  2  0  0  0  0
  5  6  1  0  0  0  0
  5  7  1  0  0  0  0
  5  8  1  0  0  0  0
  6 39  1  0  0  0  0
  6 40  1  0  0  0  0
  6 41  1  0  0  0  0
  7 42  1  0  0  0  0
  8  9  1  0  0  0  0
  8 43  1  0  0  0  0
  8 44  1  0  0  0  0
  9 10  1  0  0  0  0
  9 45  1  0  0  0  0
 10 15  1  0  0  0  0
 10 11  2  0  0  0  0
 11 12  1  0  0  0  0
 12 13  2  0  0  0  0
 12 46  1  0  0  0  0
 13 14  1  0  0  0  0
 14 18  1  0  0  0  0
 14 15  2  0  0  0  0
 15 16  1  0  0  0  0
 16 17  2  0  0  0  0
 17 18  1  0  0  0  0
 17 47  1  0  0  0  0
 18 19  1  0  0  0  0
 19 31  1  0  0  0  0
 19 26  1  0  0  0  0
 19 20  1  0  0  0  0
 20 21  1  0  0  0  0
 21 32  1  0  0  0  0
 21 22  1  0  0  0  0
 21 24  1  0  0  0  0
 22 23  1  0  0  0  0
 22 48  1  0  0  0  0
 22 49  1  0  0  0  0
 23 50  1  0  0  0  0
 24 33  1  0  0  0  0
 24 25  1  0  0  0  0
 24 26  1  0  0  0  0
 25 51  1  0  0  0  0
 26 34  1  0  0  0  0
 26 27  1  0  0  0  0
 27 52  1  0  0  0  0
 28 29  1  0  0  0  0
 28 30  1  0  0  0  0
 29 53  1  0  0  0  0
 29 54  1  0  0  0  0
 29 55  1  0  0  0  0
M  END
> <s_m_source_file>
AV-unprocessed.smi

> <i_m_source_file_index>
287

> <i_lp_mmshare_version>
43012

> <i_f3d_flags>
0

> <s_epik_input>
W0NIM11jMVtjSF1jKGMobzEpW0NIM10pW0NAQF0oW0NIM10pKFtPSF0pW0NIMl1bTkhdYyhuW2NIXW4yKWMoYzIzKW5bY0hdbjNbQ0BASF00T1tDQEhdKFtDSDJdW09IXSlbQ0BASF0oW09IXSlbQ0BIXTRbT0hd

> <s_epik_cmdline>
J2VwaWtfcHl0aG9uJywgJy1waCcsICc3LjAnLCAnLXRuJywgJzgnLCAnLW1hJywgJzIwMCcsICctbWV0YWxfYmluZGluZycsICctaW1hZScsICc8aW5maWxlLm1hZT4nLCAnLW9tYWUnLCAnPG91dGZpbGUubWFlPic=

> <r_lp_tautomer_probability>
1

> <r_epik_Ionization_Penalty>
0.000992612

> <r_epik_Ionization_Penalty_Charging>
0

> <r_epik_Ionization_Penalty_Neutral>
0.000992612

> <r_epik_State_Penalty>
-0

> <r_epik_Charging_Adjusted_Penalty>
0

> <i_epik_Tot_Q>
0

> <i_epik_Tot_abs_Q>
0

> <r_epik_Metal_State_Penalty>
-0

> <b_epik_Metal_Only>
0

> <s_epik_Chemistry_Notes>
This compound contains an acetal/aminal-like group ( X-CH(R)-Y where X, Y are N, S, or O) that may be acid/base labile, releasing an aldehyde.

> <s_lp_Force_Field>
OPLS_2005

> <r_lp_Energy>
44.0492

> <b_lp_Chiralities_Consistent>
1

> <s_lp_Variant>
AV-unprocessed.smi:287-15

> <Gold.Version>
5.8.1

> <Gold.Id.Protein>
6NUR|6NUR_protein|mol2

> <Gold.PLP.Fitness>
45.4307

> <Gold.PLP.PLP>
-39.4870

> <Gold.PLP.part.hbond>
-5.4087

> <Gold.PLP.part.metal>
0.0000

> <Gold.PLP.part.buried>
-7.8422

> <Gold.PLP.part.nonpolar>
-28.0220

> <Gold.PLP.part.repulsive>
0.7680

> <Gold.PLP.ligand.clash>
0.0000

> <Gold.PLP.ligand.torsion>
0.8843

> <Gold.PLP.Chemscore.Hbond>
2.5440

> <Gold.PLP.Chemscore.CHOScore>
0.0000

> <Gold.PLP.Chemscore.Metal>
0.0000

> <Gold.Chemscore.Hbonds>
donor molecule, donor type, donor heavy atom, donor atom, acceptor molecule, acceptor atom, score
      L1  H    23    50       P1 10952  0.91
      L1  H    25    51       P1  7921  1.00
      P1  H  6931  6943       L1     7  0.82
      P1  H  6934  6947       L1     7  0.03

> <Gold.PLP.Chemscore.Internal.Correction>
0.0802

> <Gold.Rescore>
     Score         DG    S(hbond)    S(metal)    S(lipo)     H(rot)  DE(clash)    DE(int)     intcor
      8.16     -10.55       2.75        0.00      79.98       5.27       0.16       2.23       ----

> <Gold.Chemscore.Fitness>
8.1595

> <Gold.Chemscore.DG>
-10.5501

> <Gold.Chemscore.ZeroCoef>
-5.4800

> <Gold.Chemscore.Hbond>
2.7535

> <Gold.Chemscore.Metal>
0.0000

> <Gold.Chemscore.Lipo>
79.9777

> <Gold.Chemscore.Internal_Hbond>
0.0000

> <Gold.Chemscore.DEClash>
0.1578

> <Gold.Chemscore.DEInternal>
2.2327

> <Gold.Chemscore.Rot>
5.2672

> <Gold.Chemscore.Internal.Correction>
   9.000000E+99

> <Gold.Chemscore.Hbonds>
donor molecule, donor type, donor heavy atom, donor atom, acceptor molecule, acceptor atom, score
      L1  H    23    50       P1 10952  0.87
      L1  H    25    51       P1  7921  0.93
      P1  H  6931  6943       L1     7  0.21
      P1  H  6934  6947       L1     7  0.01

> <Gold.Chemscore.Hbond.Weighted>
-9.1966

> <Gold.Chemscore.Metal.Weighted>
-0.0000

> <Gold.Chemscore.Lipo.Weighted>
-9.3574

> <Gold.Chemscore.Internal_Hbond.Weighted>
0.0000

> <Gold.Chemscore.DEClash.Weighted>
0.1578

> <Gold.Chemscore.DEInternal.Weighted>
2.2327

> <Gold.Chemscore.Rot.Weighted>
13.4839

> <Gold.Chemscore.Internal.Correction.Weighted>
   9.000000E+99

> <Gold.Protein.RotatedTorsions>
[ 6907 6896 6895 6894 ] final   17.58 input  -60.11 | X-H torsion
[ 7974 7965 7964 7962 ] final  104.22 input  175.53 | X-H torsion
[ 8008 7997 7996 7995 ] final -166.62 input   59.86 | X-H torsion
[ 10167 10162 10161 10158 ] final  105.17 input  -65.29 | X-H torsion
[ 10718 10713 10712 10709 ] final -108.94 input   66.30 | X-H torsion
[ 10763 10752 10751 10750 ] final  -48.84 input  -60.55 | X-H torsion
[ 11005 11000 10999 10996 ] final  162.75 input  -57.11 | X-H torsion

> <Gold.Protein.ActiveResidues>
 VAL166  LYS551  ARG553  GLY616  TRP617  ASP618  TYR619  PRO620  LYS621  CYS622 
 ASP623  PHE694  ASN695  SER759  ASP760  ASP761  ALA762  ILE779  LEU786  VAL792 
 PHE793  MET794  SER795  GLU796  ALA797  LYS798  CYS799  TRP800  GLU811  SER814 

> <Gold.Protein.RotatedAtoms>
  151.8519  135.0555  160.0459 H   0  0  0  0  0  0  0  0  0  0  0  0  # atno 6907 bound_to 6896
  152.2730  133.5395  159.5459 H   0  0  0  0  0  0  0  0  0  0  0  0  # atno 6908 bound_to 6896
  150.7159  134.0587  159.3866 H   0  0  0  0  0  0  0  0  0  0  0  0  # atno 6909 bound_to 6896
  145.3357  139.2475  143.3637 H   0  0  0  0  0  0  0  0  0  0  0  0  # atno 7974 bound_to 7965
  155.8664  140.0986  157.1580 H   0  0  0  0  0  0  0  0  0  0  0  0  # atno 8008 bound_to 7997
  154.3994  140.1355  156.4086 H   0  0  0  0  0  0  0  0  0  0  0  0  # atno 8009 bound_to 7997
  155.7800  140.3458  155.5295 H   0  0  0  0  0  0  0  0  0  0  0  0  # atno 8010 bound_to 7997
  139.7115  144.7076  151.1019 H   0  0  0  0  0  0  0  0  0  0  0  0  # atno 10167 bound_to 10162
  156.0511  130.5739  150.8031 H   0  0  0  0  0  0  0  0  0  0  0  0  # atno 10718 bound_to 10713
  154.0843  135.6586  153.4842 H   0  0  0  0  0  0  0  0  0  0  0  0  # atno 10763 bound_to 10752
  153.0344  135.5187  154.7443 H   0  0  0  0  0  0  0  0  0  0  0  0  # atno 10764 bound_to 10752
  154.6548  135.3006  154.9910 H   0  0  0  0  0  0  0  0  0  0  0  0  # atno 10765 bound_to 10752
  140.2289  134.8139  157.3297 H   0  0  0  0  0  0  0  0  0  0  0  0  # atno 11005 bound_to 11000
  146.3028  140.3944  142.8698 LP  0  0  0  0  0  0  0  0  0  0  0  0  # atno 17320 bound_to 7965
  144.8829  140.7425  143.5975 LP  0  0  0  0  0  0  0  0  0  0  0  0  # atno 17321 bound_to 7965
  140.7734  143.5286  150.9450 LP  0  0  0  0  0  0  0  0  0  0  0  0  # atno 17342 bound_to 10162
  139.8971  143.6881  152.3137 LP  0  0  0  0  0  0  0  0  0  0  0  0  # atno 17343 bound_to 10162
  157.5438  131.0941  150.9790 LP  0  0  0  0  0  0  0  0  0  0  0  0  # atno 17370 bound_to 10713
  157.0066  130.5620  149.5316 LP  0  0  0  0  0  0  0  0  0  0  0  0  # atno 17371 bound_to 10713
  140.1771  134.4536  155.7795 LP  0  0  0  0  0  0  0  0  0  0  0  0  # atno 17394 bound_to 11000
  141.2219  133.6967  156.7806 LP  0  0  0  0  0  0  0  0  0  0  0  0  # atno 17395 bound_to 11000

$$$$
