AV-unprocessed.smi:2358|AV-procd|sdf|9403|dock2
  -GOLD-   2272013 33D 1   1.00000     0.00000
 Structure written by MMmdl.
 45 47  0  0  0  0  0  0  0  0  1 V2000
  152.2382  145.2351  158.8576 C   0  0  0  0  0  0  0  0  0  0  0  0
  152.2650  143.7248  158.7432 C   0  0  0  0  0  0  0  0  0  0  0  0
  153.0826  142.9602  159.5993 C   0  0  0  0  0  0  0  0  0  0  0  0
  153.1012  141.5563  159.4897 C   0  0  0  0  0  0  0  0  0  0  0  0
  153.9827  140.7407  160.4129 C   0  0  0  0  0  0  0  0  0  0  0  0
  152.2996  140.9197  158.5200 C   0  0  0  0  0  0  0  0  0  0  0  0
  151.4772  141.6697  157.6545 C   0  0  0  0  0  0  0  0  0  0  0  0
  150.7290  140.9639  156.7364 O   0  0  0  0  0  0  0  0  0  0  0  0
  150.0740  141.6867  155.7022 C   0  0  0  0  0  0  0  0  0  0  0  0
  149.5036  140.6901  154.6793 C   0  0  2  0  0  0  0  0  0  0  0  0
  149.1828  141.4220  153.5119 O   0  0  0  0  0  0  0  0  0  0  0  0
  148.2072  140.0234  155.1915 C   0  0  0  0  0  0  0  0  0  0  0  0
  147.3452  140.9699  155.9096 N   0  0  0  0  0  0  0  0  0  0  0  0
  146.7151  141.8882  155.0896 N   0  0  0  0  0  0  0  0  0  0  0  0
  145.9135  142.7777  155.5769 C   0  0  0  0  0  0  0  0  0  0  0  0
  145.2522  143.7276  154.7004 N   0  0  0  0  0  0  0  0  0  0  0  0
  144.2115  144.5515  155.1315 C   0  0  0  0  0  0  0  0  0  0  0  0
  143.8426  145.2977  154.0338 C   0  0  0  0  0  0  0  0  0  0  0  0
  144.6275  144.9534  152.9348 N   0  0  0  0  0  0  0  0  0  0  0  0
  145.4389  144.0153  153.4046 C   0  0  0  0  0  0  0  0  0  0  0  0
  145.6779  142.8266  157.0159 C   0  0  0  0  0  0  0  0  0  0  0  0
  146.2995  141.9258  157.8073 C   0  0  0  0  0  0  0  0  0  0  0  0
  147.1975  140.9078  157.2655 C   0  0  0  0  0  0  0  0  0  0  0  0
  147.7672  140.0701  157.9642 O   0  0  0  0  0  0  0  0  0  0  0  0
  151.4653  143.0822  157.7761 C   0  0  0  0  0  0  0  0  0  0  0  0
  153.0148  145.5971  159.5321 H   0  0  0  0  0  0  0  0  0  0  0  0
  151.2722  145.5667  159.2390 H   0  0  0  0  0  0  0  0  0  0  0  0
  152.3975  145.6926  157.8806 H   0  0  0  0  0  0  0  0  0  0  0  0
  153.6963  143.4488  160.3424 H   0  0  0  0  0  0  0  0  0  0  0  0
  153.8434  139.6706  160.2561 H   0  0  0  0  0  0  0  0  0  0  0  0
  153.7489  140.9646  161.4540 H   0  0  0  0  0  0  0  0  0  0  0  0
  155.0326  140.9769  160.2380 H   0  0  0  0  0  0  0  0  0  0  0  0
  152.3131  139.8429  158.4339 H   0  0  0  0  0  0  0  0  0  0  0  0
  149.2554  142.2516  156.1508 H   0  0  0  0  0  0  0  0  0  0  0  0
  150.7461  142.3990  155.2194 H   0  0  0  0  0  0  0  0  0  0  0  0
  150.2565  139.9349  154.4501 H   0  0  0  0  0  0  0  0  0  0  0  0
  149.4297  140.9093  152.7576 H   0  0  0  0  0  0  0  0  0  0  0  0
  147.6430  139.6130  154.3523 H   0  0  0  0  0  0  0  0  0  0  0  0
  148.4428  139.1592  155.8160 H   0  0  0  0  0  0  0  0  0  0  0  0
  143.8023  144.5688  156.1285 H   0  0  0  0  0  0  0  0  0  0  0  0
  143.0731  146.0511  153.9506 H   0  0  0  0  0  0  0  0  0  0  0  0
  146.1841  143.5291  152.7918 H   0  0  0  0  0  0  0  0  0  0  0  0
  145.0324  143.5569  157.4737 H   0  0  0  0  0  0  0  0  0  0  0  0
  146.1310  141.9581  158.8738 H   0  0  0  0  0  0  0  0  0  0  0  0
  150.8478  143.6957  157.1375 H   0  0  0  0  0  0  0  0  0  0  0  0
  1  2  1  0  0  0  0
  1 26  1  0  0  0  0
  1 27  1  0  0  0  0
  1 28  1  0  0  0  0
  2 25  1  0  0  0  0
  2  3  2  0  0  0  0
  3  4  1  0  0  0  0
  3 29  1  0  0  0  0
  4  5  1  0  0  0  0
  4  6  2  0  0  0  0
  5 30  1  0  0  0  0
  5 31  1  0  0  0  0
  5 32  1  0  0  0  0
  6  7  1  0  0  0  0
  6 33  1  0  0  0  0
  7  8  1  0  0  0  0
  7 25  2  0  0  0  0
  8  9  1  0  0  0  0
  9 10  1  0  0  0  0
  9 34  1  0  0  0  0
  9 35  1  0  0  0  0
 10 11  1  0  0  0  0
 10 12  1  0  0  0  0
 10 36  1  0  0  0  0
 11 37  1  0  0  0  0
 12 13  1  0  0  0  0
 12 38  1  0  0  0  0
 12 39  1  0  0  0  0
 13 23  1  0  0  0  0
 13 14  1  0  0  0  0
 14 15  2  0  0  0  0
 15 16  1  0  0  0  0
 15 21  1  0  0  0  0
 16 20  1  0  0  0  0
 16 17  1  0  0  0  0
 17 18  2  0  0  0  0
 17 40  1  0  0  0  0
 18 19  1  0  0  0  0
 18 41  1  0  0  0  0
 19 20  2  0  0  0  0
 20 42  1  0  0  0  0
 21 22  2  0  0  0  0
 21 43  1  0  0  0  0
 22 23  1  0  0  0  0
 22 44  1  0  0  0  0
 23 24  2  0  0  0  0
 25 45  1  0  0  0  0
M  END
> <s_m_source_file>
AV-unprocessed.smi

> <i_m_source_file_index>
2358

> <i_lp_mmshare_version>
43012

> <i_f3d_flags>
0

> <s_epik_input>
W0NIM11jMVtjSF1jKFtDSDNdKVtjSF1jKFtjSF0xKU9bQ0gyXVtDQEhdKFtPSF0pW0NIMl1uMm5jKFtjSF1bY0hdYzI9TyktbjNbY0hdW2NIXW5bY0hdMw==

> <s_epik_cmdline>
J2VwaWtfcHl0aG9uJywgJy1waCcsICc3LjAnLCAnLXRuJywgJzgnLCAnLW1hJywgJzIwMCcsICctbWV0YWxfYmluZGluZycsICctaW1hZScsICc8aW5maWxlLm1hZT4nLCAnLW9tYWUnLCAnPG91dGZpbGUubWFlPic=

> <r_lp_tautomer_probability>
1

> <r_epik_Ionization_Penalty>
0.03707

> <r_epik_Ionization_Penalty_Charging>
0.0370699

> <r_epik_Ionization_Penalty_Neutral>
1.17174e-07

> <r_epik_State_Penalty>
0.0310055

> <r_epik_Charging_Adjusted_Penalty>
0.0680754

> <i_epik_Tot_Q>
0

> <i_epik_Tot_abs_Q>
0

> <r_epik_Metal_State_Penalty>
0.0291724

> <b_epik_Metal_Only>
0

> <s_lp_Force_Field>
OPLS_2005

> <r_lp_Energy>
37.1438

> <b_lp_Chiralities_Consistent>
1

> <s_lp_Variant>
AV-unprocessed.smi:2358-1

> <Gold.Version>
5.8.1

> <Gold.Id.Protein>
6NUR|6NUR_protein|mol2

> <Gold.PLP.Fitness>
56.3512

> <Gold.PLP.PLP>
-54.5585

> <Gold.PLP.part.hbond>
-4.5920

> <Gold.PLP.part.metal>
0.0000

> <Gold.PLP.part.buried>
-7.8479

> <Gold.PLP.part.nonpolar>
-41.2472

> <Gold.PLP.part.repulsive>
0.3372

> <Gold.PLP.ligand.clash>
0.0000

> <Gold.PLP.ligand.torsion>
0.6294

> <Gold.PLP.Chemscore.Hbond>
1.0000

> <Gold.PLP.Chemscore.CHOScore>
0.0000

> <Gold.PLP.Chemscore.Metal>
0.0000

> <Gold.Chemscore.Hbonds>
donor molecule, donor type, donor heavy atom, donor atom, acceptor molecule, acceptor atom, score
      L1  H    11    37       P1  7957  1.00

> <Gold.PLP.Chemscore.Internal.Correction>
0.0515

> <Gold.Rescore>
     Score         DG    S(hbond)    S(metal)    S(lipo)     H(rot)  DE(clash)    DE(int)     intcor
     14.29     -16.29       1.00        0.00     120.79       2.60       0.17       1.82       ----

> <Gold.Chemscore.Fitness>
14.2900

> <Gold.Chemscore.DG>
-16.2865

> <Gold.Chemscore.ZeroCoef>
-5.4800

> <Gold.Chemscore.Hbond>
0.9961

> <Gold.Chemscore.Metal>
0.0000

> <Gold.Chemscore.Lipo>
120.7871

> <Gold.Chemscore.Internal_Hbond>
0.0000

> <Gold.Chemscore.DEClash>
0.1723

> <Gold.Chemscore.DEInternal>
1.8243

> <Gold.Chemscore.Rot>
2.5986

> <Gold.Chemscore.Internal.Correction>
   9.000000E+99

> <Gold.Chemscore.Hbonds>
donor molecule, donor type, donor heavy atom, donor atom, acceptor molecule, acceptor atom, score
      L1  H    11    37       P1  7957  1.00

> <Gold.Chemscore.Hbond.Weighted>
-3.3268

> <Gold.Chemscore.Metal.Weighted>
-0.0000

> <Gold.Chemscore.Lipo.Weighted>
-14.1321

> <Gold.Chemscore.Internal_Hbond.Weighted>
0.0000

> <Gold.Chemscore.DEClash.Weighted>
0.1723

> <Gold.Chemscore.DEInternal.Weighted>
1.8243

> <Gold.Chemscore.Rot.Weighted>
6.6524

> <Gold.Chemscore.Internal.Correction.Weighted>
   9.000000E+99

> <Gold.Protein.RotatedTorsions>
[ 6907 6896 6895 6894 ] final   19.63 input  -60.11 | X-H torsion
[ 7974 7965 7964 7962 ] final   69.06 input  175.53 | X-H torsion
[ 8008 7997 7996 7995 ] final  -92.26 input   59.86 | X-H torsion
[ 10167 10162 10161 10158 ] final -137.74 input  -65.29 | X-H torsion
[ 10718 10713 10712 10709 ] final  -87.13 input   66.30 | X-H torsion
[ 10763 10752 10751 10750 ] final -163.92 input  -60.55 | X-H torsion
[ 11005 11000 10999 10996 ] final  118.08 input  -57.11 | X-H torsion

> <Gold.Protein.ActiveResidues>
 VAL166  LYS551  ARG553  GLY616  TRP617  ASP618  TYR619  PRO620  LYS621  CYS622 
 ASP623  PHE694  ASN695  SER759  ASP760  ASP761  ALA762  ILE779  LEU786  VAL792 
 PHE793  MET794  SER795  GLU796  ALA797  LYS798  CYS799  TRP800  GLU811  SER814 

> <Gold.Protein.RotatedAtoms>
  151.8839  135.0443  160.0491 H   0  0  0  0  0  0  0  0  0  0  0  0  # atno 6907 bound_to 6896
  152.2490  133.5195  159.5323 H   0  0  0  0  0  0  0  0  0  0  0  0  # atno 6908 bound_to 6896
  150.7078  134.0902  159.3971 H   0  0  0  0  0  0  0  0  0  0  0  0  # atno 6909 bound_to 6896
  145.7950  139.2953  143.1188 H   0  0  0  0  0  0  0  0  0  0  0  0  # atno 7974 bound_to 7965
  154.7208  140.0511  157.0638 H   0  0  0  0  0  0  0  0  0  0  0  0  # atno 8008 bound_to 7997
  155.0429  140.3170  155.4699 H   0  0  0  0  0  0  0  0  0  0  0  0  # atno 8009 bound_to 7997
  156.2816  140.2129  156.5553 H   0  0  0  0  0  0  0  0  0  0  0  0  # atno 8010 bound_to 7997
  139.8547  143.7153  152.2655 H   0  0  0  0  0  0  0  0  0  0  0  0  # atno 10167 bound_to 10162
  155.9986  130.4789  150.4820 H   0  0  0  0  0  0  0  0  0  0  0  0  # atno 10718 bound_to 10713
  154.7077  135.3000  154.9244 H   0  0  0  0  0  0  0  0  0  0  0  0  # atno 10763 bound_to 10752
  154.0156  135.6689  153.4772 H   0  0  0  0  0  0  0  0  0  0  0  0  # atno 10764 bound_to 10752
  153.0730  135.5050  154.8258 H   0  0  0  0  0  0  0  0  0  0  0  0  # atno 10765 bound_to 10752
  139.9097  134.9617  156.7448 H   0  0  0  0  0  0  0  0  0  0  0  0  # atno 11005 bound_to 11000
  145.9937  140.8580  143.0053 LP  0  0  0  0  0  0  0  0  0  0  0  0  # atno 17320 bound_to 7965
  144.6776  140.2252  143.7362 LP  0  0  0  0  0  0  0  0  0  0  0  0  # atno 17321 bound_to 7965
  139.7431  144.7554  151.0621 LP  0  0  0  0  0  0  0  0  0  0  0  0  # atno 17342 bound_to 10162
  140.7783  143.4948  150.9846 LP  0  0  0  0  0  0  0  0  0  0  0  0  # atno 17343 bound_to 10162
  157.2824  131.0609  151.2189 LP  0  0  0  0  0  0  0  0  0  0  0  0  # atno 17370 bound_to 10713
  157.3230  130.6947  149.6280 LP  0  0  0  0  0  0  0  0  0  0  0  0  # atno 17371 bound_to 10713
  140.6821  133.9465  155.7916 LP  0  0  0  0  0  0  0  0  0  0  0  0  # atno 17394 bound_to 11000
  141.0503  134.0494  157.3792 LP  0  0  0  0  0  0  0  0  0  0  0  0  # atno 17395 bound_to 11000

$$$$
