AV-unprocessed.smi:1100|AV-procd|sdf|4761|dock9
  -GOLD-   22720 3303D 1   1.00000     0.00000
 Structure written by MMmdl.
 44 45  0  0  0  0  0  0  0  0  2 V2000
  150.0524  139.1082  154.7167 C   0  0  0  0  0  0  0  0  0  0  0  0
  148.8047  139.6525  153.9794 C   0  0  2  0  0  0  0  0  0  0  0  0
  147.9657  140.5431  154.9341 C   0  0  0  0  0  0  0  0  0  0  0  0
  148.7454  141.6084  155.5579 N   0  0  0  0  0  0  0  0  0  0  0  0
  149.1860  141.5952  156.8240 C   0  0  0  0  0  0  0  0  0  0  0  0
  148.9728  140.6622  157.5973 O   0  0  0  0  0  0  0  0  0  0  0  0
  149.8589  142.7244  157.1106 N   0  0  0  0  0  0  0  0  0  0  0  0
  150.4953  143.0958  158.3034 C   0  0  0  0  0  0  0  0  0  0  0  0
  150.1920  144.2848  159.0873 C   0  0  0  0  0  0  0  0  0  0  0  0
  150.8678  144.5550  160.2216 C   0  0  0  0  0  0  0  0  0  0  0  0
  151.9280  143.6732  160.7160 C   0  0  0  0  0  0  0  0  0  0  0  0
  152.5606  143.9172  161.7437 O   0  0  0  0  0  0  0  0  0  0  0  0
  152.1671  142.5608  159.9631 N   0  0  0  0  0  0  0  0  0  0  0  0
  153.2031  141.6101  160.3739 C   0  0  0  0  0  0  0  0  0  0  0  0
  151.4599  142.2866  158.7776 C   0  0  0  0  0  0  0  0  0  0  0  0
  147.9426  138.5791  153.3856 N   0  3  0  0  0  0  0  0  0  0  0  0
  147.3331  137.7008  154.4215 C   0  0  0  0  0  0  0  0  0  0  0  0
  146.5368  136.5549  153.7772 C   0  0  0  0  0  0  0  0  0  0  0  0
  145.5313  137.0939  152.9319 O   0  0  0  0  0  0  0  0  0  0  0  0
  146.0937  137.8547  151.8732 C   0  0  0  0  0  0  0  0  0  0  0  0
  146.8853  139.0433  152.4452 C   0  0  0  0  0  0  0  0  0  0  0  0
  150.6451  139.9116  155.1540 H   0  0  0  0  0  0  0  0  0  0  0  0
  150.7273  138.5798  154.0434 H   0  0  0  0  0  0  0  0  0  0  0  0
  149.7750  138.4312  155.5253 H   0  0  0  0  0  0  0  0  0  0  0  0
  149.1735  140.2666  153.1560 H   0  0  0  0  0  0  0  0  0  0  0  0
  147.1164  140.9997  154.4271 H   0  0  0  0  0  0  0  0  0  0  0  0
  147.5439  139.9295  155.7308 H   0  0  0  0  0  0  0  0  0  0  0  0
  148.9616  142.4119  154.9859 H   0  0  0  0  0  0  0  0  0  0  0  0
  149.9171  143.4101  156.3722 H   0  0  0  0  0  0  0  0  0  0  0  0
  149.4162  144.9737  158.7962 H   0  0  0  0  0  0  0  0  0  0  0  0
  150.6182  145.4415  160.7861 H   0  0  0  0  0  0  0  0  0  0  0  0
  153.2181  140.7114  159.7564 H   0  0  0  0  0  0  0  0  0  0  0  0
  153.0483  141.2878  161.4046 H   0  0  0  0  0  0  0  0  0  0  0  0
  154.1889  142.0719  160.3066 H   0  0  0  0  0  0  0  0  0  0  0  0
  151.7582  141.3785  158.2735 H   0  0  0  0  0  0  0  0  0  0  0  0
  148.0932  137.2708  155.0711 H   0  0  0  0  0  0  0  0  0  0  0  0
  146.6741  138.2921  155.0593 H   0  0  0  0  0  0  0  0  0  0  0  0
  147.1930  135.8913  153.2120 H   0  0  0  0  0  0  0  0  0  0  0  0
  146.0602  135.9495  154.5484 H   0  0  0  0  0  0  0  0  0  0  0  0
  146.7329  137.2226  151.2542 H   0  0  0  0  0  0  0  0  0  0  0  0
  145.2885  138.2147  151.2322 H   0  0  0  0  0  0  0  0  0  0  0  0
  146.2114  139.7302  152.9598 H   0  0  0  0  0  0  0  0  0  0  0  0
  147.3209  139.5796  151.6027 H   0  0  0  0  0  0  0  0  0  0  0  0
  148.5589  137.9983  152.8352 H   0  0  0  0  0  0  0  0  0  0  0  0
  1  2  1  0  0  0  0
  1 22  1  0  0  0  0
  1 23  1  0  0  0  0
  1 24  1  0  0  0  0
  2  3  1  0  0  0  0
  2 16  1  0  0  0  0
  2 25  1  0  0  0  0
  3  4  1  0  0  0  0
  3 26  1  0  0  0  0
  3 27  1  0  0  0  0
  4  5  1  0  0  0  0
  4 28  1  0  0  0  0
  5  6  2  0  0  0  0
  5  7  1  0  0  0  0
  7  8  1  0  0  0  0
  7 29  1  0  0  0  0
  8 15  2  0  0  0  0
  8  9  1  0  0  0  0
  9 10  2  0  0  0  0
  9 30  1  0  0  0  0
 10 11  1  0  0  0  0
 10 31  1  0  0  0  0
 11 12  2  0  0  0  0
 11 13  1  0  0  0  0
 13 14  1  0  0  0  0
 13 15  1  0  0  0  0
 14 32  1  0  0  0  0
 14 33  1  0  0  0  0
 14 34  1  0  0  0  0
 15 35  1  0  0  0  0
 16 21  1  0  0  0  0
 16 17  1  0  0  0  0
 16 44  1  0  0  0  0
 17 18  1  0  0  0  0
 17 36  1  0  0  0  0
 17 37  1  0  0  0  0
 18 19  1  0  0  0  0
 18 38  1  0  0  0  0
 18 39  1  0  0  0  0
 19 20  1  0  0  0  0
 20 21  1  0  0  0  0
 20 40  1  0  0  0  0
 20 41  1  0  0  0  0
 21 42  1  0  0  0  0
 21 43  1  0  0  0  0
M  CHG  1  16   1
M  END
> <s_m_source_file>
AV-unprocessed.smi

> <i_m_source_file_index>
1100

> <i_lp_mmshare_version>
43012

> <i_f3d_flags>
0

> <s_epik_input>
W0NIMl0xW0NIMl1PW0NIMl1bQ0gyXU4xW0NASF0oW0NIM10pW0NIMl1bTkhdQyg9TylbTkhdYzJbY0hdW2NIXWMoPU8pbihbQ0gzXSlbY0hdMg==

> <s_epik_cmdline>
J2VwaWtfcHl0aG9uJywgJy1waCcsICc3LjAnLCAnLXRuJywgJzgnLCAnLW1hJywgJzIwMCcsICctbWV0YWxfYmluZGluZycsICctaW1hZScsICc8aW5maWxlLm1hZT4nLCAnLW9tYWUnLCAnPG91dGZpbGUubWFlPic=

> <r_lp_tautomer_probability>
1

> <r_epik_Ionization_Penalty>
0.602556

> <r_epik_Ionization_Penalty_Charging>
0.602536

> <r_epik_Ionization_Penalty_Neutral>
1.99507e-05

> <r_epik_State_Penalty>
0.617039

> <r_epik_Charging_Adjusted_Penalty>
1.21958

> <i_epik_Tot_Q>
1

> <i_epik_Tot_abs_Q>
1

> <r_epik_Metal_State_Penalty>
0.619464

> <b_epik_Metal_Only>
0

> <s_lp_Force_Field>
OPLS_2005

> <r_lp_Energy>
33.1854

> <b_lp_Chiralities_Consistent>
1

> <s_lp_Variant>
AV-unprocessed.smi:1100-3

> <Gold.Version>
5.8.1

> <Gold.Id.Protein>
6NUR|6NUR_protein|mol2

> <Gold.PLP.Fitness>
40.8248

> <Gold.PLP.PLP>
-33.6520

> <Gold.PLP.part.hbond>
-3.4811

> <Gold.PLP.part.metal>
0.0000

> <Gold.PLP.part.buried>
0.2877

> <Gold.PLP.part.nonpolar>
-31.7700

> <Gold.PLP.part.repulsive>
0.4917

> <Gold.PLP.ligand.clash>
0.0000

> <Gold.PLP.ligand.torsion>
0.7147

> <Gold.PLP.Chemscore.Hbond>
2.8462

> <Gold.PLP.Chemscore.CHOScore>
0.0000

> <Gold.PLP.Chemscore.Metal>
0.0000

> <Gold.Chemscore.Hbonds>
donor molecule, donor type, donor heavy atom, donor atom, acceptor molecule, acceptor atom, score
      L1  H     4    28       P1  8028  0.05
      L1  H     7    29       P1  8028  0.77
      L1  H    16    44       P1  7948  1.98

> <Gold.PLP.Chemscore.Internal.Correction>
0.0636

> <Gold.Rescore>
     Score         DG    S(hbond)    S(metal)    S(lipo)     H(rot)  DE(clash)    DE(int)     intcor
     15.83     -17.00       1.84        0.00      79.55       1.54       0.39       0.77       ----

> <Gold.Chemscore.Fitness>
15.8324

> <Gold.Chemscore.DG>
-16.9984

> <Gold.Chemscore.ZeroCoef>
-5.4800

> <Gold.Chemscore.Hbond>
1.8422

> <Gold.Chemscore.Metal>
0.0000

> <Gold.Chemscore.Lipo>
79.5510

> <Gold.Chemscore.Internal_Hbond>
0.0000

> <Gold.Chemscore.DEClash>
0.3923

> <Gold.Chemscore.DEInternal>
0.7737

> <Gold.Chemscore.Rot>
1.5398

> <Gold.Chemscore.Internal.Correction>
   9.000000E+99

> <Gold.Chemscore.Hbonds>
donor molecule, donor type, donor heavy atom, donor atom, acceptor molecule, acceptor atom, score
      L1  H     4    28       P1  8028  0.07
      L1  H     7    29       P1  8028  0.76
      L1  H    16    44       P1  7948  0.89

> <Gold.Chemscore.Hbond.Weighted>
-6.1529

> <Gold.Chemscore.Metal.Weighted>
-0.0000

> <Gold.Chemscore.Lipo.Weighted>
-9.3075

> <Gold.Chemscore.Internal_Hbond.Weighted>
0.0000

> <Gold.Chemscore.DEClash.Weighted>
0.3923

> <Gold.Chemscore.DEInternal.Weighted>
0.7737

> <Gold.Chemscore.Rot.Weighted>
3.9420

> <Gold.Chemscore.Internal.Correction.Weighted>
   9.000000E+99

> <Gold.Protein.RotatedTorsions>
[ 6907 6896 6895 6894 ] final  -59.18 input  -60.11 | X-H torsion
[ 7974 7965 7964 7962 ] final   35.30 input  175.53 | X-H torsion
[ 8008 7997 7996 7995 ] final  171.58 input   59.86 | X-H torsion
[ 10167 10162 10161 10158 ] final   50.02 input  -65.29 | X-H torsion
[ 10718 10713 10712 10709 ] final  143.11 input   66.30 | X-H torsion
[ 10763 10752 10751 10750 ] final  129.07 input  -60.55 | X-H torsion
[ 11005 11000 10999 10996 ] final -162.26 input  -57.11 | X-H torsion

> <Gold.Protein.ActiveResidues>
 VAL166  LYS551  ARG553  GLY616  TRP617  ASP618  TYR619  PRO620  LYS621  CYS622 
 ASP623  PHE694  ASN695  SER759  ASP760  ASP761  ALA762  ILE779  LEU786  VAL792 
 PHE793  MET794  SER795  GLU796  ALA797  LYS798  CYS799  TRP800  GLU811  SER814 

> <Gold.Protein.RotatedAtoms>
  150.7950  134.7002  159.6545 H   0  0  0  0  0  0  0  0  0  0  0  0  # atno 6907 bound_to 6896
  152.4061  134.6202  160.0058 H   0  0  0  0  0  0  0  0  0  0  0  0  # atno 6908 bound_to 6896
  151.6458  133.3286  159.3177 H   0  0  0  0  0  0  0  0  0  0  0  0  # atno 6909 bound_to 6896
  146.1292  139.6159  142.9238 H   0  0  0  0  0  0  0  0  0  0  0  0  # atno 7974 bound_to 7965
  156.1258  140.1508  156.9139 H   0  0  0  0  0  0  0  0  0  0  0  0  # atno 8008 bound_to 7997
  154.4870  140.0862  156.7550 H   0  0  0  0  0  0  0  0  0  0  0  0  # atno 8009 bound_to 7997
  155.4347  140.3428  155.4286 H   0  0  0  0  0  0  0  0  0  0  0  0  # atno 8010 bound_to 7997
  140.2768  144.3202  150.6275 H   0  0  0  0  0  0  0  0  0  0  0  0  # atno 10167 bound_to 10162
  157.3728  131.0981  151.0812 H   0  0  0  0  0  0  0  0  0  0  0  0  # atno 10718 bound_to 10713
  153.7358  135.3231  155.3295 H   0  0  0  0  0  0  0  0  0  0  0  0  # atno 10763 bound_to 10752
  154.8311  135.4533  154.1076 H   0  0  0  0  0  0  0  0  0  0  0  0  # atno 10764 bound_to 10752
  153.2236  135.6951  153.8052 H   0  0  0  0  0  0  0  0  0  0  0  0  # atno 10765 bound_to 10752
  140.6113  134.4846  157.5215 H   0  0  0  0  0  0  0  0  0  0  0  0  # atno 11005 bound_to 11000
  145.5298  141.0427  143.2389 LP  0  0  0  0  0  0  0  0  0  0  0  0  # atno 17320 bound_to 7965
  144.7673  139.6815  143.7209 LP  0  0  0  0  0  0  0  0  0  0  0  0  # atno 17321 bound_to 7965
  140.5845  143.2171  151.7368 LP  0  0  0  0  0  0  0  0  0  0  0  0  # atno 17342 bound_to 10162
  139.4973  144.4032  152.0159 LP  0  0  0  0  0  0  0  0  0  0  0  0  # atno 17343 bound_to 10162
  157.1910  130.6352  149.5704 LP  0  0  0  0  0  0  0  0  0  0  0  0  # atno 17370 bound_to 10713
  155.9759  130.4722  150.6491 LP  0  0  0  0  0  0  0  0  0  0  0  0  # atno 17371 bound_to 10713
  139.9191  134.8185  156.1269 LP  0  0  0  0  0  0  0  0  0  0  0  0  # atno 17394 bound_to 11000
  141.0806  133.6756  156.2328 LP  0  0  0  0  0  0  0  0  0  0  0  0  # atno 17395 bound_to 11000

$$$$
