#       Name:                AV-unprocessed.smi:42
#       Creating user name   scv26
#       Creation time:       Thu Mar 26 16:24:44 2020


#       File generated by GOLD software.
#

@<TRIPOS>MOLECULE
AV-unprocessed.smi:42
    33    34     1
SMALL
NO_CHARGES


@<TRIPOS>ATOM
      1 ****        -3.6198   1.8082  -1.7306 C.3            1 S1                 0.0000
      2 ****        -3.6832   0.4145  -1.0971 C.3            1 S1                 0.0000
      3 ****        -2.3330  -0.1966  -0.9245 C.2            1 S1                 0.0000
      4 ****        -1.6869  -0.9893  -1.7823 N.2            1 S1                 0.0000
      5 ****        -0.4600  -1.2381  -1.2114 N.2            1 S1                 0.0000
      6 ****        -0.4575  -0.5818  -0.0454 C.2            1 S1                 0.0000
      7 ****         0.6575  -0.4558   0.9480 C.3            1 S1                 0.0000
      8 ****         1.6433   0.6793   0.6663 C.3            1 S1                 0.0000
      9 ****         2.9473   0.1198   1.2267 C.3            1 S1                 0.0000
     10 ****         4.0804   0.7415   0.6588 O.3            1 S1                 0.0000
     11 ****         2.8692  -1.3711   0.8776 C.3            1 S1                 0.0000
     12 ****         1.4322  -1.7110   0.8456 N.4            1 S1                 1.0000
     13 ****        -1.6009   0.1175   0.1758 O.3            1 S1                 0.0000
     14 ****         0.2539  -0.3730   1.9581 H              1 S1                 0.0000
     15 ****         2.9668   0.2459   2.3103 H              1 S1                 0.0000
     16 ****        -4.6190   2.2282  -1.8470 H              1 S1                 0.0000
     17 ****        -3.1574   1.7700  -2.7174 H              1 S1                 0.0000
     18 ****        -3.0391   2.4948  -1.1141 H              1 S1                 0.0000
     19 ****        -4.1701   0.4696  -0.1229 H              1 S1                 0.0000
     20 ****        -4.2916  -0.2473  -1.7146 H              1 S1                 0.0000
     21 ****         1.7430   0.8273  -0.4109 H              1 S1                 0.0000
     22 ****         1.3434   1.6291   1.1101 H              1 S1                 0.0000
     23 ****         4.0765   1.6565   0.8964 H              1 S1                 0.0000
     24 ****         3.2763  -1.5569  -0.1175 H              1 S1                 0.0000
     25 ****         3.4152  -1.9948   1.5859 H              1 S1                 0.0000
     26 ****         1.1920  -2.3253   1.6101 H              1 S1                 0.0000
     27 ****         1.2218  -2.1624  -0.0336 H              1 S1                 0.0000
     28 ****        -2.0248  -1.3317  -2.6590 LP             1 S1                 0.0000
     29 ****         0.2787  -1.7954  -1.5904 LP             1 S1                 0.0000
     30 ****         4.0491   0.6526  -0.3368 LP             1 S1                 0.0000
     31 ****         4.9116   0.3075   1.0063 LP             1 S1                 0.0000
     32 ****        -2.0556  -0.1830   1.0142 LP             1 S1                 0.0000
     33 ****        -1.4231   1.1003   0.2270 LP             1 S1                 0.0000
@<TRIPOS>BOND
    1    1    2 1     
    2    1   16 1     
    3    1   17 1     
    4    1   18 1     
    5    2    3 1     
    6    2   19 1     
    7    2   20 1     
    8    3   13 1     
    9    3    4 2     
   10    4    5 1     
   11    5    6 2     
   12    6    7 1     
   13    6   13 1     
   14    7   14 1     
   15    7   12 1     
   16    7    8 1     
   17    8    9 1     
   18    8   21 1     
   19    8   22 1     
   20    9   15 1     
   21    9   10 1     
   22    9   11 1     
   23   10   23 1     
   24   11   12 1     
   25   11   24 1     
   26   11   25 1     
   27   12   26 1     
   28   12   27 1     
   29    4   28 1     
   30    5   29 1     
   31   10   30 1     
   32   10   31 1     
   33   13   32 1     
   34   13   33 1     
@<TRIPOS>SUBSTRUCTURE
      1 S1             1
@<TRIPOS>SET
LONE_PAIRS      STATIC     ATOMS    <user>   **** ""
6 28 29 30 31 32 33
DONOR_HYDROGENS      STATIC     ATOMS    <user>   **** ""
3 23 26 27
ATOM$BLUE        STATIC     ATOMS    COLORGROUP SYSTEM
6 28 29 30 31 32 33
ATOM$RED        STATIC     ATOMS    COLORGROUP SYSTEM
3 23 26 27
