AV-unprocessed.smi:2189|AV-procd|sdf|8887|dock9
  -GOLD-   2272012 93D 1   1.00000     0.00000
 Structure written by MMmdl.
 39 41  0  0  0  0  0  0  0  0  3 V2000
  152.4030  139.4167  156.0734 O   0  0  0  0  0  0  0  0  0  0  0  0
  151.4267  140.0398  156.5104 C   0  0  0  0  0  0  0  0  0  0  0  0
  150.1320  139.8704  156.1003 N   0  5  0  0  0  0  0  0  0  0  0  0
  149.7059  139.4888  154.7520 C   0  0  0  0  0  0  0  0  0  0  0  0
  150.5333  138.2811  154.2592 C   0  0  0  0  0  0  0  0  0  0  0  0
  150.4608  137.0495  155.1575 C   0  0  0  0  0  0  0  0  0  0  0  0
  151.1312  136.9916  156.4007 C   0  0  0  0  0  0  0  0  0  0  0  0
  151.0248  135.8296  157.1919 C   0  0  0  0  0  0  0  0  0  0  0  0
  150.2575  134.7435  156.7231 C   0  0  0  0  0  0  0  0  0  0  0  0
  149.6140  134.8484  155.4733 C   0  0  0  0  0  0  0  0  0  0  0  0
  149.7390  135.9792  154.7449 N   0  3  0  0  0  0  0  0  0  0  0  0
  151.6443  141.0760  157.5357 C   0  0  0  0  0  0  0  0  0  0  0  0
  150.9192  142.2226  157.4595 C   0  0  0  0  0  0  0  0  0  0  0  0
  151.0609  143.2773  158.4318 C   0  0  0  0  0  0  0  0  0  0  0  0
  151.9575  143.1126  159.4104 C   0  0  0  0  0  0  0  0  0  0  0  0
  152.7562  141.9765  159.5319 N   0  0  0  0  0  0  0  0  0  0  0  0
  153.7533  141.9798  160.5969 C   0  0  0  0  0  0  0  0  0  0  0  0
  153.8199  140.6180  161.2639 C   0  0  0  0  0  0  0  0  0  0  0  0
  154.3859  139.4565  159.9698 S   0  0  0  0  0  0  0  0  0  0  0  0
  155.7063  139.9051  159.5002 O   0  0  0  0  0  0  0  0  0  0  0  0
  154.2308  138.0881  160.4861 O   0  0  0  0  0  0  0  0  0  0  0  0
  153.2461  139.7504  158.7784 N   0  0  0  0  0  0  0  0  0  0  0  0
  152.6102  140.8792  158.6364 C   0  0  0  0  0  0  0  0  0  0  0  0
  148.6482  139.2276  154.6976 H   0  0  0  0  0  0  0  0  0  0  0  0
  149.8404  140.3132  154.0518 H   0  0  0  0  0  0  0  0  0  0  0  0
  150.1929  137.9977  153.2627 H   0  0  0  0  0  0  0  0  0  0  0  0
  151.5778  138.5738  154.1433 H   0  0  0  0  0  0  0  0  0  0  0  0
  151.7098  137.8352  156.7482 H   0  0  0  0  0  0  0  0  0  0  0  0
  151.5247  135.7736  158.1475 H   0  0  0  0  0  0  0  0  0  0  0  0
  150.1621  133.8446  157.3144 H   0  0  0  0  0  0  0  0  0  0  0  0
  149.0051  134.0696  155.0384 H   0  0  0  0  0  0  0  0  0  0  0  0
  150.2149  142.3809  156.6552 H   0  0  0  0  0  0  0  0  0  0  0  0
  150.4602  144.1728  158.3718 H   0  0  0  0  0  0  0  0  0  0  0  0
  152.1098  143.8675  160.1679 H   0  0  0  0  0  0  0  0  0  0  0  0
  154.7229  142.2593  160.1835 H   0  0  0  0  0  0  0  0  0  0  0  0
  153.5086  142.7282  161.3513 H   0  0  0  0  0  0  0  0  0  0  0  0
  154.5342  140.6025  162.0865 H   0  0  0  0  0  0  0  0  0  0  0  0
  152.8479  140.2964  161.6399 H   0  0  0  0  0  0  0  0  0  0  0  0
  149.2583  136.0367  153.8469 H   0  0  0  0  0  0  0  0  0  0  0  0
  1  2  2  0  0  0  0
  2  3  1  0  0  0  0
  2 12  1  0  0  0  0
  3  4  1  0  0  0  0
  4  5  1  0  0  0  0
  4 24  1  0  0  0  0
  4 25  1  0  0  0  0
  5  6  1  0  0  0  0
  5 26  1  0  0  0  0
  5 27  1  0  0  0  0
  6 11  1  0  0  0  0
  6  7  2  0  0  0  0
  7  8  1  0  0  0  0
  7 28  1  0  0  0  0
  8  9  2  0  0  0  0
  8 29  1  0  0  0  0
  9 10  1  0  0  0  0
  9 30  1  0  0  0  0
 10 11  2  0  0  0  0
 10 31  1  0  0  0  0
 11 39  1  0  0  0  0
 12 23  1  0  0  0  0
 12 13  2  0  0  0  0
 13 14  1  0  0  0  0
 13 32  1  0  0  0  0
 14 15  2  0  0  0  0
 14 33  1  0  0  0  0
 15 16  1  0  0  0  0
 15 34  1  0  0  0  0
 16 23  1  0  0  0  0
 16 17  1  0  0  0  0
 17 18  1  0  0  0  0
 17 35  1  0  0  0  0
 17 36  1  0  0  0  0
 18 19  1  0  0  0  0
 18 37  1  0  0  0  0
 18 38  1  0  0  0  0
 19 20  2  0  0  0  0
 19 21  2  0  0  0  0
 19 22  1  0  0  0  0
 22 23  2  0  0  0  0
M  CHG  1   3  -1
M  CHG  1  11   1
M  END
> <s_m_source_file>
AV-unprocessed.smi

> <i_m_source_file_index>
2189

> <i_lp_mmshare_version>
43012

> <i_f3d_flags>
0

> <s_epik_input>
W0NIMl0xW0NIMl1TKD1PKSg9TylOPUMoTjEyKUMoPVtDSF1bQ0hdPVtDSF0yKUMoPU8pW05IXVtDSDJdW0NIMl1jM1tjSF1bY0hdW2NIXVtjSF1uMw==

> <s_epik_cmdline>
J2VwaWtfcHl0aG9uJywgJy1waCcsICc3LjAnLCAnLXRuJywgJzgnLCAnLW1hJywgJzIwMCcsICctbWV0YWxfYmluZGluZycsICctaW1hZScsICc8aW5maWxlLm1hZT4nLCAnLW9tYWUnLCAnPG91dGZpbGUubWFlPic=

> <r_epik_Ionization_Penalty>
6.52844

> <r_epik_Ionization_Penalty_Charging>
6.52844

> <r_epik_Ionization_Penalty_Neutral>
1.18271e-13

> <r_epik_State_Penalty>
7.49351

> <r_epik_Charging_Adjusted_Penalty>
14.0219

> <i_epik_Tot_Q>
0

> <i_epik_Tot_abs_Q>
2

> <r_epik_Metal_State_Penalty>
3.53414

> <b_epik_Metal_Only>
1

> <s_lp_Force_Field>
OPLS_2005

> <r_lp_Energy>
35.7172

> <b_lp_Chiralities_Consistent>
1

> <s_lp_Variant>
AV-unprocessed.smi:2189-4

> <Gold.Version>
5.8.1

> <Gold.Id.Protein>
6NUR|6NUR_protein|mol2

> <Gold.PLP.Fitness>
52.5297

> <Gold.PLP.PLP>
-42.2365

> <Gold.PLP.part.hbond>
-4.9544

> <Gold.PLP.part.metal>
0.0000

> <Gold.PLP.part.buried>
-5.3202

> <Gold.PLP.part.nonpolar>
-31.7446

> <Gold.PLP.part.repulsive>
0.0776

> <Gold.PLP.ligand.clash>
0.0000

> <Gold.PLP.ligand.torsion>
1.0440

> <Gold.PLP.Chemscore.Hbond>
4.0000

> <Gold.PLP.Chemscore.CHOScore>
0.0000

> <Gold.PLP.Chemscore.Metal>
0.0000

> <Gold.Chemscore.Hbonds>
donor molecule, donor type, donor heavy atom, donor atom, acceptor molecule, acceptor atom, score
      L1  H    11    39       P1  7948  2.00
      P1  H  7997  8008       L1     1  0.84
      P1  H  7997  8010       L1    20  0.65

> <Gold.PLP.Chemscore.Internal.Correction>
0.3811

> <Gold.Rescore>
     Score         DG    S(hbond)    S(metal)    S(lipo)     H(rot)  DE(clash)    DE(int)     intcor
     16.81     -20.32       2.43        0.00      90.43       1.51       0.08       3.43       ----

> <Gold.Chemscore.Fitness>
16.8115

> <Gold.Chemscore.DG>
-20.3209

> <Gold.Chemscore.ZeroCoef>
-5.4800

> <Gold.Chemscore.Hbond>
2.4339

> <Gold.Chemscore.Metal>
0.0000

> <Gold.Chemscore.Lipo>
90.4251

> <Gold.Chemscore.Internal_Hbond>
0.0000

> <Gold.Chemscore.DEClash>
0.0775

> <Gold.Chemscore.DEInternal>
3.4320

> <Gold.Chemscore.Rot>
1.5109

> <Gold.Chemscore.Internal.Correction>
   9.000000E+99

> <Gold.Chemscore.Hbonds>
donor molecule, donor type, donor heavy atom, donor atom, acceptor molecule, acceptor atom, score
      L1  H    11    39       P1  7948  0.79
      P1  H  7997  8008       L1     1  0.82
      P1  H  7997  8010       L1    20  0.41

> <Gold.Chemscore.Hbond.Weighted>
-8.1292

> <Gold.Chemscore.Metal.Weighted>
-0.0000

> <Gold.Chemscore.Lipo.Weighted>
-10.5797

> <Gold.Chemscore.Internal_Hbond.Weighted>
0.0000

> <Gold.Chemscore.DEClash.Weighted>
0.0775

> <Gold.Chemscore.DEInternal.Weighted>
3.4320

> <Gold.Chemscore.Rot.Weighted>
3.8680

> <Gold.Chemscore.Internal.Correction.Weighted>
   9.000000E+99

> <Gold.Protein.RotatedTorsions>
[ 6907 6896 6895 6894 ] final -106.06 input  -60.11 | X-H torsion
[ 7974 7965 7964 7962 ] final   13.62 input  175.53 | X-H torsion
[ 8008 7997 7996 7995 ] final  -29.94 input   59.86 | X-H torsion
[ 10167 10162 10161 10158 ] final   29.09 input  -65.29 | X-H torsion
[ 10718 10713 10712 10709 ] final -165.99 input   66.30 | X-H torsion
[ 10763 10752 10751 10750 ] final   23.75 input  -60.55 | X-H torsion
[ 11005 11000 10999 10996 ] final  -73.75 input  -57.11 | X-H torsion

> <Gold.Protein.ActiveResidues>
 VAL166  LYS551  ARG553  GLY616  TRP617  ASP618  TYR619  PRO620  LYS621  CYS622 
 ASP623  PHE694  ASN695  SER759  ASP760  ASP761  ALA762  ILE779  LEU786  VAL792 
 PHE793  MET794  SER795  GLU796  ALA797  LYS798  CYS799  TRP800  GLU811  SER814 

> <Gold.Protein.RotatedAtoms>
  150.7369  134.0033  159.3645 H   0  0  0  0  0  0  0  0  0  0  0  0  # atno 6907 bound_to 6896
  151.7988  135.0712  160.0407 H   0  0  0  0  0  0  0  0  0  0  0  0  # atno 6908 bound_to 6896
  152.3155  133.5762  159.5746 H   0  0  0  0  0  0  0  0  0  0  0  0  # atno 6909 bound_to 6896
  146.2325  139.9161  142.8517 H   0  0  0  0  0  0  0  0  0  0  0  0  # atno 7974 bound_to 7965
  154.4270  140.1804  156.1328 H   0  0  0  0  0  0  0  0  0  0  0  0  # atno 8008 bound_to 7997
  156.0054  140.3356  155.6862 H   0  0  0  0  0  0  0  0  0  0  0  0  # atno 8009 bound_to 7997
  155.6185  140.0657  157.2676 H   0  0  0  0  0  0  0  0  0  0  0  0  # atno 8010 bound_to 7997
  140.4796  144.0637  150.6261 H   0  0  0  0  0  0  0  0  0  0  0  0  # atno 10167 bound_to 10162
  156.6613  130.9047  151.3029 H   0  0  0  0  0  0  0  0  0  0  0  0  # atno 10718 bound_to 10713
  153.0815  135.6620  154.0035 H   0  0  0  0  0  0  0  0  0  0  0  0  # atno 10763 bound_to 10752
  153.9656  135.2969  155.3432 H   0  0  0  0  0  0  0  0  0  0  0  0  # atno 10764 bound_to 10752
  154.7215  135.5162  153.8891 H   0  0  0  0  0  0  0  0  0  0  0  0  # atno 10765 bound_to 10752
  141.1627  133.6888  156.7260 H   0  0  0  0  0  0  0  0  0  0  0  0  # atno 11005 bound_to 11000
  145.2182  140.9924  143.4061 LP  0  0  0  0  0  0  0  0  0  0  0  0  # atno 17320 bound_to 7965
  144.9633  139.3957  143.6345 LP  0  0  0  0  0  0  0  0  0  0  0  0  # atno 17321 bound_to 7965
  140.3875  143.2770  152.0099 LP  0  0  0  0  0  0  0  0  0  0  0  0  # atno 17342 bound_to 10162
  139.4831  144.6105  151.7443 LP  0  0  0  0  0  0  0  0  0  0  0  0  # atno 17343 bound_to 10162
  157.7108  130.9439  150.1084 LP  0  0  0  0  0  0  0  0  0  0  0  0  # atno 17370 bound_to 10713
  156.2009  130.3660  149.8790 LP  0  0  0  0  0  0  0  0  0  0  0  0  # atno 17371 bound_to 10713
  140.2780  134.8339  157.3908 LP  0  0  0  0  0  0  0  0  0  0  0  0  # atno 17394 bound_to 11000
  140.1459  134.4912  155.7996 LP  0  0  0  0  0  0  0  0  0  0  0  0  # atno 17395 bound_to 11000

$$$$
