AV-unprocessed.smi:2442|AV-procd|sdf|9625|dock7
  -GOLD-   2272013253D 1   1.00000     0.00000
 Structure written by MMmdl.
 46 47  0  0  0  0  0  0  0  0  1 V2000
  148.7983  132.2727  153.6186 C   0  0  0  0  0  0  0  0  0  0  0  0
  147.9974  132.8524  152.6011 O   0  0  0  0  0  0  0  0  0  0  0  0
  146.6154  132.9608  152.9310 C   0  0  2  0  0  0  0  0  0  0  0  0
  145.9515  131.5675  152.9615 C   0  0  0  0  0  0  0  0  0  0  0  0
  145.9418  130.9101  151.5716 C   0  0  0  0  0  0  0  0  0  0  0  0
  145.2606  131.8147  150.5334 C   0  0  0  0  0  0  0  0  0  0  0  0
  145.9150  133.2046  150.4890 C   0  0  0  0  0  0  0  0  0  0  0  0
  145.9294  133.8671  151.8809 C   0  0  2  0  0  0  0  0  0  0  0  0
  146.5820  135.1719  151.8040 N   0  0  0  0  0  0  0  0  0  0  0  0
  145.9622  136.3550  151.9130 C   0  0  0  0  0  0  0  0  0  0  0  0
  144.7478  136.4885  152.0653 O   0  0  0  0  0  0  0  0  0  0  0  0
  146.8260  137.3759  151.8494 N   0  0  0  0  0  0  0  0  0  0  0  0
  146.4516  138.7768  151.9824 C   0  0  0  0  0  0  0  0  0  0  0  0
  146.4484  139.1960  153.4589 C   0  0  0  0  0  0  0  0  0  0  0  0
  147.8061  139.7073  153.9148 C   0  0  0  0  0  0  0  0  0  0  0  0
  148.8759  138.7990  154.0581 C   0  0  0  0  0  0  0  0  0  0  0  0
  150.1289  139.2869  154.4769 C   0  0  0  0  0  0  0  0  0  0  0  0
  150.3633  140.5869  154.7510 N   0  0  0  0  0  0  0  0  0  0  0  0
  149.3390  141.4545  154.6115 C   0  0  0  0  0  0  0  0  0  0  0  0
  148.0434  141.0756  154.1973 C   0  0  0  0  0  0  0  0  0  0  0  0
  146.9566  142.1277  154.0673 C   0  0  0  0  0  0  0  0  0  0  0  0
  149.8366  132.2429  153.2887 H   0  0  0  0  0  0  0  0  0  0  0  0
  148.4933  131.2516  153.8456 H   0  0  0  0  0  0  0  0  0  0  0  0
  148.7573  132.8629  154.5349 H   0  0  0  0  0  0  0  0  0  0  0  0
  146.5106  133.4263  153.9128 H   0  0  0  0  0  0  0  0  0  0  0  0
  146.4471  130.9147  153.6790 H   0  0  0  0  0  0  0  0  0  0  0  0
  144.9243  131.6706  153.3135 H   0  0  0  0  0  0  0  0  0  0  0  0
  146.9652  130.6988  151.2589 H   0  0  0  0  0  0  0  0  0  0  0  0
  145.4300  129.9486  151.6190 H   0  0  0  0  0  0  0  0  0  0  0  0
  145.3077  131.3501  149.5482 H   0  0  0  0  0  0  0  0  0  0  0  0
  144.2021  131.9170  150.7764 H   0  0  0  0  0  0  0  0  0  0  0  0
  146.9340  133.1120  150.1100 H   0  0  0  0  0  0  0  0  0  0  0  0
  145.3795  133.8371  149.7800 H   0  0  0  0  0  0  0  0  0  0  0  0
  144.8919  134.0222  152.1840 H   0  0  0  0  0  0  0  0  0  0  0  0
  147.5843  135.1692  151.6861 H   0  0  0  0  0  0  0  0  0  0  0  0
  147.8059  137.1700  151.7209 H   0  0  0  0  0  0  0  0  0  0  0  0
  147.1518  139.3937  151.4169 H   0  0  0  0  0  0  0  0  0  0  0  0
  145.4633  138.9297  151.5462 H   0  0  0  0  0  0  0  0  0  0  0  0
  145.6853  139.9539  153.6367 H   0  0  0  0  0  0  0  0  0  0  0  0
  146.1688  138.3445  154.0811 H   0  0  0  0  0  0  0  0  0  0  0  0
  148.7429  137.7476  153.8499 H   0  0  0  0  0  0  0  0  0  0  0  0
  150.9659  138.6145  154.5947 H   0  0  0  0  0  0  0  0  0  0  0  0
  149.5639  142.4864  154.8384 H   0  0  0  0  0  0  0  0  0  0  0  0
  147.3580  143.1304  154.2164 H   0  0  0  0  0  0  0  0  0  0  0  0
  146.1771  141.9645  154.8117 H   0  0  0  0  0  0  0  0  0  0  0  0
  146.5031  142.0950  153.0768 H   0  0  0  0  0  0  0  0  0  0  0  0
  1  2  1  0  0  0  0
  1 22  1  0  0  0  0
  1 23  1  0  0  0  0
  1 24  1  0  0  0  0
  2  3  1  0  0  0  0
  3  8  1  0  0  0  0
  3  4  1  0  0  0  0
  3 25  1  0  0  0  0
  4  5  1  0  0  0  0
  4 26  1  0  0  0  0
  4 27  1  0  0  0  0
  5  6  1  0  0  0  0
  5 28  1  0  0  0  0
  5 29  1  0  0  0  0
  6  7  1  0  0  0  0
  6 30  1  0  0  0  0
  6 31  1  0  0  0  0
  7  8  1  0  0  0  0
  7 32  1  0  0  0  0
  7 33  1  0  0  0  0
  8  9  1  0  0  0  0
  8 34  1  0  0  0  0
  9 10  1  0  0  0  0
  9 35  1  0  0  0  0
 10 11  2  0  0  0  0
 10 12  1  0  0  0  0
 12 13  1  0  0  0  0
 12 36  1  0  0  0  0
 13 14  1  0  0  0  0
 13 37  1  0  0  0  0
 13 38  1  0  0  0  0
 14 15  1  0  0  0  0
 14 39  1  0  0  0  0
 14 40  1  0  0  0  0
 15 20  1  0  0  0  0
 15 16  2  0  0  0  0
 16 17  1  0  0  0  0
 16 41  1  0  0  0  0
 17 18  2  0  0  0  0
 17 42  1  0  0  0  0
 18 19  1  0  0  0  0
 19 20  2  0  0  0  0
 19 43  1  0  0  0  0
 20 21  1  0  0  0  0
 21 44  1  0  0  0  0
 21 45  1  0  0  0  0
 21 46  1  0  0  0  0
M  END
> <s_m_source_file>
AV-unprocessed.smi

> <i_m_source_file_index>
2442

> <i_lp_mmshare_version>
43012

> <i_f3d_flags>
0

> <s_epik_input>
W0NIM11PW0NAQEhdMVtDSDJdW0NIMl1bQ0gyXVtDSDJdW0NASF0xW05IXUMoPU8pW05IXVtDSDJdW0NIMl1jMltjSF1bY0hdbltjSF1jMltDSDNd

> <s_epik_cmdline>
J2VwaWtfcHl0aG9uJywgJy1waCcsICc3LjAnLCAnLXRuJywgJzgnLCAnLW1hJywgJzIwMCcsICctbWV0YWxfYmluZGluZycsICctaW1hZScsICc8aW5maWxlLm1hZT4nLCAnLW9tYWUnLCAnPG91dGZpbGUubWFlPic=

> <r_epik_Ionization_Penalty>
0.106136

> <r_epik_Ionization_Penalty_Charging>
0

> <r_epik_Ionization_Penalty_Neutral>
0.106136

> <r_epik_State_Penalty>
0.0959393

> <r_epik_Charging_Adjusted_Penalty>
0.0959393

> <i_epik_Tot_Q>
0

> <i_epik_Tot_abs_Q>
0

> <r_epik_Metal_State_Penalty>
0.0812517

> <b_epik_Metal_Only>
0

> <s_lp_Force_Field>
OPLS_2005

> <r_lp_Energy>
9.91993

> <b_lp_Chiralities_Consistent>
1

> <s_lp_Variant>
AV-unprocessed.smi:2442-3

> <Gold.Version>
5.8.1

> <Gold.Id.Protein>
6NUR|6NUR_protein|mol2

> <Gold.PLP.Fitness>
50.4545

> <Gold.PLP.PLP>
-40.7304

> <Gold.PLP.part.hbond>
-2.5278

> <Gold.PLP.part.metal>
0.0000

> <Gold.PLP.part.buried>
-4.4965

> <Gold.PLP.part.nonpolar>
-35.2516

> <Gold.PLP.part.repulsive>
0.6132

> <Gold.PLP.ligand.clash>
0.0000

> <Gold.PLP.ligand.torsion>
0.6128

> <Gold.PLP.Chemscore.Hbond>
2.6365

> <Gold.PLP.Chemscore.CHOScore>
1.0000

> <Gold.PLP.Chemscore.Metal>
0.0000

> <Gold.Chemscore.Hbonds>
donor molecule, donor type, donor heavy atom, donor atom, acceptor molecule, acceptor atom, score
      L1  H     9    35       P1  7948  0.83
      L1  H    12    36       P1  7948  0.81
      P1  H  7989  7998       L1    18  0.85
      L1  C    19    43       P1  8028  1.00

> <Gold.PLP.Chemscore.Internal.Correction>
0.0401

> <Gold.Rescore>
     Score         DG    S(hbond)    S(metal)    S(lipo)     H(rot)  DE(clash)    DE(int)     intcor
     18.76     -19.58       2.03        0.00      98.46       1.64       0.19       0.63       ----

> <Gold.Chemscore.Fitness>
18.7608

> <Gold.Chemscore.DG>
-19.5772

> <Gold.Chemscore.ZeroCoef>
-5.4800

> <Gold.Chemscore.Hbond>
2.0270

> <Gold.Chemscore.Metal>
0.0000

> <Gold.Chemscore.Lipo>
98.4650

> <Gold.Chemscore.Internal_Hbond>
0.0000

> <Gold.Chemscore.DEClash>
0.1856

> <Gold.Chemscore.DEInternal>
0.6307

> <Gold.Chemscore.Rot>
1.6380

> <Gold.Chemscore.Internal.Correction>
   9.000000E+99

> <Gold.Chemscore.Hbonds>
donor molecule, donor type, donor heavy atom, donor atom, acceptor molecule, acceptor atom, score
      L1  H     9    35       P1  7948  0.68
      L1  H    12    36       P1  7948  0.77
      P1  H  7989  7998       L1    18  0.12

> <Gold.Chemscore.Hbond.Weighted>
-6.7702

> <Gold.Chemscore.Metal.Weighted>
-0.0000

> <Gold.Chemscore.Lipo.Weighted>
-11.5204

> <Gold.Chemscore.Internal_Hbond.Weighted>
0.0000

> <Gold.Chemscore.DEClash.Weighted>
0.1856

> <Gold.Chemscore.DEInternal.Weighted>
0.6307

> <Gold.Chemscore.Rot.Weighted>
4.1934

> <Gold.Chemscore.Internal.Correction.Weighted>
   9.000000E+99

> <Gold.Protein.RotatedTorsions>
[ 6907 6896 6895 6894 ] final -152.92 input  -60.11 | X-H torsion
[ 7974 7965 7964 7962 ] final   32.41 input  175.53 | X-H torsion
[ 8008 7997 7996 7995 ] final -129.21 input   59.86 | X-H torsion
[ 10167 10162 10161 10158 ] final  -39.86 input  -65.29 | X-H torsion
[ 10718 10713 10712 10709 ] final  132.23 input   66.30 | X-H torsion
[ 10763 10752 10751 10750 ] final -157.00 input  -60.55 | X-H torsion
[ 11005 11000 10999 10996 ] final -145.16 input  -57.11 | X-H torsion

> <Gold.Protein.ActiveResidues>
 VAL166  LYS551  ARG553  GLY616  TRP617  ASP618  TYR619  PRO620  LYS621  CYS622 
 ASP623  PHE694  ASN695  SER759  ASP760  ASP761  ALA762  ILE779  LEU786  VAL792 
 PHE793  MET794  SER795  GLU796  ALA797  LYS798  CYS799  TRP800  GLU811  SER814 

> <Gold.Protein.RotatedAtoms>
  151.2349  133.4430  159.2604 H   0  0  0  0  0  0  0  0  0  0  0  0  # atno 6907 bound_to 6896
  151.0760  134.9828  159.8342 H   0  0  0  0  0  0  0  0  0  0  0  0  # atno 6908 bound_to 6896
  152.5418  134.2291  159.8870 H   0  0  0  0  0  0  0  0  0  0  0  0  # atno 6909 bound_to 6896
  146.1488  139.6529  142.9113 H   0  0  0  0  0  0  0  0  0  0  0  0  # atno 7974 bound_to 7965
  155.2755  140.0442  157.3011 H   0  0  0  0  0  0  0  0  0  0  0  0  # atno 8008 bound_to 7997
  154.5628  140.2351  155.8278 H   0  0  0  0  0  0  0  0  0  0  0  0  # atno 8009 bound_to 7997
  156.2061  140.3012  155.9637 H   0  0  0  0  0  0  0  0  0  0  0  0  # atno 8010 bound_to 7997
  140.7051  143.3188  151.2843 H   0  0  0  0  0  0  0  0  0  0  0  0  # atno 10167 bound_to 10162
  157.4891  131.1089  150.9580 H   0  0  0  0  0  0  0  0  0  0  0  0  # atno 10718 bound_to 10713
  154.7669  135.3134  154.8267 H   0  0  0  0  0  0  0  0  0  0  0  0  # atno 10763 bound_to 10752
  153.9013  135.6815  153.4759 H   0  0  0  0  0  0  0  0  0  0  0  0  # atno 10764 bound_to 10752
  153.1277  135.4794  154.9232 H   0  0  0  0  0  0  0  0  0  0  0  0  # atno 10765 bound_to 10752
  140.7951  134.2923  157.4999 H   0  0  0  0  0  0  0  0  0  0  0  0  # atno 11005 bound_to 11000
  145.4874  141.0438  143.2612 LP  0  0  0  0  0  0  0  0  0  0  0  0  # atno 17320 bound_to 7965
  144.7878  139.6390  143.7126 LP  0  0  0  0  0  0  0  0  0  0  0  0  # atno 17321 bound_to 7965
  139.6635  144.0146  152.2708 LP  0  0  0  0  0  0  0  0  0  0  0  0  # atno 17342 bound_to 10162
  139.9721  144.6486  150.7979 LP  0  0  0  0  0  0  0  0  0  0  0  0  # atno 17343 bound_to 10162
  157.0287  130.5703  149.5340 LP  0  0  0  0  0  0  0  0  0  0  0  0  # atno 17370 bound_to 10713
  156.0163  130.5258  150.8145 LP  0  0  0  0  0  0  0  0  0  0  0  0  # atno 17371 bound_to 10713
  139.8727  134.9397  156.3749 LP  0  0  0  0  0  0  0  0  0  0  0  0  # atno 17394 bound_to 11000
  140.9351  133.7552  156.0074 LP  0  0  0  0  0  0  0  0  0  0  0  0  # atno 17395 bound_to 11000

$$$$
