AV-unprocessed.smi:1586|AV-procd|sdf|6376|dock2
  -GOLD-   22720 7 03D 1   1.00000     0.00000
 Structure written by MMmdl.
 47 48  0  0  0  0  0  0  0  0  2 V2000
  143.5631  132.2838  150.0548 C   0  0  0  0  0  0  0  0  0  0  0  0
  144.9835  132.1315  150.6182 C   0  0  0  0  0  0  0  0  0  0  0  0
  145.8188  133.2985  150.3246 N   0  0  0  0  0  0  0  0  0  0  0  0
  145.3078  134.5742  150.8279 C   0  0  0  0  0  0  0  0  0  0  0  0
  145.3472  134.6591  152.3678 C   0  0  0  0  0  0  0  0  0  0  0  0
  146.7254  134.4521  152.8971 N   0  3  0  0  0  0  0  0  0  0  0  0
  146.8283  134.5475  154.3926 C   0  0  1  0  0  0  0  0  0  0  0  0
  145.9802  133.4546  155.0899 C   0  0  0  0  0  0  0  0  0  0  0  0
  148.2973  134.4814  154.8908 C   0  0  0  0  0  0  0  0  0  0  0  0
  149.1039  135.5891  154.3875 N   0  0  0  0  0  0  0  0  0  0  0  0
  149.6114  136.5724  155.1438 C   0  0  0  0  0  0  0  0  0  0  0  0
  149.4589  136.6379  156.3638 O   0  0  0  0  0  0  0  0  0  0  0  0
  150.2946  137.4573  154.3983 N   0  0  0  0  0  0  0  0  0  0  0  0
  150.9435  138.6395  154.8371 C   0  0  0  0  0  0  0  0  0  0  0  0
  150.2274  139.6452  155.5391 C   0  0  0  0  0  0  0  0  0  0  0  0
  151.1838  140.5899  155.7834 C   0  0  0  0  0  0  0  0  0  0  0  0
  151.1525  141.9090  156.4767 C   0  0  0  0  0  0  0  0  0  0  0  0
  152.3821  140.1941  155.2738 O   0  0  0  0  0  0  0  0  0  0  0  0
  152.2212  138.9426  154.6671 N   0  0  0  0  0  0  0  0  0  0  0  0
  147.2795  133.1832  152.3438 C   0  0  0  0  0  0  0  0  0  0  0  0
  147.1905  133.1419  150.8040 C   0  0  0  0  0  0  0  0  0  0  0  0
  143.0061  131.3541  150.1720 H   0  0  0  0  0  0  0  0  0  0  0  0
  143.5821  132.5240  148.9912 H   0  0  0  0  0  0  0  0  0  0  0  0
  142.9998  133.0618  150.5694 H   0  0  0  0  0  0  0  0  0  0  0  0
  144.9426  131.9216  151.6863 H   0  0  0  0  0  0  0  0  0  0  0  0
  145.4391  131.2580  150.1498 H   0  0  0  0  0  0  0  0  0  0  0  0
  145.9144  135.3775  150.4072 H   0  0  0  0  0  0  0  0  0  0  0  0
  144.2954  134.7485  150.4653 H   0  0  0  0  0  0  0  0  0  0  0  0
  144.9861  135.6533  152.6234 H   0  0  0  0  0  0  0  0  0  0  0  0
  144.6576  133.9463  152.8213 H   0  0  0  0  0  0  0  0  0  0  0  0
  146.4257  135.5187  154.6859 H   0  0  0  0  0  0  0  0  0  0  0  0
  146.1053  133.4607  156.1721 H   0  0  0  0  0  0  0  0  0  0  0  0
  146.2523  132.4590  154.7375 H   0  0  0  0  0  0  0  0  0  0  0  0
  144.9119  133.5918  154.9289 H   0  0  0  0  0  0  0  0  0  0  0  0
  148.3134  134.4613  155.9822 H   0  0  0  0  0  0  0  0  0  0  0  0
  148.7990  133.5798  154.5421 H   0  0  0  0  0  0  0  0  0  0  0  0
  149.2826  135.6115  153.3940 H   0  0  0  0  0  0  0  0  0  0  0  0
  150.3472  137.2731  153.4075 H   0  0  0  0  0  0  0  0  0  0  0  0
  149.1851  139.6720  155.8203 H   0  0  0  0  0  0  0  0  0  0  0  0
  150.1284  142.2652  156.5890 H   0  0  0  0  0  0  0  0  0  0  0  0
  151.7103  142.6573  155.9133 H   0  0  0  0  0  0  0  0  0  0  0  0
  151.5949  141.8331  157.4700 H   0  0  0  0  0  0  0  0  0  0  0  0
  148.3342  133.0854  152.5926 H   0  0  0  0  0  0  0  0  0  0  0  0
  146.7722  132.3267  152.7896 H   0  0  0  0  0  0  0  0  0  0  0  0
  147.6054  132.2065  150.4265 H   0  0  0  0  0  0  0  0  0  0  0  0
  147.8035  133.9390  150.3806 H   0  0  0  0  0  0  0  0  0  0  0  0
  147.2890  135.2002  152.5190 H   0  0  0  0  0  0  0  0  0  0  0  0
  1  2  1  0  0  0  0
  1 22  1  0  0  0  0
  1 23  1  0  0  0  0
  1 24  1  0  0  0  0
  2  3  1  0  0  0  0
  2 25  1  0  0  0  0
  2 26  1  0  0  0  0
  3 21  1  0  0  0  0
  3  4  1  0  0  0  0
  4  5  1  0  0  0  0
  4 27  1  0  0  0  0
  4 28  1  0  0  0  0
  5  6  1  0  0  0  0
  5 29  1  0  0  0  0
  5 30  1  0  0  0  0
  6  7  1  0  0  0  0
  6 20  1  0  0  0  0
  6 47  1  0  0  0  0
  7  8  1  0  0  0  0
  7  9  1  0  0  0  0
  7 31  1  0  0  0  0
  8 32  1  0  0  0  0
  8 33  1  0  0  0  0
  8 34  1  0  0  0  0
  9 10  1  0  0  0  0
  9 35  1  0  0  0  0
  9 36  1  0  0  0  0
 10 11  1  0  0  0  0
 10 37  1  0  0  0  0
 11 12  2  0  0  0  0
 11 13  1  0  0  0  0
 13 14  1  0  0  0  0
 13 38  1  0  0  0  0
 14 19  2  0  0  0  0
 14 15  1  0  0  0  0
 15 16  2  0  0  0  0
 15 39  1  0  0  0  0
 16 17  1  0  0  0  0
 16 18  1  0  0  0  0
 17 40  1  0  0  0  0
 17 41  1  0  0  0  0
 17 42  1  0  0  0  0
 18 19  1  0  0  0  0
 20 21  1  0  0  0  0
 20 43  1  0  0  0  0
 20 44  1  0  0  0  0
 21 45  1  0  0  0  0
 21 46  1  0  0  0  0
M  CHG  1   6   1
M  END
> <s_m_source_file>
AV-unprocessed.smi

> <i_m_source_file_index>
1586

> <i_lp_mmshare_version>
43012

> <i_f3d_flags>
0

> <s_epik_input>
W0NIM11bQ0gyXU4xW0NIMl1bQ0gyXU4oW0NIMl1bQ0gyXTEpW0NASF0oW0NIM10pW0NIMl1bTkhdQyg9TylbTkhdYzJbY0hdYyhbQ0gzXSlvbjI=

> <s_epik_cmdline>
J2VwaWtfcHl0aG9uJywgJy1waCcsICc3LjAnLCAnLXRuJywgJzgnLCAnLW1hJywgJzIwMCcsICctbWV0YWxfYmluZGluZycsICctaW1hZScsICc8aW5maWxlLm1hZT4nLCAnLW9tYWUnLCAnPG91dGZpbGUubWFlPic=

> <r_epik_Ionization_Penalty>
0.153363

> <r_epik_Ionization_Penalty_Charging>
0.151842

> <r_epik_Ionization_Penalty_Neutral>
0.00152029

> <r_epik_State_Penalty>
0.985235

> <r_epik_Charging_Adjusted_Penalty>
1.13708

> <i_epik_Tot_Q>
1

> <i_epik_Tot_abs_Q>
1

> <r_epik_Metal_State_Penalty>
0.996168

> <b_epik_Metal_Only>
0

> <s_lp_Force_Field>
OPLS_2005

> <r_lp_Energy>
21.483

> <b_lp_Chiralities_Consistent>
1

> <s_lp_Variant>
AV-unprocessed.smi:1586-4

> <Gold.Version>
5.8.1

> <Gold.Id.Protein>
6NUR|6NUR_protein|mol2

> <Gold.PLP.Fitness>
41.0780

> <Gold.PLP.PLP>
-29.6057

> <Gold.PLP.part.hbond>
-4.9737

> <Gold.PLP.part.metal>
0.0000

> <Gold.PLP.part.buried>
-2.4381

> <Gold.PLP.part.nonpolar>
-21.2246

> <Gold.PLP.part.repulsive>
0.7852

> <Gold.PLP.ligand.clash>
0.0000

> <Gold.PLP.ligand.torsion>
0.5795

> <Gold.PLP.Chemscore.Hbond>
4.1876

> <Gold.PLP.Chemscore.CHOScore>
0.0000

> <Gold.PLP.Chemscore.Metal>
0.0000

> <Gold.Chemscore.Hbonds>
donor molecule, donor type, donor heavy atom, donor atom, acceptor molecule, acceptor atom, score
      L1  H     6    47       P1  7948  1.95
      L1  H    10    37       P1  7948  1.00
      L1  H    13    38       P1  7948  0.20
      P1  H  7989  7998       L1    18  0.03
      P1  H  7997  8010       L1    18  0.71

> <Gold.PLP.Chemscore.Internal.Correction>
0.0686

> <Gold.Rescore>
     Score         DG    S(hbond)    S(metal)    S(lipo)     H(rot)  DE(clash)    DE(int)     intcor
     15.71     -16.34       2.36        0.00      64.14       1.76       0.15       0.48       ----

> <Gold.Chemscore.Fitness>
15.7061

> <Gold.Chemscore.DG>
-16.3406

> <Gold.Chemscore.ZeroCoef>
-5.4800

> <Gold.Chemscore.Hbond>
2.3566

> <Gold.Chemscore.Metal>
0.0000

> <Gold.Chemscore.Lipo>
64.1410

> <Gold.Chemscore.Internal_Hbond>
0.0000

> <Gold.Chemscore.DEClash>
0.1546

> <Gold.Chemscore.DEInternal>
0.4799

> <Gold.Chemscore.Rot>
1.7637

> <Gold.Chemscore.Internal.Correction>
   9.000000E+99

> <Gold.Chemscore.Hbonds>
donor molecule, donor type, donor heavy atom, donor atom, acceptor molecule, acceptor atom, score
      L1  H     6    47       P1  7948  0.91
      L1  H    10    37       P1  7948  0.38
      L1  H    13    38       P1  7948  0.02
      P1  H  7997  8010       L1    18  0.35

> <Gold.Chemscore.Hbond.Weighted>
-7.8711

> <Gold.Chemscore.Metal.Weighted>
-0.0000

> <Gold.Chemscore.Lipo.Weighted>
-7.5045

> <Gold.Chemscore.Internal_Hbond.Weighted>
0.0000

> <Gold.Chemscore.DEClash.Weighted>
0.1546

> <Gold.Chemscore.DEInternal.Weighted>
0.4799

> <Gold.Chemscore.Rot.Weighted>
4.5150

> <Gold.Chemscore.Internal.Correction.Weighted>
   9.000000E+99

> <Gold.Protein.RotatedTorsions>
[ 6907 6896 6895 6894 ] final  151.33 input  -60.11 | X-H torsion
[ 7974 7965 7964 7962 ] final -141.74 input  175.53 | X-H torsion
[ 8008 7997 7996 7995 ] final   98.17 input   59.86 | X-H torsion
[ 10167 10162 10161 10158 ] final   73.44 input  -65.29 | X-H torsion
[ 10718 10713 10712 10709 ] final  -17.19 input   66.30 | X-H torsion
[ 10763 10752 10751 10750 ] final -123.91 input  -60.55 | X-H torsion
[ 11005 11000 10999 10996 ] final   10.84 input  -57.11 | X-H torsion

> <Gold.Protein.ActiveResidues>
 VAL166  LYS551  ARG553  GLY616  TRP617  ASP618  TYR619  PRO620  LYS621  CYS622 
 ASP623  PHE694  ASN695  SER759  ASP760  ASP761  ALA762  ILE779  LEU786  VAL792 
 PHE793  MET794  SER795  GLU796  ALA797  LYS798  CYS799  TRP800  GLU811  SER814 

> <Gold.Protein.RotatedAtoms>
  152.1022  133.4256  159.4591 H   0  0  0  0  0  0  0  0  0  0  0  0  # atno 6907 bound_to 6896
  150.6864  134.2747  159.4612 H   0  0  0  0  0  0  0  0  0  0  0  0  # atno 6908 bound_to 6896
  152.0608  134.9595  160.0625 H   0  0  0  0  0  0  0  0  0  0  0  0  # atno 6909 bound_to 6896
  144.8496  140.6042  143.5399 H   0  0  0  0  0  0  0  0  0  0  0  0  # atno 7974 bound_to 7965
  156.0977  140.3247  155.7900 H   0  0  0  0  0  0  0  0  0  0  0  0  # atno 8008 bound_to 7997
  155.4890  140.0560  157.2973 H   0  0  0  0  0  0  0  0  0  0  0  0  # atno 8009 bound_to 7997
  154.4677  140.1997  156.0091 H   0  0  0  0  0  0  0  0  0  0  0  0  # atno 8010 bound_to 7997
  140.0244  144.5515  150.7556 H   0  0  0  0  0  0  0  0  0  0  0  0  # atno 10167 bound_to 10162
  156.5770  130.4764  149.6337 H   0  0  0  0  0  0  0  0  0  0  0  0  # atno 10718 bound_to 10713
  154.8715  135.4082  154.3020 H   0  0  0  0  0  0  0  0  0  0  0  0  # atno 10763 bound_to 10752
  153.3878  135.7014  153.6523 H   0  0  0  0  0  0  0  0  0  0  0  0  # atno 10764 bound_to 10752
  153.5318  135.3666  155.2650 H   0  0  0  0  0  0  0  0  0  0  0  0  # atno 10765 bound_to 10752
  140.5100  134.0661  155.7815 H   0  0  0  0  0  0  0  0  0  0  0  0  # atno 11005 bound_to 11000
  145.4527  139.1521  143.3909 LP  0  0  0  0  0  0  0  0  0  0  0  0  # atno 17320 bound_to 7965
  146.2773  140.4654  142.8790 LP  0  0  0  0  0  0  0  0  0  0  0  0  # atno 17321 bound_to 7965
  140.7329  143.2710  151.3887 LP  0  0  0  0  0  0  0  0  0  0  0  0  # atno 17342 bound_to 10162
  139.6118  144.1083  152.2306 LP  0  0  0  0  0  0  0  0  0  0  0  0  # atno 17343 bound_to 10162
  156.2665  130.6992  151.1776 LP  0  0  0  0  0  0  0  0  0  0  0  0  # atno 17370 bound_to 10713
  157.7335  131.0590  150.5572 LP  0  0  0  0  0  0  0  0  0  0  0  0  # atno 17371 bound_to 10713
  141.1390  133.9170  157.2368 LP  0  0  0  0  0  0  0  0  0  0  0  0  # atno 17394 bound_to 11000
  139.9664  135.0140  156.9399 LP  0  0  0  0  0  0  0  0  0  0  0  0  # atno 17395 bound_to 11000

$$$$
