AV-unprocessed.smi:3278|AV-procd|sdf|12547|dock3
  -GOLD-   2272018463D 1   1.00000     0.00000
 Structure written by MMmdl.
 38 39  0  0  0  0  0  0  0  0  1 V2000
  145.0303  137.4018  153.6777 C   0  0  0  0  0  0  0  0  0  0  0  0
  146.2730  138.0740  153.9908 N   0  0  0  0  0  0  0  0  0  0  0  0
  146.5639  139.4191  153.9257 C   0  0  0  0  0  0  0  0  0  0  0  0
  147.8650  139.5825  154.3178 C   0  0  0  0  0  0  0  0  0  0  0  0
  148.6820  140.8523  154.4426 C   0  0  2  0  0  0  0  0  0  0  0  0
  147.8787  142.1039  154.0364 C   0  0  0  0  0  0  0  0  0  0  0  0
  149.7930  140.8142  153.5700 O   0  0  0  0  0  0  0  0  0  0  0  0
  149.2697  140.9953  155.8632 C   0  0  0  0  0  0  0  0  0  0  0  0
  150.0226  142.2420  156.0254 N   0  0  0  0  0  0  0  0  0  0  0  0
  150.6525  142.4375  157.3340 C   0  0  1  0  0  0  0  0  0  0  0  0
  151.5649  141.2502  157.7215 C   0  0  0  0  0  0  0  0  0  0  0  0
  152.2009  141.4149  159.1117 C   0  0  0  0  0  0  0  0  0  0  0  0
  153.0817  142.6666  159.2149 C   0  0  0  0  0  0  0  0  0  0  0  0
  152.1061  144.1699  158.9517 S   0  0  0  0  0  0  0  0  0  0  0  0
  151.4352  143.7633  157.3172 C   0  0  0  0  0  0  0  0  0  0  0  0
  148.2811  138.2506  154.6119 C   0  0  0  0  0  0  0  0  0  0  0  0
  147.3299  137.3529  154.4143 N   0  0  0  0  0  0  0  0  0  0  0  0
  144.3270  138.1047  153.2305 H   0  0  0  0  0  0  0  0  0  0  0  0
  144.5933  136.9939  154.5894 H   0  0  0  0  0  0  0  0  0  0  0  0
  145.2147  136.5900  152.9733 H   0  0  0  0  0  0  0  0  0  0  0  0
  145.8264  140.1425  153.6107 H   0  0  0  0  0  0  0  0  0  0  0  0
  147.0068  142.2482  154.6749 H   0  0  0  0  0  0  0  0  0  0  0  0
  147.5236  142.0320  153.0077 H   0  0  0  0  0  0  0  0  0  0  0  0
  148.4863  143.0068  154.1122 H   0  0  0  0  0  0  0  0  0  0  0  0
  149.6402  140.1459  152.9197 H   0  0  0  0  0  0  0  0  0  0  0  0
  148.4556  140.9696  156.5892 H   0  0  0  0  0  0  0  0  0  0  0  0
  149.9032  140.1349  156.0777 H   0  0  0  0  0  0  0  0  0  0  0  0
  149.4111  143.0276  155.8266 H   0  0  0  0  0  0  0  0  0  0  0  0
  149.8670  142.5278  158.0858 H   0  0  0  0  0  0  0  0  0  0  0  0
  150.9984  140.3198  157.7290 H   0  0  0  0  0  0  0  0  0  0  0  0
  152.3485  141.1251  156.9727 H   0  0  0  0  0  0  0  0  0  0  0  0
  151.4194  141.4519  159.8716 H   0  0  0  0  0  0  0  0  0  0  0  0
  152.8032  140.5341  159.3367 H   0  0  0  0  0  0  0  0  0  0  0  0
  153.5481  142.7201  160.1986 H   0  0  0  0  0  0  0  0  0  0  0  0
  153.8860  142.6292  158.4794 H   0  0  0  0  0  0  0  0  0  0  0  0
  152.2558  143.7161  156.6002 H   0  0  0  0  0  0  0  0  0  0  0  0
  150.7872  144.5835  157.0060 H   0  0  0  0  0  0  0  0  0  0  0  0
  149.2445  137.9134  154.9650 H   0  0  0  0  0  0  0  0  0  0  0  0
  1  2  1  0  0  0  0
  1 18  1  0  0  0  0
  1 19  1  0  0  0  0
  1 20  1  0  0  0  0
  2 17  1  0  0  0  0
  2  3  1  0  0  0  0
  3  4  2  0  0  0  0
  3 21  1  0  0  0  0
  4  5  1  0  0  0  0
  4 16  1  0  0  0  0
  5  6  1  0  0  0  0
  5  7  1  0  0  0  0
  5  8  1  0  0  0  0
  6 22  1  0  0  0  0
  6 23  1  0  0  0  0
  6 24  1  0  0  0  0
  7 25  1  0  0  0  0
  8  9  1  0  0  0  0
  8 26  1  0  0  0  0
  8 27  1  0  0  0  0
  9 10  1  0  0  0  0
  9 28  1  0  0  0  0
 10 15  1  0  0  0  0
 10 11  1  0  0  0  0
 10 29  1  0  0  0  0
 11 12  1  0  0  0  0
 11 30  1  0  0  0  0
 11 31  1  0  0  0  0
 12 13  1  0  0  0  0
 12 32  1  0  0  0  0
 12 33  1  0  0  0  0
 13 14  1  0  0  0  0
 13 34  1  0  0  0  0
 13 35  1  0  0  0  0
 14 15  1  0  0  0  0
 15 36  1  0  0  0  0
 15 37  1  0  0  0  0
 16 17  2  0  0  0  0
 16 38  1  0  0  0  0
M  END
> <s_m_source_file>
AV-unprocessed.smi

> <i_m_source_file_index>
3278

> <i_lp_mmshare_version>
43012

> <i_f3d_flags>
0

> <s_epik_input>
W0NIM11uMVtjSF1jKFtjSF1uMSlbQ0BAXShbQ0gzXSkoW09IXSlbQ0gyXVtOSF1bQ0BASF0yW0NIMl1bQ0gyXVtDSDJdU1tDSDJdMg==

> <s_epik_cmdline>
J2VwaWtfcHl0aG9uJywgJy1waCcsICc3LjAnLCAnLXRuJywgJzgnLCAnLW1hJywgJzIwMCcsICctbWV0YWxfYmluZGluZycsICctaW1hZScsICc8aW5maWxlLm1hZT4nLCAnLW9tYWUnLCAnPG91dGZpbGUubWFlPic=

> <r_lp_tautomer_probability>
1

> <r_epik_Ionization_Penalty>
2.06123

> <r_epik_Ionization_Penalty_Charging>
0

> <r_epik_Ionization_Penalty_Neutral>
2.06123

> <r_epik_State_Penalty>
2.1944

> <r_epik_Charging_Adjusted_Penalty>
2.1944

> <i_epik_Tot_Q>
0

> <i_epik_Tot_abs_Q>
0

> <r_epik_Metal_State_Penalty>
2.19434

> <b_epik_Metal_Only>
0

> <s_lp_Force_Field>
OPLS_2005

> <r_lp_Energy>
8.30166

> <b_lp_Chiralities_Consistent>
1

> <s_lp_Variant>
AV-unprocessed.smi:3278-8

> <Gold.Version>
5.8.1

> <Gold.Id.Protein>
6NUR|6NUR_protein|mol2

> <Gold.PLP.Fitness>
44.0032

> <Gold.PLP.PLP>
-32.1200

> <Gold.PLP.part.hbond>
-3.7381

> <Gold.PLP.part.metal>
0.0000

> <Gold.PLP.part.buried>
-2.3314

> <Gold.PLP.part.nonpolar>
-25.8565

> <Gold.PLP.part.repulsive>
0.1053

> <Gold.PLP.ligand.clash>
0.0000

> <Gold.PLP.ligand.torsion>
0.0609

> <Gold.PLP.Chemscore.Hbond>
2.9816

> <Gold.PLP.Chemscore.CHOScore>
1.0000

> <Gold.PLP.Chemscore.Metal>
0.0000

> <Gold.Chemscore.Hbonds>
donor molecule, donor type, donor heavy atom, donor atom, acceptor molecule, acceptor atom, score
      L1  H     7    25       P1  7957  0.74
      L1  H     9    28       P1  8028  1.00
      P1  H  7989  7998       L1     7  0.35
      P1  H  8011  8017       L1     7  0.90
      L1  C     3    21       P1 10175  1.00

> <Gold.PLP.Chemscore.Internal.Correction>
0.0602

> <Gold.Rescore>
     Score         DG    S(hbond)    S(metal)    S(lipo)     H(rot)  DE(clash)    DE(int)     intcor
     18.13     -18.57       2.07        0.00      94.94       1.93       0.37       0.07       ----

> <Gold.Chemscore.Fitness>
18.1267

> <Gold.Chemscore.DG>
-18.5682

> <Gold.Chemscore.ZeroCoef>
-5.4800

> <Gold.Chemscore.Hbond>
2.0743

> <Gold.Chemscore.Metal>
0.0000

> <Gold.Chemscore.Lipo>
94.9423

> <Gold.Chemscore.Internal_Hbond>
0.0000

> <Gold.Chemscore.DEClash>
0.3749

> <Gold.Chemscore.DEInternal>
0.0666

> <Gold.Chemscore.Rot>
1.9329

> <Gold.Chemscore.Internal.Correction>
   9.000000E+99

> <Gold.Chemscore.Hbonds>
donor molecule, donor type, donor heavy atom, donor atom, acceptor molecule, acceptor atom, score
      L1  H     7    25       P1  7957  0.74
      L1  H     9    28       P1  8028  0.99
      P1  H  7989  7998       L1     7  0.08
      P1  H  8011  8017       L1     7  0.13

> <Gold.Chemscore.Hbond.Weighted>
-6.9282

> <Gold.Chemscore.Metal.Weighted>
-0.0000

> <Gold.Chemscore.Lipo.Weighted>
-11.1083

> <Gold.Chemscore.Internal_Hbond.Weighted>
0.0000

> <Gold.Chemscore.DEClash.Weighted>
0.3749

> <Gold.Chemscore.DEInternal.Weighted>
0.0666

> <Gold.Chemscore.Rot.Weighted>
4.9483

> <Gold.Chemscore.Internal.Correction.Weighted>
   9.000000E+99

> <Gold.Protein.RotatedTorsions>
[ 6907 6896 6895 6894 ] final  119.03 input  -60.11 | X-H torsion
[ 7974 7965 7964 7962 ] final  142.41 input  175.53 | X-H torsion
[ 8008 7997 7996 7995 ] final  -48.76 input   59.86 | X-H torsion
[ 10167 10162 10161 10158 ] final  -78.05 input  -65.29 | X-H torsion
[ 10718 10713 10712 10709 ] final   90.78 input   66.30 | X-H torsion
[ 10763 10752 10751 10750 ] final -158.55 input  -60.55 | X-H torsion
[ 11005 11000 10999 10996 ] final   92.76 input  -57.11 | X-H torsion

> <Gold.Protein.ActiveResidues>
 VAL166  LYS551  ARG553  GLY616  TRP617  ASP618  TYR619  PRO620  LYS621  CYS622 
 ASP623  PHE694  ASN695  SER759  ASP760  ASP761  ALA762  ILE779  LEU786  VAL792 
 PHE793  MET794  SER795  GLU796  ALA797  LYS798  CYS799  TRP800  GLU811  SER814 

> <Gold.Protein.RotatedAtoms>
  152.4501  133.7613  159.6747 H   0  0  0  0  0  0  0  0  0  0  0  0  # atno 6907 bound_to 6896
  150.8411  133.7925  159.3067 H   0  0  0  0  0  0  0  0  0  0  0  0  # atno 6908 bound_to 6896
  151.5549  135.1069  160.0010 H   0  0  0  0  0  0  0  0  0  0  0  0  # atno 6909 bound_to 6896
  144.9010  139.5424  143.5754 H   0  0  0  0  0  0  0  0  0  0  0  0  # atno 7974 bound_to 7965
  154.4033  140.1313  156.4391 H   0  0  0  0  0  0  0  0  0  0  0  0  # atno 8008 bound_to 7997
  155.7476  140.3488  155.5115 H   0  0  0  0  0  0  0  0  0  0  0  0  # atno 8009 bound_to 7997
  155.8980  140.1014  157.1361 H   0  0  0  0  0  0  0  0  0  0  0  0  # atno 8010 bound_to 7997
  140.4717  143.2425  151.8195 H   0  0  0  0  0  0  0  0  0  0  0  0  # atno 10167 bound_to 10162
  157.6959  131.0383  150.3630 H   0  0  0  0  0  0  0  0  0  0  0  0  # atno 10718 bound_to 10713
  154.7548  135.3102  154.8491 H   0  0  0  0  0  0  0  0  0  0  0  0  # atno 10763 bound_to 10752
  153.9268  135.6789  153.4750 H   0  0  0  0  0  0  0  0  0  0  0  0  # atno 10764 bound_to 10752
  153.1145  135.4851  154.9020 H   0  0  0  0  0  0  0  0  0  0  0  0  # atno 10765 bound_to 10752
  139.8819  134.8752  156.3620 H   0  0  0  0  0  0  0  0  0  0  0  0  # atno 11005 bound_to 11000
  146.3108  139.7739  142.9021 LP  0  0  0  0  0  0  0  0  0  0  0  0  # atno 17320 bound_to 7965
  145.3617  141.0327  143.3281 LP  0  0  0  0  0  0  0  0  0  0  0  0  # atno 17321 bound_to 7965
  139.4819  144.4884  151.9217 LP  0  0  0  0  0  0  0  0  0  0  0  0  # atno 17342 bound_to 10162
  140.3969  144.2543  150.5895 LP  0  0  0  0  0  0  0  0  0  0  0  0  # atno 17343 bound_to 10162
  156.4064  130.3925  149.6923 LP  0  0  0  0  0  0  0  0  0  0  0  0  # atno 17370 bound_to 10713
  156.4222  130.7774  151.2792 LP  0  0  0  0  0  0  0  0  0  0  0  0  # atno 17371 bound_to 10713
  140.9523  133.7443  156.0288 LP  0  0  0  0  0  0  0  0  0  0  0  0  # atno 17394 bound_to 11000
  140.8091  134.3420  157.5417 LP  0  0  0  0  0  0  0  0  0  0  0  0  # atno 17395 bound_to 11000

$$$$
