#       Name:                AV-unprocessed.smi:356
#       Creating user name   scv26
#       Creation time:       Thu Mar 26 22:34:47 2020


#       File generated by GOLD software.
#

@<TRIPOS>MOLECULE
AV-unprocessed.smi:356
    47    49     1
SMALL
NO_CHARGES


@<TRIPOS>ATOM
      1 ****        -2.3756   0.6018   3.3822 C.3            1 S1                 0.0000
      2 ****        -2.4662   1.2561   2.0446 C.2            1 S1                 0.0000
      3 ****        -2.9954   2.4858   1.7879 N.pl3          1 S1                 1.0000
      4 ****        -2.9074   2.7621   0.4225 C.ar           1 S1                 0.0000
      5 ****        -3.3076   3.8751  -0.3108 C.ar           1 S1                 0.0000
      6 ****        -3.0690   3.8363  -1.7005 C.ar           1 S1                 0.0000
      7 ****        -2.4554   2.7223  -2.3098 C.ar           1 S1                 0.0000
      8 ****        -2.0544   1.5995  -1.5560 C.ar           1 S1                 0.0000
      9 ****        -2.2937   1.6466  -0.1831 C.ar           1 S1                 0.0000
     10 ****        -2.0381   0.7447   0.8549 N.pl3          1 S1                 0.0000
     11 ****        -1.3872  -0.5384   0.5484 C.3            1 S1                 0.0000
     12 ****         0.1421  -0.4158   0.3987 C.3            1 S1                 0.0000
     13 ****         0.6856   0.1044   1.5957 O.3            1 S1                 0.0000
     14 ****         0.7918  -1.7854   0.1203 C.3            1 S1                 0.0000
     15 ****         2.2259  -1.7571  -0.1743 N.3            1 S1                 0.0000
     16 ****         2.5310  -1.1285  -1.4589 C.3            1 S1                 0.0000
     17 ****         4.0399  -1.1412  -1.7613 C.3            1 S1                 0.0000
     18 ****         4.5261  -2.4786  -1.7225 O.3            1 S1                 0.0000
     19 ****         4.2911  -3.1105  -0.4687 C.3            1 S1                 0.0000
     20 ****         2.7829  -3.1062  -0.1663 C.3            1 S1                 0.0000
     21 ****        -2.7764   1.2555   4.1572 H              1 S1                 0.0000
     22 ****        -1.3366   0.3764   3.6224 H              1 S1                 0.0000
     23 ****        -2.9436  -0.3287   3.3851 H              1 S1                 0.0000
     24 ****        -3.7777   4.7295   0.1536 H              1 S1                 0.0000
     25 ****        -3.3624   4.6777  -2.3114 H              1 S1                 0.0000
     26 ****        -2.2889   2.7290  -3.3773 H              1 S1                 0.0000
     27 ****        -1.5848   0.7509  -2.0312 H              1 S1                 0.0000
     28 ****        -1.6346  -1.2357   1.3498 H              1 S1                 0.0000
     29 ****        -1.8366  -0.9442  -0.3589 H              1 S1                 0.0000
     30 ****         0.3566   0.2839  -0.4076 H              1 S1                 0.0000
     31 ****         1.6257   0.1417   1.5021 H              1 S1                 0.0000
     32 ****         0.6166  -2.4220   0.9891 H              1 S1                 0.0000
     33 ****         0.2686  -2.2670  -0.7073 H              1 S1                 0.0000
     34 ****         1.9992  -1.6448  -2.2595 H              1 S1                 0.0000
     35 ****         2.1876  -0.0952  -1.4700 H              1 S1                 0.0000
     36 ****         4.2324  -0.7205  -2.7483 H              1 S1                 0.0000
     37 ****         4.5836  -0.5285  -1.0404 H              1 S1                 0.0000
     38 ****         4.6673  -4.1329  -0.5085 H              1 S1                 0.0000
     39 ****         4.8447  -2.5947   0.3174 H              1 S1                 0.0000
     40 ****         2.6118  -3.5717   0.8049 H              1 S1                 0.0000
     41 ****         2.2669  -3.7240  -0.9031 H              1 S1                 0.0000
     42 ****        -3.3871   3.0908   2.4982 H              1 S1                 0.0000
     43 ****         0.4453  -0.4902   2.3630 LP             1 S1                 0.0000
     44 ****         0.3252   1.0226   1.7600 LP             1 S1                 0.0000
     45 ****         2.6439  -1.2052   0.5473 LP             1 S1                 0.0000
     46 ****         5.5110  -2.4664  -1.8954 LP             1 S1                 0.0000
     47 ****         4.0686  -3.0065  -2.4380 LP             1 S1                 0.0000
@<TRIPOS>BOND
    1    1    2 1     
    2    1   21 1     
    3    1   22 1     
    4    1   23 1     
    5    2   10 1     
    6    2    3 2     
    7    3    4 1     
    8    3   42 1     
    9    4    9 ar    
   10    4    5 ar    
   11    5    6 ar    
   12    5   24 1     
   13    6    7 ar    
   14    6   25 1     
   15    7    8 ar    
   16    7   26 1     
   17    8    9 ar    
   18    8   27 1     
   19    9   10 1     
   20   10   11 1     
   21   11   12 1     
   22   11   28 1     
   23   11   29 1     
   24   12   13 1     
   25   12   14 1     
   26   12   30 1     
   27   13   31 1     
   28   14   15 1     
   29   14   32 1     
   30   14   33 1     
   31   15   20 1     
   32   15   16 1     
   33   16   17 1     
   34   16   34 1     
   35   16   35 1     
   36   17   18 1     
   37   17   36 1     
   38   17   37 1     
   39   18   19 1     
   40   19   20 1     
   41   19   38 1     
   42   19   39 1     
   43   20   40 1     
   44   20   41 1     
   45   13   43 1     
   46   13   44 1     
   47   15   45 1     
   48   18   46 1     
   49   18   47 1     
@<TRIPOS>SUBSTRUCTURE
      1 S1             1
@<TRIPOS>SET
LONE_PAIRS      STATIC     ATOMS    <user>   **** ""
5 43 44 45 46 47
DONOR_HYDROGENS      STATIC     ATOMS    <user>   **** ""
2 42 31
ATOM$BLUE        STATIC     ATOMS    COLORGROUP SYSTEM
5 43 44 45 46 47
ATOM$RED        STATIC     ATOMS    COLORGROUP SYSTEM
2 42 31
