#       Name:                AV-unprocessed.smi:380
#       Creating user name   scv26
#       Creation time:       Thu Mar 26 22:40:16 2020


#       File generated by GOLD software.
#

@<TRIPOS>MOLECULE
AV-unprocessed.smi:380
    46    47     1
SMALL
NO_CHARGES


@<TRIPOS>ATOM
      1 ****        -3.4709  -1.6357   2.6016 C.3            1 S1                 0.0000
      2 ****        -3.7407  -1.1855   1.1552 C.3            1 S1                 0.0000
      3 ****        -5.2498  -1.1127   0.8812 C.3            1 S1                 0.0000
      4 ****        -3.0412  -2.0889   0.1163 C.3            1 S1                 0.0000
      5 ****        -1.5942  -2.1410   0.2977 N.am           1 S1                 0.0000
      6 ****        -0.7338  -1.1836  -0.0787 C.2            1 S1                 0.0000
      7 ****        -1.0847  -0.1479  -0.6461 O.2            1 S1                 0.0000
      8 ****         0.7460  -1.4522   0.2337 C.3            1 S1                 0.0000
      9 ****         1.5826  -0.2327   0.1901 N.am           1 S1                 0.0000
     10 ****         1.6808   0.5603   1.3620 C.2            1 S1                 0.0000
     11 ****         1.0849   0.2449   2.3936 O.2            1 S1                 0.0000
     12 ****         2.5231   1.7486   1.2487 C.2            1 S1                 0.0000
     13 ****         2.6830   2.5469   2.4188 C.1            1 S1                 0.0000
     14 ****         2.8294   3.2090   3.3567 N.1            1 S1                 0.0000
     15 ****         3.1226   2.0667   0.0830 C.2            1 S1                 0.0000
     16 ****         2.9683   1.3125  -1.0597 N.am           1 S1                 0.0000
     17 ****         3.7234   1.5904  -2.2489 C.3            1 S1                 0.0000
     18 ****         3.6405   2.9698  -2.8660 C.3            1 S1                 0.0000
     19 ****         3.0153   1.7935  -3.5745 C.3            1 S1                 0.0000
     20 ****         2.2282   0.1105  -1.0227 C.2            1 S1                 0.0000
     21 ****         2.1460  -0.6185  -2.0142 O.2            1 S1                 0.0000
     22 ****        -3.8157  -2.6565   2.7684 H              1 S1                 0.0000
     23 ****        -3.9847  -0.9908   3.3149 H              1 S1                 0.0000
     24 ****        -2.4082  -1.5985   2.8422 H              1 S1                 0.0000
     25 ****        -3.3467  -0.1739   1.0472 H              1 S1                 0.0000
     26 ****        -5.7181  -2.0928   0.9767 H              1 S1                 0.0000
     27 ****        -5.4487  -0.7452  -0.1260 H              1 S1                 0.0000
     28 ****        -5.7447  -0.4375   1.5798 H              1 S1                 0.0000
     29 ****        -3.4252  -3.1067   0.1917 H              1 S1                 0.0000
     30 ****        -3.2688  -1.7514  -0.8964 H              1 S1                 0.0000
     31 ****        -1.2215  -2.9609   0.7543 H              1 S1                 0.0000
     32 ****         0.8206  -1.9325   1.2110 H              1 S1                 0.0000
     33 ****         1.1078  -2.2120  -0.4604 H              1 S1                 0.0000
     34 ****         3.7416   2.9514   0.0382 H              1 S1                 0.0000
     35 ****         4.6971   1.1067  -2.3026 H              1 S1                 0.0000
     36 ****         2.9648   3.6946  -2.4156 H              1 S1                 0.0000
     37 ****         4.5523   3.3850  -3.2903 H              1 S1                 0.0000
     38 ****         3.5112   1.4218  -4.4687 H              1 S1                 0.0000
     39 ****         1.9280   1.7456  -3.5912 H              1 S1                 0.0000
     40 ****        -2.0517   0.0094  -0.8465 LP             1 S1                 0.0000
     41 ****        -0.4025   0.5354  -0.9063 LP             1 S1                 0.0000
     42 ****         0.5216  -0.5811   2.4129 LP             1 S1                 0.0000
     43 ****         1.1647   0.8150   3.2113 LP             1 S1                 0.0000
     44 ****         2.9559   3.7811   4.1671 LP             1 S1                 0.0000
     45 ****         1.6175  -1.4662  -1.9691 LP             1 S1                 0.0000
     46 ****         2.6079  -0.3618  -2.8632 LP             1 S1                 0.0000
@<TRIPOS>BOND
    1    1    2 1     
    2    1   22 1     
    3    1   23 1     
    4    1   24 1     
    5    2    3 1     
    6    2    4 1     
    7    2   25 1     
    8    3   26 1     
    9    3   27 1     
   10    3   28 1     
   11    4    5 1     
   12    4   29 1     
   13    4   30 1     
   14    5    6 am    
   15    5   31 1     
   16    6    7 2     
   17    6    8 1     
   18    8    9 1     
   19    8   32 1     
   20    8   33 1     
   21    9   20 am    
   22    9   10 am    
   23   10   11 2     
   24   10   12 1     
   25   12   13 1     
   26   12   15 2     
   27   13   14 3     
   28   15   16 1     
   29   15   34 1     
   30   16   17 1     
   31   16   20 am    
   32   17   19 1     
   33   17   18 1     
   34   17   35 1     
   35   18   19 1     
   36   18   36 1     
   37   18   37 1     
   38   19   38 1     
   39   19   39 1     
   40   20   21 2     
   41    7   40 1     
   42    7   41 1     
   43   11   42 1     
   44   11   43 1     
   45   14   44 1     
   46   21   45 1     
   47   21   46 1     
@<TRIPOS>SUBSTRUCTURE
      1 S1             1
@<TRIPOS>SET
LONE_PAIRS      STATIC     ATOMS    <user>   **** ""
7 40 41 42 43 44 45 46
DONOR_HYDROGENS      STATIC     ATOMS    <user>   **** ""
1 31
ATOM$BLUE        STATIC     ATOMS    COLORGROUP SYSTEM
7 40 41 42 43 44 45 46
ATOM$RED        STATIC     ATOMS    COLORGROUP SYSTEM
1 31
