#       Name:                AV-unprocessed.smi:652
#       Creating user name   scv26
#       Creation time:       Fri Mar 27 00:12:13 2020


#       File generated by GOLD software.
#

@<TRIPOS>MOLECULE
AV-unprocessed.smi:652
    54    55     1
SMALL
NO_CHARGES


@<TRIPOS>ATOM
      1 ****        -2.7824   2.8892   0.6004 C.3            1 S1                 0.0000
      2 ****        -2.4780   2.7914  -0.9002 C.3            1 S1                 0.0000
      3 ****        -3.7521   2.8947  -1.7514 C.3            1 S1                 0.0000
      4 ****        -1.7897   1.5332  -1.1728 N.am           1 S1                 0.0000
      5 ****        -0.8342   1.3481  -2.0975 C.2            1 S1                 0.0000
      6 ****        -0.4353   2.2350  -2.8515 O.2            1 S1                 0.0000
      7 ****        -0.2298  -0.0545  -2.1809 C.3            1 S1                 0.0000
      8 ****         1.2882  -0.0293  -1.9095 C.3            1 S1                 0.0000
      9 ****         1.8925  -1.3874  -1.8154 N.4            1 S1                 1.0000
     10 ****         3.3697  -1.3816  -1.9554 C.3            1 S1                 0.0000
     11 ****         4.0527  -0.9084  -0.6570 C.3            1 S1                 0.0000
     12 ****         3.6249  -1.7133   0.4372 O.3            1 S1                 0.0000
     13 ****         2.2200  -1.6361   0.6538 C.3            1 S1                 0.0000
     14 ****         1.8811  -2.4465   1.9194 C.3            1 S1                 0.0000
     15 ****         0.4589  -2.4265   2.2487 N.pl3          1 S1                 0.0000
     16 ****        -0.1781  -1.2539   2.6803 C.ar           1 S1                 0.0000
     17 ****        -1.5865  -1.2087   2.6875 C.ar           1 S1                 0.0000
     18 ****        -2.1994  -0.0168   3.1115 C.ar           1 S1                 0.0000
     19 ****        -1.3557   1.0397   3.4997 C.ar           1 S1                 0.0000
     20 ****        -0.0076   0.9417   3.4733 N.ar           1 S1                 0.0000
     21 ****         0.5733  -0.1944   3.0718 N.ar           1 S1                 0.0000
     22 ****         1.5064  -2.1658  -0.6103 C.3            1 S1                 0.0000
     23 ****        -3.2807   3.8293   0.8384 H              1 S1                 0.0000
     24 ****        -1.8650   2.8470   1.1883 H              1 S1                 0.0000
     25 ****        -3.4295   2.0762   0.9315 H              1 S1                 0.0000
     26 ****        -1.8236   3.6264  -1.1571 H              1 S1                 0.0000
     27 ****        -4.2720   3.8345  -1.5641 H              1 S1                 0.0000
     28 ****        -4.4453   2.0821  -1.5313 H              1 S1                 0.0000
     29 ****        -3.5193   2.8560  -2.8161 H              1 S1                 0.0000
     30 ****        -2.0560   0.7421  -0.6047 H              1 S1                 0.0000
     31 ****        -0.7539  -0.6937  -1.4718 H              1 S1                 0.0000
     32 ****        -0.4270  -0.4665  -3.1711 H              1 S1                 0.0000
     33 ****         1.7680   0.5058  -2.7305 H              1 S1                 0.0000
     34 ****         1.5048   0.5494  -1.0115 H              1 S1                 0.0000
     35 ****         3.6967  -2.3972  -2.1829 H              1 S1                 0.0000
     36 ****         3.6758  -0.7662  -2.8021 H              1 S1                 0.0000
     37 ****         5.1351  -0.9948  -0.7526 H              1 S1                 0.0000
     38 ****         3.8389   0.1426  -0.4576 H              1 S1                 0.0000
     39 ****         1.9567  -0.5937   0.8297 H              1 S1                 0.0000
     40 ****         2.1809  -3.4855   1.7810 H              1 S1                 0.0000
     41 ****         2.4538  -2.0740   2.7696 H              1 S1                 0.0000
     42 ****        -0.1083  -3.2069   1.9501 H              1 S1                 0.0000
     43 ****        -2.1794  -2.0558   2.3751 H              1 S1                 0.0000
     44 ****        -3.2743   0.0849   3.1376 H              1 S1                 0.0000
     45 ****        -1.7671   1.9809   3.8328 H              1 S1                 0.0000
     46 ****         0.4270  -2.1730  -0.4761 H              1 S1                 0.0000
     47 ****         1.7883  -3.2071  -0.7723 H              1 S1                 0.0000
     48 ****         1.5385  -1.8932  -2.6148 H              1 S1                 0.0000
     49 ****        -0.8268   3.1534  -2.7943 LP             1 S1                 0.0000
     50 ****         0.2802   2.0373  -3.5215 LP             1 S1                 0.0000
     51 ****         4.0944  -1.4054   1.2647 LP             1 S1                 0.0000
     52 ****         3.8687  -2.6649   0.2501 LP             1 S1                 0.0000
     53 ****         0.5555   1.7189   3.7541 LP             1 S1                 0.0000
     54 ****         1.5708  -0.2634   3.0601 LP             1 S1                 0.0000
@<TRIPOS>BOND
    1    1    2 1     
    2    1   23 1     
    3    1   24 1     
    4    1   25 1     
    5    2    3 1     
    6    2    4 1     
    7    2   26 1     
    8    3   27 1     
    9    3   28 1     
   10    3   29 1     
   11    4    5 am    
   12    4   30 1     
   13    5    6 2     
   14    5    7 1     
   15    7    8 1     
   16    7   31 1     
   17    7   32 1     
   18    8    9 1     
   19    8   33 1     
   20    8   34 1     
   21    9   22 1     
   22    9   10 1     
   23    9   48 1     
   24   10   11 1     
   25   10   35 1     
   26   10   36 1     
   27   11   12 1     
   28   11   37 1     
   29   11   38 1     
   30   12   13 1     
   31   13   14 1     
   32   13   22 1     
   33   13   39 1     
   34   14   15 1     
   35   14   40 1     
   36   14   41 1     
   37   15   16 1     
   38   15   42 1     
   39   16   21 ar    
   40   16   17 ar    
   41   17   18 ar    
   42   17   43 1     
   43   18   19 ar    
   44   18   44 1     
   45   19   20 ar    
   46   19   45 1     
   47   20   21 ar    
   48   22   46 1     
   49   22   47 1     
   50    6   49 1     
   51    6   50 1     
   52   12   51 1     
   53   12   52 1     
   54   20   53 1     
   55   21   54 1     
@<TRIPOS>SUBSTRUCTURE
      1 S1             1
@<TRIPOS>SET
LONE_PAIRS      STATIC     ATOMS    <user>   **** ""
6 49 50 51 52 53 54
DONOR_HYDROGENS      STATIC     ATOMS    <user>   **** ""
3 30 48 42
ATOM$BLUE        STATIC     ATOMS    COLORGROUP SYSTEM
6 49 50 51 52 53 54
ATOM$RED        STATIC     ATOMS    COLORGROUP SYSTEM
3 30 48 42
