AV-unprocessed.smi:1019|AV-procd|sdf|4450|dock7
  -GOLD-   22720 2413D 1   1.00000     0.00000
 Structure written by MMmdl.
 45 47  0  0  0  0  0  0  0  0  3 V2000
  146.7615  139.1185  151.5442 C   0  0  0  0  0  0  0  0  0  0  0  0
  147.3211  138.3864  152.7053 N   0  3  2  0  0  0  0  0  0  0  0  0
  146.2696  137.7659  153.5527 C   0  0  0  0  0  0  0  0  0  0  0  0
  145.7446  136.4727  152.9545 C   0  0  0  0  0  0  0  0  0  0  0  0
  145.2502  136.4461  151.6328 C   0  0  0  0  0  0  0  0  0  0  0  0
  144.7695  135.2426  151.0815 C   0  0  0  0  0  0  0  0  0  0  0  0
  144.7788  134.0623  151.8497 C   0  0  0  0  0  0  0  0  0  0  0  0
  145.2680  134.0858  153.1699 C   0  0  0  0  0  0  0  0  0  0  0  0
  145.7492  135.2889  153.7221 C   0  0  0  0  0  0  0  0  0  0  0  0
  148.2741  139.2233  153.4793 C   0  0  0  0  0  0  0  0  0  0  0  0
  148.9942  138.4296  154.5881 C   0  0  1  0  0  0  0  0  0  0  0  0
  149.1240  137.0824  154.1754 O   0  0  0  0  0  0  0  0  0  0  0  0
  150.3929  139.0069  154.8834 C   0  0  0  0  0  0  0  0  0  0  0  0
  150.3470  140.3360  155.5077 N   0  0  0  0  0  0  0  0  0  0  0  0
  149.6794  141.4596  155.1267 C   0  0  0  0  0  0  0  0  0  0  0  0
  149.9552  142.4316  156.0399 N   0  3  0  0  0  0  0  0  0  0  0  0
  150.8099  141.9224  157.0198 C   0  0  0  0  0  0  0  0  0  0  0  0
  151.3642  142.5213  158.1467 C   0  0  0  0  0  0  0  0  0  0  0  0
  152.2001  141.7136  158.9458 C   0  0  0  0  0  0  0  0  0  0  0  0
  152.4577  140.3676  158.6131 C   0  0  0  0  0  0  0  0  0  0  0  0
  151.8911  139.7707  157.4674 C   0  0  0  0  0  0  0  0  0  0  0  0
  151.0653  140.5758  156.6839 C   0  0  0  0  0  0  0  0  0  0  0  0
  146.1600  139.9674  151.8714 H   0  0  0  0  0  0  0  0  0  0  0  0
  146.1354  138.4728  150.9289 H   0  0  0  0  0  0  0  0  0  0  0  0
  147.5600  139.4931  150.9029 H   0  0  0  0  0  0  0  0  0  0  0  0
  146.6617  137.5321  154.5421 H   0  0  0  0  0  0  0  0  0  0  0  0
  145.4521  138.4717  153.7094 H   0  0  0  0  0  0  0  0  0  0  0  0
  145.2415  137.3464  151.0359 H   0  0  0  0  0  0  0  0  0  0  0  0
  144.3936  135.2244  150.0690 H   0  0  0  0  0  0  0  0  0  0  0  0
  144.4100  133.1396  151.4263 H   0  0  0  0  0  0  0  0  0  0  0  0
  145.2737  133.1805  153.7591 H   0  0  0  0  0  0  0  0  0  0  0  0
  146.1238  135.2996  154.7354 H   0  0  0  0  0  0  0  0  0  0  0  0
  149.0296  139.6418  152.8120 H   0  0  0  0  0  0  0  0  0  0  0  0
  147.7400  140.0764  153.9009 H   0  0  0  0  0  0  0  0  0  0  0  0
  148.4087  138.4424  155.5068 H   0  0  0  0  0  0  0  0  0  0  0  0
  148.8528  137.0134  153.2724 H   0  0  0  0  0  0  0  0  0  0  0  0
  150.9402  138.3487  155.5599 H   0  0  0  0  0  0  0  0  0  0  0  0
  150.9881  139.0752  153.9718 H   0  0  0  0  0  0  0  0  0  0  0  0
  149.0459  141.5628  154.2575 H   0  0  0  0  0  0  0  0  0  0  0  0
  151.1680  143.5519  158.4046 H   0  0  0  0  0  0  0  0  0  0  0  0
  152.6519  142.1349  159.8323 H   0  0  0  0  0  0  0  0  0  0  0  0
  153.1027  139.7806  159.2510 H   0  0  0  0  0  0  0  0  0  0  0  0
  152.0941  138.7391  157.2219 H   0  0  0  0  0  0  0  0  0  0  0  0
  147.8687  137.6287  152.3216 H   0  0  0  0  0  0  0  0  0  0  0  0
  149.5844  143.3724  155.9961 H   0  0  0  0  0  0  0  0  0  0  0  0
  1  2  1  0  0  0  0
  1 23  1  0  0  0  0
  1 24  1  0  0  0  0
  1 25  1  0  0  0  0
  2  3  1  0  0  0  0
  2 10  1  0  0  0  0
  2 44  1  0  0  0  0
  3  4  1  0  0  0  0
  3 26  1  0  0  0  0
  3 27  1  0  0  0  0
  4  9  1  0  0  0  0
  4  5  2  0  0  0  0
  5  6  1  0  0  0  0
  5 28  1  0  0  0  0
  6  7  2  0  0  0  0
  6 29  1  0  0  0  0
  7  8  1  0  0  0  0
  7 30  1  0  0  0  0
  8  9  2  0  0  0  0
  8 31  1  0  0  0  0
  9 32  1  0  0  0  0
 10 11  1  0  0  0  0
 10 33  1  0  0  0  0
 10 34  1  0  0  0  0
 11 12  1  0  0  0  0
 11 13  1  0  0  0  0
 11 35  1  0  0  0  0
 12 36  1  0  0  0  0
 13 14  1  0  0  0  0
 13 37  1  0  0  0  0
 13 38  1  0  0  0  0
 14 22  1  0  0  0  0
 14 15  1  0  0  0  0
 15 16  2  0  0  0  0
 15 39  1  0  0  0  0
 16 17  1  0  0  0  0
 16 45  1  0  0  0  0
 17 22  2  0  0  0  0
 17 18  1  0  0  0  0
 18 19  2  0  0  0  0
 18 40  1  0  0  0  0
 19 20  1  0  0  0  0
 19 41  1  0  0  0  0
 20 21  2  0  0  0  0
 20 42  1  0  0  0  0
 21 22  1  0  0  0  0
 21 43  1  0  0  0  0
M  CHG  1   2   1
M  CHG  1  16   1
M  END
> <s_m_source_file>
AV-unprocessed.smi

> <i_m_source_file_index>
1019

> <i_lp_mmshare_version>
43012

> <i_f3d_flags>
0

> <s_epik_input>
W2NIXTFbY0hdW2NIXVtjSF1bY0hdYzFbQ0gyXU4oW0NIM10pW0NIMl1bQ0BIXShbT0hdKVtDSDJdbihbY0hdbjIpYyhjMjMpW2NIXVtjSF1bY0hdW2NIXTM=

> <s_epik_cmdline>
J2VwaWtfcHl0aG9uJywgJy1waCcsICc3LjAnLCAnLXRuJywgJzgnLCAnLW1hJywgJzIwMCcsICctbWV0YWxfYmluZGluZycsICctaW1hZScsICc8aW5maWxlLm1hZT4nLCAnLW9tYWUnLCAnPG91dGZpbGUubWFlPic=

> <r_epik_Ionization_Penalty>
1.5198

> <r_epik_Ionization_Penalty_Charging>
1.5198

> <r_epik_Ionization_Penalty_Neutral>
3.13312e-06

> <r_epik_State_Penalty>
1.624

> <r_epik_Charging_Adjusted_Penalty>
3.1438

> <i_epik_Tot_Q>
2

> <i_epik_Tot_abs_Q>
2

> <r_epik_Metal_State_Penalty>
5.67392

> <b_epik_Metal_Only>
0

> <s_lp_Force_Field>
OPLS_2005

> <r_lp_Energy>
24.6792

> <b_lp_Chiralities_Consistent>
1

> <s_lp_Variant>
AV-unprocessed.smi:1019-8

> <Gold.Version>
5.8.1

> <Gold.Id.Protein>
6NUR|6NUR_protein|mol2

> <Gold.PLP.Fitness>
51.8013

> <Gold.PLP.PLP>
-38.1409

> <Gold.PLP.part.hbond>
-3.1793

> <Gold.PLP.part.metal>
0.0000

> <Gold.PLP.part.buried>
0.4682

> <Gold.PLP.part.nonpolar>
-36.4447

> <Gold.PLP.part.repulsive>
0.1899

> <Gold.PLP.ligand.clash>
0.0000

> <Gold.PLP.ligand.torsion>
0.7556

> <Gold.PLP.Chemscore.Hbond>
4.9920

> <Gold.PLP.Chemscore.CHOScore>
0.0000

> <Gold.PLP.Chemscore.Metal>
0.0000

> <Gold.Chemscore.Hbonds>
donor molecule, donor type, donor heavy atom, donor atom, acceptor molecule, acceptor atom, score
      L1  H     2    44       P1  7948  2.00
      L1  H    12    36       P1  7948  0.96
      L1  H    16    45       P1  8028  2.00

> <Gold.PLP.Chemscore.Internal.Correction>
0.1956

> <Gold.Rescore>
     Score         DG    S(hbond)    S(metal)    S(lipo)     H(rot)  DE(clash)    DE(int)     intcor
     17.71     -19.97       2.94        0.00      93.76       2.46       1.53       0.72       ----

> <Gold.Chemscore.Fitness>
17.7122

> <Gold.Chemscore.DG>
-19.9692

> <Gold.Chemscore.ZeroCoef>
-5.4800

> <Gold.Chemscore.Hbond>
2.9354

> <Gold.Chemscore.Metal>
0.0000

> <Gold.Chemscore.Lipo>
93.7650

> <Gold.Chemscore.Internal_Hbond>
0.0000

> <Gold.Chemscore.DEClash>
1.5343

> <Gold.Chemscore.DEInternal>
0.7227

> <Gold.Chemscore.Rot>
2.4552

> <Gold.Chemscore.Internal.Correction>
   9.000000E+99

> <Gold.Chemscore.Hbonds>
donor molecule, donor type, donor heavy atom, donor atom, acceptor molecule, acceptor atom, score
      L1  H     2    44       P1  7948  1.00
      L1  H    12    36       P1  7948  0.91
      L1  H    16    45       P1  8028  0.95

> <Gold.Chemscore.Hbond.Weighted>
-9.8041

> <Gold.Chemscore.Metal.Weighted>
-0.0000

> <Gold.Chemscore.Lipo.Weighted>
-10.9705

> <Gold.Chemscore.Internal_Hbond.Weighted>
0.0000

> <Gold.Chemscore.DEClash.Weighted>
1.5343

> <Gold.Chemscore.DEInternal.Weighted>
0.7227

> <Gold.Chemscore.Rot.Weighted>
6.2854

> <Gold.Chemscore.Internal.Correction.Weighted>
   9.000000E+99

> <Gold.Protein.RotatedTorsions>
[ 6907 6896 6895 6894 ] final   40.77 input  -60.11 | X-H torsion
[ 7974 7965 7964 7962 ] final   68.43 input  175.53 | X-H torsion
[ 8008 7997 7996 7995 ] final  -81.05 input   59.86 | X-H torsion
[ 10167 10162 10161 10158 ] final  -68.05 input  -65.29 | X-H torsion
[ 10718 10713 10712 10709 ] final  -87.18 input   66.30 | X-H torsion
[ 10763 10752 10751 10750 ] final   23.99 input  -60.55 | X-H torsion
[ 11005 11000 10999 10996 ] final -138.97 input  -57.11 | X-H torsion

> <Gold.Protein.ActiveResidues>
 VAL166  LYS551  ARG553  GLY616  TRP617  ASP618  TYR619  PRO620  LYS621  CYS622 
 ASP623  PHE694  ASN695  SER759  ASP760  ASP761  ALA762  ILE779  LEU786  VAL792 
 PHE793  MET794  SER795  GLU796  ALA797  LYS798  CYS799  TRP800  GLU811  SER814 

> <Gold.Protein.RotatedAtoms>
  152.1867  134.8707  160.0521 H   0  0  0  0  0  0  0  0  0  0  0  0  # atno 6907 bound_to 6896
  151.9612  133.3691  159.4044 H   0  0  0  0  0  0  0  0  0  0  0  0  # atno 6908 bound_to 6896
  150.6927  134.4162  159.5228 H   0  0  0  0  0  0  0  0  0  0  0  0  # atno 6909 bound_to 6896
  145.8026  139.2990  143.1146 H   0  0  0  0  0  0  0  0  0  0  0  0  # atno 7974 bound_to 7965
  154.5944  140.0653  156.9283 H   0  0  0  0  0  0  0  0  0  0  0  0  # atno 8008 bound_to 7997
  155.2239  140.3332  155.4293 H   0  0  0  0  0  0  0  0  0  0  0  0  # atno 8009 bound_to 7997
  156.2277  140.1827  156.7305 H   0  0  0  0  0  0  0  0  0  0  0  0  # atno 8010 bound_to 7997
  140.5537  143.2312  151.6863 H   0  0  0  0  0  0  0  0  0  0  0  0  # atno 10167 bound_to 10162
  155.9986  130.4791  150.4827 H   0  0  0  0  0  0  0  0  0  0  0  0  # atno 10718 bound_to 10713
  153.0797  135.6615  154.0071 H   0  0  0  0  0  0  0  0  0  0  0  0  # atno 10763 bound_to 10752
  153.9696  135.2966  155.3429 H   0  0  0  0  0  0  0  0  0  0  0  0  # atno 10764 bound_to 10752
  154.7193  135.5171  153.8858 H   0  0  0  0  0  0  0  0  0  0  0  0  # atno 10765 bound_to 10752
  140.8565  134.2222  157.4731 H   0  0  0  0  0  0  0  0  0  0  0  0  # atno 11005 bound_to 11000
  145.9861  140.8642  143.0090 LP  0  0  0  0  0  0  0  0  0  0  0  0  # atno 17320 bound_to 7965
  144.6767  140.2149  143.7373 LP  0  0  0  0  0  0  0  0  0  0  0  0  # atno 17321 bound_to 7965
  139.5038  144.3777  152.0407 LP  0  0  0  0  0  0  0  0  0  0  0  0  # atno 17342 bound_to 10162
  140.2896  144.3768  150.6093 LP  0  0  0  0  0  0  0  0  0  0  0  0  # atno 17343 bound_to 10162
  157.2831  131.0611  151.2184 LP  0  0  0  0  0  0  0  0  0  0  0  0  # atno 17370 bound_to 10713
  157.3224  130.6943  149.6276 LP  0  0  0  0  0  0  0  0  0  0  0  0  # atno 17371 bound_to 10713
  139.8705  134.9709  156.4717 LP  0  0  0  0  0  0  0  0  0  0  0  0  # atno 17394 bound_to 11000
  140.8731  133.7973  155.9386 LP  0  0  0  0  0  0  0  0  0  0  0  0  # atno 17395 bound_to 11000

$$$$
