AV-unprocessed.smi:114|AV-procd|sdf|1107|dock1
  -GOLD-   2262018223D 1   1.00000     0.00000
 Structure written by MMmdl.
 32 34  0  0  0  0  0  0  0  0  1 V2000
  154.6232  137.3924  156.3449 N   0  0  0  0  0  0  0  0  0  0  0  0
  153.5445  138.1327  156.6362 C   0  0  0  0  0  0  0  0  0  0  0  0
  153.5830  138.9253  157.7328 N   0  0  0  0  0  0  0  0  0  0  0  0
  152.5272  139.6820  158.0594 C   0  0  0  0  0  0  0  0  0  0  0  0
  152.6549  140.4436  159.1711 F   0  0  0  0  0  0  0  0  0  0  0  0
  151.3602  139.7698  157.4112 N   0  0  0  0  0  0  0  0  0  0  0  0
  151.3204  138.9705  156.3064 C   0  0  0  0  0  0  0  0  0  0  0  0
  152.3663  138.1258  155.8505 C   0  0  0  0  0  0  0  0  0  0  0  0
  151.9718  137.4664  154.6934 N   0  0  0  0  0  0  0  0  0  0  0  0
  150.7581  137.9024  154.4815 C   0  0  0  0  0  0  0  0  0  0  0  0
  150.2903  138.8105  155.4078 N   0  0  0  0  0  0  0  0  0  0  0  0
  148.9682  139.5044  155.4630 C   0  0  2  0  0  0  0  0  0  0  0  0
  147.9796  138.5774  155.1637 O   0  0  0  0  0  0  0  0  0  0  0  0
  146.8423  139.2949  154.7133 C   0  0  2  0  0  0  0  0  0  0  0  0
  145.8860  138.3491  153.9719 C   0  0  0  0  0  0  0  0  0  0  0  0
  144.5529  138.7795  154.1445 O   0  0  0  0  0  0  0  0  0  0  0  0
  147.4583  140.3760  153.8133 C   0  0  1  0  0  0  0  0  0  0  0  0
  146.6632  141.5443  153.8463 O   0  0  0  0  0  0  0  0  0  0  0  0
  148.8326  140.6423  154.4305 C   0  0  2  0  0  0  0  0  0  0  0  0
  149.8402  140.6441  153.4342 O   0  0  0  0  0  0  0  0  0  0  0  0
  148.8600  139.8454  156.4941 H   0  0  0  0  0  0  0  0  0  0  0  0
  146.3522  139.7575  155.5733 H   0  0  0  0  0  0  0  0  0  0  0  0
  147.5527  140.0116  152.7889 H   0  0  0  0  0  0  0  0  0  0  0  0
  148.8685  141.5900  154.9700 H   0  0  0  0  0  0  0  0  0  0  0  0
  154.6180  136.7938  155.5314 H   0  0  0  0  0  0  0  0  0  0  0  0
  155.4383  137.4332  156.9394 H   0  0  0  0  0  0  0  0  0  0  0  0
  150.1700  137.5730  153.6373 H   0  0  0  0  0  0  0  0  0  0  0  0
  146.0989  138.3637  152.9027 H   0  0  0  0  0  0  0  0  0  0  0  0
  146.0016  137.3195  154.3118 H   0  0  0  0  0  0  0  0  0  0  0  0
  144.3878  139.4947  153.5493 H   0  0  0  0  0  0  0  0  0  0  0  0
  147.0823  142.1758  154.4112 H   0  0  0  0  0  0  0  0  0  0  0  0
  149.5905  140.0366  152.7549 H   0  0  0  0  0  0  0  0  0  0  0  0
  1  2  1  0  0  0  0
  1 25  1  0  0  0  0
  1 26  1  0  0  0  0
  2  8  1  0  0  0  0
  2  3  2  0  0  0  0
  3  4  1  0  0  0  0
  4  5  1  0  0  0  0
  4  6  2  0  0  0  0
  6  7  1  0  0  0  0
  7 11  1  0  0  0  0
  7  8  2  0  0  0  0
  8  9  1  0  0  0  0
  9 10  2  0  0  0  0
 10 11  1  0  0  0  0
 10 27  1  0  0  0  0
 11 12  1  0  0  0  0
 12 21  1  0  0  0  0
 12 19  1  0  0  0  0
 12 13  1  0  0  0  0
 13 14  1  0  0  0  0
 14 22  1  0  0  0  0
 14 15  1  0  0  0  0
 14 17  1  0  0  0  0
 15 16  1  0  0  0  0
 15 28  1  0  0  0  0
 15 29  1  0  0  0  0
 16 30  1  0  0  0  0
 17 23  1  0  0  0  0
 17 18  1  0  0  0  0
 17 19  1  0  0  0  0
 18 31  1  0  0  0  0
 19 24  1  0  0  0  0
 19 20  1  0  0  0  0
 20 32  1  0  0  0  0
M  END
> <s_m_source_file>
AV-unprocessed.smi

> <i_m_source_file_index>
114

> <i_lp_mmshare_version>
43012

> <i_f3d_flags>
0

> <s_epik_input>
RmMobjEpbmMoW05IMl0pYyhjMTIpbltjSF1uMltDQEBIXTNPW0NASF0oW0NIMl1bT0hdKVtDQEBIXShbT0hdKVtDQEBIXTNbT0hd

> <s_epik_cmdline>
J2VwaWtfcHl0aG9uJywgJy1waCcsICc3LjAnLCAnLXRuJywgJzgnLCAnLW1hJywgJzIwMCcsICctbWV0YWxfYmluZGluZycsICctaW1hZScsICc8aW5maWxlLm1hZT4nLCAnLW9tYWUnLCAnPG91dGZpbGUubWFlPic=

> <r_lp_tautomer_probability>
1

> <r_epik_Ionization_Penalty>
1.13199e-05

> <r_epik_Ionization_Penalty_Charging>
0

> <r_epik_Ionization_Penalty_Neutral>
1.13199e-05

> <r_epik_State_Penalty>
-0

> <r_epik_Charging_Adjusted_Penalty>
0

> <i_epik_Tot_Q>
0

> <i_epik_Tot_abs_Q>
0

> <r_epik_Metal_State_Penalty>
-0

> <b_epik_Metal_Only>
0

> <s_epik_Chemistry_Notes>
This compound contains an acetal/aminal-like group ( X-CH(R)-Y where X, Y are N, S, or O) that may be acid/base labile, releasing an aldehyde.

> <s_lp_Force_Field>
OPLS_2005

> <r_lp_Energy>
35.9839

> <b_lp_Chiralities_Consistent>
1

> <s_lp_Variant>
AV-unprocessed.smi:114-1

> <Gold.Version>
5.8.1

> <Gold.Id.Protein>
6NUR|6NUR_protein|mol2

> <Gold.PLP.Fitness>
37.4654

> <Gold.PLP.PLP>
-21.9582

> <Gold.PLP.part.hbond>
-4.7995

> <Gold.PLP.part.metal>
0.0000

> <Gold.PLP.part.buried>
-2.5990

> <Gold.PLP.part.nonpolar>
-15.9926

> <Gold.PLP.part.repulsive>
1.3725

> <Gold.PLP.ligand.clash>
0.0000

> <Gold.PLP.ligand.torsion>
0.8754

> <Gold.PLP.Chemscore.Hbond>
4.6770

> <Gold.PLP.Chemscore.CHOScore>
1.0714

> <Gold.PLP.Chemscore.Metal>
0.0000

> <Gold.Chemscore.Hbonds>
donor molecule, donor type, donor heavy atom, donor atom, acceptor molecule, acceptor atom, score
      L1  H    16    30       P1 10175  1.00
      L1  H    20    32       P1  7957  0.70
      P1  H  7989  7998       L1    20  0.38
      P1  H  7997  8010       L1     3  0.85
      P1  H  8011  8017       L1    20  0.83
      P1  H 10752 10764       L1     9  0.70
      L1  C    10    27       P1  7948  1.00
      L1  C    10    27       P1  7949  0.05

> <Gold.PLP.Chemscore.Internal.Correction>
0.0129

> <Gold.Rescore>
     Score         DG    S(hbond)    S(metal)    S(lipo)     H(rot)  DE(clash)    DE(int)     intcor
      6.67      -8.19       3.05        0.00      24.19       4.03       0.52       1.00       ----

> <Gold.Chemscore.Fitness>
6.6696

> <Gold.Chemscore.DG>
-8.1882

> <Gold.Chemscore.ZeroCoef>
-5.4800

> <Gold.Chemscore.Hbond>
3.0506

> <Gold.Chemscore.Metal>
0.0000

> <Gold.Chemscore.Lipo>
24.1883

> <Gold.Chemscore.Internal_Hbond>
0.0000

> <Gold.Chemscore.DEClash>
0.5170

> <Gold.Chemscore.DEInternal>
1.0016

> <Gold.Chemscore.Rot>
4.0277

> <Gold.Chemscore.Internal.Correction>
   9.000000E+99

> <Gold.Chemscore.Hbonds>
donor molecule, donor type, donor heavy atom, donor atom, acceptor molecule, acceptor atom, score
      L1  H    16    30       P1 10175  0.99
      L1  H    20    32       P1  7957  0.69
      P1  H  7989  7998       L1    20  0.30
      P1  H  7997  8010       L1     3  0.08
      P1  H  8011  8017       L1    20  0.15
      P1  H 10752 10764       L1     9  0.63

> <Gold.Chemscore.Hbond.Weighted>
-10.1892

> <Gold.Chemscore.Metal.Weighted>
-0.0000

> <Gold.Chemscore.Lipo.Weighted>
-2.8300

> <Gold.Chemscore.Internal_Hbond.Weighted>
0.0000

> <Gold.Chemscore.DEClash.Weighted>
0.5170

> <Gold.Chemscore.DEInternal.Weighted>
1.0016

> <Gold.Chemscore.Rot.Weighted>
10.3110

> <Gold.Chemscore.Internal.Correction.Weighted>
   9.000000E+99

> <Gold.Protein.RotatedTorsions>
[ 6907 6896 6895 6894 ] final  172.50 input  -60.11 | X-H torsion
[ 7974 7965 7964 7962 ] final   -9.69 input  175.53 | X-H torsion
[ 8008 7997 7996 7995 ] final   19.41 input   59.86 | X-H torsion
[ 10167 10162 10161 10158 ] final  -77.36 input  -65.29 | X-H torsion
[ 10718 10713 10712 10709 ] final  122.24 input   66.30 | X-H torsion
[ 10763 10752 10751 10750 ] final  -82.31 input  -60.55 | X-H torsion
[ 11005 11000 10999 10996 ] final -152.29 input  -57.11 | X-H torsion

> <Gold.Protein.ActiveResidues>
 VAL166  LYS551  ARG553  GLY616  TRP617  ASP618  TYR619  PRO620  LYS621  CYS622 
 ASP623  PHE694  ASN695  SER759  ASP760  ASP761  ALA762  ILE779  LEU786  VAL792 
 PHE793  MET794  SER795  GLU796  ALA797  LYS798  CYS799  TRP800  GLU811  SER814 

> <Gold.Protein.RotatedAtoms>
  151.7833  133.3352  159.3477 H   0  0  0  0  0  0  0  0  0  0  0  0  # atno 6907 bound_to 6896
  150.7418  134.5911  159.5997 H   0  0  0  0  0  0  0  0  0  0  0  0  # atno 6908 bound_to 6896
  152.3261  134.7320  160.0353 H   0  0  0  0  0  0  0  0  0  0  0  0  # atno 6909 bound_to 6896
  146.2244  140.2653  142.8354 H   0  0  0  0  0  0  0  0  0  0  0  0  # atno 7974 bound_to 7965
  154.9203  140.3026  155.5219 H   0  0  0  0  0  0  0  0  0  0  0  0  # atno 8008 bound_to 7997
  156.3010  140.2372  156.4189 H   0  0  0  0  0  0  0  0  0  0  0  0  # atno 8009 bound_to 7997
  154.8337  140.0417  157.1483 H   0  0  0  0  0  0  0  0  0  0  0  0  # atno 8010 bound_to 7997
  140.4777  143.2410  151.8107 H   0  0  0  0  0  0  0  0  0  0  0  0  # atno 10167 bound_to 10162
  157.5757  131.1079  150.8283 H   0  0  0  0  0  0  0  0  0  0  0  0  # atno 10718 bound_to 10713
  154.5742  135.5595  153.7124 H   0  0  0  0  0  0  0  0  0  0  0  0  # atno 10763 bound_to 10752
  153.0059  135.6304  154.2072 H   0  0  0  0  0  0  0  0  0  0  0  0  # atno 10764 bound_to 10752
  154.2012  135.2878  155.2970 H   0  0  0  0  0  0  0  0  0  0  0  0  # atno 10765 bound_to 10752
  140.7204  134.3733  157.5184 H   0  0  0  0  0  0  0  0  0  0  0  0  # atno 11005 bound_to 11000
  144.9308  140.7973  143.5690 LP  0  0  0  0  0  0  0  0  0  0  0  0  # atno 17320 bound_to 7965
  145.2597  139.1997  143.4899 LP  0  0  0  0  0  0  0  0  0  0  0  0  # atno 17321 bound_to 7965
  139.4828  144.4812  151.9304 LP  0  0  0  0  0  0  0  0  0  0  0  0  # atno 17342 bound_to 10162
  140.3897  144.2631  150.5901 LP  0  0  0  0  0  0  0  0  0  0  0  0  # atno 17343 bound_to 10162
  156.8742  130.5157  149.5295 LP  0  0  0  0  0  0  0  0  0  0  0  0  # atno 17370 bound_to 10713
  156.0802  130.5814  150.9549 LP  0  0  0  0  0  0  0  0  0  0  0  0  # atno 17371 bound_to 10713
  139.8849  134.8951  156.2673 LP  0  0  0  0  0  0  0  0  0  0  0  0  # atno 17394 bound_to 11000
  141.0008  133.7152  156.0957 LP  0  0  0  0  0  0  0  0  0  0  0  0  # atno 17395 bound_to 11000

$$$$
