AV-unprocessed.smi:957|AV-procd|sdf|4265|dock1
  -GOLD-   22720 2173D 1   1.00000     0.00000
 Structure written by MMmdl.
 30 31  0  0  0  0  0  0  0  0  2 V2000
  152.6082  144.4082  158.3886 C   0  0  0  0  0  0  0  0  0  0  0  0
  152.5676  143.4267  159.5662 C   0  0  0  0  0  0  0  0  0  0  0  0
  152.7691  142.0548  159.1331 N   0  0  0  0  0  0  0  0  0  0  0  0
  153.7666  141.2233  159.4716 C   0  0  0  0  0  0  0  0  0  0  0  0
  153.7023  140.0108  158.9248 N   0  0  0  0  0  0  0  0  0  0  0  0
  152.5588  140.0388  158.1545 N   0  0  0  0  0  0  0  0  0  0  0  0
  152.0456  141.2668  158.3069 C   0  0  0  0  0  0  0  0  0  0  0  0
  150.7783  141.7151  157.6328 C   0  0  2  0  0  0  0  0  0  0  0  0
  149.5721  140.8461  158.0379 C   0  0  0  0  0  0  0  0  0  0  0  0
  148.3004  141.3218  157.3191 C   0  0  0  0  0  0  0  0  0  0  0  0
  148.5132  141.3623  155.7969 C   0  0  0  0  0  0  0  0  0  0  0  0
  149.6753  142.2106  155.4539 N   0  3  0  0  0  0  0  0  0  0  0  0
  150.9294  141.7614  156.0981 C   0  0  0  0  0  0  0  0  0  0  0  0
  152.4426  145.4298  158.7309 H   0  0  0  0  0  0  0  0  0  0  0  0
  151.8349  144.1744  157.6562 H   0  0  0  0  0  0  0  0  0  0  0  0
  153.5707  144.3820  157.8777 H   0  0  0  0  0  0  0  0  0  0  0  0
  153.3214  143.6810  160.3115 H   0  0  0  0  0  0  0  0  0  0  0  0
  151.6022  143.4933  160.0692 H   0  0  0  0  0  0  0  0  0  0  0  0
  154.5648  141.5124  160.1394 H   0  0  0  0  0  0  0  0  0  0  0  0
  150.5586  142.7313  157.9575 H   0  0  0  0  0  0  0  0  0  0  0  0
  149.7614  139.8019  157.7851 H   0  0  0  0  0  0  0  0  0  0  0  0
  149.4244  140.8833  159.1177 H   0  0  0  0  0  0  0  0  0  0  0  0
  147.4660  140.6629  157.5622 H   0  0  0  0  0  0  0  0  0  0  0  0
  148.0251  142.3143  157.6783 H   0  0  0  0  0  0  0  0  0  0  0  0
  148.6765  140.3558  155.4092 H   0  0  0  0  0  0  0  0  0  0  0  0
  147.6259  141.7558  155.3005 H   0  0  0  0  0  0  0  0  0  0  0  0
  149.8019  142.2035  154.4517 H   0  0  0  0  0  0  0  0  0  0  0  0
  151.7329  142.4427  155.8163 H   0  0  0  0  0  0  0  0  0  0  0  0
  151.1937  140.7780  155.7066 H   0  0  0  0  0  0  0  0  0  0  0  0
  149.4817  143.1562  155.7511 H   0  0  0  0  0  0  0  0  0  0  0  0
  1  2  1  0  0  0  0
  1 14  1  0  0  0  0
  1 15  1  0  0  0  0
  1 16  1  0  0  0  0
  2  3  1  0  0  0  0
  2 17  1  0  0  0  0
  2 18  1  0  0  0  0
  3  7  1  0  0  0  0
  3  4  1  0  0  0  0
  4  5  2  0  0  0  0
  4 19  1  0  0  0  0
  5  6  1  0  0  0  0
  6  7  2  0  0  0  0
  7  8  1  0  0  0  0
  8 13  1  0  0  0  0
  8  9  1  0  0  0  0
  8 20  1  0  0  0  0
  9 10  1  0  0  0  0
  9 21  1  0  0  0  0
  9 22  1  0  0  0  0
 10 11  1  0  0  0  0
 10 23  1  0  0  0  0
 10 24  1  0  0  0  0
 11 12  1  0  0  0  0
 11 25  1  0  0  0  0
 11 26  1  0  0  0  0
 12 13  1  0  0  0  0
 12 27  1  0  0  0  0
 12 30  1  0  0  0  0
 13 28  1  0  0  0  0
 13 29  1  0  0  0  0
M  CHG  1  12   1
M  END
> <s_m_source_file>
AV-unprocessed.smi

> <i_m_source_file_index>
957

> <i_lp_mmshare_version>
43012

> <i_f3d_flags>
0

> <s_epik_input>
W0NIM11bQ0gyXW4xW2NIXW5uYzFbQ0BASF0yW0NIMl1bQ0gyXVtDSDJdW05IXVtDSDJdMg==

> <s_epik_cmdline>
J2VwaWtfcHl0aG9uJywgJy1waCcsICc3LjAnLCAnLXRuJywgJzgnLCAnLW1hJywgJzIwMCcsICctbWV0YWxfYmluZGluZycsICctaW1hZScsICc8aW5maWxlLm1hZT4nLCAnLW9tYWUnLCAnPG91dGZpbGUubWFlPic=

> <r_lp_tautomer_probability>
1

> <r_epik_Ionization_Penalty>
0.000442722

> <r_epik_Ionization_Penalty_Charging>
0.000426856

> <r_epik_Ionization_Penalty_Neutral>
1.58656e-05

> <r_epik_State_Penalty>
-0

> <r_epik_Charging_Adjusted_Penalty>
0.000426856

> <i_epik_Tot_Q>
1

> <i_epik_Tot_abs_Q>
1

> <r_epik_Metal_State_Penalty>
-0

> <b_epik_Metal_Only>
0

> <s_lp_Force_Field>
OPLS_2005

> <r_lp_Energy>
16.0383

> <b_lp_Chiralities_Consistent>
1

> <s_lp_Variant>
AV-unprocessed.smi:957-1

> <Gold.Version>
5.8.1

> <Gold.Id.Protein>
6NUR|6NUR_protein|mol2

> <Gold.PLP.Fitness>
35.6791

> <Gold.PLP.PLP>
-27.6686

> <Gold.PLP.part.hbond>
-2.6482

> <Gold.PLP.part.metal>
0.0000

> <Gold.PLP.part.buried>
-3.8298

> <Gold.PLP.part.nonpolar>
-20.7428

> <Gold.PLP.part.repulsive>
0.1802

> <Gold.PLP.ligand.clash>
0.0000

> <Gold.PLP.ligand.torsion>
0.0282

> <Gold.PLP.Chemscore.Hbond>
2.6800

> <Gold.PLP.Chemscore.CHOScore>
0.0000

> <Gold.PLP.Chemscore.Metal>
0.0000

> <Gold.Chemscore.Hbonds>
donor molecule, donor type, donor heavy atom, donor atom, acceptor molecule, acceptor atom, score
      L1  H    12    30       P1  8028  2.00
      P1  H  7997  8008       L1     5  0.53

> <Gold.PLP.Chemscore.Internal.Correction>
0.0269

> <Gold.Rescore>
     Score         DG    S(hbond)    S(metal)    S(lipo)     H(rot)  DE(clash)    DE(int)     intcor
     11.67     -12.00       1.12        0.00      51.39       1.26       0.15       0.18       ----

> <Gold.Chemscore.Fitness>
11.6669

> <Gold.Chemscore.DG>
-12.0007

> <Gold.Chemscore.ZeroCoef>
-5.4800

> <Gold.Chemscore.Hbond>
1.1157

> <Gold.Chemscore.Metal>
0.0000

> <Gold.Chemscore.Lipo>
51.3921

> <Gold.Chemscore.Internal_Hbond>
0.0000

> <Gold.Chemscore.DEClash>
0.1550

> <Gold.Chemscore.DEInternal>
0.1788

> <Gold.Chemscore.Rot>
1.2573

> <Gold.Chemscore.Internal.Correction>
   9.000000E+99

> <Gold.Chemscore.Hbonds>
donor molecule, donor type, donor heavy atom, donor atom, acceptor molecule, acceptor atom, score
      L1  H    12    30       P1  8028  0.99
      P1  H  7997  8008       L1     5  0.04

> <Gold.Chemscore.Hbond.Weighted>
-3.7266

> <Gold.Chemscore.Metal.Weighted>
-0.0000

> <Gold.Chemscore.Lipo.Weighted>
-6.0129

> <Gold.Chemscore.Internal_Hbond.Weighted>
0.0000

> <Gold.Chemscore.DEClash.Weighted>
0.1550

> <Gold.Chemscore.DEInternal.Weighted>
0.1788

> <Gold.Chemscore.Rot.Weighted>
3.2188

> <Gold.Chemscore.Internal.Correction.Weighted>
   9.000000E+99

> <Gold.Protein.RotatedTorsions>
[ 6907 6896 6895 6894 ] final -103.47 input  -60.11 | X-H torsion
[ 7974 7965 7964 7962 ] final  137.99 input  175.53 | X-H torsion
[ 8008 7997 7996 7995 ] final -121.48 input   59.86 | X-H torsion
[ 10167 10162 10161 10158 ] final -160.11 input  -65.29 | X-H torsion
[ 10718 10713 10712 10709 ] final   99.73 input   66.30 | X-H torsion
[ 10763 10752 10751 10750 ] final  161.63 input  -60.55 | X-H torsion
[ 11005 11000 10999 10996 ] final   91.16 input  -57.11 | X-H torsion

> <Gold.Protein.ActiveResidues>
 VAL166  LYS551  ARG553  GLY616  TRP617  ASP618  TYR619  PRO620  LYS621  CYS622 
 ASP623  PHE694  ASN695  SER759  ASP760  ASP761  ALA762  ILE779  LEU786  VAL792 
 PHE793  MET794  SER795  GLU796  ALA797  LYS798  CYS799  TRP800  GLU811  SER814 

> <Gold.Protein.RotatedAtoms>
  150.7242  134.0424  159.3770 H   0  0  0  0  0  0  0  0  0  0  0  0  # atno 6907 bound_to 6896
  151.8398  135.0592  160.0456 H   0  0  0  0  0  0  0  0  0  0  0  0  # atno 6908 bound_to 6896
  152.2871  133.5489  159.5570 H   0  0  0  0  0  0  0  0  0  0  0  0  # atno 6909 bound_to 6896
  144.9415  139.4926  143.5570 H   0  0  0  0  0  0  0  0  0  0  0  0  # atno 7974 bound_to 7965
  155.1487  140.0403  157.2816 H   0  0  0  0  0  0  0  0  0  0  0  0  # atno 8008 bound_to 7997
  154.6420  140.2549  155.7285 H   0  0  0  0  0  0  0  0  0  0  0  0  # atno 8009 bound_to 7997
  156.2537  140.2854  156.0817 H   0  0  0  0  0  0  0  0  0  0  0  0  # atno 8010 bound_to 7997
  139.6564  143.9992  152.2196 H   0  0  0  0  0  0  0  0  0  0  0  0  # atno 10167 bound_to 10162
  157.6869  131.0678  150.4994 H   0  0  0  0  0  0  0  0  0  0  0  0  # atno 10718 bound_to 10713
  154.2660  135.2767  155.2758 H   0  0  0  0  0  0  0  0  0  0  0  0  # atno 10763 bound_to 10752
  154.5343  135.5721  153.6789 H   0  0  0  0  0  0  0  0  0  0  0  0  # atno 10764 bound_to 10752
  152.9953  135.6235  154.2812 H   0  0  0  0  0  0  0  0  0  0  0  0  # atno 10765 bound_to 10752
  139.8843  134.8657  156.3388 H   0  0  0  0  0  0  0  0  0  0  0  0  # atno 11005 bound_to 11000
  146.3287  139.8436  142.8886 LP  0  0  0  0  0  0  0  0  0  0  0  0  # atno 17320 bound_to 7965
  145.2984  141.0187  143.3622 LP  0  0  0  0  0  0  0  0  0  0  0  0  # atno 17321 bound_to 7965
  139.9719  144.6488  150.7981 LP  0  0  0  0  0  0  0  0  0  0  0  0  # atno 17342 bound_to 10162
  140.7561  143.3059  151.2964 LP  0  0  0  0  0  0  0  0  0  0  0  0  # atno 17343 bound_to 10162
  156.5316  130.4186  149.6199 LP  0  0  0  0  0  0  0  0  0  0  0  0  # atno 17370 bound_to 10713
  156.3064  130.7205  151.2088 LP  0  0  0  0  0  0  0  0  0  0  0  0  # atno 17371 bound_to 10713
  140.9673  133.7350  156.0484 LP  0  0  0  0  0  0  0  0  0  0  0  0  # atno 17394 bound_to 11000
  140.7915  134.3612  157.5463 LP  0  0  0  0  0  0  0  0  0  0  0  0  # atno 17395 bound_to 11000

$$$$
