#       Name:                AV-unprocessed.smi:157
#       Creating user name   scv26
#       Creation time:       Thu Mar 26 19:01:16 2020


#       File generated by GOLD software.
#

@<TRIPOS>MOLECULE
AV-unprocessed.smi:157
    45    47     1
SMALL
NO_CHARGES


@<TRIPOS>ATOM
      1 ****        -2.9911   1.1731  -3.1891 O.3            1 S1                 0.0000
      2 ****        -2.1936   0.0444  -2.9025 C.3            1 S1                 0.0000
      3 ****        -0.7401   0.2990  -3.3598 C.3            1 S1                 0.0000
      4 ****        -0.1123   1.1570  -2.4038 O.3            1 S1                 0.0000
      5 ****         0.7034   0.4300  -1.5287 C.3            1 S1                 0.0000
      6 ****         0.2480   0.6668  -0.1234 N.pl3          1 S1                 0.0000
      7 ****        -0.8561   1.3371   0.2714 C.2            1 S1                 0.0000
      8 ****        -1.0129   1.4050   1.5826 N.pl3          1 S1                 1.0000
      9 ****         0.0605   0.7430   2.1397 C.2            1 S1                 0.0000
     10 ****         0.8288   0.2883   1.0650 C.2            1 S1                 0.0000
     11 ****         2.0265  -0.4429   1.0617 N.2            1 S1                 0.0000
     12 ****         2.4607  -1.0837   2.0979 C.2            1 S1                 0.0000
     13 ****         1.9434  -1.1188   3.3821 N.pl3          1 S1                 0.0000
     14 ****         1.5365   0.0745   4.1028 C.3            1 S1                 0.0000
     15 ****         0.1985   0.6574   3.6281 C.3            1 S1                 0.0000
     16 ****        -0.8501  -0.0746   4.2284 O.3            1 S1                 0.0000
     17 ****         0.5543  -1.0465  -1.8939 C.3            1 S1                 0.0000
     18 ****         0.1701  -0.9393  -3.3522 C.3            1 S1                 0.0000
     19 ****        -0.4393  -2.1225  -3.8268 O.3            1 S1                 0.0000
     20 ****        -0.7370   0.7593  -4.3488 H              1 S1                 0.0000
     21 ****         1.7306   0.7950  -1.5661 H              1 S1                 0.0000
     22 ****         0.1215   1.6703   4.0248 H              1 S1                 0.0000
     23 ****         1.0622  -0.7388  -3.9476 H              1 S1                 0.0000
     24 ****        -3.8865   0.9744  -2.9611 H              1 S1                 0.0000
     25 ****        -2.2543  -0.1982  -1.8418 H              1 S1                 0.0000
     26 ****        -2.6293  -0.7927  -3.4477 H              1 S1                 0.0000
     27 ****        -1.5485   1.7799  -0.4224 H              1 S1                 0.0000
     28 ****         3.3618  -1.6913   2.0033 H              1 S1                 0.0000
     29 ****         2.2670  -1.8382   4.0132 H              1 S1                 0.0000
     30 ****         1.5114  -0.1331   5.1732 H              1 S1                 0.0000
     31 ****         2.3176   0.8227   3.9590 H              1 S1                 0.0000
     32 ****        -1.6646   0.3784   4.0738 H              1 S1                 0.0000
     33 ****         1.4802  -1.5950  -1.7187 H              1 S1                 0.0000
     34 ****        -0.2474  -1.4988  -1.3070 H              1 S1                 0.0000
     35 ****        -0.6507  -2.0064  -4.7408 H              1 S1                 0.0000
     36 ****        -1.7689   1.8645   2.0743 H              1 S1                 0.0000
     37 ****        -2.9314   1.3894  -4.1636 LP             1 S1                 0.0000
     38 ****        -2.6727   1.9555  -2.6539 LP             1 S1                 0.0000
     39 ****        -0.8185   1.6284  -1.8755 LP             1 S1                 0.0000
     40 ****         0.4471   1.8301  -2.8876 LP             1 S1                 0.0000
     41 ****         2.5680  -0.4697   0.2215 LP             1 S1                 0.0000
     42 ****        -0.6881  -0.1485   5.2124 LP             1 S1                 0.0000
     43 ****        -0.8933  -0.9899   3.8280 LP             1 S1                 0.0000
     44 ****        -1.2749  -2.3028  -3.3078 LP             1 S1                 0.0000
     45 ****         0.1909  -2.8918  -3.7217 LP             1 S1                 0.0000
@<TRIPOS>BOND
    1    1    2 1     
    2    1   24 1     
    3    2    3 1     
    4    2   25 1     
    5    2   26 1     
    6    3   20 1     
    7    3   18 1     
    8    3    4 1     
    9    4    5 1     
   10    5   21 1     
   11    5    6 1     
   12    5   17 1     
   13    6   10 1     
   14    6    7 1     
   15    7    8 2     
   16    7   27 1     
   17    8    9 1     
   18    8   36 1     
   19    9   15 1     
   20    9   10 2     
   21   10   11 1     
   22   11   12 2     
   23   12   13 1     
   24   12   28 1     
   25   13   14 1     
   26   13   29 1     
   27   14   15 1     
   28   14   30 1     
   29   14   31 1     
   30   15   22 1     
   31   15   16 1     
   32   16   32 1     
   33   17   18 1     
   34   17   33 1     
   35   17   34 1     
   36   18   23 1     
   37   18   19 1     
   38   19   35 1     
   39    1   37 1     
   40    1   38 1     
   41    4   39 1     
   42    4   40 1     
   43   11   41 1     
   44   16   42 1     
   45   16   43 1     
   46   19   44 1     
   47   19   45 1     
@<TRIPOS>SUBSTRUCTURE
      1 S1             1
@<TRIPOS>SET
LONE_PAIRS      STATIC     ATOMS    <user>   **** ""
9 37 38 39 40 41 42 43 44 45
DONOR_HYDROGENS      STATIC     ATOMS    <user>   **** ""
5 24 36 29 32 35
ATOM$BLUE        STATIC     ATOMS    COLORGROUP SYSTEM
9 37 38 39 40 41 42 43 44 45
ATOM$RED        STATIC     ATOMS    COLORGROUP SYSTEM
5 24 36 29 32 35
