AV-unprocessed.smi:985|AV-procd|sdf|4319|dock1
  -GOLD-   22720 2223D 1   1.00000     0.00000
 Structure written by MMmdl.
 26 27  0  0  0  0  0  0  0  0  2 V2000
  151.0493  136.7734  157.6462 C   0  0  0  0  0  0  0  0  0  0  0  0
  151.5700  138.1468  157.8982 C   0  0  0  0  0  0  0  0  0  0  0  0
  150.8609  139.2627  158.0494 N   0  0  0  0  0  0  0  0  0  0  0  0
  151.8507  140.1787  158.2443 C   0  0  0  0  0  0  0  0  0  0  0  0
  151.5819  141.6346  158.4742 C   0  0  1  0  0  0  0  0  0  0  0  0
  152.8316  142.3854  158.9721 C   0  0  0  0  0  0  0  0  0  0  0  0
  152.5144  143.8740  159.1825 C   0  0  0  0  0  0  0  0  0  0  0  0
  151.9071  144.4933  157.9124 C   0  0  0  0  0  0  0  0  0  0  0  0
  150.7017  143.7466  157.4909 N   0  3  0  0  0  0  0  0  0  0  0  0
  150.9678  142.3138  157.2331 C   0  0  0  0  0  0  0  0  0  0  0  0
  153.0899  139.7019  158.2283 N   0  0  0  0  0  0  0  0  0  0  0  0
  152.9081  138.3312  157.9937 O   0  0  0  0  0  0  0  0  0  0  0  0
  149.9598  136.7810  157.6037 H   0  0  0  0  0  0  0  0  0  0  0  0
  151.3640  136.1021  158.4452 H   0  0  0  0  0  0  0  0  0  0  0  0
  151.4341  136.3961  156.6987 H   0  0  0  0  0  0  0  0  0  0  0  0
  150.8374  141.7017  159.2702 H   0  0  0  0  0  0  0  0  0  0  0  0
  153.1928  141.9455  159.9025 H   0  0  0  0  0  0  0  0  0  0  0  0
  153.6399  142.2873  158.2459 H   0  0  0  0  0  0  0  0  0  0  0  0
  151.8172  143.9865  160.0139 H   0  0  0  0  0  0  0  0  0  0  0  0
  153.4202  144.4117  159.4641 H   0  0  0  0  0  0  0  0  0  0  0  0
  151.6356  145.5337  158.0923 H   0  0  0  0  0  0  0  0  0  0  0  0
  152.6362  144.4896  157.1008 H   0  0  0  0  0  0  0  0  0  0  0  0
  150.0088  143.8186  158.2225 H   0  0  0  0  0  0  0  0  0  0  0  0
  151.6386  142.2278  156.3770 H   0  0  0  0  0  0  0  0  0  0  0  0
  150.0324  141.8267  156.9556 H   0  0  0  0  0  0  0  0  0  0  0  0
  150.3323  144.1677  156.6504 H   0  0  0  0  0  0  0  0  0  0  0  0
  1  2  1  0  0  0  0
  1 13  1  0  0  0  0
  1 14  1  0  0  0  0
  1 15  1  0  0  0  0
  2 12  1  0  0  0  0
  2  3  2  0  0  0  0
  3  4  1  0  0  0  0
  4  5  1  0  0  0  0
  4 11  2  0  0  0  0
  5 10  1  0  0  0  0
  5  6  1  0  0  0  0
  5 16  1  0  0  0  0
  6  7  1  0  0  0  0
  6 17  1  0  0  0  0
  6 18  1  0  0  0  0
  7  8  1  0  0  0  0
  7 19  1  0  0  0  0
  7 20  1  0  0  0  0
  8  9  1  0  0  0  0
  8 21  1  0  0  0  0
  8 22  1  0  0  0  0
  9 10  1  0  0  0  0
  9 23  1  0  0  0  0
  9 26  1  0  0  0  0
 10 24  1  0  0  0  0
 10 25  1  0  0  0  0
 11 12  1  0  0  0  0
M  CHG  1   9   1
M  END
> <s_m_source_file>
AV-unprocessed.smi

> <i_m_source_file_index>
985

> <i_lp_mmshare_version>
43012

> <i_f3d_flags>
0

> <s_epik_input>
W0NIM11jMW5jKG5vMSlbQ0BASF0yW0NIMl1bQ0gyXVtDSDJdW05IXVtDSDJdMg==

> <s_epik_cmdline>
J2VwaWtfcHl0aG9uJywgJy1waCcsICc3LjAnLCAnLXRuJywgJzgnLCAnLW1hJywgJzIwMCcsICctbWV0YWxfYmluZGluZycsICctaW1hZScsICc8aW5maWxlLm1hZT4nLCAnLW9tYWUnLCAnPG91dGZpbGUubWFlPic=

> <r_lp_tautomer_probability>
1

> <r_epik_Ionization_Penalty>
0.000532935

> <r_epik_Ionization_Penalty_Charging>
0.000532935

> <r_epik_Ionization_Penalty_Neutral>
3.88228e-13

> <r_epik_State_Penalty>
0.000332992

> <r_epik_Charging_Adjusted_Penalty>
0.000865928

> <i_epik_Tot_Q>
1

> <i_epik_Tot_abs_Q>
1

> <r_epik_Metal_State_Penalty>
-0

> <b_epik_Metal_Only>
0

> <s_lp_Force_Field>
OPLS_2005

> <r_lp_Energy>
6.62541

> <b_lp_Chiralities_Consistent>
1

> <s_lp_Variant>
AV-unprocessed.smi:985-2

> <Gold.Version>
5.8.1

> <Gold.Id.Protein>
6NUR|6NUR_protein|mol2

> <Gold.PLP.Fitness>
31.5450

> <Gold.PLP.PLP>
-22.8484

> <Gold.PLP.part.hbond>
-2.0000

> <Gold.PLP.part.metal>
0.0000

> <Gold.PLP.part.buried>
-3.7420

> <Gold.PLP.part.nonpolar>
-17.6463

> <Gold.PLP.part.repulsive>
0.0040

> <Gold.PLP.ligand.clash>
0.0000

> <Gold.PLP.ligand.torsion>
0.1734

> <Gold.PLP.Chemscore.Hbond>
3.0000

> <Gold.PLP.Chemscore.CHOScore>
0.0000

> <Gold.PLP.Chemscore.Metal>
0.0000

> <Gold.Chemscore.Hbonds>
donor molecule, donor type, donor heavy atom, donor atom, acceptor molecule, acceptor atom, score
      L1  H     9    26       P1  8028  2.00
      P1  H  7997  8009       L1    11  0.95

> <Gold.PLP.Chemscore.Internal.Correction>
0.0434

> <Gold.Rescore>
     Score         DG    S(hbond)    S(metal)    S(lipo)     H(rot)  DE(clash)    DE(int)     intcor
     15.22     -15.53       1.86        0.00      54.82       1.00       0.00       0.31       ----

> <Gold.Chemscore.Fitness>
15.2192

> <Gold.Chemscore.DG>
-15.5329

> <Gold.Chemscore.ZeroCoef>
-5.4800

> <Gold.Chemscore.Hbond>
1.8561

> <Gold.Chemscore.Metal>
0.0000

> <Gold.Chemscore.Lipo>
54.8174

> <Gold.Chemscore.Internal_Hbond>
0.0000

> <Gold.Chemscore.DEClash>
0.0048

> <Gold.Chemscore.DEInternal>
0.3089

> <Gold.Chemscore.Rot>
1.0000

> <Gold.Chemscore.Internal.Correction>
   9.000000E+99

> <Gold.Chemscore.Hbonds>
donor molecule, donor type, donor heavy atom, donor atom, acceptor molecule, acceptor atom, score
      L1  H     9    26       P1  8028  0.94
      P1  H  7997  8009       L1    11  0.21

> <Gold.Chemscore.Hbond.Weighted>
-6.1993

> <Gold.Chemscore.Metal.Weighted>
-0.0000

> <Gold.Chemscore.Lipo.Weighted>
-6.4136

> <Gold.Chemscore.Internal_Hbond.Weighted>
0.0000

> <Gold.Chemscore.DEClash.Weighted>
0.0048

> <Gold.Chemscore.DEInternal.Weighted>
0.3089

> <Gold.Chemscore.Rot.Weighted>
2.5600

> <Gold.Chemscore.Internal.Correction.Weighted>
   9.000000E+99

> <Gold.Protein.RotatedTorsions>
[ 6907 6896 6895 6894 ] final  176.48 input  -60.11 | X-H torsion
[ 7974 7965 7964 7962 ] final -100.18 input  175.53 | X-H torsion
[ 8008 7997 7996 7995 ] final  167.78 input   59.86 | X-H torsion
[ 10167 10162 10161 10158 ] final  159.09 input  -65.29 | X-H torsion
[ 10718 10713 10712 10709 ] final  120.13 input   66.30 | X-H torsion
[ 10763 10752 10751 10750 ] final -172.68 input  -60.55 | X-H torsion
[ 11005 11000 10999 10996 ] final -118.19 input  -57.11 | X-H torsion

> <Gold.Protein.ActiveResidues>
 VAL166  LYS551  ARG553  GLY616  TRP617  ASP618  TYR619  PRO620  LYS621  CYS622 
 ASP623  PHE694  ASN695  SER759  ASP760  ASP761  ALA762  ILE779  LEU786  VAL792 
 PHE793  MET794  SER795  GLU796  ALA797  LYS798  CYS799  TRP800  GLU811  SER814 

> <Gold.Protein.RotatedAtoms>
  151.7194  133.3314  159.3311 H   0  0  0  0  0  0  0  0  0  0  0  0  # atno 6907 bound_to 6896
  150.7659  134.6461  159.6272 H   0  0  0  0  0  0  0  0  0  0  0  0  # atno 6908 bound_to 6896
  152.3661  134.6804  160.0243 H   0  0  0  0  0  0  0  0  0  0  0  0  # atno 6909 bound_to 6896
  145.2979  140.9370  143.2840 H   0  0  0  0  0  0  0  0  0  0  0  0  # atno 7974 bound_to 7965
  156.1604  140.1608  156.8621 H   0  0  0  0  0  0  0  0  0  0  0  0  # atno 8008 bound_to 7997
  154.5155  140.0790  156.8109 H   0  0  0  0  0  0  0  0  0  0  0  0  # atno 8009 bound_to 7997
  155.3718  140.3400  155.4246 H   0  0  0  0  0  0  0  0  0  0  0  0  # atno 8010 bound_to 7997
  139.4830  144.4763  151.8507 H   0  0  0  0  0  0  0  0  0  0  0  0  # atno 10167 bound_to 10162
  157.5913  131.1064  150.7993 H   0  0  0  0  0  0  0  0  0  0  0  0  # atno 10718 bound_to 10713
  154.6165  135.2870  155.0374 H   0  0  0  0  0  0  0  0  0  0  0  0  # atno 10763 bound_to 10752
  154.1584  135.6492  153.4984 H   0  0  0  0  0  0  0  0  0  0  0  0  # atno 10764 bound_to 10752
  153.0217  135.5372  154.6938 H   0  0  0  0  0  0  0  0  0  0  0  0  # atno 10765 bound_to 10752
  141.0303  133.9991  157.3153 H   0  0  0  0  0  0  0  0  0  0  0  0  # atno 11005 bound_to 11000
  144.9118  139.4519  143.6583 LP  0  0  0  0  0  0  0  0  0  0  0  0  # atno 17320 bound_to 7965
  146.3162  139.7930  142.8981 LP  0  0  0  0  0  0  0  0  0  0  0  0  # atno 17321 bound_to 7965
  140.4235  144.2211  150.5887 LP  0  0  0  0  0  0  0  0  0  0  0  0  # atno 17342 bound_to 10162
  140.4850  143.2366  151.8901 LP  0  0  0  0  0  0  0  0  0  0  0  0  # atno 17343 bound_to 10162
  156.8414  130.5049  149.5321 LP  0  0  0  0  0  0  0  0  0  0  0  0  # atno 17370 bound_to 10713
  156.0968  130.5938  150.9827 LP  0  0  0  0  0  0  0  0  0  0  0  0  # atno 17371 bound_to 10713
  139.9203  135.0200  156.8040 LP  0  0  0  0  0  0  0  0  0  0  0  0  # atno 17394 bound_to 11000
  140.6418  133.9811  155.7711 LP  0  0  0  0  0  0  0  0  0  0  0  0  # atno 17395 bound_to 11000

$$$$
