AV-unprocessed.smi:665|AV-procd|sdf|3253|dock9
  -GOLD-   22720 0203D 1   1.00000     0.00000
 Structure written by MMmdl.
 43 44  0  0  0  0  0  0  0  0  1 V2000
  139.6792  136.4678  153.8392 C   0  0  0  0  0  0  0  0  0  0  0  0
  141.0916  136.2328  153.5288 N   0  0  0  0  0  0  0  0  0  0  0  0
  141.4709  134.9270  153.1742 C   0  0  0  0  0  0  0  0  0  0  0  0
  142.7401  134.6209  152.8719 C   0  0  0  0  0  0  0  0  0  0  0  0
  143.7281  135.6721  152.9140 C   0  0  0  0  0  0  0  0  0  0  0  0
  143.3824  136.9422  153.2442 C   0  0  0  0  0  0  0  0  0  0  0  0
  144.2786  138.0237  153.3109 N   0  0  0  0  0  0  0  0  0  0  0  0
  145.5641  138.0450  153.7099 C   0  0  0  0  0  0  0  0  0  0  0  0
  146.2154  137.0726  154.0908 O   0  0  0  0  0  0  0  0  0  0  0  0
  146.0697  139.2836  153.6174 N   0  0  0  0  0  0  0  0  0  0  0  0
  147.4433  139.6742  153.9248 C   0  0  0  0  0  0  0  0  0  0  0  0
  147.8984  139.0119  155.2362 C   0  0  0  0  0  0  0  0  0  0  0  0
  149.3158  139.4653  155.6314 C   0  0  0  0  0  0  0  0  0  0  0  0
  149.4670  141.0042  155.7297 C   0  0  0  0  0  0  0  0  0  0  0  0
  148.7053  141.5549  156.9549 C   0  0  0  0  0  0  0  0  0  0  0  0
  150.9588  141.3483  155.9059 C   0  0  0  0  0  0  0  0  0  0  0  0
  148.9540  141.6571  154.4220 C   0  0  0  0  0  0  0  0  0  0  0  0
  147.5365  141.2057  154.0271 C   0  0  0  0  0  0  0  0  0  0  0  0
  141.9840  137.2661  153.5885 C   0  0  0  0  0  0  0  0  0  0  0  0
  141.6245  138.4009  153.9115 O   0  0  0  0  0  0  0  0  0  0  0  0
  139.0729  135.5653  153.7547 H   0  0  0  0  0  0  0  0  0  0  0  0
  139.2561  137.2075  153.1580 H   0  0  0  0  0  0  0  0  0  0  0  0
  139.5666  136.8404  154.8584 H   0  0  0  0  0  0  0  0  0  0  0  0
  140.6740  134.1977  153.1632 H   0  0  0  0  0  0  0  0  0  0  0  0
  143.0167  133.6130  152.5999 H   0  0  0  0  0  0  0  0  0  0  0  0
  144.7451  135.3988  152.6851 H   0  0  0  0  0  0  0  0  0  0  0  0
  143.9048  138.8959  152.9658 H   0  0  0  0  0  0  0  0  0  0  0  0
  145.4575  140.0173  153.2922 H   0  0  0  0  0  0  0  0  0  0  0  0
  148.1178  139.3490  153.1305 H   0  0  0  0  0  0  0  0  0  0  0  0
  147.1959  139.2440  156.0373 H   0  0  0  0  0  0  0  0  0  0  0  0
  147.8830  137.9268  155.1264 H   0  0  0  0  0  0  0  0  0  0  0  0
  149.5987  138.9982  156.5755 H   0  0  0  0  0  0  0  0  0  0  0  0
  150.0156  139.0810  154.8877 H   0  0  0  0  0  0  0  0  0  0  0  0
  148.8206  142.6363  157.0369 H   0  0  0  0  0  0  0  0  0  0  0  0
  149.0794  141.1172  157.8810 H   0  0  0  0  0  0  0  0  0  0  0  0
  147.6366  141.3483  156.9104 H   0  0  0  0  0  0  0  0  0  0  0  0
  151.1130  142.4259  155.9729 H   0  0  0  0  0  0  0  0  0  0  0  0
  151.5550  140.9852  155.0678 H   0  0  0  0  0  0  0  0  0  0  0  0
  151.3657  140.9009  156.8134 H   0  0  0  0  0  0  0  0  0  0  0  0
  148.9802  142.7441  154.5084 H   0  0  0  0  0  0  0  0  0  0  0  0
  149.6311  141.4067  153.6039 H   0  0  0  0  0  0  0  0  0  0  0  0
  147.2664  141.6562  153.0713 H   0  0  0  0  0  0  0  0  0  0  0  0
  146.8119  141.5779  154.7519 H   0  0  0  0  0  0  0  0  0  0  0  0
  1  2  1  0  0  0  0
  1 21  1  0  0  0  0
  1 22  1  0  0  0  0
  1 23  1  0  0  0  0
  2 19  1  0  0  0  0
  2  3  1  0  0  0  0
  3  4  2  0  0  0  0
  3 24  1  0  0  0  0
  4  5  1  0  0  0  0
  4 25  1  0  0  0  0
  5  6  2  0  0  0  0
  5 26  1  0  0  0  0
  6  7  1  0  0  0  0
  6 19  1  0  0  0  0
  7  8  1  0  0  0  0
  7 27  1  0  0  0  0
  8  9  2  0  0  0  0
  8 10  1  0  0  0  0
 10 11  1  0  0  0  0
 10 28  1  0  0  0  0
 11 18  1  0  0  0  0
 11 12  1  0  0  0  0
 11 29  1  0  0  0  0
 12 13  1  0  0  0  0
 12 30  1  0  0  0  0
 12 31  1  0  0  0  0
 13 14  1  0  0  0  0
 13 32  1  0  0  0  0
 13 33  1  0  0  0  0
 14 15  1  0  0  0  0
 14 16  1  0  0  0  0
 14 17  1  0  0  0  0
 15 34  1  0  0  0  0
 15 35  1  0  0  0  0
 15 36  1  0  0  0  0
 16 37  1  0  0  0  0
 16 38  1  0  0  0  0
 16 39  1  0  0  0  0
 17 18  1  0  0  0  0
 17 40  1  0  0  0  0
 17 41  1  0  0  0  0
 18 42  1  0  0  0  0
 18 43  1  0  0  0  0
 19 20  2  0  0  0  0
M  END
> <s_m_source_file>
AV-unprocessed.smi

> <i_m_source_file_index>
665

> <i_lp_mmshare_version>
43012

> <i_f3d_flags>
0

> <s_epik_input>
W0NIM11uMVtjSF1bY0hdW2NIXWMoYzE9TylbTkhdQyg9TylbTkhdW0NIXShbQ0gyXVtDSDJdMilbQ0gyXVtDSDJdQzIoW0NIM10pW0NIM10=

> <s_epik_cmdline>
J2VwaWtfcHl0aG9uJywgJy1waCcsICc3LjAnLCAnLXRuJywgJzgnLCAnLW1hJywgJzIwMCcsICctbWV0YWxfYmluZGluZycsICctaW1hZScsICc8aW5maWxlLm1hZT4nLCAnLW9tYWUnLCAnPG91dGZpbGUubWFlPic=

> <r_lp_tautomer_probability>
1

> <r_epik_Ionization_Penalty>
2.65253e-05

> <r_epik_Ionization_Penalty_Charging>
5.1221e-06

> <r_epik_Ionization_Penalty_Neutral>
2.14032e-05

> <r_epik_State_Penalty>
-0

> <r_epik_Charging_Adjusted_Penalty>
5.1221e-06

> <i_epik_Tot_Q>
0

> <i_epik_Tot_abs_Q>
0

> <r_epik_Metal_State_Penalty>
-0

> <b_epik_Metal_Only>
0

> <s_lp_Force_Field>
OPLS_2005

> <r_lp_Energy>
25.5106

> <b_lp_Chiralities_Consistent>
1

> <s_lp_Variant>
AV-unprocessed.smi:665-1

> <Gold.Version>
5.8.1

> <Gold.Id.Protein>
6NUR|6NUR_protein|mol2

> <Gold.PLP.Fitness>
37.7328

> <Gold.PLP.PLP>
-32.7794

> <Gold.PLP.part.hbond>
-2.0000

> <Gold.PLP.part.metal>
0.0000

> <Gold.PLP.part.buried>
-5.0446

> <Gold.PLP.part.nonpolar>
-25.4331

> <Gold.PLP.part.repulsive>
0.2871

> <Gold.PLP.ligand.clash>
0.0000

> <Gold.PLP.ligand.torsion>
0.4405

> <Gold.PLP.Chemscore.Hbond>
1.9440

> <Gold.PLP.Chemscore.CHOScore>
0.0000

> <Gold.PLP.Chemscore.Metal>
0.0000

> <Gold.Chemscore.Hbonds>
donor molecule, donor type, donor heavy atom, donor atom, acceptor molecule, acceptor atom, score
      L1  H     7    27       P1 10175  1.00
      L1  H    10    28       P1 10175  0.93

> <Gold.PLP.Chemscore.Internal.Correction>
0.0024

> <Gold.Rescore>
     Score         DG    S(hbond)    S(metal)    S(lipo)     H(rot)  DE(clash)    DE(int)     intcor
     16.02     -17.84       1.96        0.00      71.44       1.00       0.07       1.75       ----

> <Gold.Chemscore.Fitness>
16.0242

> <Gold.Chemscore.DG>
-17.8378

> <Gold.Chemscore.ZeroCoef>
-5.4800

> <Gold.Chemscore.Hbond>
1.9638

> <Gold.Chemscore.Metal>
0.0000

> <Gold.Chemscore.Lipo>
71.4427

> <Gold.Chemscore.Internal_Hbond>
0.0000

> <Gold.Chemscore.DEClash>
0.0678

> <Gold.Chemscore.DEInternal>
1.7459

> <Gold.Chemscore.Rot>
1.0000

> <Gold.Chemscore.Internal.Correction>
   9.000000E+99

> <Gold.Chemscore.Hbonds>
donor molecule, donor type, donor heavy atom, donor atom, acceptor molecule, acceptor atom, score
      L1  H     7    27       P1 10175  1.00
      L1  H    10    28       P1 10175  0.87

> <Gold.Chemscore.Hbond.Weighted>
-6.5590

> <Gold.Chemscore.Metal.Weighted>
-0.0000

> <Gold.Chemscore.Lipo.Weighted>
-8.3588

> <Gold.Chemscore.Internal_Hbond.Weighted>
0.0000

> <Gold.Chemscore.DEClash.Weighted>
0.0678

> <Gold.Chemscore.DEInternal.Weighted>
1.7459

> <Gold.Chemscore.Rot.Weighted>
2.5600

> <Gold.Chemscore.Internal.Correction.Weighted>
   9.000000E+99

> <Gold.Protein.RotatedTorsions>
[ 6907 6896 6895 6894 ] final -177.64 input  -60.11 | X-H torsion
[ 7974 7965 7964 7962 ] final   -6.87 input  175.53 | X-H torsion
[ 8008 7997 7996 7995 ] final  144.79 input   59.86 | X-H torsion
[ 10167 10162 10161 10158 ] final  -61.65 input  -65.29 | X-H torsion
[ 10718 10713 10712 10709 ] final  106.15 input   66.30 | X-H torsion
[ 10763 10752 10751 10750 ] final -111.02 input  -60.55 | X-H torsion
[ 11005 11000 10999 10996 ] final  107.46 input  -57.11 | X-H torsion

> <Gold.Protein.ActiveResidues>
 VAL166  LYS551  ARG553  GLY616  TRP617  ASP618  TYR619  PRO620  LYS621  CYS622 
 ASP623  PHE694  ASN695  SER759  ASP760  ASP761  ALA762  ILE779  LEU786  VAL792 
 PHE793  MET794  SER795  GLU796  ALA797  LYS798  CYS799  TRP800  GLU811  SER814 

> <Gold.Protein.RotatedAtoms>
  151.6243  133.3337  159.3094 H   0  0  0  0  0  0  0  0  0  0  0  0  # atno 6907 bound_to 6896
  150.8090  134.7236  159.6682 H   0  0  0  0  0  0  0  0  0  0  0  0  # atno 6908 bound_to 6896
  152.4186  134.6001  160.0049 H   0  0  0  0  0  0  0  0  0  0  0  0  # atno 6909 bound_to 6896
  146.2320  140.2235  142.8338 H   0  0  0  0  0  0  0  0  0  0  0  0  # atno 7974 bound_to 7965
  156.2899  140.2226  156.5110 H   0  0  0  0  0  0  0  0  0  0  0  0  # atno 8008 bound_to 7997
  154.7609  140.0473  157.0994 H   0  0  0  0  0  0  0  0  0  0  0  0  # atno 8009 bound_to 7997
  154.9992  140.3099  155.4877 H   0  0  0  0  0  0  0  0  0  0  0  0  # atno 8010 bound_to 7997
  140.5992  143.2357  151.5967 H   0  0  0  0  0  0  0  0  0  0  0  0  # atno 10167 bound_to 10162
  157.6679  131.0844  150.5964 H   0  0  0  0  0  0  0  0  0  0  0  0  # atno 10718 bound_to 10713
  154.8279  135.4542  154.0975 H   0  0  0  0  0  0  0  0  0  0  0  0  # atno 10763 bound_to 10752
  153.2274  135.6901  153.7936 H   0  0  0  0  0  0  0  0  0  0  0  0  # atno 10764 bound_to 10752
  153.7331  135.3324  155.3266 H   0  0  0  0  0  0  0  0  0  0  0  0  # atno 10765 bound_to 10752
  139.8828  134.9401  156.5822 H   0  0  0  0  0  0  0  0  0  0  0  0  # atno 11005 bound_to 11000
  144.9613  140.8278  143.5512 LP  0  0  0  0  0  0  0  0  0  0  0  0  # atno 17320 bound_to 7965
  145.2206  139.2160  143.5095 LP  0  0  0  0  0  0  0  0  0  0  0  0  # atno 17321 bound_to 7965
  139.5279  144.3003  152.1079 LP  0  0  0  0  0  0  0  0  0  0  0  0  # atno 17342 bound_to 10162
  140.2181  144.4494  150.6354 LP  0  0  0  0  0  0  0  0  0  0  0  0  # atno 17343 bound_to 10162
  156.6264  130.4420  149.5803 LP  0  0  0  0  0  0  0  0  0  0  0  0  # atno 17370 bound_to 10713
  156.2315  130.6797  151.1468 LP  0  0  0  0  0  0  0  0  0  0  0  0  # atno 17371 bound_to 10713
  140.8018  133.8499  155.8733 LP  0  0  0  0  0  0  0  0  0  0  0  0  # atno 17394 bound_to 11000
  140.9585  134.1686  157.4672 LP  0  0  0  0  0  0  0  0  0  0  0  0  # atno 17395 bound_to 11000

$$$$
