AV-unprocessed.smi:1212|AV-procd|sdf|5082|dock10
  -GOLD-   22720 4133D 1   1.00000     0.00000
 Structure written by MMmdl.
 39 40  0  0  0  0  0  0  0  0  1 V2000
  150.2782  135.2917  154.8089 C   0  0  0  0  0  0  0  0  0  0  0  0
  150.8563  136.4761  155.5056 C   0  0  0  0  0  0  0  0  0  0  0  0
  151.9687  137.0929  155.0878 N   0  0  0  0  0  0  0  0  0  0  0  0
  152.3099  138.1680  155.8973 N   0  0  0  0  0  0  0  0  0  0  0  0
  151.4402  138.3314  156.9038 C   0  0  0  0  0  0  0  0  0  0  0  0
  151.5485  139.3537  157.8833 N   0  0  0  0  0  0  0  0  0  0  0  0
  152.6186  139.6874  158.6262 C   0  0  0  0  0  0  0  0  0  0  0  0
  153.7200  139.1387  158.5765 O   0  0  0  0  0  0  0  0  0  0  0  0
  152.3400  140.7109  159.4463 N   0  0  0  0  0  0  0  0  0  0  0  0
  153.2853  141.3184  160.3749 C   0  0  0  0  0  0  0  0  0  0  0  0
  153.9110  142.5982  159.7896 C   0  0  0  0  0  0  0  0  0  0  0  0
  152.9072  143.6606  159.6480 N   0  0  0  0  0  0  0  0  0  0  0  0
  152.7202  144.2044  158.2926 C   0  0  0  0  0  0  0  0  0  0  0  0
  151.3688  143.8182  157.6467 C   0  0  0  0  0  0  0  0  0  0  0  0
  150.1886  143.5884  158.6116 C   0  0  0  0  0  0  0  0  0  0  0  0
  149.9269  144.7368  159.6083 C   0  0  0  0  0  0  0  0  0  0  0  0
  151.1313  145.1941  160.4651 C   0  0  0  0  0  0  0  0  0  0  0  0
  152.1858  144.1020  160.7080 C   0  0  0  0  0  0  0  0  0  0  0  0
  152.3332  143.6643  161.8495 O   0  0  0  0  0  0  0  0  0  0  0  0
  150.1211  137.1738  156.9437 S   0  0  0  0  0  0  0  0  0  0  0  0
  151.0105  134.8471  154.1340 H   0  0  0  0  0  0  0  0  0  0  0  0
  149.4040  135.5901  154.2304 H   0  0  0  0  0  0  0  0  0  0  0  0
  149.9763  134.5397  155.5381 H   0  0  0  0  0  0  0  0  0  0  0  0
  150.7114  139.8965  158.0353 H   0  0  0  0  0  0  0  0  0  0  0  0
  151.4090  141.1008  159.4256 H   0  0  0  0  0  0  0  0  0  0  0  0
  152.7912  141.5340  161.3238 H   0  0  0  0  0  0  0  0  0  0  0  0
  154.0606  140.5836  160.5926 H   0  0  0  0  0  0  0  0  0  0  0  0
  154.7283  142.9388  160.4279 H   0  0  0  0  0  0  0  0  0  0  0  0
  154.3768  142.3797  158.8282 H   0  0  0  0  0  0  0  0  0  0  0  0
  152.8167  145.2898  158.3271 H   0  0  0  0  0  0  0  0  0  0  0  0
  153.5233  143.8908  157.6252 H   0  0  0  0  0  0  0  0  0  0  0  0
  151.0994  144.5792  156.9139 H   0  0  0  0  0  0  0  0  0  0  0  0
  151.5104  142.8995  157.0762 H   0  0  0  0  0  0  0  0  0  0  0  0
  149.2847  143.4178  158.0262 H   0  0  0  0  0  0  0  0  0  0  0  0
  150.3469  142.6590  159.1606 H   0  0  0  0  0  0  0  0  0  0  0  0
  149.5437  145.5989  159.0615 H   0  0  0  0  0  0  0  0  0  0  0  0
  149.1188  144.4318  160.2741 H   0  0  0  0  0  0  0  0  0  0  0  0
  151.6133  146.0562  160.0045 H   0  0  0  0  0  0  0  0  0  0  0  0
  150.7677  145.5600  161.4260 H   0  0  0  0  0  0  0  0  0  0  0  0
  1  2  1  0  0  0  0
  1 21  1  0  0  0  0
  1 22  1  0  0  0  0
  1 23  1  0  0  0  0
  2 20  1  0  0  0  0
  2  3  2  0  0  0  0
  3  4  1  0  0  0  0
  4  5  2  0  0  0  0
  5  6  1  0  0  0  0
  5 20  1  0  0  0  0
  6  7  1  0  0  0  0
  6 24  1  0  0  0  0
  7  8  2  0  0  0  0
  7  9  1  0  0  0  0
  9 10  1  0  0  0  0
  9 25  1  0  0  0  0
 10 11  1  0  0  0  0
 10 26  1  0  0  0  0
 10 27  1  0  0  0  0
 11 12  1  0  0  0  0
 11 28  1  0  0  0  0
 11 29  1  0  0  0  0
 12 18  1  0  0  0  0
 12 13  1  0  0  0  0
 13 14  1  0  0  0  0
 13 30  1  0  0  0  0
 13 31  1  0  0  0  0
 14 15  1  0  0  0  0
 14 32  1  0  0  0  0
 14 33  1  0  0  0  0
 15 16  1  0  0  0  0
 15 34  1  0  0  0  0
 15 35  1  0  0  0  0
 16 17  1  0  0  0  0
 16 36  1  0  0  0  0
 16 37  1  0  0  0  0
 17 18  1  0  0  0  0
 17 38  1  0  0  0  0
 17 39  1  0  0  0  0
 18 19  2  0  0  0  0
M  END
> <s_m_source_file>
AV-unprocessed.smi

> <i_m_source_file_index>
1212

> <i_lp_mmshare_version>
43012

> <i_f3d_flags>
0

> <s_epik_input>
W0NIM11jMW5uYyhzMSlbTkhdQyg9TylbTkhdW0NIMl1bQ0gyXU4yW0NIMl1bQ0gyXVtDSDJdW0NIMl1bQ0gyXUMyPU8=

> <s_epik_cmdline>
J2VwaWtfcHl0aG9uJywgJy1waCcsICc3LjAnLCAnLXRuJywgJzgnLCAnLW1hJywgJzIwMCcsICctbWV0YWxfYmluZGluZycsICctaW1hZScsICc8aW5maWxlLm1hZT4nLCAnLW9tYWUnLCAnPG91dGZpbGUubWFlPic=

> <r_lp_tautomer_probability>
1

> <r_epik_Ionization_Penalty>
0.00255187

> <r_epik_Ionization_Penalty_Charging>
0

> <r_epik_Ionization_Penalty_Neutral>
0.00255187

> <r_epik_State_Penalty>
-0

> <r_epik_Charging_Adjusted_Penalty>
0

> <i_epik_Tot_Q>
0

> <i_epik_Tot_abs_Q>
0

> <r_epik_Metal_State_Penalty>
0.352847

> <b_epik_Metal_Only>
0

> <s_lp_Force_Field>
OPLS_2005

> <r_lp_Energy>
20.0291

> <b_lp_Chiralities_Consistent>
1

> <s_lp_Variant>
AV-unprocessed.smi:1212-1

> <Gold.Version>
5.8.1

> <Gold.Id.Protein>
6NUR|6NUR_protein|mol2

> <Gold.PLP.Fitness>
41.2946

> <Gold.PLP.PLP>
-36.5516

> <Gold.PLP.part.hbond>
-2.0000

> <Gold.PLP.part.metal>
0.0000

> <Gold.PLP.part.buried>
-6.3051

> <Gold.PLP.part.nonpolar>
-29.9178

> <Gold.PLP.part.repulsive>
0.4484

> <Gold.PLP.ligand.clash>
0.0000

> <Gold.PLP.ligand.torsion>
0.6193

> <Gold.PLP.Chemscore.Hbond>
1.9920

> <Gold.PLP.Chemscore.CHOScore>
0.0000

> <Gold.PLP.Chemscore.Metal>
0.0000

> <Gold.Chemscore.Hbonds>
donor molecule, donor type, donor heavy atom, donor atom, acceptor molecule, acceptor atom, score
      P1  H  7997  8008       L1     8  1.00
      P1  H 10752 10763       L1     3  0.91

> <Gold.PLP.Chemscore.Internal.Correction>
0.0057

> <Gold.Rescore>
     Score         DG    S(hbond)    S(metal)    S(lipo)     H(rot)  DE(clash)    DE(int)     intcor
     15.15     -16.95       1.77        0.00      83.77       1.65       0.13       1.67       ----

> <Gold.Chemscore.Fitness>
15.1549

> <Gold.Chemscore.DG>
-16.9509

> <Gold.Chemscore.ZeroCoef>
-5.4800

> <Gold.Chemscore.Hbond>
1.7681

> <Gold.Chemscore.Metal>
0.0000

> <Gold.Chemscore.Lipo>
83.7670

> <Gold.Chemscore.Internal_Hbond>
0.0000

> <Gold.Chemscore.DEClash>
0.1278

> <Gold.Chemscore.DEInternal>
1.6682

> <Gold.Chemscore.Rot>
1.6544

> <Gold.Chemscore.Internal.Correction>
   9.000000E+99

> <Gold.Chemscore.Hbonds>
donor molecule, donor type, donor heavy atom, donor atom, acceptor molecule, acceptor atom, score
      P1  H  7997  8008       L1     8  0.65
      P1  H 10752 10763       L1     3  0.20

> <Gold.Chemscore.Hbond.Weighted>
-5.9054

> <Gold.Chemscore.Metal.Weighted>
-0.0000

> <Gold.Chemscore.Lipo.Weighted>
-9.8007

> <Gold.Chemscore.Internal_Hbond.Weighted>
0.0000

> <Gold.Chemscore.DEClash.Weighted>
0.1278

> <Gold.Chemscore.DEInternal.Weighted>
1.6682

> <Gold.Chemscore.Rot.Weighted>
4.2352

> <Gold.Chemscore.Internal.Correction.Weighted>
   9.000000E+99

> <Gold.Protein.RotatedTorsions>
[ 6907 6896 6895 6894 ] final   90.89 input  -60.11 | X-H torsion
[ 7974 7965 7964 7962 ] final  114.68 input  175.53 | X-H torsion
[ 8008 7997 7996 7995 ] final  -99.45 input   59.86 | X-H torsion
[ 10167 10162 10161 10158 ] final -158.31 input  -65.29 | X-H torsion
[ 10718 10713 10712 10709 ] final -116.29 input   66.30 | X-H torsion
[ 10763 10752 10751 10750 ] final   62.66 input  -60.55 | X-H torsion
[ 11005 11000 10999 10996 ] final  -89.55 input  -57.11 | X-H torsion

> <Gold.Protein.ActiveResidues>
 VAL166  LYS551  ARG553  GLY616  TRP617  ASP618  TYR619  PRO620  LYS621  CYS622 
 ASP623  PHE694  ASN695  SER759  ASP760  ASP761  ALA762  ILE779  LEU786  VAL792 
 PHE793  MET794  SER795  GLU796  ALA797  LYS798  CYS799  TRP800  GLU811  SER814 

> <Gold.Protein.RotatedAtoms>
  152.5447  134.1742  159.8608 H   0  0  0  0  0  0  0  0  0  0  0  0  # atno 6907 bound_to 6896
  151.1750  133.4754  159.2601 H   0  0  0  0  0  0  0  0  0  0  0  0  # atno 6908 bound_to 6896
  151.1237  135.0104  159.8605 H   0  0  0  0  0  0  0  0  0  0  0  0  # atno 6909 bound_to 6896
  145.2014  139.2950  143.4316 H   0  0  0  0  0  0  0  0  0  0  0  0  # atno 7974 bound_to 7965
  154.8150  140.0448  157.1370 H   0  0  0  0  0  0  0  0  0  0  0  0  # atno 8008 bound_to 7997
  154.9324  140.3041  155.5141 H   0  0  0  0  0  0  0  0  0  0  0  0  # atno 8009 bound_to 7997
  156.2975  140.2320  156.4385 H   0  0  0  0  0  0  0  0  0  0  0  0  # atno 8010 bound_to 7997
  139.6702  143.9759  152.2279 H   0  0  0  0  0  0  0  0  0  0  0  0  # atno 10167 bound_to 10162
  156.0954  130.6127  150.9017 H   0  0  0  0  0  0  0  0  0  0  0  0  # atno 10718 bound_to 10713
  152.9990  135.5457  154.6228 H   0  0  0  0  0  0  0  0  0  0  0  0  # atno 10763 bound_to 10752
  154.5523  135.2827  155.0999 H   0  0  0  0  0  0  0  0  0  0  0  0  # atno 10764 bound_to 10752
  154.2234  135.6446  153.5204 H   0  0  0  0  0  0  0  0  0  0  0  0  # atno 10765 bound_to 10752
  141.1582  133.7637  156.9611 H   0  0  0  0  0  0  0  0  0  0  0  0  # atno 11005 bound_to 11000
  146.3417  140.2260  142.8592 LP  0  0  0  0  0  0  0  0  0  0  0  0  # atno 17320 bound_to 7965
  144.9944  140.8576  143.5320 LP  0  0  0  0  0  0  0  0  0  0  0  0  # atno 17321 bound_to 7965
  139.9521  144.6613  150.8162 LP  0  0  0  0  0  0  0  0  0  0  0  0  # atno 17342 bound_to 10162
  140.7615  143.3175  151.2698 LP  0  0  0  0  0  0  0  0  0  0  0  0  # atno 17343 bound_to 10162
  157.6113  131.0936  150.8790 LP  0  0  0  0  0  0  0  0  0  0  0  0  # atno 17370 bound_to 10713
  156.8929  130.5219  149.5285 LP  0  0  0  0  0  0  0  0  0  0  0  0  # atno 17371 bound_to 10713
  140.1192  134.9427  157.2179 LP  0  0  0  0  0  0  0  0  0  0  0  0  # atno 17394 bound_to 11000
  140.3093  134.3042  155.7270 LP  0  0  0  0  0  0  0  0  0  0  0  0  # atno 17395 bound_to 11000

$$$$
