AV-unprocessed.smi:2063|AV-procd|sdf|8415|dock10
  -GOLD-   2272011103D 1   1.00000     0.00000
 Structure written by MMmdl.
 38 39  0  0  0  0  0  0  0  0  2 V2000
  150.5811  140.9545  155.8299 C   0  0  0  0  0  0  0  0  0  0  0  0
  150.9349  139.4670  155.6879 C   0  0  0  0  0  0  0  0  0  0  0  0
  150.6417  138.9084  154.2877 C   0  0  0  0  0  0  0  0  0  0  0  0
  150.3172  138.6344  156.7678 C   0  0  0  0  0  0  0  0  0  0  0  0
  150.4227  138.9274  158.0678 N   0  0  0  0  0  0  0  0  0  0  0  0
  149.7615  138.0078  158.8684 N   0  0  0  0  0  0  0  0  0  0  0  0
  149.1741  137.0277  158.1676 C   0  0  0  0  0  0  0  0  0  0  0  0
  148.4777  136.0393  158.7525 N   0  5  0  0  0  0  0  0  0  0  0  0
  147.9999  136.1991  160.0076 C   0  0  0  0  0  0  0  0  0  0  0  0
  147.9948  137.2462  160.6586 O   0  0  0  0  0  0  0  0  0  0  0  0
  147.5025  135.0733  160.5393 N   0  0  0  0  0  0  0  0  0  0  0  0
  146.9410  134.9179  161.8804 C   0  0  1  0  0  0  0  0  0  0  0  0
  147.9106  135.5058  162.9173 C   0  0  0  0  0  0  0  0  0  0  0  0
  145.5548  135.5871  161.9406 C   0  0  1  0  0  0  0  0  0  0  0  0
  144.7288  135.2317  163.1806 C   0  0  0  0  0  0  0  0  0  0  0  0
  143.8378  136.4472  163.3914 C   0  0  0  0  0  0  0  0  0  0  0  0
  144.4004  137.4961  162.4298 C   0  0  0  0  0  0  0  0  0  0  0  0
  145.6752  136.9969  162.0542 O   0  0  0  0  0  0  0  0  0  0  0  0
  149.3850  137.1861  156.4245 S   0  0  0  0  0  0  0  0  0  0  0  0
  150.8845  141.3383  156.8044 H   0  0  0  0  0  0  0  0  0  0  0  0
  149.5080  141.1182  155.7264 H   0  0  0  0  0  0  0  0  0  0  0  0
  151.0833  141.5518  155.0686 H   0  0  0  0  0  0  0  0  0  0  0  0
  152.0146  139.3951  155.8257 H   0  0  0  0  0  0  0  0  0  0  0  0
  150.9769  137.8743  154.2011 H   0  0  0  0  0  0  0  0  0  0  0  0
  151.1533  139.4875  153.5185 H   0  0  0  0  0  0  0  0  0  0  0  0
  149.5741  138.9329  154.0667 H   0  0  0  0  0  0  0  0  0  0  0  0
  147.5270  134.2458  159.9620 H   0  0  0  0  0  0  0  0  0  0  0  0
  146.8067  133.8574  162.1000 H   0  0  0  0  0  0  0  0  0  0  0  0
  147.5242  135.3857  163.9296 H   0  0  0  0  0  0  0  0  0  0  0  0
  148.0760  136.5702  162.7476 H   0  0  0  0  0  0  0  0  0  0  0  0
  148.8794  135.0073  162.8756 H   0  0  0  0  0  0  0  0  0  0  0  0
  144.9818  135.3557  161.0403 H   0  0  0  0  0  0  0  0  0  0  0  0
  144.1625  134.3088  163.0522 H   0  0  0  0  0  0  0  0  0  0  0  0
  145.3806  135.1049  164.0462 H   0  0  0  0  0  0  0  0  0  0  0  0
  142.7932  136.2305  163.1665 H   0  0  0  0  0  0  0  0  0  0  0  0
  143.8954  136.7864  164.4262 H   0  0  0  0  0  0  0  0  0  0  0  0
  143.7724  137.5780  161.5414 H   0  0  0  0  0  0  0  0  0  0  0  0
  144.4790  138.4840  162.8838 H   0  0  0  0  0  0  0  0  0  0  0  0
  1  2  1  0  0  0  0
  1 20  1  0  0  0  0
  1 21  1  0  0  0  0
  1 22  1  0  0  0  0
  2  3  1  0  0  0  0
  2  4  1  0  0  0  0
  2 23  1  0  0  0  0
  3 24  1  0  0  0  0
  3 25  1  0  0  0  0
  3 26  1  0  0  0  0
  4 19  1  0  0  0  0
  4  5  2  0  0  0  0
  5  6  1  0  0  0  0
  6  7  2  0  0  0  0
  7  8  1  0  0  0  0
  7 19  1  0  0  0  0
  8  9  1  0  0  0  0
  9 10  2  0  0  0  0
  9 11  1  0  0  0  0
 11 12  1  0  0  0  0
 11 27  1  0  0  0  0
 12 13  1  0  0  0  0
 12 14  1  0  0  0  0
 12 28  1  0  0  0  0
 13 29  1  0  0  0  0
 13 30  1  0  0  0  0
 13 31  1  0  0  0  0
 14 18  1  0  0  0  0
 14 15  1  0  0  0  0
 14 32  1  0  0  0  0
 15 16  1  0  0  0  0
 15 33  1  0  0  0  0
 15 34  1  0  0  0  0
 16 17  1  0  0  0  0
 16 35  1  0  0  0  0
 16 36  1  0  0  0  0
 17 18  1  0  0  0  0
 17 37  1  0  0  0  0
 17 38  1  0  0  0  0
M  CHG  1   8  -1
M  END
> <s_m_source_file>
AV-unprocessed.smi

> <i_m_source_file_index>
2063

> <i_lp_mmshare_version>
43012

> <i_f3d_flags>
0

> <s_epik_input>
W0NIM11bQ0hdKFtDSDNdKWMxbm5jKHMxKVtOSF1DKD1PKVtOSF1bQ0BIXShbQ0gzXSlbQ0BASF0yW0NIMl1bQ0gyXVtDSDJdTzI=

> <s_epik_cmdline>
J2VwaWtfcHl0aG9uJywgJy1waCcsICc3LjAnLCAnLXRuJywgJzgnLCAnLW1hJywgJzIwMCcsICctbWV0YWxfYmluZGluZycsICctaW1hZScsICc8aW5maWxlLm1hZT4nLCAnLW9tYWUnLCAnPG91dGZpbGUubWFlPic=

> <r_lp_tautomer_probability>
1

> <r_epik_Ionization_Penalty>
4.37022

> <r_epik_Ionization_Penalty_Charging>
4.21437

> <r_epik_Ionization_Penalty_Neutral>
0.15585

> <r_epik_State_Penalty>
4.21389

> <r_epik_Charging_Adjusted_Penalty>
8.42826

> <i_epik_Tot_Q>
-1

> <i_epik_Tot_abs_Q>
1

> <r_epik_Metal_State_Penalty>
0.693772

> <b_epik_Metal_Only>
1

> <s_lp_Force_Field>
OPLS_2005

> <r_lp_Energy>
9.58688

> <b_lp_Chiralities_Consistent>
1

> <s_lp_Variant>
AV-unprocessed.smi:2063-8

> <Gold.Version>
5.8.1

> <Gold.Id.Protein>
6NUR|6NUR_protein|mol2

> <Gold.PLP.Fitness>
43.0027

> <Gold.PLP.PLP>
-33.2332

> <Gold.PLP.part.hbond>
-3.9610

> <Gold.PLP.part.metal>
0.0000

> <Gold.PLP.part.buried>
-5.4898

> <Gold.PLP.part.nonpolar>
-23.9250

> <Gold.PLP.part.repulsive>
0.0866

> <Gold.PLP.ligand.clash>
0.0000

> <Gold.PLP.ligand.torsion>
0.5326

> <Gold.PLP.Chemscore.Hbond>
3.5680

> <Gold.PLP.Chemscore.CHOScore>
0.0000

> <Gold.PLP.Chemscore.Metal>
0.0000

> <Gold.Chemscore.Hbonds>
donor molecule, donor type, donor heavy atom, donor atom, acceptor molecule, acceptor atom, score
      P1  H  6931  6943       L1    10  0.78
      P1  H  6934  6947       L1    10  0.75

> <Gold.PLP.Chemscore.Internal.Correction>
0.1307

> <Gold.Rescore>
     Score         DG    S(hbond)    S(metal)    S(lipo)     H(rot)  DE(clash)    DE(int)     intcor
     12.27     -17.59       2.39        0.00      65.63       1.39       0.08       5.24       ----

> <Gold.Chemscore.Fitness>
12.2692

> <Gold.Chemscore.DG>
-17.5939

> <Gold.Chemscore.ZeroCoef>
-5.4800

> <Gold.Chemscore.Hbond>
2.3928

> <Gold.Chemscore.Metal>
0.0000

> <Gold.Chemscore.Lipo>
65.6299

> <Gold.Chemscore.Internal_Hbond>
0.0000

> <Gold.Chemscore.DEClash>
0.0825

> <Gold.Chemscore.DEInternal>
5.2423

> <Gold.Chemscore.Rot>
1.3893

> <Gold.Chemscore.Internal.Correction>
   9.000000E+99

> <Gold.Chemscore.Hbonds>
donor molecule, donor type, donor heavy atom, donor atom, acceptor molecule, acceptor atom, score
      P1  H  6931  6943       L1    10  0.78
      P1  H  6934  6947       L1    10  0.74

> <Gold.Chemscore.Hbond.Weighted>
-7.9919

> <Gold.Chemscore.Metal.Weighted>
-0.0000

> <Gold.Chemscore.Lipo.Weighted>
-7.6787

> <Gold.Chemscore.Internal_Hbond.Weighted>
0.0000

> <Gold.Chemscore.DEClash.Weighted>
0.0825

> <Gold.Chemscore.DEInternal.Weighted>
5.2423

> <Gold.Chemscore.Rot.Weighted>
3.5567

> <Gold.Chemscore.Internal.Correction.Weighted>
   9.000000E+99

> <Gold.Protein.RotatedTorsions>
[ 6907 6896 6895 6894 ] final   63.49 input  -60.11 | X-H torsion
[ 7974 7965 7964 7962 ] final  -65.43 input  175.53 | X-H torsion
[ 8008 7997 7996 7995 ] final   83.17 input   59.86 | X-H torsion
[ 10167 10162 10161 10158 ] final -140.23 input  -65.29 | X-H torsion
[ 10718 10713 10712 10709 ] final   75.42 input   66.30 | X-H torsion
[ 10763 10752 10751 10750 ] final -172.65 input  -60.55 | X-H torsion
[ 11005 11000 10999 10996 ] final   42.32 input  -57.11 | X-H torsion

> <Gold.Protein.ActiveResidues>
 VAL166  LYS551  ARG553  GLY616  TRP617  ASP618  TYR619  PRO620  LYS621  CYS622 
 ASP623  PHE694  ASN695  SER759  ASP760  ASP761  ALA762  ILE779  LEU786  VAL792 
 PHE793  MET794  SER795  GLU796  ALA797  LYS798  CYS799  TRP800  GLU811  SER814 

> <Gold.Protein.RotatedAtoms>
  152.4257  134.5873  159.9964 H   0  0  0  0  0  0  0  0  0  0  0  0  # atno 6907 bound_to 6896
  151.6010  133.3351  159.3055 H   0  0  0  0  0  0  0  0  0  0  0  0  # atno 6908 bound_to 6896
  150.8146  134.7358  159.6784 H   0  0  0  0  0  0  0  0  0  0  0  0  # atno 6909 bound_to 6896
  145.7543  140.8893  143.0463 H   0  0  0  0  0  0  0  0  0  0  0  0  # atno 7974 bound_to 7965
  155.9204  140.3421  155.6168 H   0  0  0  0  0  0  0  0  0  0  0  0  # atno 8008 bound_to 7997
  155.7280  140.0792  157.2320 H   0  0  0  0  0  0  0  0  0  0  0  0  # atno 8009 bound_to 7997
  154.4069  140.1593  156.2464 H   0  0  0  0  0  0  0  0  0  0  0  0  # atno 8010 bound_to 7997
  139.8302  143.7457  152.2666 H   0  0  0  0  0  0  0  0  0  0  0  0  # atno 10167 bound_to 10162
  157.6633  130.9725  150.1351 H   0  0  0  0  0  0  0  0  0  0  0  0  # atno 10718 bound_to 10713
  154.6169  135.2871  155.0370 H   0  0  0  0  0  0  0  0  0  0  0  0  # atno 10763 bound_to 10752
  154.1580  135.6493  153.4983 H   0  0  0  0  0  0  0  0  0  0  0  0  # atno 10764 bound_to 10752
  153.0219  135.5371  154.6943 H   0  0  0  0  0  0  0  0  0  0  0  0  # atno 10765 bound_to 10752
  140.1750  134.4174  155.8234 H   0  0  0  0  0  0  0  0  0  0  0  0  # atno 11005 bound_to 11000
  144.6843  139.9635  143.7481 LP  0  0  0  0  0  0  0  0  0  0  0  0  # atno 17320 bound_to 7965
  146.0326  139.3348  143.0746 LP  0  0  0  0  0  0  0  0  0  0  0  0  # atno 17321 bound_to 7965
  139.7662  144.7491  151.0291 LP  0  0  0  0  0  0  0  0  0  0  0  0  # atno 17342 bound_to 10162
  140.7807  143.4695  151.0165 LP  0  0  0  0  0  0  0  0  0  0  0  0  # atno 17343 bound_to 10162
  156.2187  130.3672  149.8581 LP  0  0  0  0  0  0  0  0  0  0  0  0  # atno 17370 bound_to 10713
  156.6440  130.8716  151.3519 LP  0  0  0  0  0  0  0  0  0  0  0  0  # atno 17371 bound_to 10713
  141.2220  133.6974  156.7831 LP  0  0  0  0  0  0  0  0  0  0  0  0  # atno 17394 bound_to 11000
  140.2333  134.8669  157.3499 LP  0  0  0  0  0  0  0  0  0  0  0  0  # atno 17395 bound_to 11000

$$$$
