AV-unprocessed.smi:2902|AV-procd|sdf|11153|dock7
  -GOLD-   2272016 33D 1   1.00000     0.00000
 Structure written by MMmdl.
 47 48  0  0  0  0  0  0  0  0  1 V2000
  151.1281  139.6329  156.8588 C   0  0  0  0  0  0  0  0  0  0  0  0
  150.9400  140.9831  156.1562 C   0  0  0  0  0  0  0  0  0  0  0  0
  150.6246  142.1264  157.1388 C   0  0  2  0  0  0  0  0  0  0  0  0
  151.5993  142.0924  158.1818 O   0  0  0  0  0  0  0  0  0  0  0  0
  151.4809  143.0771  159.2064 C   0  0  0  0  0  0  0  0  0  0  0  0
  151.8733  144.4851  158.7481 C   0  0  0  0  0  0  0  0  0  0  0  0
  152.3198  145.2138  160.0219 C   0  0  0  0  0  0  0  0  0  0  0  0
  152.6351  144.1235  161.0576 C   0  0  0  0  0  0  0  0  0  0  0  0
  152.4755  142.7867  160.3285 C   0  0  0  0  0  0  0  0  0  0  0  0
  149.2118  141.9778  157.7233 C   0  0  0  0  0  0  0  0  0  0  0  0
  148.9031  140.9645  158.3505 O   0  0  0  0  0  0  0  0  0  0  0  0
  148.3701  143.0006  157.5030 N   0  0  0  0  0  0  0  0  0  0  0  0
  146.9715  143.0732  157.9269 C   0  0  1  0  0  0  0  0  0  0  0  0
  146.1840  142.0245  157.1240 C   0  0  0  0  0  0  0  0  0  0  0  0
  146.8612  142.8762  159.4644 C   0  0  2  0  0  0  0  0  0  0  0  0
  145.4201  142.6079  159.9405 C   0  0  0  0  0  0  0  0  0  0  0  0
  147.4239  144.0117  160.1877 N   0  0  0  0  0  0  0  0  0  0  0  0
  146.9196  145.2275  160.4088 C   0  0  0  0  0  0  0  0  0  0  0  0
  147.6909  146.0017  161.1590 N   0  0  0  0  0  0  0  0  0  0  0  0
  148.7264  145.1400  161.3858 C   0  0  0  0  0  0  0  0  0  0  0  0
  148.6158  143.9342  160.8291 N   0  0  0  0  0  0  0  0  0  0  0  0
  151.3587  138.8492  156.1370 H   0  0  0  0  0  0  0  0  0  0  0  0
  150.2255  139.3364  157.3937 H   0  0  0  0  0  0  0  0  0  0  0  0
  151.9462  139.6737  157.5780 H   0  0  0  0  0  0  0  0  0  0  0  0
  151.8499  141.2151  155.6000 H   0  0  0  0  0  0  0  0  0  0  0  0
  150.1431  140.8959  155.4161 H   0  0  0  0  0  0  0  0  0  0  0  0
  150.6914  143.0703  156.5955 H   0  0  0  0  0  0  0  0  0  0  0  0
  150.4779  143.0935  159.6352 H   0  0  0  0  0  0  0  0  0  0  0  0
  152.7128  144.4232  158.0540 H   0  0  0  0  0  0  0  0  0  0  0  0
  151.0600  145.0019  158.2380 H   0  0  0  0  0  0  0  0  0  0  0  0
  153.1858  145.8470  159.8261 H   0  0  0  0  0  0  0  0  0  0  0  0
  151.5219  145.8586  160.3928 H   0  0  0  0  0  0  0  0  0  0  0  0
  153.6336  144.2342  161.4816 H   0  0  0  0  0  0  0  0  0  0  0  0
  151.9221  144.1835  161.8809 H   0  0  0  0  0  0  0  0  0  0  0  0
  152.1434  141.9841  160.9874 H   0  0  0  0  0  0  0  0  0  0  0  0
  153.4350  142.4895  159.9022 H   0  0  0  0  0  0  0  0  0  0  0  0
  148.7243  143.7909  156.9838 H   0  0  0  0  0  0  0  0  0  0  0  0
  146.5592  144.0507  157.6700 H   0  0  0  0  0  0  0  0  0  0  0  0
  145.1113  142.1055  157.2983 H   0  0  0  0  0  0  0  0  0  0  0  0
  146.4911  141.0109  157.3836 H   0  0  0  0  0  0  0  0  0  0  0  0
  146.3419  142.1549  156.0527 H   0  0  0  0  0  0  0  0  0  0  0  0
  147.4583  142.0045  159.7371 H   0  0  0  0  0  0  0  0  0  0  0  0
  145.0398  141.6612  159.5575 H   0  0  0  0  0  0  0  0  0  0  0  0
  144.7381  143.3957  159.6190 H   0  0  0  0  0  0  0  0  0  0  0  0
  145.3730  142.5518  161.0285 H   0  0  0  0  0  0  0  0  0  0  0  0
  145.9630  145.5488  160.0240 H   0  0  0  0  0  0  0  0  0  0  0  0
  149.5868  145.4088  161.9810 H   0  0  0  0  0  0  0  0  0  0  0  0
  1  2  1  0  0  0  0
  1 22  1  0  0  0  0
  1 23  1  0  0  0  0
  1 24  1  0  0  0  0
  2  3  1  0  0  0  0
  2 25  1  0  0  0  0
  2 26  1  0  0  0  0
  3  4  1  0  0  0  0
  3 10  1  0  0  0  0
  3 27  1  0  0  0  0
  4  5  1  0  0  0  0
  5  9  1  0  0  0  0
  5  6  1  0  0  0  0
  5 28  1  0  0  0  0
  6  7  1  0  0  0  0
  6 29  1  0  0  0  0
  6 30  1  0  0  0  0
  7  8  1  0  0  0  0
  7 31  1  0  0  0  0
  7 32  1  0  0  0  0
  8  9  1  0  0  0  0
  8 33  1  0  0  0  0
  8 34  1  0  0  0  0
  9 35  1  0  0  0  0
  9 36  1  0  0  0  0
 10 11  2  0  0  0  0
 10 12  1  0  0  0  0
 12 13  1  0  0  0  0
 12 37  1  0  0  0  0
 13 14  1  0  0  0  0
 13 15  1  0  0  0  0
 13 38  1  0  0  0  0
 14 39  1  0  0  0  0
 14 40  1  0  0  0  0
 14 41  1  0  0  0  0
 15 16  1  0  0  0  0
 15 17  1  0  0  0  0
 15 42  1  0  0  0  0
 16 43  1  0  0  0  0
 16 44  1  0  0  0  0
 16 45  1  0  0  0  0
 17 21  1  0  0  0  0
 17 18  1  0  0  0  0
 18 19  2  0  0  0  0
 18 46  1  0  0  0  0
 19 20  1  0  0  0  0
 20 21  2  0  0  0  0
 20 47  1  0  0  0  0
M  END
> <s_m_source_file>
AV-unprocessed.smi

> <i_m_source_file_index>
2902

> <i_lp_mmshare_version>
43012

> <i_f3d_flags>
0

> <s_epik_input>
W0NIMl0xW0NIMl1bQ0gyXVtDSDJdW0NIXTFPW0NAQEhdKFtDSDJdW0NIM10pQyg9TylbTkhdW0NASF0oW0NIM10pW0NASF0oW0NIM10pbjJbY0hdbltjSF1uMg==

> <s_epik_cmdline>
J2VwaWtfcHl0aG9uJywgJy1waCcsICc3LjAnLCAnLXRuJywgJzgnLCAnLW1hJywgJzIwMCcsICctbWV0YWxfYmluZGluZycsICctaW1hZScsICc8aW5maWxlLm1hZT4nLCAnLW9tYWUnLCAnPG91dGZpbGUubWFlPic=

> <r_lp_tautomer_probability>
1

> <r_epik_Ionization_Penalty>
6.95617e-05

> <r_epik_Ionization_Penalty_Charging>
0

> <r_epik_Ionization_Penalty_Neutral>
6.95617e-05

> <r_epik_State_Penalty>
-0

> <r_epik_Charging_Adjusted_Penalty>
0

> <i_epik_Tot_Q>
0

> <i_epik_Tot_abs_Q>
0

> <r_epik_Metal_State_Penalty>
-0

> <b_epik_Metal_Only>
0

> <s_lp_Force_Field>
OPLS_2005

> <r_lp_Energy>
29.2018

> <b_lp_Chiralities_Consistent>
1

> <s_lp_Variant>
AV-unprocessed.smi:2902-3

> <Gold.Version>
5.8.1

> <Gold.Id.Protein>
6NUR|6NUR_protein|mol2

> <Gold.PLP.Fitness>
43.8387

> <Gold.PLP.PLP>
-38.8987

> <Gold.PLP.part.hbond>
-3.4666

> <Gold.PLP.part.metal>
0.0000

> <Gold.PLP.part.buried>
-5.1460

> <Gold.PLP.part.nonpolar>
-30.2624

> <Gold.PLP.part.repulsive>
0.3961

> <Gold.PLP.ligand.clash>
0.0000

> <Gold.PLP.ligand.torsion>
0.5537

> <Gold.PLP.Chemscore.Hbond>
1.9500

> <Gold.PLP.Chemscore.CHOScore>
0.0000

> <Gold.PLP.Chemscore.Metal>
0.0000

> <Gold.Chemscore.Hbonds>
donor molecule, donor type, donor heavy atom, donor atom, acceptor molecule, acceptor atom, score
      L1  H    12    37       P1  8028  0.85
      P1  H  6933  6944       L1    21  0.86

> <Gold.PLP.Chemscore.Internal.Correction>
0.1973

> <Gold.Rescore>
     Score         DG    S(hbond)    S(metal)    S(lipo)     H(rot)  DE(clash)    DE(int)     intcor
     11.94     -14.45       1.88        0.00      81.89       2.69       0.00       2.51       ----

> <Gold.Chemscore.Fitness>
11.9391

> <Gold.Chemscore.DG>
-14.4487

> <Gold.Chemscore.ZeroCoef>
-5.4800

> <Gold.Chemscore.Hbond>
1.8812

> <Gold.Chemscore.Metal>
0.0000

> <Gold.Chemscore.Lipo>
81.8883

> <Gold.Chemscore.Internal_Hbond>
0.0000

> <Gold.Chemscore.DEClash>
0.0042

> <Gold.Chemscore.DEInternal>
2.5054

> <Gold.Chemscore.Rot>
2.6935

> <Gold.Chemscore.Internal.Correction>
   9.000000E+99

> <Gold.Chemscore.Hbonds>
donor molecule, donor type, donor heavy atom, donor atom, acceptor molecule, acceptor atom, score
      L1  H    12    37       P1  8028  0.14
      P1  H  6933  6944       L1    21  0.25

> <Gold.Chemscore.Hbond.Weighted>
-6.2831

> <Gold.Chemscore.Metal.Weighted>
-0.0000

> <Gold.Chemscore.Lipo.Weighted>
-9.5809

> <Gold.Chemscore.Internal_Hbond.Weighted>
0.0000

> <Gold.Chemscore.DEClash.Weighted>
0.0042

> <Gold.Chemscore.DEInternal.Weighted>
2.5054

> <Gold.Chemscore.Rot.Weighted>
6.8954

> <Gold.Chemscore.Internal.Correction.Weighted>
   9.000000E+99

> <Gold.Protein.RotatedTorsions>
[ 6907 6896 6895 6894 ] final   48.51 input  -60.11 | X-H torsion
[ 7974 7965 7964 7962 ] final   31.83 input  175.53 | X-H torsion
[ 8008 7997 7996 7995 ] final -158.10 input   59.86 | X-H torsion
[ 10167 10162 10161 10158 ] final  -85.85 input  -65.29 | X-H torsion
[ 10718 10713 10712 10709 ] final -179.16 input   66.30 | X-H torsion
[ 10763 10752 10751 10750 ] final  122.85 input  -60.55 | X-H torsion
[ 11005 11000 10999 10996 ] final    9.64 input  -57.11 | X-H torsion

> <Gold.Protein.ActiveResidues>
 VAL166  LYS551  ARG553  GLY616  TRP617  ASP618  TYR619  PRO620  LYS621  CYS622 
 ASP623  PHE694  ASN695  SER759  ASP760  ASP761  ALA762  ILE779  LEU786  VAL792 
 PHE793  MET794  SER795  GLU796  ALA797  LYS798  CYS799  TRP800  GLU811  SER814 

> <Gold.Protein.RotatedAtoms>
  152.2803  134.7836  160.0397 H   0  0  0  0  0  0  0  0  0  0  0  0  # atno 6907 bound_to 6896
  151.8418  133.3419  159.3653 H   0  0  0  0  0  0  0  0  0  0  0  0  # atno 6908 bound_to 6896
  150.7187  134.5312  159.5745 H   0  0  0  0  0  0  0  0  0  0  0  0  # atno 6909 bound_to 6896
  146.1525  139.6605  142.9089 H   0  0  0  0  0  0  0  0  0  0  0  0  # atno 7974 bound_to 7965
  155.7425  140.0816  157.2239 H   0  0  0  0  0  0  0  0  0  0  0  0  # atno 8008 bound_to 7997
  154.4020  140.1575  156.2688 H   0  0  0  0  0  0  0  0  0  0  0  0  # atno 8009 bound_to 7997
  155.9007  140.3410  155.6027 H   0  0  0  0  0  0  0  0  0  0  0  0  # atno 8010 bound_to 7997
  140.3997  143.2668  151.9158 H   0  0  0  0  0  0  0  0  0  0  0  0  # atno 10167 bound_to 10162
  156.8551  130.9732  151.3089 H   0  0  0  0  0  0  0  0  0  0  0  0  # atno 10718 bound_to 10713
  153.6362  135.3387  155.3057 H   0  0  0  0  0  0  0  0  0  0  0  0  # atno 10763 bound_to 10752
  154.8569  135.4307  154.2053 H   0  0  0  0  0  0  0  0  0  0  0  0  # atno 10764 bound_to 10752
  153.2961  135.7021  153.7321 H   0  0  0  0  0  0  0  0  0  0  0  0  # atno 10765 bound_to 10752
  140.5234  134.0536  155.7851 H   0  0  0  0  0  0  0  0  0  0  0  0  # atno 11005 bound_to 11000
  145.4789  141.0437  143.2657 LP  0  0  0  0  0  0  0  0  0  0  0  0  # atno 17320 bound_to 7965
  144.7922  139.6306  143.7108 LP  0  0  0  0  0  0  0  0  0  0  0  0  # atno 17321 bound_to 7965
  139.4785  144.5645  151.8186 LP  0  0  0  0  0  0  0  0  0  0  0  0  # atno 17342 bound_to 10162
  140.4752  144.1529  150.5924 LP  0  0  0  0  0  0  0  0  0  0  0  0  # atno 17343 bound_to 10162
  157.6282  130.8708  149.9226 LP  0  0  0  0  0  0  0  0  0  0  0  0  # atno 17370 bound_to 10713
  156.0807  130.3673  150.0586 LP  0  0  0  0  0  0  0  0  0  0  0  0  # atno 17371 bound_to 10713
  141.1321  133.9284  157.2512 LP  0  0  0  0  0  0  0  0  0  0  0  0  # atno 17394 bound_to 11000
  139.9593  135.0158  156.9217 LP  0  0  0  0  0  0  0  0  0  0  0  0  # atno 17395 bound_to 11000

$$$$
