AV-unprocessed.smi:2826|AV-procd|sdf|10893|dock6
  -GOLD-   2272015343D 1   1.00000     0.00000
 Structure written by MMmdl.
 50 51  0  0  0  0  0  0  0  0  1 V2000
  153.2063  139.2526  159.2335 C   0  0  0  0  0  0  0  0  0  0  0  0
  152.8240  139.6777  157.9301 O   0  0  0  0  0  0  0  0  0  0  0  0
  152.1276  138.7944  157.1308 C   0  0  0  0  0  0  0  0  0  0  0  0
  152.1138  137.4318  157.4844 C   0  0  0  0  0  0  0  0  0  0  0  0
  151.4062  136.5260  156.6727 C   0  0  0  0  0  0  0  0  0  0  0  0
  150.7383  137.0084  155.5214 C   0  0  0  0  0  0  0  0  0  0  0  0
  149.9807  136.1716  154.6547 N   0  0  0  0  0  0  0  0  0  0  0  0
  149.5731  134.9085  154.8659 C   0  0  0  0  0  0  0  0  0  0  0  0
  149.8144  134.2428  155.8729 O   0  0  0  0  0  0  0  0  0  0  0  0
  148.8790  134.4405  153.8186 N   0  0  0  0  0  0  0  0  0  0  0  0
  148.3134  133.0980  153.7199 C   0  0  1  0  0  0  0  0  0  0  0  0
  147.6915  132.6896  155.0628 C   0  0  0  0  0  0  0  0  0  0  0  0
  146.9675  131.3405  154.9333 C   0  0  0  0  0  0  0  0  0  0  0  0
  145.9885  131.4124  153.9024 O   0  0  0  0  0  0  0  0  0  0  0  0
  146.5434  131.6591  152.6123 C   0  0  1  0  0  0  0  0  0  0  0  0
  145.4106  131.6007  151.5704 C   0  0  0  0  0  0  0  0  0  0  0  0
  145.4595  132.7092  150.4963 C   0  0  0  0  0  0  0  0  0  0  0  0
  144.9067  134.0512  151.0056 C   0  0  0  0  0  0  0  0  0  0  0  0
  144.7058  132.2688  149.2320 C   0  0  0  0  0  0  0  0  0  0  0  0
  147.2382  133.0344  152.6216 C   0  0  0  0  0  0  0  0  0  0  0  0
  150.7992  138.3987  155.2603 C   0  0  0  0  0  0  0  0  0  0  0  0
  150.0978  139.0112  154.0606 C   0  0  0  0  0  0  0  0  0  0  0  0
  151.4783  139.2689  156.0398 N   0  0  0  0  0  0  0  0  0  0  0  0
  153.7395  140.0604  159.7343 H   0  0  0  0  0  0  0  0  0  0  0  0
  153.8741  138.3912  159.1923 H   0  0  0  0  0  0  0  0  0  0  0  0
  152.3369  139.0030  159.8431 H   0  0  0  0  0  0  0  0  0  0  0  0
  152.6327  137.0870  158.3666 H   0  0  0  0  0  0  0  0  0  0  0  0
  151.3764  135.4854  156.9565 H   0  0  0  0  0  0  0  0  0  0  0  0
  149.7893  136.5543  153.7406 H   0  0  0  0  0  0  0  0  0  0  0  0
  148.7332  135.0543  153.0305 H   0  0  0  0  0  0  0  0  0  0  0  0
  149.1087  132.3885  153.4821 H   0  0  0  0  0  0  0  0  0  0  0  0
  148.4596  132.6290  155.8348 H   0  0  0  0  0  0  0  0  0  0  0  0
  146.9780  133.4481  155.3887 H   0  0  0  0  0  0  0  0  0  0  0  0
  147.6750  130.5367  154.7230 H   0  0  0  0  0  0  0  0  0  0  0  0
  146.4723  131.0897  155.8715 H   0  0  0  0  0  0  0  0  0  0  0  0
  147.2867  130.8941  152.3859 H   0  0  0  0  0  0  0  0  0  0  0  0
  145.4465  130.6269  151.0801 H   0  0  0  0  0  0  0  0  0  0  0  0
  144.4473  131.6417  152.0806 H   0  0  0  0  0  0  0  0  0  0  0  0
  146.5004  132.8635  150.2097 H   0  0  0  0  0  0  0  0  0  0  0  0
  143.8792  133.9493  151.3558 H   0  0  0  0  0  0  0  0  0  0  0  0
  144.9138  134.8023  150.2152 H   0  0  0  0  0  0  0  0  0  0  0  0
  145.5024  134.4490  151.8265 H   0  0  0  0  0  0  0  0  0  0  0  0
  143.6496  132.0950  149.4408 H   0  0  0  0  0  0  0  0  0  0  0  0
  145.1213  131.3458  148.8265 H   0  0  0  0  0  0  0  0  0  0  0  0
  144.7707  133.0266  148.4506 H   0  0  0  0  0  0  0  0  0  0  0  0
  146.4951  133.8161  152.7878 H   0  0  0  0  0  0  0  0  0  0  0  0
  147.6847  133.2319  151.6462 H   0  0  0  0  0  0  0  0  0  0  0  0
  150.4438  138.5435  153.1384 H   0  0  0  0  0  0  0  0  0  0  0  0
  150.2904  140.0825  153.9868 H   0  0  0  0  0  0  0  0  0  0  0  0
  149.0199  138.8669  154.1382 H   0  0  0  0  0  0  0  0  0  0  0  0
  1  2  1  0  0  0  0
  1 24  1  0  0  0  0
  1 25  1  0  0  0  0
  1 26  1  0  0  0  0
  2  3  1  0  0  0  0
  3 23  1  0  0  0  0
  3  4  2  0  0  0  0
  4  5  1  0  0  0  0
  4 27  1  0  0  0  0
  5  6  2  0  0  0  0
  5 28  1  0  0  0  0
  6  7  1  0  0  0  0
  6 21  1  0  0  0  0
  7  8  1  0  0  0  0
  7 29  1  0  0  0  0
  8  9  2  0  0  0  0
  8 10  1  0  0  0  0
 10 11  1  0  0  0  0
 10 30  1  0  0  0  0
 11 20  1  0  0  0  0
 11 12  1  0  0  0  0
 11 31  1  0  0  0  0
 12 13  1  0  0  0  0
 12 32  1  0  0  0  0
 12 33  1  0  0  0  0
 13 14  1  0  0  0  0
 13 34  1  0  0  0  0
 13 35  1  0  0  0  0
 14 15  1  0  0  0  0
 15 16  1  0  0  0  0
 15 20  1  0  0  0  0
 15 36  1  0  0  0  0
 16 17  1  0  0  0  0
 16 37  1  0  0  0  0
 16 38  1  0  0  0  0
 17 18  1  0  0  0  0
 17 19  1  0  0  0  0
 17 39  1  0  0  0  0
 18 40  1  0  0  0  0
 18 41  1  0  0  0  0
 18 42  1  0  0  0  0
 19 43  1  0  0  0  0
 19 44  1  0  0  0  0
 19 45  1  0  0  0  0
 20 46  1  0  0  0  0
 20 47  1  0  0  0  0
 21 22  1  0  0  0  0
 21 23  2  0  0  0  0
 22 48  1  0  0  0  0
 22 49  1  0  0  0  0
 22 50  1  0  0  0  0
M  END
> <s_m_source_file>
AV-unprocessed.smi

> <i_m_source_file_index>
2826

> <i_lp_mmshare_version>
43012

> <i_f3d_flags>
0

> <s_epik_input>
W0NIM11PYzFbY0hdW2NIXWMoYyhuMSlbQ0gzXSlbTkhdQyg9TylbTkhdW0NAQEhdMltDSDJdW0NIMl1PW0NASF0oW0NIMl0yKVtDSDJdW0NIXShbQ0gzXSlbQ0gzXQ==

> <s_epik_cmdline>
J2VwaWtfcHl0aG9uJywgJy1waCcsICc3LjAnLCAnLXRuJywgJzgnLCAnLW1hJywgJzIwMCcsICctbWV0YWxfYmluZGluZycsICctaW1hZScsICc8aW5maWxlLm1hZT4nLCAnLW9tYWUnLCAnPG91dGZpbGUubWFlPic=

> <r_lp_tautomer_probability>
1

> <r_epik_Ionization_Penalty>
0.000249977

> <r_epik_Ionization_Penalty_Charging>
0

> <r_epik_Ionization_Penalty_Neutral>
0.000249977

> <r_epik_State_Penalty>
-0

> <r_epik_Charging_Adjusted_Penalty>
0

> <i_epik_Tot_Q>
0

> <i_epik_Tot_abs_Q>
0

> <r_epik_Metal_State_Penalty>
-0

> <b_epik_Metal_Only>
0

> <s_lp_Force_Field>
OPLS_2005

> <r_lp_Energy>
13.3691

> <b_lp_Chiralities_Consistent>
1

> <s_lp_Variant>
AV-unprocessed.smi:2826-2

> <Gold.Version>
5.8.1

> <Gold.Id.Protein>
6NUR|6NUR_protein|mol2

> <Gold.PLP.Fitness>
39.2269

> <Gold.PLP.PLP>
-33.0408

> <Gold.PLP.part.hbond>
-3.3270

> <Gold.PLP.part.metal>
0.0000

> <Gold.PLP.part.buried>
-4.0646

> <Gold.PLP.part.nonpolar>
-26.0928

> <Gold.PLP.part.repulsive>
0.2741

> <Gold.PLP.ligand.clash>
0.0000

> <Gold.PLP.ligand.torsion>
1.3099

> <Gold.PLP.Chemscore.Hbond>
2.9199

> <Gold.PLP.Chemscore.CHOScore>
0.0000

> <Gold.PLP.Chemscore.Metal>
0.0000

> <Gold.Chemscore.Hbonds>
donor molecule, donor type, donor heavy atom, donor atom, acceptor molecule, acceptor atom, score
      L1  H     7    29       P1  7948  0.91
      L1  H    10    30       P1  7948  1.00
      P1  H  7997  8010       L1     2  1.00

> <Gold.PLP.Chemscore.Internal.Correction>
0.0463

> <Gold.Rescore>
     Score         DG    S(hbond)    S(metal)    S(lipo)     H(rot)  DE(clash)    DE(int)     intcor
     12.52     -16.65       1.46        0.00      86.86       1.51       0.10       4.03       ----

> <Gold.Chemscore.Fitness>
12.5159

> <Gold.Chemscore.DG>
-16.6523

> <Gold.Chemscore.ZeroCoef>
-5.4800

> <Gold.Chemscore.Hbond>
1.4562

> <Gold.Chemscore.Metal>
0.0000

> <Gold.Chemscore.Lipo>
86.8643

> <Gold.Chemscore.Internal_Hbond>
0.0000

> <Gold.Chemscore.DEClash>
0.1046

> <Gold.Chemscore.DEInternal>
4.0317

> <Gold.Chemscore.Rot>
1.5057

> <Gold.Chemscore.Internal.Correction>
   9.000000E+99

> <Gold.Chemscore.Hbonds>
donor molecule, donor type, donor heavy atom, donor atom, acceptor molecule, acceptor atom, score
      L1  H     7    29       P1  7948  0.37
      L1  H    10    30       P1  7948  0.44
      P1  H  7997  8010       L1     2  0.28

> <Gold.Chemscore.Hbond.Weighted>
-4.8638

> <Gold.Chemscore.Metal.Weighted>
-0.0000

> <Gold.Chemscore.Lipo.Weighted>
-10.1631

> <Gold.Chemscore.Internal_Hbond.Weighted>
0.0000

> <Gold.Chemscore.DEClash.Weighted>
0.1046

> <Gold.Chemscore.DEInternal.Weighted>
4.0317

> <Gold.Chemscore.Rot.Weighted>
3.8547

> <Gold.Chemscore.Internal.Correction.Weighted>
   9.000000E+99

> <Gold.Protein.RotatedTorsions>
[ 6907 6896 6895 6894 ] final  177.42 input  -60.11 | X-H torsion
[ 7974 7965 7964 7962 ] final    8.09 input  175.53 | X-H torsion
[ 8008 7997 7996 7995 ] final   44.33 input   59.86 | X-H torsion
[ 10167 10162 10161 10158 ] final  116.60 input  -65.29 | X-H torsion
[ 10718 10713 10712 10709 ] final  -62.27 input   66.30 | X-H torsion
[ 10763 10752 10751 10750 ] final -128.95 input  -60.55 | X-H torsion
[ 11005 11000 10999 10996 ] final   37.88 input  -57.11 | X-H torsion

> <Gold.Protein.ActiveResidues>
 VAL166  LYS551  ARG553  GLY616  TRP617  ASP618  TYR619  PRO620  LYS621  CYS622 
 ASP623  PHE694  ASN695  SER759  ASP760  ASP761  ALA762  ILE779  LEU786  VAL792 
 PHE793  MET794  SER795  GLU796  ALA797  LYS798  CYS799  TRP800  GLU811  SER814 

> <Gold.Protein.RotatedAtoms>
  151.7043  133.3311  159.3274 H   0  0  0  0  0  0  0  0  0  0  0  0  # atno 6907 bound_to 6896
  150.7722  134.6588  159.6337 H   0  0  0  0  0  0  0  0  0  0  0  0  # atno 6908 bound_to 6896
  152.3750  134.6679  160.0215 H   0  0  0  0  0  0  0  0  0  0  0  0  # atno 6909 bound_to 6896
  146.2420  139.9986  142.8418 H   0  0  0  0  0  0  0  0  0  0  0  0  # atno 7974 bound_to 7965
  155.3175  140.3395  155.4242 H   0  0  0  0  0  0  0  0  0  0  0  0  # atno 8008 bound_to 7997
  156.1925  140.1703  156.8101 H   0  0  0  0  0  0  0  0  0  0  0  0  # atno 8009 bound_to 7997
  154.5459  140.0715  156.8572 H   0  0  0  0  0  0  0  0  0  0  0  0  # atno 8010 bound_to 7997
  139.6236  144.7105  151.2582 H   0  0  0  0  0  0  0  0  0  0  0  0  # atno 10167 bound_to 10162
  156.0866  130.4207  150.1111 H   0  0  0  0  0  0  0  0  0  0  0  0  # atno 10718 bound_to 10713
  154.8757  135.3911  154.3840 H   0  0  0  0  0  0  0  0  0  0  0  0  # atno 10763 bound_to 10752
  153.4584  135.7029  153.6071 H   0  0  0  0  0  0  0  0  0  0  0  0  # atno 10764 bound_to 10752
  153.4580  135.3818  155.2290 H   0  0  0  0  0  0  0  0  0  0  0  0  # atno 10765 bound_to 10752
  140.2181  134.3674  155.8017 H   0  0  0  0  0  0  0  0  0  0  0  0  # atno 11005 bound_to 11000
  145.1437  140.9585  143.4474 LP  0  0  0  0  0  0  0  0  0  0  0  0  # atno 17320 bound_to 7965
  145.0272  139.3373  143.6043 LP  0  0  0  0  0  0  0  0  0  0  0  0  # atno 17321 bound_to 7965
  140.7397  143.6610  150.8164 LP  0  0  0  0  0  0  0  0  0  0  0  0  # atno 17342 bound_to 10162
  140.0224  143.5528  152.2795 LP  0  0  0  0  0  0  0  0  0  0  0  0  # atno 17343 bound_to 10162
  156.9131  130.9658  151.3560 LP  0  0  0  0  0  0  0  0  0  0  0  0  # atno 17370 bound_to 10713
  157.6003  130.8507  149.8791 LP  0  0  0  0  0  0  0  0  0  0  0  0  # atno 17371 bound_to 10713
  141.2224  133.7179  156.8530 LP  0  0  0  0  0  0  0  0  0  0  0  0  # atno 17394 bound_to 11000
  140.1879  134.8987  157.3026 LP  0  0  0  0  0  0  0  0  0  0  0  0  # atno 17395 bound_to 11000

$$$$
