AV-unprocessed.smi:1108|AV-procd|sdf|4787|dock5
  -GOLD-   22720 3333D 1   1.00000     0.00000
 Structure written by MMmdl.
 31 32  0  0  0  0  0  0  0  0  1 V2000
  151.5491  144.9364  158.9188 C   0  0  0  0  0  0  0  0  0  0  0  0
  151.1548  143.4555  158.8366 C   0  0  2  0  0  0  0  0  0  0  0  0
  152.3921  142.5389  158.9475 C   0  0  0  0  0  0  0  0  0  0  0  0
  152.8548  142.3802  160.3147 N   0  0  0  0  0  0  0  0  0  0  0  0
  152.4616  143.0748  161.4394 C   0  0  0  0  0  0  0  0  0  0  0  0
  153.1818  142.5856  162.4912 C   0  0  0  0  0  0  0  0  0  0  0  0
  153.9962  141.5779  161.9030 C   0  0  0  0  0  0  0  0  0  0  0  0
  153.7951  141.4542  160.6010 N   0  0  0  0  0  0  0  0  0  0  0  0
  150.4460  143.2241  157.5783 N   0  0  0  0  0  0  0  0  0  0  0  0
  150.1331  142.0251  157.0648 C   0  0  0  0  0  0  0  0  0  0  0  0
  150.4063  140.9505  157.5999 O   0  0  0  0  0  0  0  0  0  0  0  0
  149.4961  142.1412  155.8922 N   0  0  0  0  0  0  0  0  0  0  0  0
  149.0433  141.0537  155.0870 C   0  0  0  0  0  0  0  0  0  0  0  0
  148.3703  141.3851  153.7726 C   0  0  0  0  0  0  0  0  0  0  0  0
  147.5492  140.8746  154.9245 C   0  0  0  0  0  0  0  0  0  0  0  0
  152.0526  145.1559  159.8607 H   0  0  0  0  0  0  0  0  0  0  0  0
  150.6713  145.5808  158.8588 H   0  0  0  0  0  0  0  0  0  0  0  0
  152.2240  145.2146  158.1085 H   0  0  0  0  0  0  0  0  0  0  0  0
  150.4901  143.2540  159.6788 H   0  0  0  0  0  0  0  0  0  0  0  0
  152.1775  141.5528  158.5332 H   0  0  0  0  0  0  0  0  0  0  0  0
  153.2158  142.9484  158.3607 H   0  0  0  0  0  0  0  0  0  0  0  0
  151.7161  143.8550  161.3962 H   0  0  0  0  0  0  0  0  0  0  0  0
  153.1356  142.9005  163.5229 H   0  0  0  0  0  0  0  0  0  0  0  0
  154.7219  140.9363  162.3803 H   0  0  0  0  0  0  0  0  0  0  0  0
  150.1755  144.0448  157.0564 H   0  0  0  0  0  0  0  0  0  0  0  0
  149.3213  143.0702  155.5378 H   0  0  0  0  0  0  0  0  0  0  0  0
  149.6338  140.1385  155.1047 H   0  0  0  0  0  0  0  0  0  0  0  0
  148.2625  142.4345  153.5055 H   0  0  0  0  0  0  0  0  0  0  0  0
  148.5410  140.7082  152.9380 H   0  0  0  0  0  0  0  0  0  0  0  0
  147.1706  139.8567  154.8592 H   0  0  0  0  0  0  0  0  0  0  0  0
  146.8936  141.5835  155.4268 H   0  0  0  0  0  0  0  0  0  0  0  0
  1  2  1  0  0  0  0
  1 16  1  0  0  0  0
  1 17  1  0  0  0  0
  1 18  1  0  0  0  0
  2  3  1  0  0  0  0
  2  9  1  0  0  0  0
  2 19  1  0  0  0  0
  3  4  1  0  0  0  0
  3 20  1  0  0  0  0
  3 21  1  0  0  0  0
  4  8  1  0  0  0  0
  4  5  1  0  0  0  0
  5  6  2  0  0  0  0
  5 22  1  0  0  0  0
  6  7  1  0  0  0  0
  6 23  1  0  0  0  0
  7  8  2  0  0  0  0
  7 24  1  0  0  0  0
  9 10  1  0  0  0  0
  9 25  1  0  0  0  0
 10 11  2  0  0  0  0
 10 12  1  0  0  0  0
 12 13  1  0  0  0  0
 12 26  1  0  0  0  0
 13 15  1  0  0  0  0
 13 14  1  0  0  0  0
 13 27  1  0  0  0  0
 14 15  1  0  0  0  0
 14 28  1  0  0  0  0
 14 29  1  0  0  0  0
 15 30  1  0  0  0  0
 15 31  1  0  0  0  0
M  END
> <s_m_source_file>
AV-unprocessed.smi

> <i_m_source_file_index>
1108

> <i_lp_mmshare_version>
43012

> <i_f3d_flags>
0

> <s_epik_input>
W0NIMl0xW0NIMl1bQ0hdMVtOSF1DKD1PKVtOSF1bQ0BIXShbQ0gzXSlbQ0gyXW4yW2NIXVtjSF1bY0hdbjI=

> <s_epik_cmdline>
J2VwaWtfcHl0aG9uJywgJy1waCcsICc3LjAnLCAnLXRuJywgJzgnLCAnLW1hJywgJzIwMCcsICctbWV0YWxfYmluZGluZycsICctaW1hZScsICc8aW5maWxlLm1hZT4nLCAnLW9tYWUnLCAnPG91dGZpbGUubWFlPic=

> <r_lp_tautomer_probability>
1

> <r_epik_Ionization_Penalty>
7.55353e-05

> <r_epik_Ionization_Penalty_Charging>
0

> <r_epik_Ionization_Penalty_Neutral>
7.55353e-05

> <r_epik_State_Penalty>
-0

> <r_epik_Charging_Adjusted_Penalty>
0

> <i_epik_Tot_Q>
0

> <i_epik_Tot_abs_Q>
0

> <r_epik_Metal_State_Penalty>
-0

> <b_epik_Metal_Only>
0

> <s_lp_Force_Field>
OPLS_2005

> <r_lp_Energy>
13.7116

> <b_lp_Chiralities_Consistent>
1

> <s_lp_Variant>
AV-unprocessed.smi:1108-1

> <Gold.Version>
5.8.1

> <Gold.Id.Protein>
6NUR|6NUR_protein|mol2

> <Gold.PLP.Fitness>
42.7102

> <Gold.PLP.PLP>
-37.9863

> <Gold.PLP.part.hbond>
-2.0000

> <Gold.PLP.part.metal>
0.0000

> <Gold.PLP.part.buried>
-3.7837

> <Gold.PLP.part.nonpolar>
-31.7301

> <Gold.PLP.part.repulsive>
0.1593

> <Gold.PLP.ligand.clash>
0.0000

> <Gold.PLP.ligand.torsion>
0.4336

> <Gold.PLP.Chemscore.Hbond>
1.8480

> <Gold.PLP.Chemscore.CHOScore>
0.0000

> <Gold.PLP.Chemscore.Metal>
0.0000

> <Gold.Chemscore.Hbonds>
donor molecule, donor type, donor heavy atom, donor atom, acceptor molecule, acceptor atom, score
      L1  H     9    25       P1  8028  0.90
      L1  H    12    26       P1  8028  1.00

> <Gold.PLP.Chemscore.Internal.Correction>
0.0470

> <Gold.Rescore>
     Score         DG    S(hbond)    S(metal)    S(lipo)     H(rot)  DE(clash)    DE(int)     intcor
     15.85     -17.39       1.89        0.00      85.31       1.71       0.01       1.53       ----

> <Gold.Chemscore.Fitness>
15.8460

> <Gold.Chemscore.DG>
-17.3864

> <Gold.Chemscore.ZeroCoef>
-5.4800

> <Gold.Chemscore.Hbond>
1.8850

> <Gold.Chemscore.Metal>
0.0000

> <Gold.Chemscore.Lipo>
85.3135

> <Gold.Chemscore.Internal_Hbond>
0.0000

> <Gold.Chemscore.DEClash>
0.0121

> <Gold.Chemscore.DEInternal>
1.5283

> <Gold.Chemscore.Rot>
1.7075

> <Gold.Chemscore.Internal.Correction>
   9.000000E+99

> <Gold.Chemscore.Hbonds>
donor molecule, donor type, donor heavy atom, donor atom, acceptor molecule, acceptor atom, score
      L1  H     9    25       P1  8028  0.80
      L1  H    12    26       P1  8028  0.98

> <Gold.Chemscore.Hbond.Weighted>
-6.2960

> <Gold.Chemscore.Metal.Weighted>
-0.0000

> <Gold.Chemscore.Lipo.Weighted>
-9.9817

> <Gold.Chemscore.Internal_Hbond.Weighted>
0.0000

> <Gold.Chemscore.DEClash.Weighted>
0.0121

> <Gold.Chemscore.DEInternal.Weighted>
1.5283

> <Gold.Chemscore.Rot.Weighted>
4.3713

> <Gold.Chemscore.Internal.Correction.Weighted>
   9.000000E+99

> <Gold.Protein.RotatedTorsions>
[ 6907 6896 6895 6894 ] final   73.09 input  -60.11 | X-H torsion
[ 7974 7965 7964 7962 ] final   18.42 input  175.53 | X-H torsion
[ 8008 7997 7996 7995 ] final  -24.48 input   59.86 | X-H torsion
[ 10167 10162 10161 10158 ] final   26.47 input  -65.29 | X-H torsion
[ 10718 10713 10712 10709 ] final  177.60 input   66.30 | X-H torsion
[ 10763 10752 10751 10750 ] final  -51.26 input  -60.55 | X-H torsion
[ 11005 11000 10999 10996 ] final   28.48 input  -57.11 | X-H torsion

> <Gold.Protein.ActiveResidues>
 VAL166  LYS551  ARG553  GLY616  TRP617  ASP618  TYR619  PRO620  LYS621  CYS622 
 ASP623  PHE694  ASN695  SER759  ASP760  ASP761  ALA762  ILE779  LEU786  VAL792 
 PHE793  MET794  SER795  GLU796  ALA797  LYS798  CYS799  TRP800  GLU811  SER814 

> <Gold.Protein.RotatedAtoms>
  152.4904  134.4473  159.9562 H   0  0  0  0  0  0  0  0  0  0  0  0  # atno 6907 bound_to 6896
  151.4461  133.3624  159.2796 H   0  0  0  0  0  0  0  0  0  0  0  0  # atno 6908 bound_to 6896
  150.9054  134.8492  159.7449 H   0  0  0  0  0  0  0  0  0  0  0  0  # atno 6909 bound_to 6896
  146.2185  139.8460  142.8631 H   0  0  0  0  0  0  0  0  0  0  0  0  # atno 7974 bound_to 7965
  154.4527  140.1952  156.0471 H   0  0  0  0  0  0  0  0  0  0  0  0  # atno 8008 bound_to 7997
  156.0681  140.3288  155.7515 H   0  0  0  0  0  0  0  0  0  0  0  0  # atno 8009 bound_to 7997
  155.5306  140.0577  157.2880 H   0  0  0  0  0  0  0  0  0  0  0  0  # atno 8010 bound_to 7997
  140.5020  144.0299  150.6337 H   0  0  0  0  0  0  0  0  0  0  0  0  # atno 10167 bound_to 10162
  156.9030  130.9885  151.3032 H   0  0  0  0  0  0  0  0  0  0  0  0  # atno 10718 bound_to 10713
  154.1236  135.6531  153.4908 H   0  0  0  0  0  0  0  0  0  0  0  0  # atno 10763 bound_to 10752
  153.0217  135.5276  154.7071 H   0  0  0  0  0  0  0  0  0  0  0  0  # atno 10764 bound_to 10752
  154.6286  135.2973  155.0213 H   0  0  0  0  0  0  0  0  0  0  0  0  # atno 10765 bound_to 10752
  140.3151  134.2606  155.7727 H   0  0  0  0  0  0  0  0  0  0  0  0  # atno 11005 bound_to 11000
  145.2850  141.0150  143.3696 LP  0  0  0  0  0  0  0  0  0  0  0  0  # atno 17320 bound_to 7965
  144.9121  139.4516  143.6582 LP  0  0  0  0  0  0  0  0  0  0  0  0  # atno 17321 bound_to 7965
  140.3598  143.2915  152.0396 LP  0  0  0  0  0  0  0  0  0  0  0  0  # atno 17342 bound_to 10162
  139.4874  144.6312  151.7067 LP  0  0  0  0  0  0  0  0  0  0  0  0  # atno 17343 bound_to 10162
  157.6014  130.8515  149.8808 LP  0  0  0  0  0  0  0  0  0  0  0  0  # atno 17370 bound_to 10713
  156.0572  130.3706  150.1063 LP  0  0  0  0  0  0  0  0  0  0  0  0  # atno 17371 bound_to 10713
  141.2099  133.7734  156.9964 LP  0  0  0  0  0  0  0  0  0  0  0  0  # atno 17394 bound_to 11000
  140.0991  134.9546  157.1895 LP  0  0  0  0  0  0  0  0  0  0  0  0  # atno 17395 bound_to 11000

$$$$
