AV-unprocessed.smi:2027|AV-procd|sdf|8217|dock5
  -GOLD-   2272010483D 1   1.00000     0.00000
 Structure written by MMmdl.
 51 53  0  0  0  0  0  0  0  0  3 V2000
  152.1600  144.2720  161.4536 C   0  0  0  0  0  0  0  0  0  0  0  0
  152.0644  143.3710  160.2343 C   0  0  0  0  0  0  0  0  0  0  0  0
  151.2475  143.7801  159.1559 C   0  0  0  0  0  0  0  0  0  0  0  0
  151.1823  142.9358  158.0538 C   0  0  0  0  0  0  0  0  0  0  0  0
  150.4846  143.0536  156.8497 N   0  3  0  0  0  0  0  0  0  0  0  0
  150.7384  141.9671  156.0687 C   0  0  0  0  0  0  0  0  0  0  0  0
  151.5793  141.1514  156.7620 N   0  0  0  0  0  0  0  0  0  0  0  0
  152.1726  139.8627  156.3846 C   0  0  0  0  0  0  0  0  0  0  0  0
  151.1521  138.8700  155.7909 C   0  0  2  0  0  0  0  0  0  0  0  0
  150.7708  139.3587  154.5211 O   0  0  0  0  0  0  0  0  0  0  0  0
  149.8861  138.6894  156.6536 C   0  0  0  0  0  0  0  0  0  0  0  0
  149.4815  137.2606  156.7410 N   0  3  1  0  0  0  0  0  0  0  0  0
  148.3804  137.0390  157.7070 C   0  0  0  0  0  0  0  0  0  0  0  0
  149.1993  136.6382  155.4234 C   0  0  0  0  0  0  0  0  0  0  0  0
  149.4168  135.1489  155.4662 C   0  0  0  0  0  0  0  0  0  0  0  0
  149.9929  134.3772  156.5157 C   0  0  0  0  0  0  0  0  0  0  0  0
  150.0201  133.0829  156.2470 N   0  0  0  0  0  0  0  0  0  0  0  0
  149.4768  132.9830  155.0171 N   0  0  0  0  0  0  0  0  0  0  0  0
  149.3458  131.6811  154.3990 C   0  0  0  0  0  0  0  0  0  0  0  0
  149.1079  134.2136  154.5188 C   0  0  0  0  0  0  0  0  0  0  0  0
  151.8921  141.7206  158.0011 C   0  0  0  0  0  0  0  0  0  0  0  0
  152.7044  141.3041  159.0528 C   0  0  0  0  0  0  0  0  0  0  0  0
  152.7842  142.1491  160.1826 C   0  0  0  0  0  0  0  0  0  0  0  0
  153.6633  141.7220  161.3458 C   0  0  0  0  0  0  0  0  0  0  0  0
  151.5325  145.1572  161.3463 H   0  0  0  0  0  0  0  0  0  0  0  0
  153.1867  144.6074  161.6010 H   0  0  0  0  0  0  0  0  0  0  0  0
  151.8361  143.7417  162.3492 H   0  0  0  0  0  0  0  0  0  0  0  0
  150.7006  144.7113  159.1867 H   0  0  0  0  0  0  0  0  0  0  0  0
  150.3434  141.7863  155.0792 H   0  0  0  0  0  0  0  0  0  0  0  0
  152.9634  140.0694  155.6618 H   0  0  0  0  0  0  0  0  0  0  0  0
  152.6603  139.4426  157.2657 H   0  0  0  0  0  0  0  0  0  0  0  0
  151.6391  137.9072  155.6409 H   0  0  0  0  0  0  0  0  0  0  0  0
  149.8333  139.4813  154.5101 H   0  0  0  0  0  0  0  0  0  0  0  0
  150.0382  139.0742  157.6626 H   0  0  0  0  0  0  0  0  0  0  0  0
  149.0903  139.2986  156.2252 H   0  0  0  0  0  0  0  0  0  0  0  0
  147.4582  137.5083  157.3621 H   0  0  0  0  0  0  0  0  0  0  0  0
  148.6244  137.4480  158.6872 H   0  0  0  0  0  0  0  0  0  0  0  0
  148.1912  135.9730  157.8376 H   0  0  0  0  0  0  0  0  0  0  0  0
  148.1657  136.8461  155.1436 H   0  0  0  0  0  0  0  0  0  0  0  0
  149.8180  137.1134  154.6609 H   0  0  0  0  0  0  0  0  0  0  0  0
  150.3812  134.7177  157.4644 H   0  0  0  0  0  0  0  0  0  0  0  0
  148.9623  131.7852  153.3836 H   0  0  0  0  0  0  0  0  0  0  0  0
  148.6555  131.0665  154.9775 H   0  0  0  0  0  0  0  0  0  0  0  0
  150.3184  131.1893  154.3610 H   0  0  0  0  0  0  0  0  0  0  0  0
  148.6529  134.3200  153.5451 H   0  0  0  0  0  0  0  0  0  0  0  0
  153.2564  140.3765  159.0117 H   0  0  0  0  0  0  0  0  0  0  0  0
  154.1386  140.7595  161.1550 H   0  0  0  0  0  0  0  0  0  0  0  0
  153.0744  141.6261  162.2583 H   0  0  0  0  0  0  0  0  0  0  0  0
  154.4523  142.4543  161.5178 H   0  0  0  0  0  0  0  0  0  0  0  0
  150.2836  136.7658  157.1059 H   0  0  0  0  0  0  0  0  0  0  0  0
  149.8854  143.8220  156.5754 H   0  0  0  0  0  0  0  0  0  0  0  0
  1  2  1  0  0  0  0
  1 25  1  0  0  0  0
  1 26  1  0  0  0  0
  1 27  1  0  0  0  0
  2 23  1  0  0  0  0
  2  3  2  0  0  0  0
  3  4  1  0  0  0  0
  3 28  1  0  0  0  0
  4 21  2  0  0  0  0
  4  5  1  0  0  0  0
  5  6  2  0  0  0  0
  5 51  1  0  0  0  0
  6  7  1  0  0  0  0
  6 29  1  0  0  0  0
  7  8  1  0  0  0  0
  7 21  1  0  0  0  0
  8  9  1  0  0  0  0
  8 30  1  0  0  0  0
  8 31  1  0  0  0  0
  9 10  1  0  0  0  0
  9 11  1  0  0  0  0
  9 32  1  0  0  0  0
 10 33  1  0  0  0  0
 11 12  1  0  0  0  0
 11 34  1  0  0  0  0
 11 35  1  0  0  0  0
 12 13  1  0  0  0  0
 12 14  1  0  0  0  0
 12 50  1  0  0  0  0
 13 36  1  0  0  0  0
 13 37  1  0  0  0  0
 13 38  1  0  0  0  0
 14 15  1  0  0  0  0
 14 39  1  0  0  0  0
 14 40  1  0  0  0  0
 15 20  2  0  0  0  0
 15 16  1  0  0  0  0
 16 17  2  0  0  0  0
 16 41  1  0  0  0  0
 17 18  1  0  0  0  0
 18 19  1  0  0  0  0
 18 20  1  0  0  0  0
 19 42  1  0  0  0  0
 19 43  1  0  0  0  0
 19 44  1  0  0  0  0
 20 45  1  0  0  0  0
 21 22  1  0  0  0  0
 22 23  2  0  0  0  0
 22 46  1  0  0  0  0
 23 24  1  0  0  0  0
 24 47  1  0  0  0  0
 24 48  1  0  0  0  0
 24 49  1  0  0  0  0
M  CHG  1   5   1
M  CHG  1  12   1
M  END
> <s_m_source_file>
AV-unprocessed.smi

> <i_m_source_file_index>
2027

> <i_lp_mmshare_version>
43012

> <i_f3d_flags>
0

> <s_epik_input>
W0NIM11jKFtjSF0xKWMoW0NIM10pW2NIXWMoYzEyKW4oW2NIXW4yKVtDSDJdW0NASF0oW09IXSlbQ0gyXU4oW0NIM10pW0NIMl1jM1tjSF1ubihbQ0gzXSlbY0hdMw==

> <s_epik_cmdline>
J2VwaWtfcHl0aG9uJywgJy1waCcsICc3LjAnLCAnLXRuJywgJzgnLCAnLW1hJywgJzIwMCcsICctbWV0YWxfYmluZGluZycsICctaW1hZScsICc8aW5maWxlLm1hZT4nLCAnLW9tYWUnLCAnPG91dGZpbGUubWFlPic=

> <r_lp_tautomer_probability>
1

> <r_epik_Ionization_Penalty>
1.77469

> <r_epik_Ionization_Penalty_Charging>
1.77463

> <r_epik_Ionization_Penalty_Neutral>
6.41153e-05

> <r_epik_State_Penalty>
1.85225

> <r_epik_Charging_Adjusted_Penalty>
3.62688

> <i_epik_Tot_Q>
2

> <i_epik_Tot_abs_Q>
2

> <r_epik_Metal_State_Penalty>
1.92669

> <b_epik_Metal_Only>
0

> <s_lp_Force_Field>
OPLS_2005

> <r_lp_Energy>
21.1473

> <b_lp_Chiralities_Consistent>
1

> <s_lp_Variant>
AV-unprocessed.smi:2027-9

> <Gold.Version>
5.8.1

> <Gold.Id.Protein>
6NUR|6NUR_protein|mol2

> <Gold.PLP.Fitness>
55.7156

> <Gold.PLP.PLP>
-46.0006

> <Gold.PLP.part.hbond>
-2.0000

> <Gold.PLP.part.metal>
0.0000

> <Gold.PLP.part.buried>
-5.6503

> <Gold.PLP.part.nonpolar>
-37.7952

> <Gold.PLP.part.repulsive>
0.0227

> <Gold.PLP.ligand.clash>
0.0000

> <Gold.PLP.ligand.torsion>
1.1148

> <Gold.PLP.Chemscore.Hbond>
3.0000

> <Gold.PLP.Chemscore.CHOScore>
0.8973

> <Gold.PLP.Chemscore.Metal>
0.0000

> <Gold.Chemscore.Hbonds>
donor molecule, donor type, donor heavy atom, donor atom, acceptor molecule, acceptor atom, score
      L1  H     5    51       P1  8028  2.00
      P1  H  7989  7998       L1    10  1.00
      L1  C    20    45       P1  7948  0.97

> <Gold.PLP.Chemscore.Internal.Correction>
0.2525

> <Gold.Rescore>
     Score         DG    S(hbond)    S(metal)    S(lipo)     H(rot)  DE(clash)    DE(int)     intcor
     17.36     -19.79       1.93        0.00     123.62       2.58       0.39       2.04       ----

> <Gold.Chemscore.Fitness>
17.3612

> <Gold.Chemscore.DG>
-19.7877

> <Gold.Chemscore.ZeroCoef>
-5.4800

> <Gold.Chemscore.Hbond>
1.9334

> <Gold.Chemscore.Metal>
0.0000

> <Gold.Chemscore.Lipo>
123.6237

> <Gold.Chemscore.Internal_Hbond>
0.0000

> <Gold.Chemscore.DEClash>
0.3907

> <Gold.Chemscore.DEInternal>
2.0358

> <Gold.Chemscore.Rot>
2.5836

> <Gold.Chemscore.Internal.Correction>
   9.000000E+99

> <Gold.Chemscore.Hbonds>
donor molecule, donor type, donor heavy atom, donor atom, acceptor molecule, acceptor atom, score
      L1  H     5    51       P1  8028  0.99
      P1  H  7989  7998       L1    10  0.67

> <Gold.Chemscore.Hbond.Weighted>
-6.4576

> <Gold.Chemscore.Metal.Weighted>
-0.0000

> <Gold.Chemscore.Lipo.Weighted>
-14.4640

> <Gold.Chemscore.Internal_Hbond.Weighted>
0.0000

> <Gold.Chemscore.DEClash.Weighted>
0.3907

> <Gold.Chemscore.DEInternal.Weighted>
2.0358

> <Gold.Chemscore.Rot.Weighted>
6.6139

> <Gold.Chemscore.Internal.Correction.Weighted>
   9.000000E+99

> <Gold.Protein.RotatedTorsions>
[ 6907 6896 6895 6894 ] final  134.41 input  -60.11 | X-H torsion
[ 7974 7965 7964 7962 ] final  -89.67 input  175.53 | X-H torsion
[ 8008 7997 7996 7995 ] final  -81.93 input   59.86 | X-H torsion
[ 10167 10162 10161 10158 ] final   52.75 input  -65.29 | X-H torsion
[ 10718 10713 10712 10709 ] final -144.02 input   66.30 | X-H torsion
[ 10763 10752 10751 10750 ] final -177.92 input  -60.55 | X-H torsion
[ 11005 11000 10999 10996 ] final -114.31 input  -57.11 | X-H torsion

> <Gold.Protein.ActiveResidues>
 VAL166  LYS551  ARG553  GLY616  TRP617  ASP618  TYR619  PRO620  LYS621  CYS622 
 ASP623  PHE694  ASN695  SER759  ASP760  ASP761  ALA762  ILE779  LEU786  VAL792 
 PHE793  MET794  SER795  GLU796  ALA797  LYS798  CYS799  TRP800  GLU811  SER814 

> <Gold.Protein.RotatedAtoms>
  152.3115  133.5758  159.5683 H   0  0  0  0  0  0  0  0  0  0  0  0  # atno 6907 bound_to 6896
  150.7325  134.0145  159.3689 H   0  0  0  0  0  0  0  0  0  0  0  0  # atno 6908 bound_to 6896
  151.8037  135.0702  160.0454 H   0  0  0  0  0  0  0  0  0  0  0  0  # atno 6909 bound_to 6896
  145.4367  140.9558  143.2098 H   0  0  0  0  0  0  0  0  0  0  0  0  # atno 7974 bound_to 7965
  154.6034  140.0640  156.9398 H   0  0  0  0  0  0  0  0  0  0  0  0  # atno 8008 bound_to 7997
  155.2094  140.3321  155.4313 H   0  0  0  0  0  0  0  0  0  0  0  0  # atno 8009 bound_to 7997
  156.2332  140.1850  156.7171 H   0  0  0  0  0  0  0  0  0  0  0  0  # atno 8010 bound_to 7997
  140.2481  144.3510  150.6357 H   0  0  0  0  0  0  0  0  0  0  0  0  # atno 10167 bound_to 10162
  156.3650  130.7758  151.1931 H   0  0  0  0  0  0  0  0  0  0  0  0  # atno 10718 bound_to 10713
  154.5541  135.2815  155.0981 H   0  0  0  0  0  0  0  0  0  0  0  0  # atno 10763 bound_to 10752
  154.2415  135.6356  153.5212 H   0  0  0  0  0  0  0  0  0  0  0  0  # atno 10764 bound_to 10752
  153.0011  135.5561  154.6116 H   0  0  0  0  0  0  0  0  0  0  0  0  # atno 10765 bound_to 10752
  141.0560  133.9612  157.2753 H   0  0  0  0  0  0  0  0  0  0  0  0  # atno 11005 bound_to 11000
  144.8147  139.5897  143.7013 LP  0  0  0  0  0  0  0  0  0  0  0  0  # atno 17320 bound_to 7965
  146.2578  139.6341  142.9383 LP  0  0  0  0  0  0  0  0  0  0  0  0  # atno 17321 bound_to 7965
  140.6062  143.2168  151.6976 LP  0  0  0  0  0  0  0  0  0  0  0  0  # atno 17342 bound_to 10162
  139.5055  144.3714  152.0466 LP  0  0  0  0  0  0  0  0  0  0  0  0  # atno 17343 bound_to 10162
  157.7478  131.0389  150.4524 LP  0  0  0  0  0  0  0  0  0  0  0  0  # atno 17370 bound_to 10713
  156.4741  130.4059  149.6500 LP  0  0  0  0  0  0  0  0  0  0  0  0  # atno 17371 bound_to 10713
  139.9390  135.0193  156.8649 LP  0  0  0  0  0  0  0  0  0  0  0  0  # atno 17394 bound_to 11000
  140.5963  134.0214  155.7519 LP  0  0  0  0  0  0  0  0  0  0  0  0  # atno 17395 bound_to 11000

$$$$
