AV-unprocessed.smi:712|AV-procd|sdf|3468|dock6
  -GOLD-   22720 0453D 1   1.00000     0.00000
 Structure written by MMmdl.
 51 52  0  0  0  0  0  0  0  0  2 V2000
  152.3645  143.7318  161.4919 C   0  0  0  0  0  0  0  0  0  0  0  0
  152.1432  143.0994  160.1334 C   0  0  0  0  0  0  0  0  0  0  0  0
  151.3239  143.7557  159.1359 C   0  0  0  0  0  0  0  0  0  0  0  0
  151.1511  143.1677  157.9421 C   0  0  0  0  0  0  0  0  0  0  0  0
  151.7425  141.9298  157.6308 N   0  0  0  0  0  0  0  0  0  0  0  0
  151.4832  141.3748  156.2921 C   0  0  0  0  0  0  0  0  0  0  0  0
  149.9866  141.1951  156.0052 C   0  0  0  0  0  0  0  0  0  0  0  0
  149.1509  141.4126  156.8832 O   0  0  0  0  0  0  0  0  0  0  0  0
  149.6652  140.8001  154.7642 N   0  0  0  0  0  0  0  0  0  0  0  0
  148.3139  140.5036  154.3012 C   0  0  0  0  0  0  0  0  0  0  0  0
  148.1470  139.0076  153.9772 C   0  0  2  0  0  0  0  0  0  0  0  0
  146.8522  138.7287  153.1890 C   0  0  0  0  0  0  0  0  0  0  0  0
  146.6998  137.2737  152.9374 N   0  3  2  0  0  0  0  0  0  0  0  0
  145.5015  136.9263  152.1309 C   0  0  0  0  0  0  0  0  0  0  0  0
  145.6593  135.6090  151.3402 C   0  0  0  0  0  0  0  0  0  0  0  0
  144.4449  135.3794  150.4284 C   0  0  0  0  0  0  0  0  0  0  0  0
  145.8675  134.4013  152.2698 C   0  0  0  0  0  0  0  0  0  0  0  0
  146.7599  136.5204  154.2122 C   0  0  0  0  0  0  0  0  0  0  0  0
  148.0432  136.8692  154.9823 C   0  0  0  0  0  0  0  0  0  0  0  0
  148.0961  138.2727  155.1963 O   0  0  0  0  0  0  0  0  0  0  0  0
  152.5212  141.2550  158.5299 C   0  0  0  0  0  0  0  0  0  0  0  0
  153.0334  140.1661  158.2661 O   0  0  0  0  0  0  0  0  0  0  0  0
  152.7058  141.9087  159.8305 C   0  0  0  0  0  0  0  0  0  0  0  0
  151.9018  144.7174  161.5482 H   0  0  0  0  0  0  0  0  0  0  0  0
  153.4307  143.8457  161.6896 H   0  0  0  0  0  0  0  0  0  0  0  0
  151.9334  143.1075  162.2749 H   0  0  0  0  0  0  0  0  0  0  0  0
  150.8532  144.7047  159.3470 H   0  0  0  0  0  0  0  0  0  0  0  0
  150.5477  143.6014  157.1580 H   0  0  0  0  0  0  0  0  0  0  0  0
  151.9021  142.0165  155.5157 H   0  0  0  0  0  0  0  0  0  0  0  0
  151.9995  140.4188  156.1848 H   0  0  0  0  0  0  0  0  0  0  0  0
  150.4155  140.6603  154.1029 H   0  0  0  0  0  0  0  0  0  0  0  0
  147.5705  140.8291  155.0311 H   0  0  0  0  0  0  0  0  0  0  0  0
  148.1421  141.0958  153.4021 H   0  0  0  0  0  0  0  0  0  0  0  0
  149.0059  138.6773  153.3892 H   0  0  0  0  0  0  0  0  0  0  0  0
  145.9870  139.0976  153.7422 H   0  0  0  0  0  0  0  0  0  0  0  0
  146.8840  139.2737  152.2465 H   0  0  0  0  0  0  0  0  0  0  0  0
  144.6402  136.8244  152.7933 H   0  0  0  0  0  0  0  0  0  0  0  0
  145.2705  137.7536  151.4581 H   0  0  0  0  0  0  0  0  0  0  0  0
  146.5288  135.6835  150.6877 H   0  0  0  0  0  0  0  0  0  0  0  0
  143.5253  135.2893  151.0074 H   0  0  0  0  0  0  0  0  0  0  0  0
  144.5593  134.4669  149.8425 H   0  0  0  0  0  0  0  0  0  0  0  0
  144.3176  136.2044  149.7269 H   0  0  0  0  0  0  0  0  0  0  0  0
  145.0280  134.2780  152.9546 H   0  0  0  0  0  0  0  0  0  0  0  0
  146.7726  134.5086  152.8678 H   0  0  0  0  0  0  0  0  0  0  0  0
  145.9664  133.4784  151.6976 H   0  0  0  0  0  0  0  0  0  0  0  0
  145.8839  136.7570  154.8183 H   0  0  0  0  0  0  0  0  0  0  0  0
  146.7336  135.4484  154.0130 H   0  0  0  0  0  0  0  0  0  0  0  0
  148.0523  136.3643  155.9485 H   0  0  0  0  0  0  0  0  0  0  0  0
  148.9294  136.5358  154.4399 H   0  0  0  0  0  0  0  0  0  0  0  0
  153.3173  141.4137  160.5712 H   0  0  0  0  0  0  0  0  0  0  0  0
  147.5029  136.9806  152.3992 H   0  0  0  0  0  0  0  0  0  0  0  0
  1  2  1  0  0  0  0
  1 24  1  0  0  0  0
  1 25  1  0  0  0  0
  1 26  1  0  0  0  0
  2 23  2  0  0  0  0
  2  3  1  0  0  0  0
  3  4  2  0  0  0  0
  3 27  1  0  0  0  0
  4  5  1  0  0  0  0
  4 28  1  0  0  0  0
  5  6  1  0  0  0  0
  5 21  1  0  0  0  0
  6  7  1  0  0  0  0
  6 29  1  0  0  0  0
  6 30  1  0  0  0  0
  7  8  2  0  0  0  0
  7  9  1  0  0  0  0
  9 10  1  0  0  0  0
  9 31  1  0  0  0  0
 10 11  1  0  0  0  0
 10 32  1  0  0  0  0
 10 33  1  0  0  0  0
 11 20  1  0  0  0  0
 11 12  1  0  0  0  0
 11 34  1  0  0  0  0
 12 13  1  0  0  0  0
 12 35  1  0  0  0  0
 12 36  1  0  0  0  0
 13 14  1  0  0  0  0
 13 18  1  0  0  0  0
 13 51  1  0  0  0  0
 14 15  1  0  0  0  0
 14 37  1  0  0  0  0
 14 38  1  0  0  0  0
 15 16  1  0  0  0  0
 15 17  1  0  0  0  0
 15 39  1  0  0  0  0
 16 40  1  0  0  0  0
 16 41  1  0  0  0  0
 16 42  1  0  0  0  0
 17 43  1  0  0  0  0
 17 44  1  0  0  0  0
 17 45  1  0  0  0  0
 18 19  1  0  0  0  0
 18 46  1  0  0  0  0
 18 47  1  0  0  0  0
 19 20  1  0  0  0  0
 19 48  1  0  0  0  0
 19 49  1  0  0  0  0
 21 22  2  0  0  0  0
 21 23  1  0  0  0  0
 23 50  1  0  0  0  0
M  CHG  1  13   1
M  END
> <s_m_source_file>
AV-unprocessed.smi

> <i_m_source_file_index>
712

> <i_lp_mmshare_version>
43012

> <i_f3d_flags>
0

> <s_epik_input>
W0NIM11jMVtjSF1bY0hdbihjKD1PKVtjSF0xKVtDSDJdQyg9TylbTkhdW0NIMl1bQ0BASF0yW0NIMl1OKFtDSDJdW0NIMl1PMilbQ0gyXVtDSF0oW0NIM10pW0NIM10=

> <s_epik_cmdline>
J2VwaWtfcHl0aG9uJywgJy1waCcsICc3LjAnLCAnLXRuJywgJzgnLCAnLW1hJywgJzIwMCcsICctbWV0YWxfYmluZGluZycsICctaW1hZScsICc8aW5maWxlLm1hZT4nLCAnLW9tYWUnLCAnPG91dGZpbGUubWFlPic=

> <r_lp_tautomer_probability>
1

> <r_epik_Ionization_Penalty>
0.0975935

> <r_epik_Ionization_Penalty_Charging>
0.0975934

> <r_epik_Ionization_Penalty_Neutral>
6.27044e-08

> <r_epik_State_Penalty>
0.0877056

> <r_epik_Charging_Adjusted_Penalty>
0.185299

> <i_epik_Tot_Q>
1

> <i_epik_Tot_abs_Q>
1

> <r_epik_Metal_State_Penalty>
0.0877109

> <b_epik_Metal_Only>
0

> <s_lp_Force_Field>
OPLS_2005

> <r_lp_Energy>
27.343

> <b_lp_Chiralities_Consistent>
1

> <s_lp_Variant>
AV-unprocessed.smi:712-1

> <Gold.Version>
5.8.1

> <Gold.Id.Protein>
6NUR|6NUR_protein|mol2

> <Gold.PLP.Fitness>
51.5219

> <Gold.PLP.PLP>
-40.2442

> <Gold.PLP.part.hbond>
-2.0000

> <Gold.PLP.part.metal>
0.0000

> <Gold.PLP.part.buried>
-6.0819

> <Gold.PLP.part.nonpolar>
-32.7733

> <Gold.PLP.part.repulsive>
0.3536

> <Gold.PLP.ligand.clash>
0.0000

> <Gold.PLP.ligand.torsion>
0.4024

> <Gold.PLP.Chemscore.Hbond>
2.9920

> <Gold.PLP.Chemscore.CHOScore>
1.0000

> <Gold.PLP.Chemscore.Metal>
0.0000

> <Gold.Chemscore.Hbonds>
donor molecule, donor type, donor heavy atom, donor atom, acceptor molecule, acceptor atom, score
      L1  H    13    51       P1  7948  2.00
      P1  H  7997  8008       L1    22  0.99
      L1  C     4    28       P1  8028  1.00

> <Gold.PLP.Chemscore.Internal.Correction>
0.1066

> <Gold.Rescore>
     Score         DG    S(hbond)    S(metal)    S(lipo)     H(rot)  DE(clash)    DE(int)     intcor
     16.71     -19.10       1.90        0.00     103.47       1.89       0.60       1.79       ----

> <Gold.Chemscore.Fitness>
16.7086

> <Gold.Chemscore.DG>
-19.0977

> <Gold.Chemscore.ZeroCoef>
-5.4800

> <Gold.Chemscore.Hbond>
1.8989

> <Gold.Chemscore.Metal>
0.0000

> <Gold.Chemscore.Lipo>
103.4726

> <Gold.Chemscore.Internal_Hbond>
0.0000

> <Gold.Chemscore.DEClash>
0.5986

> <Gold.Chemscore.DEInternal>
1.7904

> <Gold.Chemscore.Rot>
1.8871

> <Gold.Chemscore.Internal.Correction>
   9.000000E+99

> <Gold.Chemscore.Hbonds>
donor molecule, donor type, donor heavy atom, donor atom, acceptor molecule, acceptor atom, score
      L1  H    13    51       P1  7948  1.00
      P1  H  7997  8008       L1    22  0.90

> <Gold.Chemscore.Hbond.Weighted>
-6.3423

> <Gold.Chemscore.Metal.Weighted>
-0.0000

> <Gold.Chemscore.Lipo.Weighted>
-12.1063

> <Gold.Chemscore.Internal_Hbond.Weighted>
0.0000

> <Gold.Chemscore.DEClash.Weighted>
0.5986

> <Gold.Chemscore.DEInternal.Weighted>
1.7904

> <Gold.Chemscore.Rot.Weighted>
4.8309

> <Gold.Chemscore.Internal.Correction.Weighted>
   9.000000E+99

> <Gold.Protein.RotatedTorsions>
[ 6907 6896 6895 6894 ] final -158.30 input  -60.11 | X-H torsion
[ 7974 7965 7964 7962 ] final   30.83 input  175.53 | X-H torsion
[ 8008 7997 7996 7995 ] final  -82.78 input   59.86 | X-H torsion
[ 10167 10162 10161 10158 ] final  168.57 input  -65.29 | X-H torsion
[ 10718 10713 10712 10709 ] final -100.15 input   66.30 | X-H torsion
[ 10763 10752 10751 10750 ] final  155.58 input  -60.55 | X-H torsion
[ 11005 11000 10999 10996 ] final   -2.92 input  -57.11 | X-H torsion

> <Gold.Protein.ActiveResidues>
 VAL166  LYS551  ARG553  GLY616  TRP617  ASP618  TYR619  PRO620  LYS621  CYS622 
 ASP623  PHE694  ASN695  SER759  ASP760  ASP761  ALA762  ILE779  LEU786  VAL792 
 PHE793  MET794  SER795  GLU796  ALA797  LYS798  CYS799  TRP800  GLU811  SER814 

> <Gold.Protein.RotatedAtoms>
  151.3161  133.4059  159.2650 H   0  0  0  0  0  0  0  0  0  0  0  0  # atno 6907 bound_to 6896
  151.0073  134.9370  159.7998 H   0  0  0  0  0  0  0  0  0  0  0  0  # atno 6908 bound_to 6896
  152.5291  134.3126  159.9171 H   0  0  0  0  0  0  0  0  0  0  0  0  # atno 6909 bound_to 6896
  146.1588  139.6737  142.9048 H   0  0  0  0  0  0  0  0  0  0  0  0  # atno 7974 bound_to 7965
  154.6122  140.0628  156.9508 H   0  0  0  0  0  0  0  0  0  0  0  0  # atno 8008 bound_to 7997
  155.1954  140.3310  155.4333 H   0  0  0  0  0  0  0  0  0  0  0  0  # atno 8009 bound_to 7997
  156.2383  140.1874  156.7041 H   0  0  0  0  0  0  0  0  0  0  0  0  # atno 8010 bound_to 7997
  139.4971  144.3800  151.9632 H   0  0  0  0  0  0  0  0  0  0  0  0  # atno 10167 bound_to 10162
  156.0154  130.5315  150.6775 H   0  0  0  0  0  0  0  0  0  0  0  0  # atno 10718 bound_to 10713
  154.1706  135.2804  155.3082 H   0  0  0  0  0  0  0  0  0  0  0  0  # atno 10763 bound_to 10752
  154.6078  135.5508  153.7444 H   0  0  0  0  0  0  0  0  0  0  0  0  # atno 10764 bound_to 10752
  153.0166  135.6408  154.1846 H   0  0  0  0  0  0  0  0  0  0  0  0  # atno 10765 bound_to 10752
  140.6637  133.9298  155.8452 H   0  0  0  0  0  0  0  0  0  0  0  0  # atno 11005 bound_to 11000
  145.4641  141.0434  143.2735 LP  0  0  0  0  0  0  0  0  0  0  0  0  # atno 17320 bound_to 7965
  144.7999  139.6161  143.7076 LP  0  0  0  0  0  0  0  0  0  0  0  0  # atno 17321 bound_to 7965
  140.3236  144.3398  150.6003 LP  0  0  0  0  0  0  0  0  0  0  0  0  # atno 17342 bound_to 10162
  140.5702  143.2181  151.7612 LP  0  0  0  0  0  0  0  0  0  0  0  0  # atno 17343 bound_to 10162
  157.4485  131.0869  151.0871 LP  0  0  0  0  0  0  0  0  0  0  0  0  # atno 17370 bound_to 10713
  157.1394  130.6136  149.5551 LP  0  0  0  0  0  0  0  0  0  0  0  0  # atno 17371 bound_to 10713
  141.0446  134.0573  157.3860 LP  0  0  0  0  0  0  0  0  0  0  0  0  # atno 17394 bound_to 11000
  139.9004  135.0162  156.7242 LP  0  0  0  0  0  0  0  0  0  0  0  0  # atno 17395 bound_to 11000

$$$$
