AV-unprocessed.smi:2298|AV-procd|sdf|9227|dock4
  -GOLD-   2272012443D 1   1.00000     0.00000
 Structure written by MMmdl.
 38 39  0  0  0  0  0  0  0  0  2 V2000
  150.7103  141.1038  155.7873 C   0  0  0  0  0  0  0  0  0  0  0  0
  149.4655  140.9620  154.9324 C   0  0  0  0  0  0  0  0  0  0  0  0
  148.6560  142.0378  154.8186 N   0  3  0  0  0  0  0  0  0  0  0  0
  147.5182  142.0284  154.0938 C   0  0  0  0  0  0  0  0  0  0  0  0
  147.1314  140.8604  153.4084 C   0  0  0  0  0  0  0  0  0  0  0  0
  147.9524  139.7061  153.4787 C   0  0  0  0  0  0  0  0  0  0  0  0
  147.6276  138.4801  152.8326 N   0  0  0  0  0  0  0  0  0  0  0  0
  146.4171  138.0042  152.4943 C   0  0  0  0  0  0  0  0  0  0  0  0
  145.3467  138.5784  152.6933 O   0  0  0  0  0  0  0  0  0  0  0  0
  146.5169  136.8129  151.8874 N   0  0  0  0  0  0  0  0  0  0  0  0
  145.3951  136.0239  151.3870 C   0  0  1  0  0  0  0  0  0  0  0  0
  145.9175  134.6986  150.8029 C   0  0  0  0  0  0  0  0  0  0  0  0
  144.7663  133.8048  150.3085 C   0  0  0  0  0  0  0  0  0  0  0  0
  143.7130  133.5514  151.4034 C   0  0  1  0  0  0  0  0  0  0  0  0
  144.2489  132.7129  152.4078 O   0  0  0  0  0  0  0  0  0  0  0  0
  143.2160  134.8696  152.0260 C   0  0  0  0  0  0  0  0  0  0  0  0
  144.3737  135.7596  152.5115 C   0  0  0  0  0  0  0  0  0  0  0  0
  149.1301  139.7599  154.2657 C   0  0  0  0  0  0  0  0  0  0  0  0
  150.1568  138.3727  154.4098 Cl  0  0  0  0  0  0  0  0  0  0  0  0
  144.9015  136.5751  150.5838 H   0  0  0  0  0  0  0  0  0  0  0  0
  142.8650  133.0221  150.9674 H   0  0  0  0  0  0  0  0  0  0  0  0
  151.6038  140.9168  155.1911 H   0  0  0  0  0  0  0  0  0  0  0  0
  150.6889  140.3890  156.6105 H   0  0  0  0  0  0  0  0  0  0  0  0
  150.7904  142.1052  156.2117 H   0  0  0  0  0  0  0  0  0  0  0  0
  146.9508  142.9475  154.0892 H   0  0  0  0  0  0  0  0  0  0  0  0
  146.2061  140.8698  152.8531 H   0  0  0  0  0  0  0  0  0  0  0  0
  148.4185  137.9321  152.5263 H   0  0  0  0  0  0  0  0  0  0  0  0
  147.4373  136.4171  151.7625 H   0  0  0  0  0  0  0  0  0  0  0  0
  146.6023  134.8991  149.9781 H   0  0  0  0  0  0  0  0  0  0  0  0
  146.4949  134.1630  151.5578 H   0  0  0  0  0  0  0  0  0  0  0  0
  144.2841  134.2892  149.4584 H   0  0  0  0  0  0  0  0  0  0  0  0
  145.1597  132.8589  149.9346 H   0  0  0  0  0  0  0  0  0  0  0  0
  143.6538  132.7050  153.1419 H   0  0  0  0  0  0  0  0  0  0  0  0
  142.6389  135.4190  151.2811 H   0  0  0  0  0  0  0  0  0  0  0  0
  142.5303  134.6644  152.8489 H   0  0  0  0  0  0  0  0  0  0  0  0
  144.8702  135.2812  153.3569 H   0  0  0  0  0  0  0  0  0  0  0  0
  143.9727  136.7024  152.8854 H   0  0  0  0  0  0  0  0  0  0  0  0
  148.9143  142.8953  155.3074 H   0  0  0  0  0  0  0  0  0  0  0  0
  1  2  1  0  0  0  0
  1 22  1  0  0  0  0
  1 23  1  0  0  0  0
  1 24  1  0  0  0  0
  2 18  1  0  0  0  0
  2  3  2  0  0  0  0
  3  4  1  0  0  0  0
  3 38  1  0  0  0  0
  4  5  2  0  0  0  0
  4 25  1  0  0  0  0
  5  6  1  0  0  0  0
  5 26  1  0  0  0  0
  6  7  1  0  0  0  0
  6 18  2  0  0  0  0
  7  8  1  0  0  0  0
  7 27  1  0  0  0  0
  8  9  2  0  0  0  0
  8 10  1  0  0  0  0
 10 11  1  0  0  0  0
 10 28  1  0  0  0  0
 11 20  1  0  0  0  0
 11 17  1  0  0  0  0
 11 12  1  0  0  0  0
 12 13  1  0  0  0  0
 12 29  1  0  0  0  0
 12 30  1  0  0  0  0
 13 14  1  0  0  0  0
 13 31  1  0  0  0  0
 13 32  1  0  0  0  0
 14 21  1  0  0  0  0
 14 15  1  0  0  0  0
 14 16  1  0  0  0  0
 15 33  1  0  0  0  0
 16 17  1  0  0  0  0
 16 34  1  0  0  0  0
 16 35  1  0  0  0  0
 17 36  1  0  0  0  0
 17 37  1  0  0  0  0
 18 19  1  0  0  0  0
M  CHG  1   3   1
M  END
> <s_m_source_file>
AV-unprocessed.smi

> <i_m_source_file_index>
2298

> <i_lp_mmshare_version>
43012

> <i_f3d_flags>
0

> <s_epik_input>
W0NIM11jMW5bY0hdW2NIXWMoYzFDbClbTkhdQyg9TylbTkhdW0NASF0yW0NIMl1bQ0gyXVtDQEhdKFtPSF0pW0NIMl1bQ0gyXTI=

> <s_epik_cmdline>
J2VwaWtfcHl0aG9uJywgJy1waCcsICc3LjAnLCAnLXRuJywgJzgnLCAnLW1hJywgJzIwMCcsICctbWV0YWxfYmluZGluZycsICctaW1hZScsICc8aW5maWxlLm1hZT4nLCAnLW9tYWUnLCAnPG91dGZpbGUubWFlPic=

> <r_epik_Ionization_Penalty>
2.42586

> <r_epik_Ionization_Penalty_Charging>
2.42584

> <r_epik_Ionization_Penalty_Neutral>
2.16148e-05

> <r_epik_State_Penalty>
2.58553

> <r_epik_Charging_Adjusted_Penalty>
5.01136

> <i_epik_Tot_Q>
1

> <i_epik_Tot_abs_Q>
1

> <r_epik_Metal_State_Penalty>
2.59536

> <b_epik_Metal_Only>
0

> <s_lp_Force_Field>
OPLS_2005

> <r_lp_Energy>
20.6895

> <b_lp_Chiralities_Consistent>
1

> <s_lp_Variant>
AV-unprocessed.smi:2298-4

> <Gold.Version>
5.8.1

> <Gold.Id.Protein>
6NUR|6NUR_protein|mol2

> <Gold.PLP.Fitness>
47.4956

> <Gold.PLP.PLP>
-33.0440

> <Gold.PLP.part.hbond>
-4.8829

> <Gold.PLP.part.metal>
0.0000

> <Gold.PLP.part.buried>
-2.3735

> <Gold.PLP.part.nonpolar>
-31.6562

> <Gold.PLP.part.repulsive>
4.2456

> <Gold.PLP.ligand.clash>
0.0000

> <Gold.PLP.ligand.torsion>
0.1679

> <Gold.PLP.Chemscore.Hbond>
4.9280

> <Gold.PLP.Chemscore.CHOScore>
0.0000

> <Gold.PLP.Chemscore.Metal>
0.0000

> <Gold.Chemscore.Hbonds>
donor molecule, donor type, donor heavy atom, donor atom, acceptor molecule, acceptor atom, score
      L1  H     3    38       P1  8028  2.00
      L1  H     7    27       P1  7948  0.91
      L1  H    10    28       P1  7948  0.93
      L1  H    15    33       P1 10957  0.78

> <Gold.PLP.Chemscore.Internal.Correction>
0.0034

> <Gold.Rescore>
     Score         DG    S(hbond)    S(metal)    S(lipo)     H(rot)  DE(clash)    DE(int)     intcor
     18.43     -22.51       3.38        0.00      80.31       1.43       1.98       2.10       ----

> <Gold.Chemscore.Fitness>
18.4300

> <Gold.Chemscore.DG>
-22.5092

> <Gold.Chemscore.ZeroCoef>
-5.4800

> <Gold.Chemscore.Hbond>
3.3839

> <Gold.Chemscore.Metal>
0.0000

> <Gold.Chemscore.Lipo>
80.3097

> <Gold.Chemscore.Internal_Hbond>
0.0000

> <Gold.Chemscore.DEClash>
1.9758

> <Gold.Chemscore.DEInternal>
2.1033

> <Gold.Chemscore.Rot>
1.4333

> <Gold.Chemscore.Internal.Correction>
   9.000000E+99

> <Gold.Chemscore.Hbonds>
donor molecule, donor type, donor heavy atom, donor atom, acceptor molecule, acceptor atom, score
      L1  H     3    38       P1  8028  0.98
      L1  H     7    27       P1  7948  0.88
      L1  H    10    28       P1  7948  0.88
      L1  H    15    33       P1 10957  0.22

> <Gold.Chemscore.Hbond.Weighted>
-11.3023

> <Gold.Chemscore.Metal.Weighted>
-0.0000

> <Gold.Chemscore.Lipo.Weighted>
-9.3962

> <Gold.Chemscore.Internal_Hbond.Weighted>
0.0000

> <Gold.Chemscore.DEClash.Weighted>
1.9758

> <Gold.Chemscore.DEInternal.Weighted>
2.1033

> <Gold.Chemscore.Rot.Weighted>
3.6693

> <Gold.Chemscore.Internal.Correction.Weighted>
   9.000000E+99

> <Gold.Protein.RotatedTorsions>
[ 6907 6896 6895 6894 ] final  141.38 input  -60.11 | X-H torsion
[ 7974 7965 7964 7962 ] final  -20.34 input  175.53 | X-H torsion
[ 8008 7997 7996 7995 ] final  158.95 input   59.86 | X-H torsion
[ 10167 10162 10161 10158 ] final  -61.05 input  -65.29 | X-H torsion
[ 10718 10713 10712 10709 ] final  124.44 input   66.30 | X-H torsion
[ 10763 10752 10751 10750 ] final  143.92 input  -60.55 | X-H torsion
[ 11005 11000 10999 10996 ] final -117.51 input  -57.11 | X-H torsion

> <Gold.Protein.ActiveResidues>
 VAL166  LYS551  ARG553  GLY616  TRP617  ASP618  TYR619  PRO620  LYS621  CYS622 
 ASP623  PHE694  ASN695  SER759  ASP760  ASP761  ALA762  ILE779  LEU786  VAL792 
 PHE793  MET794  SER795  GLU796  ALA797  LYS798  CYS799  TRP800  GLU811  SER814 

> <Gold.Protein.RotatedAtoms>
  152.2316  133.5063  159.5218 H   0  0  0  0  0  0  0  0  0  0  0  0  # atno 6907 bound_to 6896
  150.7039  134.1208  159.4043 H   0  0  0  0  0  0  0  0  0  0  0  0  # atno 6908 bound_to 6896
  151.9129  135.0331  160.0566 H   0  0  0  0  0  0  0  0  0  0  0  0  # atno 6909 bound_to 6896
  146.1793  140.4188  142.8501 H   0  0  0  0  0  0  0  0  0  0  0  0  # atno 7974 bound_to 7965
  156.2270  140.1844  156.7338 H   0  0  0  0  0  0  0  0  0  0  0  0  # atno 8008 bound_to 7997
  154.5958  140.0643  156.9329 H   0  0  0  0  0  0  0  0  0  0  0  0  # atno 8009 bound_to 7997
  155.2259  140.3311  155.4312 H   0  0  0  0  0  0  0  0  0  0  0  0  # atno 8010 bound_to 7997
  140.6032  143.2366  151.5882 H   0  0  0  0  0  0  0  0  0  0  0  0  # atno 10167 bound_to 10162
  157.5585  131.1091  150.8580 H   0  0  0  0  0  0  0  0  0  0  0  0  # atno 10718 bound_to 10713
  153.9804  135.2942  155.3420 H   0  0  0  0  0  0  0  0  0  0  0  0  # atno 10763 bound_to 10752
  154.7272  135.5083  153.8909 H   0  0  0  0  0  0  0  0  0  0  0  0  # atno 10764 bound_to 10752
  153.0857  135.6693  154.0068 H   0  0  0  0  0  0  0  0  0  0  0  0  # atno 10765 bound_to 10752
  141.0350  133.9924  157.3085 H   0  0  0  0  0  0  0  0  0  0  0  0  # atno 11005 bound_to 11000
  144.8288  140.6673  143.6304 LP  0  0  0  0  0  0  0  0  0  0  0  0  # atno 17320 bound_to 7965
  145.4122  139.1578  143.4120 LP  0  0  0  0  0  0  0  0  0  0  0  0  # atno 17321 bound_to 7965
  139.5306  144.2929  152.1137 LP  0  0  0  0  0  0  0  0  0  0  0  0  # atno 17342 bound_to 10162
  140.2113  144.4559  150.6384 LP  0  0  0  0  0  0  0  0  0  0  0  0  # atno 17343 bound_to 10162
  156.9084  130.5272  149.5281 LP  0  0  0  0  0  0  0  0  0  0  0  0  # atno 17370 bound_to 10713
  156.0640  130.5687  150.9252 LP  0  0  0  0  0  0  0  0  0  0  0  0  # atno 17371 bound_to 10713
  139.9234  135.0201  156.8147 LP  0  0  0  0  0  0  0  0  0  0  0  0  # atno 17394 bound_to 11000
  140.6339  133.9880  155.7675 LP  0  0  0  0  0  0  0  0  0  0  0  0  # atno 17395 bound_to 11000

$$$$
