#       Name:                AV-unprocessed.smi:2279
#       Creating user name   scv26
#       Creation time:       Fri Mar 27 12:40:28 2020


#       File generated by GOLD software.
#

@<TRIPOS>MOLECULE
AV-unprocessed.smi:2279
    61    63     1
SMALL
NO_CHARGES


@<TRIPOS>ATOM
      1 ****        -7.4615   4.6776   0.7963 C.3            1 S1                 0.0000
      2 ****        -6.8489   3.2927   0.7823 C.ar           1 S1                 0.0000
      3 ****        -7.6601   2.1420   0.8081 C.ar           1 S1                 0.0000
      4 ****        -7.0280   0.8831   0.7927 C.ar           1 S1                 0.0000
      5 ****        -7.8374  -0.3961   0.8141 C.3            1 S1                 0.0000
      6 ****        -5.6867   0.7323   0.7573 N.ar           1 S1                 0.0000
      7 ****        -4.8955   1.8334   0.7335 C.ar           1 S1                 0.0000
      8 ****        -3.4767   1.7838   0.6962 N.am           1 S1                 0.0000
      9 ****        -2.6816   0.6996   0.7246 C.2            1 S1                 0.0000
     10 ****        -3.0689  -0.4676   0.7909 O.2            1 S1                 0.0000
     11 ****        -1.3871   1.0465   0.6748 N.am           1 S1                 0.0000
     12 ****        -0.2649   0.1132   0.7089 C.3            1 S1                 0.0000
     13 ****         1.0070   0.8375   1.1558 C.3            1 S1                 0.0000
     14 ****         2.2272  -0.0978   1.0962 C.3            1 S1                 0.0000
     15 ****         2.4564  -0.6188  -0.2629 N.3            1 S1                 0.0000
     16 ****         3.6726  -1.4615  -0.3273 C.3            1 S1                 0.0000
     17 ****         4.9400  -0.6772   0.1112 C.3            1 S1                 0.0000
     18 ****         6.2344  -1.4857  -0.0699 C.3            1 S1                 0.0000
     19 ****         6.3907  -1.9328  -1.4713 N.4            1 S1                 1.0000
     20 ****         7.6916  -2.5930  -1.7124 C.3            1 S1                 0.0000
     21 ****         5.2453  -2.7675  -1.8949 C.3            1 S1                 0.0000
     22 ****         3.9213  -1.9979  -1.7643 C.3            1 S1                 0.0000
     23 ****         1.2567  -1.3734  -0.6664 C.3            1 S1                 0.0000
     24 ****        -0.0050  -0.4932  -0.6748 C.3            1 S1                 0.0000
     25 ****        -5.4491   3.1335   0.7429 C.ar           1 S1                 0.0000
     26 ****        -8.5507   4.6300   0.8072 H              1 S1                 0.0000
     27 ****        -7.1535   5.2362  -0.0878 H              1 S1                 0.0000
     28 ****        -7.1354   5.2258   1.6804 H              1 S1                 0.0000
     29 ****        -8.7371   2.2220   0.8387 H              1 S1                 0.0000
     30 ****        -8.9076  -0.1876   0.8251 H              1 S1                 0.0000
     31 ****        -7.5956  -0.9829   1.7006 H              1 S1                 0.0000
     32 ****        -7.6171  -0.9983  -0.0679 H              1 S1                 0.0000
     33 ****        -3.0128   2.6787   0.6505 H              1 S1                 0.0000
     34 ****        -1.1595   2.0284   0.6173 H              1 S1                 0.0000
     35 ****        -0.4796  -0.6863   1.4208 H              1 S1                 0.0000
     36 ****         1.1868   1.7081   0.5229 H              1 S1                 0.0000
     37 ****         0.8830   1.2143   2.1718 H              1 S1                 0.0000
     38 ****         3.0735   0.4926   1.4385 H              1 S1                 0.0000
     39 ****         2.1064  -0.9245   1.7981 H              1 S1                 0.0000
     40 ****         3.5418  -2.3121   0.3439 H              1 S1                 0.0000
     41 ****         5.0129   0.2547  -0.4520 H              1 S1                 0.0000
     42 ****         4.8964  -0.4061   1.1646 H              1 S1                 0.0000
     43 ****         7.0889  -0.8702   0.2144 H              1 S1                 0.0000
     44 ****         6.2327  -2.3516   0.5945 H              1 S1                 0.0000
     45 ****         7.7841  -3.5042  -1.1197 H              1 S1                 0.0000
     46 ****         8.5151  -1.9282  -1.4498 H              1 S1                 0.0000
     47 ****         7.8004  -2.8564  -2.7650 H              1 S1                 0.0000
     48 ****         5.3834  -3.0769  -2.9316 H              1 S1                 0.0000
     49 ****         5.2117  -3.6780  -1.2941 H              1 S1                 0.0000
     50 ****         3.1380  -2.6872  -2.0742 H              1 S1                 0.0000
     51 ****         3.9118  -1.1704  -2.4754 H              1 S1                 0.0000
     52 ****         1.3576  -1.7597  -1.6776 H              1 S1                 0.0000
     53 ****         1.1150  -2.2313  -0.0072 H              1 S1                 0.0000
     54 ****        -0.8620  -1.0897  -0.9900 H              1 S1                 0.0000
     55 ****         0.1095   0.2988  -1.4166 H              1 S1                 0.0000
     56 ****        -4.8080   4.0032   0.7224 H              1 S1                 0.0000
     57 ****         6.3764  -1.1025  -2.0466 H              1 S1                 0.0000
     58 ****        -5.2810  -0.1817   0.7488 LP             1 S1                 0.0000
     59 ****        -4.0478  -0.6682   0.8286 LP             1 S1                 0.0000
     60 ****        -2.4044  -1.2148   0.8072 LP             1 S1                 0.0000
     61 ****         2.6115   0.1407  -0.8946 LP             1 S1                 0.0000
@<TRIPOS>BOND
    1    1    2 1     
    2    1   26 1     
    3    1   27 1     
    4    1   28 1     
    5    2   25 ar    
    6    2    3 ar    
    7    3    4 ar    
    8    3   29 1     
    9    4    5 1     
   10    4    6 ar    
   11    5   30 1     
   12    5   31 1     
   13    5   32 1     
   14    6    7 ar    
   15    7    8 1     
   16    7   25 ar    
   17    8    9 am    
   18    8   33 1     
   19    9   10 2     
   20    9   11 am    
   21   11   12 1     
   22   11   34 1     
   23   12   24 1     
   24   12   13 1     
   25   12   35 1     
   26   13   14 1     
   27   13   36 1     
   28   13   37 1     
   29   14   15 1     
   30   14   38 1     
   31   14   39 1     
   32   15   16 1     
   33   15   23 1     
   34   16   22 1     
   35   16   17 1     
   36   16   40 1     
   37   17   18 1     
   38   17   41 1     
   39   17   42 1     
   40   18   19 1     
   41   18   43 1     
   42   18   44 1     
   43   19   20 1     
   44   19   21 1     
   45   19   57 1     
   46   20   45 1     
   47   20   46 1     
   48   20   47 1     
   49   21   22 1     
   50   21   48 1     
   51   21   49 1     
   52   22   50 1     
   53   22   51 1     
   54   23   24 1     
   55   23   52 1     
   56   23   53 1     
   57   24   54 1     
   58   24   55 1     
   59   25   56 1     
   60    6   58 1     
   61   10   59 1     
   62   10   60 1     
   63   15   61 1     
@<TRIPOS>SUBSTRUCTURE
      1 S1             1
@<TRIPOS>SET
LONE_PAIRS      STATIC     ATOMS    <user>   **** ""
4 58 59 60 61
DONOR_HYDROGENS      STATIC     ATOMS    <user>   **** ""
3 33 34 57
ATOM$BLUE        STATIC     ATOMS    COLORGROUP SYSTEM
4 58 59 60 61
ATOM$RED        STATIC     ATOMS    COLORGROUP SYSTEM
3 33 34 57
