AV-unprocessed.smi:2078|AV-procd|sdf|8464|dock9
  -GOLD-   2272011163D 1   1.00000     0.00000
 Structure written by MMmdl.
 42 43  0  0  0  0  0  0  0  0  2 V2000
  152.0482  139.8904  155.7253 C   0  0  0  0  0  0  0  0  0  0  0  0
  151.6273  138.4928  155.4216 C   0  0  0  0  0  0  0  0  0  0  0  0
  150.6254  137.9719  154.6515 C   0  0  0  0  0  0  0  0  0  0  0  0
  150.7953  136.5709  154.8107 C   0  0  0  0  0  0  0  0  0  0  0  0
  149.9326  135.6540  154.1576 N   0  0  0  0  0  0  0  0  0  0  0  0
  149.8138  134.3356  154.3893 C   0  0  0  0  0  0  0  0  0  0  0  0
  150.4552  133.6995  155.2262 O   0  0  0  0  0  0  0  0  0  0  0  0
  148.8979  133.7774  153.5842 N   0  0  0  0  0  0  0  0  0  0  0  0
  148.5301  132.3665  153.5973 C   0  0  0  0  0  0  0  0  0  0  0  0
  147.0669  132.1654  154.0376 C   0  0  0  0  0  0  0  0  0  0  0  0
  146.1291  132.1658  152.8873 N   0  3  2  0  0  0  0  0  0  0  0  0
  146.1638  130.9006  152.1063 C   0  0  0  0  0  0  0  0  0  0  0  0
  145.0751  130.8907  151.0218 C   0  0  0  0  0  0  0  0  0  0  0  0
  145.2053  132.1110  150.0994 C   0  0  0  0  0  0  0  0  0  0  0  0
  145.2354  133.4220  150.9072 C   0  0  1  0  0  0  0  0  0  0  0  0
  143.8548  133.8108  151.4650 C   0  0  0  0  0  0  0  0  0  0  0  0
  146.3115  133.3533  152.0109 C   0  0  0  0  0  0  0  0  0  0  0  0
  151.8098  136.2637  155.6043 N   0  0  0  0  0  0  0  0  0  0  0  0
  152.3479  137.4938  156.0004 O   0  0  0  0  0  0  0  0  0  0  0  0
  152.1354  140.4752  154.8095 H   0  0  0  0  0  0  0  0  0  0  0  0
  153.0146  139.9093  156.2298 H   0  0  0  0  0  0  0  0  0  0  0  0
  151.3201  140.3800  156.3721 H   0  0  0  0  0  0  0  0  0  0  0  0
  149.8910  138.5097  154.0701 H   0  0  0  0  0  0  0  0  0  0  0  0
  149.3418  136.0457  153.4393 H   0  0  0  0  0  0  0  0  0  0  0  0
  148.4142  134.3713  152.9262 H   0  0  0  0  0  0  0  0  0  0  0  0
  148.7155  131.9416  152.6104 H   0  0  0  0  0  0  0  0  0  0  0  0
  149.1984  131.8495  154.2866 H   0  0  0  0  0  0  0  0  0  0  0  0
  147.0030  131.2082  154.5574 H   0  0  0  0  0  0  0  0  0  0  0  0
  146.7600  132.9257  154.7577 H   0  0  0  0  0  0  0  0  0  0  0  0
  147.1480  130.7800  151.6506 H   0  0  0  0  0  0  0  0  0  0  0  0
  146.0146  130.0428  152.7609 H   0  0  0  0  0  0  0  0  0  0  0  0
  145.1455  129.9747  150.4343 H   0  0  0  0  0  0  0  0  0  0  0  0
  144.0896  130.8781  151.4887 H   0  0  0  0  0  0  0  0  0  0  0  0
  146.1276  132.0239  149.5233 H   0  0  0  0  0  0  0  0  0  0  0  0
  144.3923  132.1263  149.3725 H   0  0  0  0  0  0  0  0  0  0  0  0
  145.5232  134.2189  150.2200 H   0  0  0  0  0  0  0  0  0  0  0  0
  143.4869  133.0832  152.1884 H   0  0  0  0  0  0  0  0  0  0  0  0
  143.1163  133.8863  150.6662 H   0  0  0  0  0  0  0  0  0  0  0  0
  143.8948  134.7792  151.9648 H   0  0  0  0  0  0  0  0  0  0  0  0
  146.2776  134.2666  152.6065 H   0  0  0  0  0  0  0  0  0  0  0  0
  147.3047  133.3128  151.5601 H   0  0  0  0  0  0  0  0  0  0  0  0
  145.2008  132.2478  153.2767 H   0  0  0  0  0  0  0  0  0  0  0  0
  1  2  1  0  0  0  0
  1 20  1  0  0  0  0
  1 21  1  0  0  0  0
  1 22  1  0  0  0  0
  2 19  1  0  0  0  0
  2  3  2  0  0  0  0
  3  4  1  0  0  0  0
  3 23  1  0  0  0  0
  4  5  1  0  0  0  0
  4 18  2  0  0  0  0
  5  6  1  0  0  0  0
  5 24  1  0  0  0  0
  6  7  2  0  0  0  0
  6  8  1  0  0  0  0
  8  9  1  0  0  0  0
  8 25  1  0  0  0  0
  9 10  1  0  0  0  0
  9 26  1  0  0  0  0
  9 27  1  0  0  0  0
 10 11  1  0  0  0  0
 10 28  1  0  0  0  0
 10 29  1  0  0  0  0
 11 17  1  0  0  0  0
 11 12  1  0  0  0  0
 11 42  1  0  0  0  0
 12 13  1  0  0  0  0
 12 30  1  0  0  0  0
 12 31  1  0  0  0  0
 13 14  1  0  0  0  0
 13 32  1  0  0  0  0
 13 33  1  0  0  0  0
 14 15  1  0  0  0  0
 14 34  1  0  0  0  0
 14 35  1  0  0  0  0
 15 16  1  0  0  0  0
 15 17  1  0  0  0  0
 15 36  1  0  0  0  0
 16 37  1  0  0  0  0
 16 38  1  0  0  0  0
 16 39  1  0  0  0  0
 17 40  1  0  0  0  0
 17 41  1  0  0  0  0
 18 19  1  0  0  0  0
M  CHG  1  11   1
M  END
> <s_m_source_file>
AV-unprocessed.smi

> <i_m_source_file_index>
2078

> <i_lp_mmshare_version>
43012

> <i_f3d_flags>
0

> <s_epik_input>
W0NIM11jMVtjSF1jKG5vMSlbTkhdQyg9TylbTkhdW0NIMl1bQ0gyXU4yW0NIMl1bQ0gyXVtDSDJdW0NAQEhdKFtDSDNdKVtDSDJdMg==

> <s_epik_cmdline>
J2VwaWtfcHl0aG9uJywgJy1waCcsICc3LjAnLCAnLXRuJywgJzgnLCAnLW1hJywgJzIwMCcsICctbWV0YWxfYmluZGluZycsICctaW1hZScsICc8aW5maWxlLm1hZT4nLCAnLW9tYWUnLCAnPG91dGZpbGUubWFlPic=

> <r_epik_Ionization_Penalty>
0.00216453

> <r_epik_Ionization_Penalty_Charging>
0.00212879

> <r_epik_Ionization_Penalty_Neutral>
3.57418e-05

> <r_epik_State_Penalty>
0.00146033

> <r_epik_Charging_Adjusted_Penalty>
0.00358912

> <i_epik_Tot_Q>
1

> <i_epik_Tot_abs_Q>
1

> <r_epik_Metal_State_Penalty>
0.0215827

> <b_epik_Metal_Only>
0

> <s_lp_Force_Field>
OPLS_2005

> <r_lp_Energy>
15.3902

> <b_lp_Chiralities_Consistent>
1

> <s_lp_Variant>
AV-unprocessed.smi:2078-2

> <Gold.Version>
5.8.1

> <Gold.Id.Protein>
6NUR|6NUR_protein|mol2

> <Gold.PLP.Fitness>
40.3699

> <Gold.PLP.PLP>
-33.6625

> <Gold.PLP.part.hbond>
-4.6112

> <Gold.PLP.part.metal>
0.0000

> <Gold.PLP.part.buried>
-2.0980

> <Gold.PLP.part.nonpolar>
-26.2907

> <Gold.PLP.part.repulsive>
0.1711

> <Gold.PLP.ligand.clash>
0.0000

> <Gold.PLP.ligand.torsion>
0.3225

> <Gold.PLP.Chemscore.Hbond>
2.4456

> <Gold.PLP.Chemscore.CHOScore>
0.0000

> <Gold.PLP.Chemscore.Metal>
0.0000

> <Gold.Chemscore.Hbonds>
donor molecule, donor type, donor heavy atom, donor atom, acceptor molecule, acceptor atom, score
      L1  H     5    24       P1  7948  0.98
      L1  H     8    25       P1  7948  0.43
      P1  H 10752 10763       L1    18  1.00

> <Gold.PLP.Chemscore.Internal.Correction>
0.0158

> <Gold.Rescore>
     Score         DG    S(hbond)    S(metal)    S(lipo)     H(rot)  DE(clash)    DE(int)     intcor
     14.64     -16.23       1.74        0.00      76.64       1.57       0.05       1.53       ----

> <Gold.Chemscore.Fitness>
14.6382

> <Gold.Chemscore.DG>
-16.2261

> <Gold.Chemscore.ZeroCoef>
-5.4800

> <Gold.Chemscore.Hbond>
1.7358

> <Gold.Chemscore.Metal>
0.0000

> <Gold.Chemscore.Lipo>
76.6407

> <Gold.Chemscore.Internal_Hbond>
0.0000

> <Gold.Chemscore.DEClash>
0.0537

> <Gold.Chemscore.DEInternal>
1.5342

> <Gold.Chemscore.Rot>
1.5697

> <Gold.Chemscore.Internal.Correction>
   9.000000E+99

> <Gold.Chemscore.Hbonds>
donor molecule, donor type, donor heavy atom, donor atom, acceptor molecule, acceptor atom, score
      L1  H     5    24       P1  7948  0.60
      L1  H     8    25       P1  7948  0.09
      P1  H 10752 10763       L1    18  0.27

> <Gold.Chemscore.Hbond.Weighted>
-5.7976

> <Gold.Chemscore.Metal.Weighted>
-0.0000

> <Gold.Chemscore.Lipo.Weighted>
-8.9670

> <Gold.Chemscore.Internal_Hbond.Weighted>
0.0000

> <Gold.Chemscore.DEClash.Weighted>
0.0537

> <Gold.Chemscore.DEInternal.Weighted>
1.5342

> <Gold.Chemscore.Rot.Weighted>
4.0185

> <Gold.Chemscore.Internal.Correction.Weighted>
   9.000000E+99

> <Gold.Protein.RotatedTorsions>
[ 6907 6896 6895 6894 ] final   18.86 input  -60.11 | X-H torsion
[ 7974 7965 7964 7962 ] final -125.44 input  175.53 | X-H torsion
[ 8008 7997 7996 7995 ] final  111.97 input   59.86 | X-H torsion
[ 10167 10162 10161 10158 ] final   68.07 input  -65.29 | X-H torsion
[ 10718 10713 10712 10709 ] final   80.74 input   66.30 | X-H torsion
[ 10763 10752 10751 10750 ] final   61.82 input  -60.55 | X-H torsion
[ 11005 11000 10999 10996 ] final -107.05 input  -57.11 | X-H torsion

> <Gold.Protein.ActiveResidues>
 VAL166  LYS551  ARG553  GLY616  TRP617  ASP618  TYR619  PRO620  LYS621  CYS622 
 ASP623  PHE694  ASN695  SER759  ASP760  ASP761  ALA762  ILE779  LEU786  VAL792 
 PHE793  MET794  SER795  GLU796  ALA797  LYS798  CYS799  TRP800  GLU811  SER814 

> <Gold.Protein.RotatedAtoms>
  151.8719  135.0486  160.0479 H   0  0  0  0  0  0  0  0  0  0  0  0  # atno 6907 bound_to 6896
  152.2581  133.5269  159.5374 H   0  0  0  0  0  0  0  0  0  0  0  0  # atno 6908 bound_to 6896
  150.7107  134.0783  159.3931 H   0  0  0  0  0  0  0  0  0  0  0  0  # atno 6909 bound_to 6896
  144.9976  140.7790  143.4516 H   0  0  0  0  0  0  0  0  0  0  0  0  # atno 7974 bound_to 7965
  156.2160  140.3009  155.9842 H   0  0  0  0  0  0  0  0  0  0  0  0  # atno 8008 bound_to 7997
  155.2603  140.0429  157.3013 H   0  0  0  0  0  0  0  0  0  0  0  0  # atno 8009 bound_to 7997
  154.5769  140.2364  155.8118 H   0  0  0  0  0  0  0  0  0  0  0  0  # atno 8010 bound_to 7997
  140.0827  144.5057  150.7151 H   0  0  0  0  0  0  0  0  0  0  0  0  # atno 10167 bound_to 10162
  157.6814  130.9973  150.2123 H   0  0  0  0  0  0  0  0  0  0  0  0  # atno 10718 bound_to 10713
  152.9962  135.5487  154.6095 H   0  0  0  0  0  0  0  0  0  0  0  0  # atno 10763 bound_to 10752
  154.5418  135.2820  155.1090 H   0  0  0  0  0  0  0  0  0  0  0  0  # atno 10764 bound_to 10752
  154.2364  135.6424  153.5245 H   0  0  0  0  0  0  0  0  0  0  0  0  # atno 10765 bound_to 10752
  141.0974  133.8947  157.1929 H   0  0  0  0  0  0  0  0  0  0  0  0  # atno 11005 bound_to 11000
  145.2198  139.2164  143.5099 LP  0  0  0  0  0  0  0  0  0  0  0  0  # atno 17320 bound_to 7965
  146.3445  140.2054  142.8589 LP  0  0  0  0  0  0  0  0  0  0  0  0  # atno 17321 bound_to 7965
  140.7069  143.2475  151.4698 LP  0  0  0  0  0  0  0  0  0  0  0  0  # atno 17342 bound_to 10162
  139.5770  144.1796  152.1917 LP  0  0  0  0  0  0  0  0  0  0  0  0  # atno 17343 bound_to 10162
  156.2792  130.3731  149.7953 LP  0  0  0  0  0  0  0  0  0  0  0  0  # atno 17370 bound_to 10713
  156.5646  130.8398  151.3339 LP  0  0  0  0  0  0  0  0  0  0  0  0  # atno 17371 bound_to 10713
  139.9814  135.0097  156.9759 LP  0  0  0  0  0  0  0  0  0  0  0  0  # atno 17394 bound_to 11000
  140.5107  134.1005  155.7270 LP  0  0  0  0  0  0  0  0  0  0  0  0  # atno 17395 bound_to 11000

$$$$
