#       Name:                AV-unprocessed.smi:1724
#       Creating user name   scv26
#       Creation time:       Fri Mar 27 08:16:13 2020


#       File generated by GOLD software.
#

@<TRIPOS>MOLECULE
AV-unprocessed.smi:1724
    44    45     1
SMALL
NO_CHARGES


@<TRIPOS>ATOM
      1 ****         0.4264   1.1229   0.8058 O.2            1 S1                 0.0000
      2 ****        -0.1063   0.0430   1.0586 C.2            1 S1                 0.0000
      3 ****         0.5821  -1.0964   1.2198 N.am           1 S1                 0.0000
      4 ****         2.0331  -1.2349   1.1278 C.3            1 S1                 0.0000
      5 ****         2.4777  -1.8719  -0.2045 C.3            1 S1                 0.0000
      6 ****         2.1180  -1.0160  -1.4339 C.3            1 S1                 0.0000
      7 ****         2.6706  -1.6605  -2.7102 C.3            1 S1                 0.0000
      8 ****         4.1722  -1.9461  -2.5612 C.3            1 S1                 0.0000
      9 ****         4.3932  -2.7678  -1.4206 O.3            1 S1                 0.0000
     10 ****         3.9952  -2.1476  -0.2023 C.3            1 S1                 0.0000
     11 ****        -1.4256  -0.1725   1.2171 N.am           1 S1                 0.0000
     12 ****        -2.5041   0.7261   1.1347 C.2            1 S1                 0.0000
     13 ****        -2.4229   2.0151   0.7106 C.2            1 S1                 0.0000
     14 ****        -3.5897   2.8819   0.6521 C.2            1 S1                 0.0000
     15 ****        -3.5108   4.3282   0.1899 C.3            1 S1                 0.0000
     16 ****        -4.2872   4.5128  -0.8776 F              1 S1                 0.0000
     17 ****        -3.9382   5.1435   1.1539 F              1 S1                 0.0000
     18 ****        -2.2651   4.6772  -0.1327 F              1 S1                 0.0000
     19 ****        -4.7602   2.3411   1.0342 C.2            1 S1                 0.0000
     20 ****        -4.8536   1.0162   1.4642 N.am           1 S1                 0.0000
     21 ****        -3.8049   0.1669   1.5407 C.2            1 S1                 0.0000
     22 ****        -3.9703  -0.9890   1.9292 O.2            1 S1                 0.0000
     23 ****        -5.7686   0.6838   1.7324 H              1 S1                 0.0000
     24 ****         0.0618  -1.9362   1.4275 H              1 S1                 0.0000
     25 ****         2.5319  -0.2754   1.2752 H              1 S1                 0.0000
     26 ****         2.3498  -1.8682   1.9570 H              1 S1                 0.0000
     27 ****         1.9694  -2.8325  -0.3030 H              1 S1                 0.0000
     28 ****         1.0379  -0.8991  -1.5246 H              1 S1                 0.0000
     29 ****         2.5333  -0.0137  -1.3209 H              1 S1                 0.0000
     30 ****         2.1411  -2.5932  -2.9087 H              1 S1                 0.0000
     31 ****         2.4931  -1.0109  -3.5677 H              1 S1                 0.0000
     32 ****         4.5457  -2.4629  -3.4454 H              1 S1                 0.0000
     33 ****         4.7387  -1.0179  -2.4709 H              1 S1                 0.0000
     34 ****         4.5604  -1.2261  -0.0520 H              1 S1                 0.0000
     35 ****         4.2539  -2.8147   0.6203 H              1 S1                 0.0000
     36 ****        -1.6935  -1.1175   1.4512 H              1 S1                 0.0000
     37 ****        -1.4849   2.4374   0.3930 H              1 S1                 0.0000
     38 ****        -5.6995   2.8742   1.0400 H              1 S1                 0.0000
     39 ****         1.4202   1.1801   0.7109 LP             1 S1                 0.0000
     40 ****        -0.1345   1.9434   0.6952 LP             1 S1                 0.0000
     41 ****         5.3686  -2.9811  -1.3657 LP             1 S1                 0.0000
     42 ****         3.8727  -3.6143  -1.5321 LP             1 S1                 0.0000
     43 ****        -3.1918  -1.6142   1.9843 LP             1 S1                 0.0000
     44 ****        -4.8832  -1.3031   2.1898 LP             1 S1                 0.0000
@<TRIPOS>BOND
    1    1    2 2     
    2    2    3 am    
    3    2   11 am    
    4    3    4 1     
    5    3   24 1     
    6    4    5 1     
    7    4   25 1     
    8    4   26 1     
    9    5   10 1     
   10    5    6 1     
   11    5   27 1     
   12    6    7 1     
   13    6   28 1     
   14    6   29 1     
   15    7    8 1     
   16    7   30 1     
   17    7   31 1     
   18    8    9 1     
   19    8   32 1     
   20    8   33 1     
   21    9   10 1     
   22   10   34 1     
   23   10   35 1     
   24   11   12 1     
   25   11   36 1     
   26   12   21 1     
   27   12   13 2     
   28   13   14 1     
   29   13   37 1     
   30   14   15 1     
   31   14   19 2     
   32   15   16 1     
   33   15   17 1     
   34   15   18 1     
   35   19   20 1     
   36   19   38 1     
   37   20   23 1     
   38   20   21 am    
   39   21   22 2     
   40    1   39 1     
   41    1   40 1     
   42    9   41 1     
   43    9   42 1     
   44   22   43 1     
   45   22   44 1     
@<TRIPOS>SUBSTRUCTURE
      1 S1             1
@<TRIPOS>SET
LONE_PAIRS      STATIC     ATOMS    <user>   **** ""
6 39 40 41 42 43 44
DONOR_HYDROGENS      STATIC     ATOMS    <user>   **** ""
3 24 36 23
ATOM$BLUE        STATIC     ATOMS    COLORGROUP SYSTEM
6 39 40 41 42 43 44
ATOM$RED        STATIC     ATOMS    COLORGROUP SYSTEM
3 24 36 23
