AV-unprocessed.smi:278|AV-procd|sdf|2091|dock5
  -GOLD-   2262021373D 1   1.00000     0.00000
 Structure written by MMmdl.
 50 54  0  0  0  0  0  0  0  0  1 V2000
  153.0879  139.8033  154.7282 O   0  0  0  0  0  0  0  0  0  0  0  0
  151.8876  139.2471  155.3707 S   0  0  0  0  0  0  0  0  0  0  0  0
  151.4218  137.8901  155.0452 O   0  0  0  0  0  0  0  0  0  0  0  0
  152.0611  139.3981  157.1913 C   0  0  0  0  0  0  0  0  0  0  0  0
  151.1924  140.5917  157.6096 C   0  0  0  0  0  0  0  0  0  0  0  0
  150.0224  140.7370  156.6194 C   0  0  2  0  0  0  0  0  0  0  0  0
  148.9114  139.6989  156.8104 C   0  0  0  0  0  0  0  0  0  0  0  0
  148.3296  139.5191  155.4877 N   0  0  0  0  0  0  0  0  0  0  0  0
  147.3932  138.5631  155.2532 C   0  0  0  0  0  0  0  0  0  0  0  0
  146.9494  137.8118  156.2964 N   0  0  0  0  0  0  0  0  0  0  0  0
  146.0284  136.8627  156.1079 C   0  0  0  0  0  0  0  0  0  0  0  0
  145.4176  136.5062  154.9771 N   0  0  0  0  0  0  0  0  0  0  0  0
  145.8454  137.2632  153.9273 C   0  0  0  0  0  0  0  0  0  0  0  0
  146.8196  138.3020  153.9734 C   0  0  0  0  0  0  0  0  0  0  0  0
  146.9787  138.8471  152.7030 N   0  0  0  0  0  0  0  0  0  0  0  0
  146.1567  138.1662  151.9523 C   0  0  0  0  0  0  0  0  0  0  0  0
  145.4348  137.1967  152.6084 N   0  0  0  0  0  0  0  0  0  0  0  0
  144.4522  136.2999  152.0272 C   0  0  0  0  0  0  0  0  0  0  0  0
  145.0488  135.4176  150.9144 C   0  0  2  0  0  0  0  0  0  0  0  0
  144.4862  135.7513  149.6591 O   0  0  0  0  0  0  0  0  0  0  0  0
  144.8915  133.9100  151.2002 C   0  0  2  0  0  0  0  0  0  0  0  0
  145.6436  132.9548  150.2693 C   0  0  0  0  0  0  0  0  0  0  0  0
  144.8455  131.6826  150.4489 C   0  0  0  0  0  0  0  0  0  0  0  0
  143.4202  132.2210  150.5481 C   0  0  0  0  0  0  0  0  0  0  0  0
  143.5268  133.4978  151.1727 O   0  0  0  0  0  0  0  0  0  0  0  0
  149.2909  139.8880  154.4566 C   0  0  0  0  0  0  0  0  0  0  0  0
  150.5094  140.4591  155.1962 C   0  0  2  0  0  0  0  0  0  0  0  0
  149.5872  141.7358  156.6751 H   0  0  0  0  0  0  0  0  0  0  0  0
  150.9054  141.3538  154.7152 H   0  0  0  0  0  0  0  0  0  0  0  0
  151.6940  138.4753  157.6409 H   0  0  0  0  0  0  0  0  0  0  0  0
  153.1101  139.5205  157.4613 H   0  0  0  0  0  0  0  0  0  0  0  0
  150.8468  140.4987  158.6397 H   0  0  0  0  0  0  0  0  0  0  0  0
  151.7992  141.4966  157.5611 H   0  0  0  0  0  0  0  0  0  0  0  0
  149.3159  138.7478  157.1590 H   0  0  0  0  0  0  0  0  0  0  0  0
  148.1674  140.0386  157.5318 H   0  0  0  0  0  0  0  0  0  0  0  0
  145.7385  136.3111  156.9900 H   0  0  0  0  0  0  0  0  0  0  0  0
  146.0542  138.3526  150.8931 H   0  0  0  0  0  0  0  0  0  0  0  0
  144.0446  135.6772  152.8244 H   0  0  0  0  0  0  0  0  0  0  0  0
  143.6236  136.8963  151.6429 H   0  0  0  0  0  0  0  0  0  0  0  0
  146.1158  135.6314  150.8408 H   0  0  0  0  0  0  0  0  0  0  0  0
  144.4236  136.6922  149.5999 H   0  0  0  0  0  0  0  0  0  0  0  0
  145.2368  133.7191  152.2178 H   0  0  0  0  0  0  0  0  0  0  0  0
  145.5872  133.2757  149.2287 H   0  0  0  0  0  0  0  0  0  0  0  0
  146.6952  132.8418  150.5349 H   0  0  0  0  0  0  0  0  0  0  0  0
  144.9776  130.9720  149.6326 H   0  0  0  0  0  0  0  0  0  0  0  0
  145.1276  131.1909  151.3811 H   0  0  0  0  0  0  0  0  0  0  0  0
  142.9972  132.3593  149.5521 H   0  0  0  0  0  0  0  0  0  0  0  0
  142.7605  131.5561  151.1063 H   0  0  0  0  0  0  0  0  0  0  0  0
  149.5571  139.0473  153.8156 H   0  0  0  0  0  0  0  0  0  0  0  0
  148.8431  140.6570  153.8266 H   0  0  0  0  0  0  0  0  0  0  0  0
  1  2  2  0  0  0  0
  2 27  1  0  0  0  0
  2  3  2  0  0  0  0
  2  4  1  0  0  0  0
  4  5  1  0  0  0  0
  4 30  1  0  0  0  0
  4 31  1  0  0  0  0
  5  6  1  0  0  0  0
  5 32  1  0  0  0  0
  5 33  1  0  0  0  0
  6 28  1  0  0  0  0
  6 27  1  0  0  0  0
  6  7  1  0  0  0  0
  7  8  1  0  0  0  0
  7 34  1  0  0  0  0
  7 35  1  0  0  0  0
  8  9  1  0  0  0  0
  8 26  1  0  0  0  0
  9 14  1  0  0  0  0
  9 10  2  0  0  0  0
 10 11  1  0  0  0  0
 11 12  2  0  0  0  0
 11 36  1  0  0  0  0
 12 13  1  0  0  0  0
 13 17  1  0  0  0  0
 13 14  2  0  0  0  0
 14 15  1  0  0  0  0
 15 16  2  0  0  0  0
 16 17  1  0  0  0  0
 16 37  1  0  0  0  0
 17 18  1  0  0  0  0
 18 19  1  0  0  0  0
 18 38  1  0  0  0  0
 18 39  1  0  0  0  0
 19 20  1  0  0  0  0
 19 21  1  0  0  0  0
 19 40  1  0  0  0  0
 20 41  1  0  0  0  0
 21 25  1  0  0  0  0
 21 22  1  0  0  0  0
 21 42  1  0  0  0  0
 22 23  1  0  0  0  0
 22 43  1  0  0  0  0
 22 44  1  0  0  0  0
 23 24  1  0  0  0  0
 23 45  1  0  0  0  0
 23 46  1  0  0  0  0
 24 25  1  0  0  0  0
 24 47  1  0  0  0  0
 24 48  1  0  0  0  0
 26 27  1  0  0  0  0
 26 49  1  0  0  0  0
 26 50  1  0  0  0  0
 27 29  1  0  0  0  0
M  END
> <s_m_source_file>
AV-unprocessed.smi

> <i_m_source_file_index>
278

> <i_lp_mmshare_version>
43012

> <i_f3d_flags>
0

> <s_epik_input>
W0NIMl0xW0NIMl1TKD1PKSg9TylbQ0BASF0oW0NAQEhdMTIpW0NIMl1OKFtDSDJdMiljKG5bY0hdbjMpYyhjMzQpbltjSF1uNFtDSDJdW0NASF0oW09IXSlbQ0BASF01W0NIMl1bQ0gyXVtDSDJdTzU=

> <s_epik_cmdline>
J2VwaWtfcHl0aG9uJywgJy1waCcsICc3LjAnLCAnLXRuJywgJzgnLCAnLW1hJywgJzIwMCcsICctbWV0YWxfYmluZGluZycsICctaW1hZScsICc8aW5maWxlLm1hZT4nLCAnLW9tYWUnLCAnPG91dGZpbGUubWFlPic=

> <r_lp_tautomer_probability>
1

> <r_epik_Ionization_Penalty>
0.000636766

> <r_epik_Ionization_Penalty_Charging>
0

> <r_epik_Ionization_Penalty_Neutral>
0.000636766

> <r_epik_State_Penalty>
0.000329976

> <r_epik_Charging_Adjusted_Penalty>
0.000329976

> <i_epik_Tot_Q>
0

> <i_epik_Tot_abs_Q>
0

> <r_epik_Metal_State_Penalty>
-0

> <b_epik_Metal_Only>
0

> <s_lp_Force_Field>
OPLS_2005

> <r_lp_Energy>
50.4142

> <b_lp_Chiralities_Consistent>
1

> <s_lp_Variant>
AV-unprocessed.smi:278-5

> <Gold.Version>
5.8.1

> <Gold.Id.Protein>
6NUR|6NUR_protein|mol2

> <Gold.PLP.Fitness>
45.9856

> <Gold.PLP.PLP>
-39.1346

> <Gold.PLP.part.hbond>
-4.0000

> <Gold.PLP.part.metal>
0.0000

> <Gold.PLP.part.buried>
-4.1022

> <Gold.PLP.part.nonpolar>
-32.5106

> <Gold.PLP.part.repulsive>
0.6095

> <Gold.PLP.ligand.clash>
0.0000

> <Gold.PLP.ligand.torsion>
0.9752

> <Gold.PLP.Chemscore.Hbond>
2.0296

> <Gold.PLP.Chemscore.CHOScore>
0.8102

> <Gold.PLP.Chemscore.Metal>
0.0000

> <Gold.Chemscore.Hbonds>
donor molecule, donor type, donor heavy atom, donor atom, acceptor molecule, acceptor atom, score
      L1  H    20    41       P1 10171  1.00
      P1  H  7989  7998       L1     1  0.06
      P1  H  7997  8009       L1     1  1.00
      L1  C    16    37       P1 10171  0.86

> <Gold.PLP.Chemscore.Internal.Correction>
0.2819

> <Gold.Rescore>
     Score         DG    S(hbond)    S(metal)    S(lipo)     H(rot)  DE(clash)    DE(int)     intcor
     14.87     -15.97       1.98        0.00      79.73       2.13       0.12       0.98       ----

> <Gold.Chemscore.Fitness>
14.8741

> <Gold.Chemscore.DG>
-15.9692

> <Gold.Chemscore.ZeroCoef>
-5.4800

> <Gold.Chemscore.Hbond>
1.9835

> <Gold.Chemscore.Metal>
0.0000

> <Gold.Chemscore.Lipo>
79.7335

> <Gold.Chemscore.Internal_Hbond>
0.0000

> <Gold.Chemscore.DEClash>
0.1165

> <Gold.Chemscore.DEInternal>
0.9785

> <Gold.Chemscore.Rot>
2.1346

> <Gold.Chemscore.Internal.Correction>
   9.000000E+99

> <Gold.Chemscore.Hbonds>
donor molecule, donor type, donor heavy atom, donor atom, acceptor molecule, acceptor atom, score
      L1  H    20    41       P1 10171  0.99
      P1  H  7997  8009       L1     1  0.96

> <Gold.Chemscore.Hbond.Weighted>
-6.6250

> <Gold.Chemscore.Metal.Weighted>
-0.0000

> <Gold.Chemscore.Lipo.Weighted>
-9.3288

> <Gold.Chemscore.Internal_Hbond.Weighted>
0.0000

> <Gold.Chemscore.DEClash.Weighted>
0.1165

> <Gold.Chemscore.DEInternal.Weighted>
0.9785

> <Gold.Chemscore.Rot.Weighted>
5.4646

> <Gold.Chemscore.Internal.Correction.Weighted>
   9.000000E+99

> <Gold.Protein.RotatedTorsions>
[ 6907 6896 6895 6894 ] final  125.41 input  -60.11 | X-H torsion
[ 7974 7965 7964 7962 ] final -102.60 input  175.53 | X-H torsion
[ 8008 7997 7996 7995 ] final -129.49 input   59.86 | X-H torsion
[ 10167 10162 10161 10158 ] final   58.03 input  -65.29 | X-H torsion
[ 10718 10713 10712 10709 ] final  -75.53 input   66.30 | X-H torsion
[ 10763 10752 10751 10750 ] final   70.44 input  -60.55 | X-H torsion
[ 11005 11000 10999 10996 ] final -111.86 input  -57.11 | X-H torsion

> <Gold.Protein.ActiveResidues>
 VAL166  LYS551  ARG553  GLY616  TRP617  ASP618  TYR619  PRO620  LYS621  CYS622 
 ASP623  PHE694  ASN695  SER759  ASP760  ASP761  ALA762  ILE779  LEU786  VAL792 
 PHE793  MET794  SER795  GLU796  ALA797  LYS798  CYS799  TRP800  GLU811  SER814 

> <Gold.Protein.RotatedAtoms>
  152.3994  133.6795  159.6303 H   0  0  0  0  0  0  0  0  0  0  0  0  # atno 6907 bound_to 6896
  150.7888  133.8817  159.3296 H   0  0  0  0  0  0  0  0  0  0  0  0  # atno 6908 bound_to 6896
  151.6586  135.0994  160.0226 H   0  0  0  0  0  0  0  0  0  0  0  0  # atno 6909 bound_to 6896
  145.2666  140.9286  143.3010 H   0  0  0  0  0  0  0  0  0  0  0  0  # atno 7974 bound_to 7965
  155.2800  140.0443  157.3014 H   0  0  0  0  0  0  0  0  0  0  0  0  # atno 8008 bound_to 7997
  154.5602  140.2344  155.8315 H   0  0  0  0  0  0  0  0  0  0  0  0  # atno 8009 bound_to 7997
  156.2041  140.3017  155.9596 H   0  0  0  0  0  0  0  0  0  0  0  0  # atno 8010 bound_to 7997
  140.1916  144.4080  150.6569 H   0  0  0  0  0  0  0  0  0  0  0  0  # atno 10167 bound_to 10162
  156.0204  130.4443  150.3056 H   0  0  0  0  0  0  0  0  0  0  0  0  # atno 10718 bound_to 10713
  153.0342  135.5174  154.7441 H   0  0  0  0  0  0  0  0  0  0  0  0  # atno 10763 bound_to 10752
  154.6431  135.2915  155.0081 H   0  0  0  0  0  0  0  0  0  0  0  0  # atno 10764 bound_to 10752
  154.0992  135.6639  153.4918 H   0  0  0  0  0  0  0  0  0  0  0  0  # atno 10765 bound_to 10752
  141.0710  133.9380  157.2485 H   0  0  0  0  0  0  0  0  0  0  0  0  # atno 11005 bound_to 11000
  144.9372  139.4231  143.6467 LP  0  0  0  0  0  0  0  0  0  0  0  0  # atno 17320 bound_to 7965
  146.3259  139.8313  142.8908 LP  0  0  0  0  0  0  0  0  0  0  0  0  # atno 17321 bound_to 7965
  140.6452  143.2212  151.6202 LP  0  0  0  0  0  0  0  0  0  0  0  0  # atno 17342 bound_to 10162
  139.5254  144.3077  152.1020 LP  0  0  0  0  0  0  0  0  0  0  0  0  # atno 17343 bound_to 10162
  157.1159  131.0233  151.3029 LP  0  0  0  0  0  0  0  0  0  0  0  0  # atno 17370 bound_to 10713
  157.4667  130.7685  149.7286 LP  0  0  0  0  0  0  0  0  0  0  0  0  # atno 17371 bound_to 10713
  139.9523  135.0173  156.9029 LP  0  0  0  0  0  0  0  0  0  0  0  0  # atno 17394 bound_to 11000
  140.5674  134.0476  155.7419 LP  0  0  0  0  0  0  0  0  0  0  0  0  # atno 17395 bound_to 11000

$$$$
