#       Name:                AV-unprocessed.smi:781
#       Creating user name   scv26
#       Creation time:       Fri Mar 27 01:13:32 2020


#       File generated by GOLD software.
#

@<TRIPOS>MOLECULE
AV-unprocessed.smi:781
    45    47     1
SMALL
NO_CHARGES


@<TRIPOS>ATOM
      1 ****        -6.4483   2.6633   0.8209 C.3            1 S1                 0.0000
      2 ****        -4.9925   2.3476   0.7747 C.2            1 S1                 0.0000
      3 ****        -4.2974   1.1764   0.6624 C.2            1 S1                 0.0000
      4 ****        -2.9433   1.6046   0.6827 C.2            1 S1                 0.0000
      5 ****        -1.8823   0.6685   0.5848 N.am           1 S1                 0.0000
      6 ****        -0.5627   0.9236   0.5863 C.2            1 S1                 0.0000
      7 ****        -0.0561   2.0419   0.6789 O.2            1 S1                 0.0000
      8 ****         0.1511  -0.2051   0.4640 N.am           1 S1                 0.0000
      9 ****         1.6127  -0.2847   0.4430 C.3            1 S1                 0.0000
     10 ****         2.0799  -1.6453   1.0039 C.3            1 S1                 0.0000
     11 ****         3.5808  -1.5642   1.3368 C.3            1 S1                 0.0000
     12 ****         4.2313  -1.5359  -0.0595 C.3            1 S1                 0.0000
     13 ****         3.0163  -1.6069  -1.0063 C.3            1 S1                 0.0000
     14 ****         2.0854  -2.5333  -0.2344 C.3            1 S1                 0.0000
     15 ****         2.2605  -0.2552  -0.9754 C.3            1 S1                 0.0000
     16 ****         1.2920  -0.0690  -2.1660 C.3            1 S1                 0.0000
     17 ****         2.0109   0.0206  -3.3782 O.3            1 S1                 0.0000
     18 ****        -2.8227   2.9183   0.7969 N.2            1 S1                 0.0000
     19 ****        -4.1354   3.4013   0.8567 O.3            1 S1                 0.0000
     20 ****        -7.0449   1.7509   0.8223 H              1 S1                 0.0000
     21 ****        -6.7424   3.2582  -0.0440 H              1 S1                 0.0000
     22 ****        -6.6936   3.2288   1.7199 H              1 S1                 0.0000
     23 ****        -4.6965   0.1765   0.5785 H              1 S1                 0.0000
     24 ****        -2.1578  -0.2988   0.5017 H              1 S1                 0.0000
     25 ****        -0.3494  -1.0786   0.3909 H              1 S1                 0.0000
     26 ****         2.0169   0.5200   1.0603 H              1 S1                 0.0000
     27 ****         1.4767  -2.0154   1.8340 H              1 S1                 0.0000
     28 ****         3.8304  -0.6852   1.9324 H              1 S1                 0.0000
     29 ****         3.9038  -2.4460   1.8917 H              1 S1                 0.0000
     30 ****         4.8334  -0.6412  -0.2215 H              1 S1                 0.0000
     31 ****         4.8800  -2.4021  -0.1960 H              1 S1                 0.0000
     32 ****         3.2766  -1.9518  -2.0074 H              1 S1                 0.0000
     33 ****         2.5104  -3.5225  -0.0552 H              1 S1                 0.0000
     34 ****         1.1023  -2.6476  -0.6929 H              1 S1                 0.0000
     35 ****         2.9796   0.5647  -1.0148 H              1 S1                 0.0000
     36 ****         0.5773  -0.8894  -2.2353 H              1 S1                 0.0000
     37 ****         0.7212   0.8528  -2.0542 H              1 S1                 0.0000
     38 ****         1.3967   0.1616  -4.0826 H              1 S1                 0.0000
     39 ****        -0.6396   2.8498   0.7613 LP             1 S1                 0.0000
     40 ****         0.9388   2.1422   0.6717 LP             1 S1                 0.0000
     41 ****         2.5144  -0.8291  -3.5351 LP             1 S1                 0.0000
     42 ****         2.6535   0.7854  -3.3332 LP             1 S1                 0.0000
     43 ****        -1.9768   3.4504   0.8327 LP             1 S1                 0.0000
     44 ****        -4.2773   3.8839   1.7210 LP             1 S1                 0.0000
     45 ****        -4.2985   4.0277   0.0945 LP             1 S1                 0.0000
@<TRIPOS>BOND
    1    1    2 1     
    2    1   20 1     
    3    1   21 1     
    4    1   22 1     
    5    2   19 1     
    6    2    3 2     
    7    3    4 1     
    8    3   23 1     
    9    4    5 1     
   10    4   18 2     
   11    5    6 am    
   12    5   24 1     
   13    6    7 2     
   14    6    8 am    
   15    8    9 1     
   16    8   25 1     
   17    9   15 1     
   18    9   10 1     
   19    9   26 1     
   20   10   14 1     
   21   10   11 1     
   22   10   27 1     
   23   11   12 1     
   24   11   28 1     
   25   11   29 1     
   26   12   13 1     
   27   12   30 1     
   28   12   31 1     
   29   13   14 1     
   30   13   15 1     
   31   13   32 1     
   32   14   33 1     
   33   14   34 1     
   34   15   16 1     
   35   15   35 1     
   36   16   17 1     
   37   16   36 1     
   38   16   37 1     
   39   17   38 1     
   40   18   19 1     
   41    7   39 1     
   42    7   40 1     
   43   17   41 1     
   44   17   42 1     
   45   18   43 1     
   46   19   44 1     
   47   19   45 1     
@<TRIPOS>SUBSTRUCTURE
      1 S1             1
@<TRIPOS>SET
LONE_PAIRS      STATIC     ATOMS    <user>   **** ""
7 39 40 41 42 43 44 45
DONOR_HYDROGENS      STATIC     ATOMS    <user>   **** ""
3 24 25 38
ATOM$BLUE        STATIC     ATOMS    COLORGROUP SYSTEM
7 39 40 41 42 43 44 45
ATOM$RED        STATIC     ATOMS    COLORGROUP SYSTEM
3 24 25 38
