AV-unprocessed.smi:2323|AV-procd|sdf|9289|dock10
  -GOLD-   2272012513D 1   1.00000     0.00000
 Structure written by MMmdl.
 30 31  0  0  0  0  0  0  0  0  1 V2000
  146.8258  142.3522  154.8180 C   0  0  0  0  0  0  0  0  0  0  0  0
  148.0531  141.8862  155.4445 N   0  0  0  0  0  0  0  0  0  0  0  0
  149.1270  141.4482  154.7697 C   0  0  0  0  0  0  0  0  0  0  0  0
  149.1717  141.3734  153.5415 O   0  0  0  0  0  0  0  0  0  0  0  0
  150.2777  140.9787  155.6133 C   0  0  0  0  0  0  0  0  0  0  0  0
  151.2107  140.0532  155.0972 C   0  0  0  0  0  0  0  0  0  0  0  0
  152.2881  139.6545  155.9108 C   0  0  0  0  0  0  0  0  0  0  0  0
  152.4819  140.1172  157.1630 N   0  0  0  0  0  0  0  0  0  0  0  0
  151.5951  141.0143  157.6600 C   0  0  0  0  0  0  0  0  0  0  0  0
  151.7812  141.5060  158.9369 O   0  0  0  0  0  0  0  0  0  0  0  0
  152.8371  142.4358  159.1883 C   0  0  2  0  0  0  0  0  0  0  0  0
  152.9894  142.7011  160.6811 C   0  0  0  0  0  0  0  0  0  0  0  0
  152.0195  143.8503  160.9123 C   0  0  0  0  0  0  0  0  0  0  0  0
  152.2073  144.6555  159.7615 O   0  0  0  0  0  0  0  0  0  0  0  0
  152.4061  143.8038  158.6372 C   0  0  0  0  0  0  0  0  0  0  0  0
  150.4857  141.4736  156.9215 C   0  0  0  0  0  0  0  0  0  0  0  0
  146.1026  142.6359  155.5825 H   0  0  0  0  0  0  0  0  0  0  0  0
  146.3816  141.5691  154.2023 H   0  0  0  0  0  0  0  0  0  0  0  0
  147.0178  143.2230  154.1900 H   0  0  0  0  0  0  0  0  0  0  0  0
  148.0917  141.8943  156.4536 H   0  0  0  0  0  0  0  0  0  0  0  0
  151.1074  139.6511  154.0996 H   0  0  0  0  0  0  0  0  0  0  0  0
  153.0158  138.9453  155.5447 H   0  0  0  0  0  0  0  0  0  0  0  0
  153.7725  142.1188  158.7242 H   0  0  0  0  0  0  0  0  0  0  0  0
  152.7791  141.8357  161.3099 H   0  0  0  0  0  0  0  0  0  0  0  0
  154.0063  143.0328  160.8947 H   0  0  0  0  0  0  0  0  0  0  0  0
  150.9895  143.4916  160.9460 H   0  0  0  0  0  0  0  0  0  0  0  0
  152.2262  144.4019  161.8296 H   0  0  0  0  0  0  0  0  0  0  0  0
  153.1694  144.2349  157.9887 H   0  0  0  0  0  0  0  0  0  0  0  0
  151.4830  143.7305  158.0603 H   0  0  0  0  0  0  0  0  0  0  0  0
  149.8154  142.1977  157.3615 H   0  0  0  0  0  0  0  0  0  0  0  0
  1  2  1  0  0  0  0
  1 17  1  0  0  0  0
  1 18  1  0  0  0  0
  1 19  1  0  0  0  0
  2  3  1  0  0  0  0
  2 20  1  0  0  0  0
  3  4  2  0  0  0  0
  3  5  1  0  0  0  0
  5 16  1  0  0  0  0
  5  6  2  0  0  0  0
  6  7  1  0  0  0  0
  6 21  1  0  0  0  0
  7  8  2  0  0  0  0
  7 22  1  0  0  0  0
  8  9  1  0  0  0  0
  9 10  1  0  0  0  0
  9 16  2  0  0  0  0
 10 11  1  0  0  0  0
 11 15  1  0  0  0  0
 11 12  1  0  0  0  0
 11 23  1  0  0  0  0
 12 13  1  0  0  0  0
 12 24  1  0  0  0  0
 12 25  1  0  0  0  0
 13 14  1  0  0  0  0
 13 26  1  0  0  0  0
 13 27  1  0  0  0  0
 14 15  1  0  0  0  0
 15 28  1  0  0  0  0
 15 29  1  0  0  0  0
 16 30  1  0  0  0  0
M  END
> <s_m_source_file>
AV-unprocessed.smi

> <i_m_source_file_index>
2323

> <i_lp_mmshare_version>
43012

> <i_f3d_flags>
0

> <s_epik_input>
W0NIM11bTkhdQyg9TyljMVtjSF1bY0hdbmMoW2NIXTEpT1tDQEBIXTJbQ0gyXVtDSDJdT1tDSDJdMg==

> <s_epik_cmdline>
J2VwaWtfcHl0aG9uJywgJy1waCcsICc3LjAnLCAnLXRuJywgJzgnLCAnLW1hJywgJzIwMCcsICctbWV0YWxfYmluZGluZycsICctaW1hZScsICc8aW5maWxlLm1hZT4nLCAnLW9tYWUnLCAnPG91dGZpbGUubWFlPic=

> <r_lp_tautomer_probability>
1

> <r_epik_Ionization_Penalty>
2.2633e-06

> <r_epik_Ionization_Penalty_Charging>
0

> <r_epik_Ionization_Penalty_Neutral>
2.2633e-06

> <r_epik_State_Penalty>
-0

> <r_epik_Charging_Adjusted_Penalty>
0

> <i_epik_Tot_Q>
0

> <i_epik_Tot_abs_Q>
0

> <r_epik_Metal_State_Penalty>
-0

> <b_epik_Metal_Only>
0

> <s_lp_Force_Field>
OPLS_2005

> <r_lp_Energy>
16.8838

> <b_lp_Chiralities_Consistent>
1

> <s_lp_Variant>
AV-unprocessed.smi:2323-1

> <Gold.Version>
5.8.1

> <Gold.Id.Protein>
6NUR|6NUR_protein|mol2

> <Gold.PLP.Fitness>
39.3346

> <Gold.PLP.PLP>
-36.1367

> <Gold.PLP.part.hbond>
-4.0000

> <Gold.PLP.part.metal>
0.0000

> <Gold.PLP.part.buried>
-2.6818

> <Gold.PLP.part.nonpolar>
-32.7026

> <Gold.PLP.part.repulsive>
2.7914

> <Gold.PLP.ligand.clash>
0.0000

> <Gold.PLP.ligand.torsion>
0.4634

> <Gold.PLP.Chemscore.Hbond>
1.3687

> <Gold.PLP.Chemscore.CHOScore>
0.0000

> <Gold.PLP.Chemscore.Metal>
0.0000

> <Gold.Chemscore.Hbonds>
donor molecule, donor type, donor heavy atom, donor atom, acceptor molecule, acceptor atom, score
      P1  H  7997  8010       L1     8  0.45
      P1  H  8011  8017       L1     4  0.90

> <Gold.PLP.Chemscore.Internal.Correction>
0.0185

> <Gold.Rescore>
     Score         DG    S(hbond)    S(metal)    S(lipo)     H(rot)  DE(clash)    DE(int)     intcor
     13.00     -14.58       0.90        0.00      79.41       1.24       1.06       0.51       ----

> <Gold.Chemscore.Fitness>
13.0040

> <Gold.Chemscore.DG>
-14.5777

> <Gold.Chemscore.ZeroCoef>
-5.4800

> <Gold.Chemscore.Hbond>
0.8963

> <Gold.Chemscore.Metal>
0.0000

> <Gold.Chemscore.Lipo>
79.4064

> <Gold.Chemscore.Internal_Hbond>
0.0000

> <Gold.Chemscore.DEClash>
1.0642

> <Gold.Chemscore.DEInternal>
0.5095

> <Gold.Chemscore.Rot>
1.2448

> <Gold.Chemscore.Internal.Correction>
   9.000000E+99

> <Gold.Chemscore.Hbonds>
donor molecule, donor type, donor heavy atom, donor atom, acceptor molecule, acceptor atom, score
      P1  H  7997  8010       L1     8  0.02
      P1  H  8011  8017       L1     4  0.88

> <Gold.Chemscore.Hbond.Weighted>
-2.9937

> <Gold.Chemscore.Metal.Weighted>
-0.0000

> <Gold.Chemscore.Lipo.Weighted>
-9.2905

> <Gold.Chemscore.Internal_Hbond.Weighted>
0.0000

> <Gold.Chemscore.DEClash.Weighted>
1.0642

> <Gold.Chemscore.DEInternal.Weighted>
0.5095

> <Gold.Chemscore.Rot.Weighted>
3.1866

> <Gold.Chemscore.Internal.Correction.Weighted>
   9.000000E+99

> <Gold.Protein.RotatedTorsions>
[ 6907 6896 6895 6894 ] final  169.97 input  -60.11 | X-H torsion
[ 7974 7965 7964 7962 ] final   52.93 input  175.53 | X-H torsion
[ 8008 7997 7996 7995 ] final   41.08 input   59.86 | X-H torsion
[ 10167 10162 10161 10158 ] final -123.70 input  -65.29 | X-H torsion
[ 10718 10713 10712 10709 ] final  -51.84 input   66.30 | X-H torsion
[ 10763 10752 10751 10750 ] final -146.03 input  -60.55 | X-H torsion
[ 11005 11000 10999 10996 ] final -126.64 input  -57.11 | X-H torsion

> <Gold.Protein.ActiveResidues>
 VAL166  LYS551  ARG553  GLY616  TRP617  ASP618  TYR619  PRO620  LYS621  CYS622 
 ASP623  PHE694  ASN695  SER759  ASP760  ASP761  ALA762  ILE779  LEU786  VAL792 
 PHE793  MET794  SER795  GLU796  ALA797  LYS798  CYS799  TRP800  GLU811  SER814 

> <Gold.Protein.RotatedAtoms>
  151.8235  133.3398  159.3591 H   0  0  0  0  0  0  0  0  0  0  0  0  # atno 6907 bound_to 6896
  150.7287  134.5551  159.5823 H   0  0  0  0  0  0  0  0  0  0  0  0  # atno 6908 bound_to 6896
  152.2988  134.7636  160.0413 H   0  0  0  0  0  0  0  0  0  0  0  0  # atno 6909 bound_to 6896
  145.9764  139.4198  143.0159 H   0  0  0  0  0  0  0  0  0  0  0  0  # atno 7974 bound_to 7965
  155.2638  140.3361  155.4271 H   0  0  0  0  0  0  0  0  0  0  0  0  # atno 8008 bound_to 7997
  156.2163  140.1790  156.7624 H   0  0  0  0  0  0  0  0  0  0  0  0  # atno 8009 bound_to 7997
  154.5758  140.0662  156.9017 H   0  0  0  0  0  0  0  0  0  0  0  0  # atno 8010 bound_to 7997
  140.0007  143.5544  152.2305 H   0  0  0  0  0  0  0  0  0  0  0  0  # atno 10167 bound_to 10162
  156.1674  130.4149  149.9699 H   0  0  0  0  0  0  0  0  0  0  0  0  # atno 10718 bound_to 10713
  154.8356  135.3397  154.6597 H   0  0  0  0  0  0  0  0  0  0  0  0  # atno 10763 bound_to 10752
  153.7212  135.6958  153.5017 H   0  0  0  0  0  0  0  0  0  0  0  0  # atno 10764 bound_to 10752
  153.2380  135.4394  155.0620 H   0  0  0  0  0  0  0  0  0  0  0  0  # atno 10765 bound_to 10752
  140.9664  134.0865  157.3915 H   0  0  0  0  0  0  0  0  0  0  0  0  # atno 11005 bound_to 11000
  145.7833  140.9847  143.1087 LP  0  0  0  0  0  0  0  0  0  0  0  0  # atno 17320 bound_to 7965
  144.6850  139.9592  143.7480 LP  0  0  0  0  0  0  0  0  0  0  0  0  # atno 17321 bound_to 7965
  139.6274  144.7639  151.2609 LP  0  0  0  0  0  0  0  0  0  0  0  0  # atno 17342 bound_to 10162
  140.7420  143.6540  150.8223 LP  0  0  0  0  0  0  0  0  0  0  0  0  # atno 17343 bound_to 10162
  156.7510  130.9115  151.3637 LP  0  0  0  0  0  0  0  0  0  0  0  0  # atno 17370 bound_to 10713
  157.6778  130.9111  150.0192 LP  0  0  0  0  0  0  0  0  0  0  0  0  # atno 17371 bound_to 10713
  139.8896  135.0106  156.6689 LP  0  0  0  0  0  0  0  0  0  0  0  0  # atno 17394 bound_to 11000
  140.7392  133.8992  155.8266 LP  0  0  0  0  0  0  0  0  0  0  0  0  # atno 17395 bound_to 11000

$$$$
