AV-unprocessed.smi:610|AV-procd|sdf|3060|dock3
  -GOLD-   2262023583D 1   1.00000     0.00000
 Structure written by MMmdl.
 37 38  0  0  0  0  0  0  0  0  1 V2000
  151.6984  140.9709  158.0788 C   0  0  0  0  0  0  0  0  0  0  0  0
  150.7457  141.9954  157.4427 C   0  0  1  0  0  0  0  0  0  0  0  0
  151.4184  143.3730  157.2915 C   0  0  0  0  0  0  0  0  0  0  0  0
  151.5551  144.0603  158.5625 N   0  0  0  0  0  0  0  0  0  0  0  0
  150.9065  145.2216  158.9609 C   0  0  0  0  0  0  0  0  0  0  0  0
  151.3506  145.5028  160.2332 C   0  0  0  0  0  0  0  0  0  0  0  0
  152.2649  144.5323  160.6361 N   0  0  0  0  0  0  0  0  0  0  0  0
  152.3329  143.7109  159.5966 C   0  0  0  0  0  0  0  0  0  0  0  0
  150.2897  141.5185  156.1392 N   0  0  0  0  0  0  0  0  0  0  0  0
  149.5751  140.4022  155.9146 C   0  0  0  0  0  0  0  0  0  0  0  0
  149.2715  139.6230  156.8191 O   0  0  0  0  0  0  0  0  0  0  0  0
  149.1349  140.1046  154.4587 C   0  0  0  0  0  0  0  0  0  0  0  0
  150.2778  139.8481  153.5912 N   0  0  0  0  0  0  0  0  0  0  0  0
  148.1699  138.8900  154.4095 C   0  0  0  0  0  0  0  0  0  0  0  0
  146.8524  139.3861  153.8017 C   0  0  0  0  0  0  0  0  0  0  0  0
  146.8545  140.8946  154.0223 C   0  0  0  0  0  0  0  0  0  0  0  0
  148.3241  141.2814  153.8624 C   0  0  0  0  0  0  0  0  0  0  0  0
  152.0336  141.3066  159.0603 H   0  0  0  0  0  0  0  0  0  0  0  0
  152.5828  140.8135  157.4603 H   0  0  0  0  0  0  0  0  0  0  0  0
  151.2094  140.0055  158.2138 H   0  0  0  0  0  0  0  0  0  0  0  0
  149.8826  142.1115  158.1011 H   0  0  0  0  0  0  0  0  0  0  0  0
  152.4146  143.2607  156.8622 H   0  0  0  0  0  0  0  0  0  0  0  0
  150.8517  144.0057  156.6065 H   0  0  0  0  0  0  0  0  0  0  0  0
  150.2059  145.7392  158.3224 H   0  0  0  0  0  0  0  0  0  0  0  0
  151.0848  146.3224  160.8844 H   0  0  0  0  0  0  0  0  0  0  0  0
  152.9682  142.8372  159.5855 H   0  0  0  0  0  0  0  0  0  0  0  0
  150.5056  142.0968  155.3398 H   0  0  0  0  0  0  0  0  0  0  0  0
  150.7060  138.9737  153.8590 H   0  0  0  0  0  0  0  0  0  0  0  0
  149.9507  139.7226  152.6439 H   0  0  0  0  0  0  0  0  0  0  0  0
  148.5669  138.0545  153.8305 H   0  0  0  0  0  0  0  0  0  0  0  0
  147.9742  138.4964  155.4088 H   0  0  0  0  0  0  0  0  0  0  0  0
  146.8443  139.1771  152.7311 H   0  0  0  0  0  0  0  0  0  0  0  0
  145.9801  138.9003  154.2399 H   0  0  0  0  0  0  0  0  0  0  0  0
  146.2027  141.4227  153.3259 H   0  0  0  0  0  0  0  0  0  0  0  0
  146.5165  141.1219  155.0342 H   0  0  0  0  0  0  0  0  0  0  0  0
  148.5402  142.2416  154.3340 H   0  0  0  0  0  0  0  0  0  0  0  0
  148.5376  141.4042  152.7990 H   0  0  0  0  0  0  0  0  0  0  0  0
  1  2  1  0  0  0  0
  1 18  1  0  0  0  0
  1 19  1  0  0  0  0
  1 20  1  0  0  0  0
  2  3  1  0  0  0  0
  2  9  1  0  0  0  0
  2 21  1  0  0  0  0
  3  4  1  0  0  0  0
  3 22  1  0  0  0  0
  3 23  1  0  0  0  0
  4  8  1  0  0  0  0
  4  5  1  0  0  0  0
  5  6  2  0  0  0  0
  5 24  1  0  0  0  0
  6  7  1  0  0  0  0
  6 25  1  0  0  0  0
  7  8  2  0  0  0  0
  8 26  1  0  0  0  0
  9 10  1  0  0  0  0
  9 27  1  0  0  0  0
 10 11  2  0  0  0  0
 10 12  1  0  0  0  0
 12 17  1  0  0  0  0
 12 13  1  0  0  0  0
 12 14  1  0  0  0  0
 13 28  1  0  0  0  0
 13 29  1  0  0  0  0
 14 15  1  0  0  0  0
 14 30  1  0  0  0  0
 14 31  1  0  0  0  0
 15 16  1  0  0  0  0
 15 32  1  0  0  0  0
 15 33  1  0  0  0  0
 16 17  1  0  0  0  0
 16 34  1  0  0  0  0
 16 35  1  0  0  0  0
 17 36  1  0  0  0  0
 17 37  1  0  0  0  0
M  END
> <s_m_source_file>
AV-unprocessed.smi

> <i_m_source_file_index>
610

> <i_lp_mmshare_version>
43012

> <i_f3d_flags>
0

> <s_epik_input>
W2NIXTFuW2NIXVtjSF1uMVtDSDJdW0NAQEhdKFtDSDNdKVtOSF1DKD1PKUMyKFtOSDJdKVtDSDJdW0NIMl1bQ0gyXVtDSDJdMg==

> <s_epik_cmdline>
J2VwaWtfcHl0aG9uJywgJy1waCcsICc3LjAnLCAnLXRuJywgJzgnLCAnLW1hJywgJzIwMCcsICctbWV0YWxfYmluZGluZycsICctaW1hZScsICc8aW5maWxlLm1hZT4nLCAnLW9tYWUnLCAnPG91dGZpbGUubWFlPic=

> <r_lp_tautomer_probability>
1

> <r_epik_Ionization_Penalty>
1.91974

> <r_epik_Ionization_Penalty_Charging>
0.644069

> <r_epik_Ionization_Penalty_Neutral>
1.27567

> <r_epik_State_Penalty>
1.9806

> <r_epik_Charging_Adjusted_Penalty>
2.62467

> <i_epik_Tot_Q>
0

> <i_epik_Tot_abs_Q>
0

> <r_epik_Metal_State_Penalty>
1.61835

> <b_epik_Metal_Only>
0

> <s_lp_Force_Field>
OPLS_2005

> <r_lp_Energy>
21.6521

> <b_lp_Chiralities_Consistent>
1

> <s_lp_Variant>
AV-unprocessed.smi:610-8

> <Gold.Version>
5.8.1

> <Gold.Id.Protein>
6NUR|6NUR_protein|mol2

> <Gold.PLP.Fitness>
42.0859

> <Gold.PLP.PLP>
-33.8275

> <Gold.PLP.part.hbond>
-2.0000

> <Gold.PLP.part.metal>
0.0000

> <Gold.PLP.part.buried>
-2.7944

> <Gold.PLP.part.nonpolar>
-28.9809

> <Gold.PLP.part.repulsive>
0.2023

> <Gold.PLP.ligand.clash>
0.0000

> <Gold.PLP.ligand.torsion>
0.2711

> <Gold.PLP.Chemscore.Hbond>
1.9120

> <Gold.PLP.Chemscore.CHOScore>
1.0000

> <Gold.PLP.Chemscore.Metal>
0.0000

> <Gold.Chemscore.Hbonds>
donor molecule, donor type, donor heavy atom, donor atom, acceptor molecule, acceptor atom, score
      L1  H    13    29       P1  7957  1.00
      P1  H  7989  7998       L1    13  0.82
      L1  C     5    24       P1  8029  1.00

> <Gold.PLP.Chemscore.Internal.Correction>
0.0646

> <Gold.Rescore>
     Score         DG    S(hbond)    S(metal)    S(lipo)     H(rot)  DE(clash)    DE(int)     intcor
     12.80     -13.09       1.09        0.00      76.59       1.95       0.06       0.23       ----

> <Gold.Chemscore.Fitness>
12.7975

> <Gold.Chemscore.DG>
-13.0905

> <Gold.Chemscore.ZeroCoef>
-5.4800

> <Gold.Chemscore.Hbond>
1.0888

> <Gold.Chemscore.Metal>
0.0000

> <Gold.Chemscore.Lipo>
76.5882

> <Gold.Chemscore.Internal_Hbond>
0.0000

> <Gold.Chemscore.DEClash>
0.0625

> <Gold.Chemscore.DEInternal>
0.2305

> <Gold.Chemscore.Rot>
1.9480

> <Gold.Chemscore.Internal.Correction>
   9.000000E+99

> <Gold.Chemscore.Hbonds>
donor molecule, donor type, donor heavy atom, donor atom, acceptor molecule, acceptor atom, score
      L1  H    13    29       P1  7957  0.94
      P1  H  7989  7998       L1    13  0.14

> <Gold.Chemscore.Hbond.Weighted>
-3.6365

> <Gold.Chemscore.Metal.Weighted>
-0.0000

> <Gold.Chemscore.Lipo.Weighted>
-8.9608

> <Gold.Chemscore.Internal_Hbond.Weighted>
0.0000

> <Gold.Chemscore.DEClash.Weighted>
0.0625

> <Gold.Chemscore.DEInternal.Weighted>
0.2305

> <Gold.Chemscore.Rot.Weighted>
4.9869

> <Gold.Chemscore.Internal.Correction.Weighted>
   9.000000E+99

> <Gold.Protein.RotatedTorsions>
[ 6907 6896 6895 6894 ] final   48.71 input  -60.11 | X-H torsion
[ 7974 7965 7964 7962 ] final -141.71 input  175.53 | X-H torsion
[ 8008 7997 7996 7995 ] final   -8.33 input   59.86 | X-H torsion
[ 10167 10162 10161 10158 ] final  -89.02 input  -65.29 | X-H torsion
[ 10718 10713 10712 10709 ] final -167.68 input   66.30 | X-H torsion
[ 10763 10752 10751 10750 ] final   28.33 input  -60.55 | X-H torsion
[ 11005 11000 10999 10996 ] final  -87.04 input  -57.11 | X-H torsion

> <Gold.Protein.ActiveResidues>
 VAL166  LYS551  ARG553  GLY616  TRP617  ASP618  TYR619  PRO620  LYS621  CYS622 
 ASP623  PHE694  ASN695  SER759  ASP760  ASP761  ALA762  ILE779  LEU786  VAL792 
 PHE793  MET794  SER795  GLU796  ALA797  LYS798  CYS799  TRP800  GLU811  SER814 

> <Gold.Protein.RotatedAtoms>
  152.2826  134.7812  160.0393 H   0  0  0  0  0  0  0  0  0  0  0  0  # atno 6907 bound_to 6896
  151.8386  133.3414  159.3644 H   0  0  0  0  0  0  0  0  0  0  0  0  # atno 6908 bound_to 6896
  150.7196  134.5342  159.5759 H   0  0  0  0  0  0  0  0  0  0  0  0  # atno 6909 bound_to 6896
  144.8498  140.6046  143.5397 H   0  0  0  0  0  0  0  0  0  0  0  0  # atno 7974 bound_to 7965
  154.5751  140.2384  155.8134 H   0  0  0  0  0  0  0  0  0  0  0  0  # atno 8008 bound_to 7997
  156.2137  140.3018  155.9747 H   0  0  0  0  0  0  0  0  0  0  0  0  # atno 8009 bound_to 7997
  155.2641  140.0415  157.2991 H   0  0  0  0  0  0  0  0  0  0  0  0  # atno 8010 bound_to 7997
  140.3689  143.2804  151.9524 H   0  0  0  0  0  0  0  0  0  0  0  0  # atno 10167 bound_to 10162
  156.6859  130.9140  151.3063 H   0  0  0  0  0  0  0  0  0  0  0  0  # atno 10718 bound_to 10713
  153.0498  135.6515  154.0722 H   0  0  0  0  0  0  0  0  0  0  0  0  # atno 10763 bound_to 10752
  154.0413  135.2903  155.3356 H   0  0  0  0  0  0  0  0  0  0  0  0  # atno 10764 bound_to 10752
  154.6780  135.5331  153.8291 H   0  0  0  0  0  0  0  0  0  0  0  0  # atno 10765 bound_to 10752
  141.1622  133.7489  156.9249 H   0  0  0  0  0  0  0  0  0  0  0  0  # atno 11005 bound_to 11000
  145.4523  139.1522  143.3912 LP  0  0  0  0  0  0  0  0  0  0  0  0  # atno 17320 bound_to 7965
  146.2775  140.4649  142.8789 LP  0  0  0  0  0  0  0  0  0  0  0  0  # atno 17321 bound_to 7965
  139.4806  144.5925  151.7747 LP  0  0  0  0  0  0  0  0  0  0  0  0  # atno 17342 bound_to 10162
  140.5053  144.1107  150.5981 LP  0  0  0  0  0  0  0  0  0  0  0  0  # atno 17343 bound_to 10162
  157.7027  130.9350  150.0833 LP  0  0  0  0  0  0  0  0  0  0  0  0  # atno 17370 bound_to 10713
  156.1833  130.3651  149.9006 LP  0  0  0  0  0  0  0  0  0  0  0  0  # atno 17371 bound_to 10713
  140.1426  134.9283  157.2487 LP  0  0  0  0  0  0  0  0  0  0  0  0  # atno 17394 bound_to 11000
  140.2818  134.3341  155.7341 LP  0  0  0  0  0  0  0  0  0  0  0  0  # atno 17395 bound_to 11000

$$$$
