AV-unprocessed.smi:1005|AV-procd|sdf|4363|dock1
  -GOLD-   22720 2263D 1   1.00000     0.00000
 Structure written by MMmdl.
 56 58  0  0  0  0  0  0  0  0  2 V2000
  152.8732  142.6601  161.2905 C   0  0  0  0  0  0  0  0  0  0  0  0
  152.3078  142.3441  159.9169 C   0  0  0  0  0  0  0  0  0  0  0  0
  152.7592  141.1905  159.2365 C   0  0  0  0  0  0  0  0  0  0  0  0
  152.2564  140.8601  157.9587 C   0  0  0  0  0  0  0  0  0  0  0  0
  152.5511  139.7959  157.1237 N   0  0  0  0  0  0  0  0  0  0  0  0
  151.7581  140.0426  156.0850 C   0  0  0  0  0  0  0  0  0  0  0  0
  150.9826  141.1421  156.1489 N   0  0  0  0  0  0  0  0  0  0  0  0
  150.0386  141.6116  155.1508 C   0  0  0  0  0  0  0  0  0  0  0  0
  148.5839  141.2359  155.4906 C   0  0  1  0  0  0  0  0  0  0  0  0
  148.0438  142.2133  156.3591 O   0  0  0  0  0  0  0  0  0  0  0  0
  147.7143  141.1563  154.2191 C   0  0  0  0  0  0  0  0  0  0  0  0
  146.9958  139.8972  154.0091 N   0  0  0  0  0  0  0  0  0  0  0  0
  146.7173  139.6942  152.5914 C   0  0  0  0  0  0  0  0  0  0  0  0
  145.9661  138.3782  152.3328 C   0  0  0  0  0  0  0  0  0  0  0  0
  146.7149  137.2927  152.8692 O   0  0  0  0  0  0  0  0  0  0  0  0
  146.9527  137.4194  154.2690 C   0  0  1  0  0  0  0  0  0  0  0  0
  147.7556  136.1911  154.7332 C   0  0  0  0  0  0  0  0  0  0  0  0
  149.0695  136.0741  154.0502 N   0  3  0  0  0  0  0  0  0  0  0  0
  149.5304  134.6755  153.8901 C   0  0  0  0  0  0  0  0  0  0  0  0
  150.1050  136.9160  154.6888 C   0  0  0  0  0  0  0  0  0  0  0  0
  147.7182  138.7344  154.5220 C   0  0  0  0  0  0  0  0  0  0  0  0
  151.2805  141.7212  157.3771 C   0  0  0  0  0  0  0  0  0  0  0  0
  150.8254  142.8730  158.0427 C   0  0  0  0  0  0  0  0  0  0  0  0
  151.3401  143.1898  159.3174 C   0  0  0  0  0  0  0  0  0  0  0  0
  150.8455  144.4380  160.0267 C   0  0  0  0  0  0  0  0  0  0  0  0
  153.5787  141.8955  161.6169 H   0  0  0  0  0  0  0  0  0  0  0  0
  152.0739  142.7131  162.0300 H   0  0  0  0  0  0  0  0  0  0  0  0
  153.3971  143.6159  161.2771 H   0  0  0  0  0  0  0  0  0  0  0  0
  153.4974  140.5471  159.6919 H   0  0  0  0  0  0  0  0  0  0  0  0
  151.7395  139.3868  155.2268 H   0  0  0  0  0  0  0  0  0  0  0  0
  150.1435  142.6929  155.0495 H   0  0  0  0  0  0  0  0  0  0  0  0
  150.3235  141.1813  154.1899 H   0  0  0  0  0  0  0  0  0  0  0  0
  148.5913  140.2788  156.0107 H   0  0  0  0  0  0  0  0  0  0  0  0
  148.2249  143.0684  156.0002 H   0  0  0  0  0  0  0  0  0  0  0  0
  146.9936  141.9749  154.2540 H   0  0  0  0  0  0  0  0  0  0  0  0
  148.3421  141.3549  153.3489 H   0  0  0  0  0  0  0  0  0  0  0  0
  146.1265  140.5263  152.2070 H   0  0  0  0  0  0  0  0  0  0  0  0
  147.6519  139.6896  152.0282 H   0  0  0  0  0  0  0  0  0  0  0  0
  144.9722  138.4033  152.7825 H   0  0  0  0  0  0  0  0  0  0  0  0
  145.8303  138.2235  151.2624 H   0  0  0  0  0  0  0  0  0  0  0  0
  145.9982  137.4666  154.7940 H   0  0  0  0  0  0  0  0  0  0  0  0
  147.9131  136.2740  155.8097 H   0  0  0  0  0  0  0  0  0  0  0  0
  147.1823  135.2759  154.5764 H   0  0  0  0  0  0  0  0  0  0  0  0
  149.6646  134.1939  154.8596 H   0  0  0  0  0  0  0  0  0  0  0  0
  150.4846  134.6459  153.3629 H   0  0  0  0  0  0  0  0  0  0  0  0
  148.8253  134.0836  153.3083 H   0  0  0  0  0  0  0  0  0  0  0  0
  150.2937  136.5931  155.7136 H   0  0  0  0  0  0  0  0  0  0  0  0
  149.7958  137.9617  154.7099 H   0  0  0  0  0  0  0  0  0  0  0  0
  151.0426  136.8629  154.1346 H   0  0  0  0  0  0  0  0  0  0  0  0
  148.7047  138.6788  154.0588 H   0  0  0  0  0  0  0  0  0  0  0  0
  147.8807  138.8340  155.5943 H   0  0  0  0  0  0  0  0  0  0  0  0
  150.0869  143.5068  157.5749 H   0  0  0  0  0  0  0  0  0  0  0  0
  150.1059  144.9694  159.4274 H   0  0  0  0  0  0  0  0  0  0  0  0
  151.6734  145.1206  160.2190 H   0  0  0  0  0  0  0  0  0  0  0  0
  150.3812  144.1787  160.9784 H   0  0  0  0  0  0  0  0  0  0  0  0
  148.9412  136.4491  153.1207 H   0  0  0  0  0  0  0  0  0  0  0  0
  1  2  1  0  0  0  0
  1 26  1  0  0  0  0
  1 27  1  0  0  0  0
  1 28  1  0  0  0  0
  2 24  1  0  0  0  0
  2  3  2  0  0  0  0
  3  4  1  0  0  0  0
  3 29  1  0  0  0  0
  4 22  2  0  0  0  0
  4  5  1  0  0  0  0
  5  6  2  0  0  0  0
  6  7  1  0  0  0  0
  6 30  1  0  0  0  0
  7  8  1  0  0  0  0
  7 22  1  0  0  0  0
  8  9  1  0  0  0  0
  8 31  1  0  0  0  0
  8 32  1  0  0  0  0
  9 10  1  0  0  0  0
  9 11  1  0  0  0  0
  9 33  1  0  0  0  0
 10 34  1  0  0  0  0
 11 12  1  0  0  0  0
 11 35  1  0  0  0  0
 11 36  1  0  0  0  0
 12 21  1  0  0  0  0
 12 13  1  0  0  0  0
 13 14  1  0  0  0  0
 13 37  1  0  0  0  0
 13 38  1  0  0  0  0
 14 15  1  0  0  0  0
 14 39  1  0  0  0  0
 14 40  1  0  0  0  0
 15 16  1  0  0  0  0
 16 17  1  0  0  0  0
 16 21  1  0  0  0  0
 16 41  1  0  0  0  0
 17 18  1  0  0  0  0
 17 42  1  0  0  0  0
 17 43  1  0  0  0  0
 18 19  1  0  0  0  0
 18 20  1  0  0  0  0
 18 56  1  0  0  0  0
 19 44  1  0  0  0  0
 19 45  1  0  0  0  0
 19 46  1  0  0  0  0
 20 47  1  0  0  0  0
 20 48  1  0  0  0  0
 20 49  1  0  0  0  0
 21 50  1  0  0  0  0
 21 51  1  0  0  0  0
 22 23  1  0  0  0  0
 23 24  2  0  0  0  0
 23 52  1  0  0  0  0
 24 25  1  0  0  0  0
 25 53  1  0  0  0  0
 25 54  1  0  0  0  0
 25 55  1  0  0  0  0
M  CHG  1  18   1
M  END
> <s_m_source_file>
AV-unprocessed.smi

> <i_m_source_file_index>
1005

> <i_lp_mmshare_version>
43012

> <i_f3d_flags>
0

> <s_epik_input>
W0NIM11jKFtjSF0xKWMoW0NIM10pW2NIXWMoYzEyKW4oW2NIXW4yKVtDSDJdW0NASF0oW09IXSlbQ0gyXU4zW0NIMl1bQ0gyXU9bQ0BIXShbQ0gyXTMpW0NIMl1OKFtDSDNdKVtDSDNd

> <s_epik_cmdline>
J2VwaWtfcHl0aG9uJywgJy1waCcsICc3LjAnLCAnLXRuJywgJzgnLCAnLW1hJywgJzIwMCcsICctbWV0YWxfYmluZGluZycsICctaW1hZScsICc8aW5maWxlLm1hZT4nLCAnLW9tYWUnLCAnPG91dGZpbGUubWFlPic=

> <r_epik_Ionization_Penalty>
0.226781

> <r_epik_Ionization_Penalty_Charging>
0.00915946

> <r_epik_Ionization_Penalty_Neutral>
0.217622

> <r_epik_State_Penalty>
0.173018

> <r_epik_Charging_Adjusted_Penalty>
0.182178

> <i_epik_Tot_Q>
1

> <i_epik_Tot_abs_Q>
1

> <r_epik_Metal_State_Penalty>
0.0905268

> <b_epik_Metal_Only>
0

> <s_lp_Force_Field>
OPLS_2005

> <r_lp_Energy>
37.2431

> <b_lp_Chiralities_Consistent>
1

> <s_lp_Variant>
AV-unprocessed.smi:1005-2

> <Gold.Version>
5.8.1

> <Gold.Id.Protein>
6NUR|6NUR_protein|mol2

> <Gold.PLP.Fitness>
51.1298

> <Gold.PLP.PLP>
-42.5548

> <Gold.PLP.part.hbond>
-3.0000

> <Gold.PLP.part.metal>
0.0000

> <Gold.PLP.part.buried>
-5.5520

> <Gold.PLP.part.nonpolar>
-36.7589

> <Gold.PLP.part.repulsive>
2.5960

> <Gold.PLP.ligand.clash>
0.0000

> <Gold.PLP.ligand.torsion>
1.9170

> <Gold.PLP.Chemscore.Hbond>
4.0000

> <Gold.PLP.Chemscore.CHOScore>
0.0000

> <Gold.PLP.Chemscore.Metal>
0.0000

> <Gold.Chemscore.Hbonds>
donor molecule, donor type, donor heavy atom, donor atom, acceptor molecule, acceptor atom, score
      L1  H    10    34       P1  8028  1.00
      L1  H    18    56       P1  7948  0.63
      P1  H  7997  8010       L1     5  1.00

> <Gold.PLP.Chemscore.Internal.Correction>
0.4090

> <Gold.Rescore>
     Score         DG    S(hbond)    S(metal)    S(lipo)     H(rot)  DE(clash)    DE(int)     intcor
     18.57     -22.15       2.46        0.00     125.17       2.41       1.59       1.99       ----

> <Gold.Chemscore.Fitness>
18.5732

> <Gold.Chemscore.DG>
-22.1521

> <Gold.Chemscore.ZeroCoef>
-5.4800

> <Gold.Chemscore.Hbond>
2.4569

> <Gold.Chemscore.Metal>
0.0000

> <Gold.Chemscore.Lipo>
125.1688

> <Gold.Chemscore.Internal_Hbond>
0.0000

> <Gold.Chemscore.DEClash>
1.5854

> <Gold.Chemscore.DEInternal>
1.9935

> <Gold.Chemscore.Rot>
2.4136

> <Gold.Chemscore.Internal.Correction>
   9.000000E+99

> <Gold.Chemscore.Hbonds>
donor molecule, donor type, donor heavy atom, donor atom, acceptor molecule, acceptor atom, score
      L1  H    10    34       P1  8028  0.78
      L1  H    18    56       P1  7948  0.30
      P1  H  7997  8010       L1     5  0.31

> <Gold.Chemscore.Hbond.Weighted>
-8.2061

> <Gold.Chemscore.Metal.Weighted>
-0.0000

> <Gold.Chemscore.Lipo.Weighted>
-14.6448

> <Gold.Chemscore.Internal_Hbond.Weighted>
0.0000

> <Gold.Chemscore.DEClash.Weighted>
1.5854

> <Gold.Chemscore.DEInternal.Weighted>
1.9935

> <Gold.Chemscore.Rot.Weighted>
6.1788

> <Gold.Chemscore.Internal.Correction.Weighted>
   9.000000E+99

> <Gold.Protein.RotatedTorsions>
[ 6907 6896 6895 6894 ] final   49.33 input  -60.11 | X-H torsion
[ 7974 7965 7964 7962 ] final   27.40 input  175.53 | X-H torsion
[ 8008 7997 7996 7995 ] final   49.22 input   59.86 | X-H torsion
[ 10167 10162 10161 10158 ] final    4.85 input  -65.29 | X-H torsion
[ 10718 10713 10712 10709 ] final -123.18 input   66.30 | X-H torsion
[ 10763 10752 10751 10750 ] final  -32.63 input  -60.55 | X-H torsion
[ 11005 11000 10999 10996 ] final  -37.45 input  -57.11 | X-H torsion

> <Gold.Protein.ActiveResidues>
 VAL166  LYS551  ARG553  GLY616  TRP617  ASP618  TYR619  PRO620  LYS621  CYS622 
 ASP623  PHE694  ASN695  SER759  ASP760  ASP761  ALA762  ILE779  LEU786  VAL792 
 PHE793  MET794  SER795  GLU796  ALA797  LYS798  CYS799  TRP800  GLU811  SER814 

> <Gold.Protein.RotatedAtoms>
  152.2896  134.7736  160.0380 H   0  0  0  0  0  0  0  0  0  0  0  0  # atno 6907 bound_to 6896
  151.8287  133.3400  159.3615 H   0  0  0  0  0  0  0  0  0  0  0  0  # atno 6908 bound_to 6896
  150.7224  134.5432  159.5802 H   0  0  0  0  0  0  0  0  0  0  0  0  # atno 6909 bound_to 6896
  146.1786  139.7197  142.8916 H   0  0  0  0  0  0  0  0  0  0  0  0  # atno 7974 bound_to 7965
  155.3986  140.3437  155.4255 H   0  0  0  0  0  0  0  0  0  0  0  0  # atno 8008 bound_to 7997
  156.1516  140.1573  156.8792 H   0  0  0  0  0  0  0  0  0  0  0  0  # atno 8009 bound_to 7997
  154.5058  140.0803  156.7872 H   0  0  0  0  0  0  0  0  0  0  0  0  # atno 8010 bound_to 7997
  140.6513  143.7538  150.7580 H   0  0  0  0  0  0  0  0  0  0  0  0  # atno 10167 bound_to 10162
  156.1481  130.6514  150.9872 H   0  0  0  0  0  0  0  0  0  0  0  0  # atno 10718 bound_to 10713
  153.8170  135.6877  153.4832 H   0  0  0  0  0  0  0  0  0  0  0  0  # atno 10763 bound_to 10752
  153.1593  135.4586  154.9747 H   0  0  0  0  0  0  0  0  0  0  0  0  # atno 10764 bound_to 10752
  154.7944  135.3313  154.7645 H   0  0  0  0  0  0  0  0  0  0  0  0  # atno 10765 bound_to 10752
  140.9953  133.6983  156.1923 H   0  0  0  0  0  0  0  0  0  0  0  0  # atno 11005 bound_to 11000
  145.4140  141.0399  143.3001 LP  0  0  0  0  0  0  0  0  0  0  0  0  # atno 17320 bound_to 7965
  144.8277  139.5681  143.6958 LP  0  0  0  0  0  0  0  0  0  0  0  0  # atno 17321 bound_to 7965
  140.1189  143.4630  152.2325 LP  0  0  0  0  0  0  0  0  0  0  0  0  # atno 17342 bound_to 10162
  139.5728  144.7472  151.3844 LP  0  0  0  0  0  0  0  0  0  0  0  0  # atno 17343 bound_to 10162
  157.6633  131.0876  150.7786 LP  0  0  0  0  0  0  0  0  0  0  0  0  # atno 17370 bound_to 10713
  156.7856  130.4873  149.5393 LP  0  0  0  0  0  0  0  0  0  0  0  0  # atno 17371 bound_to 10713
  140.6975  134.4599  157.5587 LP  0  0  0  0  0  0  0  0  0  0  0  0  # atno 17394 bound_to 11000
  139.9012  134.8553  156.1890 LP  0  0  0  0  0  0  0  0  0  0  0  0  # atno 17395 bound_to 11000

$$$$
