AV-unprocessed.smi:2830|AV-procd|sdf|10906|dock1
  -GOLD-   2272015353D 1   1.00000     0.00000
 Structure written by MMmdl.
 28 28  0  0  0  0  0  0  0  0  1 V2000
  148.1140  141.7036  154.6111 C   0  0  0  0  0  0  0  0  0  0  0  0
  149.3301  141.3021  154.0050 O   0  0  0  0  0  0  0  0  0  0  0  0
  149.6944  139.9717  154.3413 C   0  0  0  0  0  0  0  0  0  0  0  0
  150.6101  139.9736  155.5799 C   0  0  2  0  0  0  0  0  0  0  0  0
  150.9061  141.3526  155.9648 N   0  0  0  0  0  0  0  0  0  0  0  0
  151.4096  141.6789  157.2339 C   0  0  0  0  0  0  0  0  0  0  0  0
  151.5071  143.0417  157.5863 C   0  0  0  0  0  0  0  0  0  0  0  0
  152.0054  143.3819  158.8590 C   0  0  0  0  0  0  0  0  0  0  0  0
  152.3870  142.3481  159.7364 C   0  0  0  0  0  0  0  0  0  0  0  0
  152.9049  142.6475  161.0601 C   0  0  0  0  0  0  0  0  0  0  0  0
  153.3176  142.8859  162.1145 N   0  0  0  0  0  0  0  0  0  0  0  0
  152.2521  141.0156  159.2973 C   0  0  0  0  0  0  0  0  0  0  0  0
  151.7745  140.6841  158.0784 N   0  0  0  0  0  0  0  0  0  0  0  0
  151.8750  139.1427  155.3055 C   0  0  0  0  0  0  0  0  0  0  0  0
  151.6988  137.8734  154.9300 N   0  0  0  0  0  0  0  0  0  0  0  0
  152.9940  139.6412  155.4182 O   0  0  0  0  0  0  0  0  0  0  0  0
  147.8782  142.7260  154.3165 H   0  0  0  0  0  0  0  0  0  0  0  0
  148.1878  141.6754  155.6989 H   0  0  0  0  0  0  0  0  0  0  0  0
  147.2872  141.0647  154.2984 H   0  0  0  0  0  0  0  0  0  0  0  0
  148.8049  139.3637  154.5181 H   0  0  0  0  0  0  0  0  0  0  0  0
  150.2215  139.5289  153.4943 H   0  0  0  0  0  0  0  0  0  0  0  0
  150.0503  139.5091  156.3936 H   0  0  0  0  0  0  0  0  0  0  0  0
  150.9981  142.0324  155.2242 H   0  0  0  0  0  0  0  0  0  0  0  0
  151.2078  143.8163  156.8952 H   0  0  0  0  0  0  0  0  0  0  0  0
  152.0901  144.4189  159.1504 H   0  0  0  0  0  0  0  0  0  0  0  0
  152.5318  140.1901  159.9361 H   0  0  0  0  0  0  0  0  0  0  0  0
  152.4999  137.2885  154.7417 H   0  0  0  0  0  0  0  0  0  0  0  0
  150.7641  137.5028  154.8386 H   0  0  0  0  0  0  0  0  0  0  0  0
  1  2  1  0  0  0  0
  1 17  1  0  0  0  0
  1 18  1  0  0  0  0
  1 19  1  0  0  0  0
  2  3  1  0  0  0  0
  3  4  1  0  0  0  0
  3 20  1  0  0  0  0
  3 21  1  0  0  0  0
  4  5  1  0  0  0  0
  4 14  1  0  0  0  0
  4 22  1  0  0  0  0
  5  6  1  0  0  0  0
  5 23  1  0  0  0  0
  6 13  1  0  0  0  0
  6  7  2  0  0  0  0
  7  8  1  0  0  0  0
  7 24  1  0  0  0  0
  8  9  2  0  0  0  0
  8 25  1  0  0  0  0
  9 10  1  0  0  0  0
  9 12  1  0  0  0  0
 10 11  3  0  0  0  0
 12 13  2  0  0  0  0
 12 26  1  0  0  0  0
 14 15  1  0  0  0  0
 14 16  2  0  0  0  0
 15 27  1  0  0  0  0
 15 28  1  0  0  0  0
M  END
> <s_m_source_file>
AV-unprocessed.smi

> <i_m_source_file_index>
2830

> <i_lp_mmshare_version>
43012

> <i_f3d_flags>
0

> <s_epik_input>
W0NIM11PW0NIMl1bQ0BASF0oQyg9TylbTkgyXSlbTkhdYzFbY0hdW2NIXWMoQyNOKVtjSF1uMQ==

> <s_epik_cmdline>
J2VwaWtfcHl0aG9uJywgJy1waCcsICc3LjAnLCAnLXRuJywgJzgnLCAnLW1hJywgJzIwMCcsICctbWV0YWxfYmluZGluZycsICctaW1hZScsICc8aW5maWxlLm1hZT4nLCAnLW9tYWUnLCAnPG91dGZpbGUubWFlPic=

> <r_lp_tautomer_probability>
1

> <r_epik_Ionization_Penalty>
4.37908e-06

> <r_epik_Ionization_Penalty_Charging>
0

> <r_epik_Ionization_Penalty_Neutral>
4.37908e-06

> <r_epik_State_Penalty>
-0

> <r_epik_Charging_Adjusted_Penalty>
0

> <i_epik_Tot_Q>
0

> <i_epik_Tot_abs_Q>
0

> <r_epik_Metal_State_Penalty>
-0

> <b_epik_Metal_Only>
0

> <s_lp_Force_Field>
OPLS_2005

> <r_lp_Energy>
0.179783

> <b_lp_Chiralities_Consistent>
1

> <s_lp_Variant>
AV-unprocessed.smi:2830-1

> <Gold.Version>
5.8.1

> <Gold.Id.Protein>
6NUR|6NUR_protein|mol2

> <Gold.PLP.Fitness>
36.0311

> <Gold.PLP.PLP>
-32.8369

> <Gold.PLP.part.hbond>
-3.0000

> <Gold.PLP.part.metal>
0.0000

> <Gold.PLP.part.buried>
-3.5458

> <Gold.PLP.part.nonpolar>
-26.0878

> <Gold.PLP.part.repulsive>
0.8993

> <Gold.PLP.ligand.clash>
0.0000

> <Gold.PLP.ligand.torsion>
1.1587

> <Gold.PLP.Chemscore.Hbond>
1.8000

> <Gold.PLP.Chemscore.CHOScore>
0.0000

> <Gold.PLP.Chemscore.Metal>
0.0000

> <Gold.Chemscore.Hbonds>
donor molecule, donor type, donor heavy atom, donor atom, acceptor molecule, acceptor atom, score
      P1  H  7997  8008       L1    16  1.00
      P1  H  8011  8017       L1     2  0.71

> <Gold.PLP.Chemscore.Internal.Correction>
0.1115

> <Gold.Rescore>
     Score         DG    S(hbond)    S(metal)    S(lipo)     H(rot)  DE(clash)    DE(int)     intcor
     10.94     -12.11       1.65        0.00      60.25       2.32       0.12       1.05       ----

> <Gold.Chemscore.Fitness>
10.9376

> <Gold.Chemscore.DG>
-12.1078

> <Gold.Chemscore.ZeroCoef>
-5.4800

> <Gold.Chemscore.Hbond>
1.6517

> <Gold.Chemscore.Metal>
0.0000

> <Gold.Chemscore.Lipo>
60.2524

> <Gold.Chemscore.Internal_Hbond>
0.0000

> <Gold.Chemscore.DEClash>
0.1157

> <Gold.Chemscore.DEInternal>
1.0545

> <Gold.Chemscore.Rot>
2.3197

> <Gold.Chemscore.Internal.Correction>
   9.000000E+99

> <Gold.Chemscore.Hbonds>
donor molecule, donor type, donor heavy atom, donor atom, acceptor molecule, acceptor atom, score
      P1  H  7997  8008       L1    16  0.99
      P1  H  8011  8017       L1     2  0.59

> <Gold.Chemscore.Hbond.Weighted>
-5.5166

> <Gold.Chemscore.Metal.Weighted>
-0.0000

> <Gold.Chemscore.Lipo.Weighted>
-7.0495

> <Gold.Chemscore.Internal_Hbond.Weighted>
0.0000

> <Gold.Chemscore.DEClash.Weighted>
0.1157

> <Gold.Chemscore.DEInternal.Weighted>
1.0545

> <Gold.Chemscore.Rot.Weighted>
5.9384

> <Gold.Chemscore.Internal.Correction.Weighted>
   9.000000E+99

> <Gold.Protein.RotatedTorsions>
[ 6907 6896 6895 6894 ] final -147.12 input  -60.11 | X-H torsion
[ 7974 7965 7964 7962 ] final  -86.66 input  175.53 | X-H torsion
[ 8008 7997 7996 7995 ] final  -23.05 input   59.86 | X-H torsion
[ 10167 10162 10161 10158 ] final  174.25 input  -65.29 | X-H torsion
[ 10718 10713 10712 10709 ] final -162.56 input   66.30 | X-H torsion
[ 10763 10752 10751 10750 ] final   62.97 input  -60.55 | X-H torsion
[ 11005 11000 10999 10996 ] final   75.24 input  -57.11 | X-H torsion

> <Gold.Protein.ActiveResidues>
 VAL166  LYS551  ARG553  GLY616  TRP617  ASP618  TYR619  PRO620  LYS621  CYS622 
 ASP623  PHE694  ASN695  SER759  ASP760  ASP761  ALA762  ILE779  LEU786  VAL792 
 PHE793  MET794  SER795  GLU796  ALA797  LYS798  CYS799  TRP800  GLU811  SER814 

> <Gold.Protein.RotatedAtoms>
  151.1511  133.4906  159.2595 H   0  0  0  0  0  0  0  0  0  0  0  0  # atno 6907 bound_to 6896
  151.1552  135.0246  159.8696 H   0  0  0  0  0  0  0  0  0  0  0  0  # atno 6908 bound_to 6896
  152.5463  134.1391  159.8524 H   0  0  0  0  0  0  0  0  0  0  0  0  # atno 6909 bound_to 6896
  145.4769  140.9558  143.1886 H   0  0  0  0  0  0  0  0  0  0  0  0  # atno 7974 bound_to 7965
  154.4607  140.1991  156.0252 H   0  0  0  0  0  0  0  0  0  0  0  0  # atno 8008 bound_to 7997
  156.0835  140.3268  155.7695 H   0  0  0  0  0  0  0  0  0  0  0  0  # atno 8009 bound_to 7997
  155.5073  140.0559  157.2920 H   0  0  0  0  0  0  0  0  0  0  0  0  # atno 8010 bound_to 7997
  139.5135  144.3168  152.0240 H   0  0  0  0  0  0  0  0  0  0  0  0  # atno 10167 bound_to 10162
  156.6122  130.8855  151.2939 H   0  0  0  0  0  0  0  0  0  0  0  0  # atno 10718 bound_to 10713
  153.0001  135.5446  154.6277 H   0  0  0  0  0  0  0  0  0  0  0  0  # atno 10763 bound_to 10752
  154.5562  135.2830  155.0965 H   0  0  0  0  0  0  0  0  0  0  0  0  # atno 10764 bound_to 10752
  154.2185  135.6455  153.5190 H   0  0  0  0  0  0  0  0  0  0  0  0  # atno 10765 bound_to 10752
  139.9353  134.7501  156.1247 H   0  0  0  0  0  0  0  0  0  0  0  0  # atno 11005 bound_to 11000
  144.7912  139.6325  143.7112 LP  0  0  0  0  0  0  0  0  0  0  0  0  # atno 17320 bound_to 7965
  146.2364  139.5914  142.9521 LP  0  0  0  0  0  0  0  0  0  0  0  0  # atno 17321 bound_to 7965
  140.2611  144.4066  150.6185 LP  0  0  0  0  0  0  0  0  0  0  0  0  # atno 17342 bound_to 10162
  140.6156  143.2172  151.6798 LP  0  0  0  0  0  0  0  0  0  0  0  0  # atno 17343 bound_to 10162
  157.7251  130.9611  150.1600 LP  0  0  0  0  0  0  0  0  0  0  0  0  # atno 17370 bound_to 10713
  156.2380  130.3688  149.8369 LP  0  0  0  0  0  0  0  0  0  0  0  0  # atno 17371 bound_to 10713
  141.0963  133.6694  156.2653 LP  0  0  0  0  0  0  0  0  0  0  0  0  # atno 17394 bound_to 11000
  140.6093  134.5475  157.5531 LP  0  0  0  0  0  0  0  0  0  0  0  0  # atno 17395 bound_to 11000

$$$$
