AV-unprocessed.smi:39|AV-procd|sdf|356|dock8
  -GOLD-   2262016193D 1   1.00000     0.00000
 Structure written by MMmdl.
 32 33  0  0  0  0  0  0  0  0  3 V2000
  152.6770  142.2536  159.5532 C   0  0  0  0  0  0  0  0  0  0  0  0
  152.0132  141.9212  158.2269 C   0  0  0  0  0  0  0  0  0  0  0  0
  152.2735  140.7728  157.5509 C   0  0  0  0  0  0  0  0  0  0  0  0
  151.6786  140.4365  156.3397 N   0  0  0  0  0  0  0  0  0  0  0  0
  152.0067  139.1558  155.5948 C   0  0  2  0  0  0  0  0  0  0  0  0
  151.3359  137.9352  156.2475 C   0  0  0  0  0  0  0  0  0  0  0  0
  152.4360  136.8974  156.1715 C   0  0  2  0  0  0  0  0  0  0  0  0
  152.2523  135.8018  157.1274 N   0  0  0  0  0  0  0  0  0  0  0  0
  153.2215  135.0501  157.2965 N   0  3  0  0  0  0  0  0  0  0  0  0
  154.1592  134.4490  157.5299 N   0  5  0  0  0  0  0  0  0  0  0  0
  153.6956  137.7491  156.3919 C   0  0  2  0  0  0  0  0  0  0  0  0
  153.9863  138.1359  157.8605 C   0  0  0  0  0  0  0  0  0  0  0  0
  155.2281  138.8013  157.9426 O   0  0  0  0  0  0  0  0  0  0  0  0
  153.3881  138.9189  155.6328 O   0  0  0  0  0  0  0  0  0  0  0  0
  150.7936  141.3538  155.7347 C   0  0  0  0  0  0  0  0  0  0  0  0
  150.2713  141.1525  154.6390 O   0  0  0  0  0  0  0  0  0  0  0  0
  150.5219  142.5301  156.4304 N   0  0  0  0  0  0  0  0  0  0  0  0
  151.0682  142.8892  157.6642 C   0  0  0  0  0  0  0  0  0  0  0  0
  150.7446  143.9553  158.1850 O   0  0  0  0  0  0  0  0  0  0  0  0
  151.6968  139.3321  154.5629 H   0  0  0  0  0  0  0  0  0  0  0  0
  152.4562  136.5081  155.1511 H   0  0  0  0  0  0  0  0  0  0  0  0
  154.5638  137.2441  155.9660 H   0  0  0  0  0  0  0  0  0  0  0  0
  149.8805  143.1823  156.0029 H   0  0  0  0  0  0  0  0  0  0  0  0
  153.3536  141.4626  159.8782 H   0  0  0  0  0  0  0  0  0  0  0  0
  151.9258  142.3898  160.3319 H   0  0  0  0  0  0  0  0  0  0  0  0
  153.2551  143.1745  159.4692 H   0  0  0  0  0  0  0  0  0  0  0  0
  152.9871  140.0964  157.9956 H   0  0  0  0  0  0  0  0  0  0  0  0
  151.0809  138.1576  157.2853 H   0  0  0  0  0  0  0  0  0  0  0  0
  150.4309  137.6476  155.7117 H   0  0  0  0  0  0  0  0  0  0  0  0
  153.1977  138.7509  158.2921 H   0  0  0  0  0  0  0  0  0  0  0  0
  154.0703  137.2471  158.4851 H   0  0  0  0  0  0  0  0  0  0  0  0
  155.7386  138.4010  158.6298 H   0  0  0  0  0  0  0  0  0  0  0  0
  1  2  1  0  0  0  0
  1 24  1  0  0  0  0
  1 25  1  0  0  0  0
  1 26  1  0  0  0  0
  2 18  1  0  0  0  0
  2  3  2  0  0  0  0
  3  4  1  0  0  0  0
  3 27  1  0  0  0  0
  4  5  1  0  0  0  0
  4 15  1  0  0  0  0
  5 20  1  0  0  0  0
  5 14  1  0  0  0  0
  5  6  1  0  0  0  0
  6  7  1  0  0  0  0
  6 28  1  0  0  0  0
  6 29  1  0  0  0  0
  7 21  1  0  0  0  0
  7  8  1  0  0  0  0
  7 11  1  0  0  0  0
  8  9  2  0  0  0  0
  9 10  2  0  0  0  0
 11 22  1  0  0  0  0
 11 12  1  0  0  0  0
 11 14  1  0  0  0  0
 12 13  1  0  0  0  0
 12 30  1  0  0  0  0
 12 31  1  0  0  0  0
 13 32  1  0  0  0  0
 15 16  2  0  0  0  0
 15 17  1  0  0  0  0
 17 23  1  0  0  0  0
 17 18  1  0  0  0  0
 18 19  2  0  0  0  0
M  CHG  1   9   1
M  CHG  1  10  -1
M  END
> <s_m_source_file>
AV-unprocessed.smi

> <i_m_source_file_index>
39

> <i_lp_mmshare_version>
43012

> <i_f3d_flags>
0

> <s_epik_input>
Tz1jMVtuSF1jKD1PKW4oW2NIXWMxW0NIM10pW0NASF0yW0NIMl1bQ0BIXShOPVtOK109W04tXSlbQ0BIXShPMilbQ0gyXVtPSF0=

> <s_epik_cmdline>
J2VwaWtfcHl0aG9uJywgJy1waCcsICc3LjAnLCAnLXRuJywgJzgnLCAnLW1hJywgJzIwMCcsICctbWV0YWxfYmluZGluZycsICctaW1hZScsICc8aW5maWxlLm1hZT4nLCAnLW9tYWUnLCAnPG91dGZpbGUubWFlPic=

> <r_lp_tautomer_probability>
0.999537

> <r_epik_Ionization_Penalty>
0.00127512

> <r_epik_Ionization_Penalty_Charging>
0.00127507

> <r_epik_Ionization_Penalty_Neutral>
5.43433e-08

> <r_epik_State_Penalty>
0.000844892

> <r_epik_Charging_Adjusted_Penalty>
0.00211996

> <i_epik_Tot_Q>
0

> <i_epik_Tot_abs_Q>
2

> <r_epik_Metal_State_Penalty>
0.680636

> <b_epik_Metal_Only>
0

> <s_epik_Chemistry_Notes>
This compound contains an acetal/aminal-like group ( X-CH(R)-Y where X, Y are N, S, or O) that may be acid/base labile, releasing an aldehyde.

> <s_lp_Force_Field>
OPLS_2005

> <r_lp_Energy>
27.6629

> <b_lp_Chiralities_Consistent>
1

> <s_lp_Variant>
AV-unprocessed.smi:39-6

> <Gold.Version>
5.8.1

> <Gold.Id.Protein>
6NUR|6NUR_protein|mol2

> <Gold.PLP.Fitness>
37.4235

> <Gold.PLP.PLP>
-27.8085

> <Gold.PLP.part.hbond>
-6.8428

> <Gold.PLP.part.metal>
0.0000

> <Gold.PLP.part.buried>
-4.2900

> <Gold.PLP.part.nonpolar>
-17.0896

> <Gold.PLP.part.repulsive>
0.3513

> <Gold.PLP.ligand.clash>
0.0000

> <Gold.PLP.ligand.torsion>
0.5355

> <Gold.PLP.Chemscore.Hbond>
3.5506

> <Gold.PLP.Chemscore.CHOScore>
0.0000

> <Gold.PLP.Chemscore.Metal>
0.0000

> <Gold.Chemscore.Hbonds>
donor molecule, donor type, donor heavy atom, donor atom, acceptor molecule, acceptor atom, score
      L1  H    17    23       P1  8028  1.00
      P1  H  7989  7998       L1    16  0.58
      P1  H  7997  8008       L1    13  0.49
      P1  H  7997  8009       L1    14  1.00

> <Gold.PLP.Chemscore.Internal.Correction>
0.0344

> <Gold.Rescore>
     Score         DG    S(hbond)    S(metal)    S(lipo)     H(rot)  DE(clash)    DE(int)     intcor
     12.78     -14.53       3.32        0.00      42.72       2.75       1.24       0.51       ----

> <Gold.Chemscore.Fitness>
12.7800

> <Gold.Chemscore.DG>
-14.5307

> <Gold.Chemscore.ZeroCoef>
-5.4800

> <Gold.Chemscore.Hbond>
3.3228

> <Gold.Chemscore.Metal>
0.0000

> <Gold.Chemscore.Lipo>
42.7238

> <Gold.Chemscore.Internal_Hbond>
0.0000

> <Gold.Chemscore.DEClash>
1.2424

> <Gold.Chemscore.DEInternal>
0.5083

> <Gold.Chemscore.Rot>
2.7524

> <Gold.Chemscore.Internal.Correction>
   9.000000E+99

> <Gold.Chemscore.Hbonds>
donor molecule, donor type, donor heavy atom, donor atom, acceptor molecule, acceptor atom, score
      L1  H    17    23       P1  8028  1.00
      P1  H  7989  7998       L1    16  0.32
      P1  H  7997  8008       L1    13  0.48
      P1  H  7997  8009       L1    14  0.69

> <Gold.Chemscore.Hbond.Weighted>
-11.0982

> <Gold.Chemscore.Metal.Weighted>
-0.0000

> <Gold.Chemscore.Lipo.Weighted>
-4.9987

> <Gold.Chemscore.Internal_Hbond.Weighted>
0.0000

> <Gold.Chemscore.DEClash.Weighted>
1.2424

> <Gold.Chemscore.DEInternal.Weighted>
0.5083

> <Gold.Chemscore.Rot.Weighted>
7.0461

> <Gold.Chemscore.Internal.Correction.Weighted>
   9.000000E+99

> <Gold.Protein.RotatedTorsions>
[ 6907 6896 6895 6894 ] final -141.17 input  -60.11 | X-H torsion
[ 7974 7965 7964 7962 ] final  105.01 input  175.53 | X-H torsion
[ 8008 7997 7996 7995 ] final -144.69 input   59.86 | X-H torsion
[ 10167 10162 10161 10158 ] final  127.32 input  -65.29 | X-H torsion
[ 10718 10713 10712 10709 ] final -130.25 input   66.30 | X-H torsion
[ 10763 10752 10751 10750 ] final  152.91 input  -60.55 | X-H torsion
[ 11005 11000 10999 10996 ] final -140.99 input  -57.11 | X-H torsion

> <Gold.Protein.ActiveResidues>
 VAL166  LYS551  ARG553  GLY616  TRP617  ASP618  TYR619  PRO620  LYS621  CYS622 
 ASP623  PHE694  ASN695  SER759  ASP760  ASP761  ALA762  ILE779  LEU786  VAL792 
 PHE793  MET794  SER795  GLU796  ALA797  LYS798  CYS799  TRP800  GLU811  SER814 

> <Gold.Protein.RotatedAtoms>
  151.0703  133.5472  159.2627 H   0  0  0  0  0  0  0  0  0  0  0  0  # atno 6907 bound_to 6896
  151.2414  135.0589  159.9036 H   0  0  0  0  0  0  0  0  0  0  0  0  # atno 6908 bound_to 6896
  152.5410  134.0477  159.8149 H   0  0  0  0  0  0  0  0  0  0  0  0  # atno 6909 bound_to 6896
  145.3253  139.2501  143.3690 H   0  0  0  0  0  0  0  0  0  0  0  0  # atno 7974 bound_to 7965
  155.5310  140.0599  157.2889 H   0  0  0  0  0  0  0  0  0  0  0  0  # atno 8008 bound_to 7997
  154.4484  140.1936  156.0539 H   0  0  0  0  0  0  0  0  0  0  0  0  # atno 8009 bound_to 7997
  156.0652  140.3267  155.7513 H   0  0  0  0  0  0  0  0  0  0  0  0  # atno 8010 bound_to 7997
  139.5584  144.6865  151.4113 H   0  0  0  0  0  0  0  0  0  0  0  0  # atno 10167 bound_to 10162
  156.2126  130.6928  151.0667 H   0  0  0  0  0  0  0  0  0  0  0  0  # atno 10718 bound_to 10713
  154.1276  135.2828  155.3193 H   0  0  0  0  0  0  0  0  0  0  0  0  # atno 10763 bound_to 10752
  154.6378  135.5413  153.7758 H   0  0  0  0  0  0  0  0  0  0  0  0  # atno 10764 bound_to 10752
  153.0292  135.6479  154.1428 H   0  0  0  0  0  0  0  0  0  0  0  0  # atno 10765 bound_to 10752
  140.8368  134.2450  157.4830 H   0  0  0  0  0  0  0  0  0  0  0  0  # atno 11005 bound_to 11000
  146.3066  140.3819  142.8685 LP  0  0  0  0  0  0  0  0  0  0  0  0  # atno 17320 bound_to 7965
  144.8907  140.7519  143.5928 LP  0  0  0  0  0  0  0  0  0  0  0  0  # atno 17321 bound_to 7965
  140.6861  143.7971  150.7188 LP  0  0  0  0  0  0  0  0  0  0  0  0  # atno 17342 bound_to 10162
  140.1439  143.4417  152.2176 LP  0  0  0  0  0  0  0  0  0  0  0  0  # atno 17343 bound_to 10162
  157.7046  131.0761  150.6708 LP  0  0  0  0  0  0  0  0  0  0  0  0  # atno 17370 bound_to 10713
  156.6768  130.4555  149.5640 LP  0  0  0  0  0  0  0  0  0  0  0  0  # atno 17371 bound_to 10713
  139.8704  134.9615  156.4398 LP  0  0  0  0  0  0  0  0  0  0  0  0  # atno 17394 bound_to 11000
  140.8938  133.7829  155.9602 LP  0  0  0  0  0  0  0  0  0  0  0  0  # atno 17395 bound_to 11000

$$$$
