AV-unprocessed.smi:1803|AV-procd|sdf|7292|dock2
  -GOLD-   22720 8543D 1   1.00000     0.00000
 Structure written by MMmdl.
 35 37  0  0  0  0  0  0  0  0  3 V2000
  151.0236  139.7063  154.6677 O   0  0  0  0  0  0  0  0  0  0  0  0
  151.9035  139.7376  155.5271 C   0  0  0  0  0  0  0  0  0  0  0  0
  152.9657  138.8911  155.5416 N   0  5  0  0  0  0  0  0  0  0  0  0
  153.0975  137.9081  156.4520 C   0  0  0  0  0  0  0  0  0  0  0  0
  152.6027  136.6747  156.2588 N   0  0  0  0  0  0  0  0  0  0  0  0
  152.8420  135.8180  157.3246 N   0  0  0  0  0  0  0  0  0  0  0  0
  153.5242  136.4268  158.2942 C   0  0  0  0  0  0  0  0  0  0  0  0
  153.9296  138.1040  157.9967 S   0  0  0  0  0  0  0  0  0  0  0  0
  151.8187  140.6533  156.5100 N   0  0  0  0  0  0  0  0  0  0  0  0
  150.7636  141.6470  156.6636 C   0  0  1  0  0  0  0  0  0  0  0  0
  149.4215  141.0685  157.1516 C   0  0  0  0  0  0  0  0  0  0  0  0
  148.8569  142.1182  158.1291 C   0  0  0  0  0  0  0  0  0  0  0  0
  149.8060  143.2471  158.0799 N   0  3  1  0  0  0  0  0  0  0  0  0
  149.8587  144.1389  159.2588 C   0  0  0  0  0  0  0  0  0  0  0  0
  150.8480  145.2898  158.9828 C   0  0  0  0  0  0  0  0  0  0  0  0
  152.2310  144.7651  158.5439 C   0  0  0  0  0  0  0  0  0  0  0  0
  152.1026  143.7715  157.3730 C   0  0  0  0  0  0  0  0  0  0  0  0
  151.1125  142.6587  157.7522 C   0  0  2  0  0  0  0  0  0  0  0  0
  153.7901  135.8855  159.1899 H   0  0  0  0  0  0  0  0  0  0  0  0
  152.5504  140.6529  157.2056 H   0  0  0  0  0  0  0  0  0  0  0  0
  150.6100  142.1750  155.7201 H   0  0  0  0  0  0  0  0  0  0  0  0
  148.7465  140.8863  156.3147 H   0  0  0  0  0  0  0  0  0  0  0  0
  149.5629  140.1190  157.6704 H   0  0  0  0  0  0  0  0  0  0  0  0
  147.8532  142.4443  157.8559 H   0  0  0  0  0  0  0  0  0  0  0  0
  148.8162  141.7045  159.1381 H   0  0  0  0  0  0  0  0  0  0  0  0
  148.8641  144.5370  159.4618 H   0  0  0  0  0  0  0  0  0  0  0  0
  150.1672  143.5731  160.1393 H   0  0  0  0  0  0  0  0  0  0  0  0
  150.4438  145.9318  158.1988 H   0  0  0  0  0  0  0  0  0  0  0  0
  150.9502  145.9156  159.8698 H   0  0  0  0  0  0  0  0  0  0  0  0
  152.8769  145.5969  158.2616 H   0  0  0  0  0  0  0  0  0  0  0  0
  152.7148  144.2704  159.3872 H   0  0  0  0  0  0  0  0  0  0  0  0
  151.7585  144.2937  156.4793 H   0  0  0  0  0  0  0  0  0  0  0  0
  153.0771  143.3454  157.1324 H   0  0  0  0  0  0  0  0  0  0  0  0
  151.4838  142.1259  158.6312 H   0  0  0  0  0  0  0  0  0  0  0  0
  149.5407  143.8104  157.2846 H   0  0  0  0  0  0  0  0  0  0  0  0
  1  2  2  0  0  0  0
  2  3  1  0  0  0  0
  2  9  1  0  0  0  0
  3  4  1  0  0  0  0
  4  8  1  0  0  0  0
  4  5  2  0  0  0  0
  5  6  1  0  0  0  0
  6  7  2  0  0  0  0
  7  8  1  0  0  0  0
  7 19  1  0  0  0  0
  9 10  1  0  0  0  0
  9 20  1  0  0  0  0
 10 18  1  0  0  0  0
 10 11  1  0  0  0  0
 10 21  1  0  0  0  0
 11 12  1  0  0  0  0
 11 22  1  0  0  0  0
 11 23  1  0  0  0  0
 12 13  1  0  0  0  0
 12 24  1  0  0  0  0
 12 25  1  0  0  0  0
 13 18  1  0  0  0  0
 13 14  1  0  0  0  0
 13 35  1  0  0  0  0
 14 15  1  0  0  0  0
 14 26  1  0  0  0  0
 14 27  1  0  0  0  0
 15 16  1  0  0  0  0
 15 28  1  0  0  0  0
 15 29  1  0  0  0  0
 16 17  1  0  0  0  0
 16 30  1  0  0  0  0
 16 31  1  0  0  0  0
 17 18  1  0  0  0  0
 17 32  1  0  0  0  0
 17 33  1  0  0  0  0
 18 34  1  0  0  0  0
M  CHG  1   3  -1
M  CHG  1  13   1
M  END
> <s_m_source_file>
AV-unprocessed.smi

> <i_m_source_file_index>
1803

> <i_lp_mmshare_version>
43012

> <i_f3d_flags>
0

> <s_epik_input>
czFbY0hdbm5jMVtOSF1DKD1PKVtOSF1bQ0BIXShbQ0gyXVtDSDJdMilbQ0BASF0oTjIzKVtDSDJdW0NIMl1bQ0gyXVtDSDJdMw==

> <s_epik_cmdline>
J2VwaWtfcHl0aG9uJywgJy1waCcsICc3LjAnLCAnLXRuJywgJzgnLCAnLW1hJywgJzIwMCcsICctbWV0YWxfYmluZGluZycsICctaW1hZScsICc8aW5maWxlLm1hZT4nLCAnLW9tYWUnLCAnPG91dGZpbGUubWFlPic=

> <r_lp_tautomer_probability>
1

> <r_epik_Ionization_Penalty>
3.78828

> <r_epik_Ionization_Penalty_Charging>
3.7591

> <r_epik_Ionization_Penalty_Neutral>
0.0291838

> <r_epik_State_Penalty>
3.757

> <r_epik_Charging_Adjusted_Penalty>
7.51609

> <i_epik_Tot_Q>
0

> <i_epik_Tot_abs_Q>
2

> <r_epik_Metal_State_Penalty>
0.558016

> <b_epik_Metal_Only>
1

> <s_lp_Force_Field>
OPLS_2005

> <r_lp_Energy>
28.5802

> <b_lp_Chiralities_Consistent>
1

> <s_lp_Variant>
AV-unprocessed.smi:1803-14

> <Gold.Version>
5.8.1

> <Gold.Id.Protein>
6NUR|6NUR_protein|mol2

> <Gold.PLP.Fitness>
44.6118

> <Gold.PLP.PLP>
-30.3255

> <Gold.PLP.part.hbond>
-4.5473

> <Gold.PLP.part.metal>
0.0000

> <Gold.PLP.part.buried>
-3.7690

> <Gold.PLP.part.nonpolar>
-21.9917

> <Gold.PLP.part.repulsive>
0.2738

> <Gold.PLP.ligand.clash>
0.0000

> <Gold.PLP.ligand.torsion>
1.5434

> <Gold.PLP.Chemscore.Hbond>
5.7840

> <Gold.PLP.Chemscore.CHOScore>
0.0000

> <Gold.PLP.Chemscore.Metal>
0.0000

> <Gold.Chemscore.Hbonds>
donor molecule, donor type, donor heavy atom, donor atom, acceptor molecule, acceptor atom, score
      L1  H    13    35       P1  8028  2.00
      P1  H  7989  7998       L1     1  1.00
      P1  H  7997  8009       L1     3  2.00
      P1  H 10752 10765       L1     5  0.77

> <Gold.PLP.Chemscore.Internal.Correction>
0.0210

> <Gold.Rescore>
     Score         DG    S(hbond)    S(metal)    S(lipo)     H(rot)  DE(clash)    DE(int)     intcor
     16.06     -19.69       2.29        0.00      78.01       1.00       2.05       1.58       ----

> <Gold.Chemscore.Fitness>
16.0616

> <Gold.Chemscore.DG>
-19.6877

> <Gold.Chemscore.ZeroCoef>
-5.4800

> <Gold.Chemscore.Hbond>
2.2877

> <Gold.Chemscore.Metal>
0.0000

> <Gold.Chemscore.Lipo>
78.0057

> <Gold.Chemscore.Internal_Hbond>
0.0000

> <Gold.Chemscore.DEClash>
2.0452

> <Gold.Chemscore.DEInternal>
1.5809

> <Gold.Chemscore.Rot>
1.0000

> <Gold.Chemscore.Internal.Correction>
   9.000000E+99

> <Gold.Chemscore.Hbonds>
donor molecule, donor type, donor heavy atom, donor atom, acceptor molecule, acceptor atom, score
      L1  H    13    35       P1  8028  0.60
      P1  H  7989  7998       L1     1  0.35
      P1  H  7997  8009       L1     3  0.11
      P1  H 10752 10765       L1     5  0.20

> <Gold.Chemscore.Hbond.Weighted>
-7.6410

> <Gold.Chemscore.Metal.Weighted>
-0.0000

> <Gold.Chemscore.Lipo.Weighted>
-9.1267

> <Gold.Chemscore.Internal_Hbond.Weighted>
0.0000

> <Gold.Chemscore.DEClash.Weighted>
2.0452

> <Gold.Chemscore.DEInternal.Weighted>
1.5809

> <Gold.Chemscore.Rot.Weighted>
2.5600

> <Gold.Chemscore.Internal.Correction.Weighted>
   9.000000E+99

> <Gold.Protein.RotatedTorsions>
[ 6907 6896 6895 6894 ] final   44.12 input  -60.11 | X-H torsion
[ 7974 7965 7964 7962 ] final -103.64 input  175.53 | X-H torsion
[ 8008 7997 7996 7995 ] final -140.73 input   59.86 | X-H torsion
[ 10167 10162 10161 10158 ] final  143.76 input  -65.29 | X-H torsion
[ 10718 10713 10712 10709 ] final   19.70 input   66.30 | X-H torsion
[ 10763 10752 10751 10750 ] final -165.33 input  -60.55 | X-H torsion
[ 11005 11000 10999 10996 ] final  134.07 input  -57.11 | X-H torsion

> <Gold.Protein.ActiveResidues>
 VAL166  LYS551  ARG553  GLY616  TRP617  ASP618  TYR619  PRO620  LYS621  CYS622 
 ASP623  PHE694  ASN695  SER759  ASP760  ASP761  ALA762  ILE779  LEU786  VAL792 
 PHE793  MET794  SER795  GLU796  ALA797  LYS798  CYS799  TRP800  GLU811  SER814 

> <Gold.Protein.RotatedAtoms>
  152.2286  134.8344  160.0476 H   0  0  0  0  0  0  0  0  0  0  0  0  # atno 6907 bound_to 6896
  151.9101  133.3554  159.3868 H   0  0  0  0  0  0  0  0  0  0  0  0  # atno 6908 bound_to 6896
  150.7019  134.4666  159.5450 H   0  0  0  0  0  0  0  0  0  0  0  0  # atno 6909 bound_to 6896
  145.2533  140.9245  143.3083 H   0  0  0  0  0  0  0  0  0  0  0  0  # atno 7974 bound_to 7965
  155.4661  140.0549  157.2985 H   0  0  0  0  0  0  0  0  0  0  0  0  # atno 8008 bound_to 7997
  154.4717  140.2043  155.9932 H   0  0  0  0  0  0  0  0  0  0  0  0  # atno 8009 bound_to 7997
  156.1067  140.3210  155.8020 H   0  0  0  0  0  0  0  0  0  0  0  0  # atno 8010 bound_to 7997
  139.4962  144.6018  151.6464 H   0  0  0  0  0  0  0  0  0  0  0  0  # atno 10167 bound_to 10162
  157.1141  130.6521  149.5905 H   0  0  0  0  0  0  0  0  0  0  0  0  # atno 10718 bound_to 10713
  154.6942  135.2976  154.9435 H   0  0  0  0  0  0  0  0  0  0  0  0  # atno 10763 bound_to 10752
  154.0389  135.6660  153.4792 H   0  0  0  0  0  0  0  0  0  0  0  0  # atno 10764 bound_to 10752
  153.0634  135.5102  154.8051 H   0  0  0  0  0  0  0  0  0  0  0  0  # atno 10765 bound_to 10752
  139.9891  134.9521  156.9814 H   0  0  0  0  0  0  0  0  0  0  0  0  # atno 11005 bound_to 11000
  144.9484  139.4110  143.6415 LP  0  0  0  0  0  0  0  0  0  0  0  0  # atno 17320 bound_to 7965
  146.3296  139.8478  142.8878 LP  0  0  0  0  0  0  0  0  0  0  0  0  # atno 17321 bound_to 7965
  140.5670  144.0173  150.6197 LP  0  0  0  0  0  0  0  0  0  0  0  0  # atno 17342 bound_to 10162
  140.3278  143.3097  152.0719 LP  0  0  0  0  0  0  0  0  0  0  0  0  # atno 17343 bound_to 10162
  155.9843  130.4868  150.6979 LP  0  0  0  0  0  0  0  0  0  0  0  0  # atno 17370 bound_to 10713
  157.4534  131.0875  151.0822 LP  0  0  0  0  0  0  0  0  0  0  0  0  # atno 17371 bound_to 10713
  140.4943  134.1162  155.7238 LP  0  0  0  0  0  0  0  0  0  0  0  0  # atno 17394 bound_to 11000
  141.1551  133.8898  157.1999 LP  0  0  0  0  0  0  0  0  0  0  0  0  # atno 17395 bound_to 11000

$$$$
