#       Name:                AV-unprocessed.smi:99
#       Creating user name   scv26
#       Creation time:       Thu Mar 26 17:38:12 2020


#       File generated by GOLD software.
#

@<TRIPOS>MOLECULE
AV-unprocessed.smi:99
    65    68     1
SMALL
NO_CHARGES


@<TRIPOS>ATOM
      1 ****        -4.0678  -0.7418   2.6217 O.2            1 S1                 0.0000
      2 ****        -3.7311  -0.2093   1.5622 C.2            1 S1                 0.0000
      3 ****        -2.5664  -0.4639   0.9368 O.3            1 S1                 0.0000
      4 ****        -1.6474  -1.3926   1.4919 C.3            1 S1                 0.0000
      5 ****        -0.3381  -1.3877   0.6910 C.3            1 S1                 0.0000
      6 ****        -0.5891  -1.8690  -0.6227 O.3            1 S1                 0.0000
      7 ****        -0.2894  -0.9084  -1.5868 C.3            1 S1                 0.0000
      8 ****         0.6466  -1.5337  -2.6022 N.am           1 S1                 0.0000
      9 ****         0.2180  -1.6617  -3.9118 C.2            1 S1                 0.0000
     10 ****         0.9918  -2.2361  -4.8557 C.2            1 S1                 0.0000
     11 ****         2.3097  -2.7449  -4.4891 C.2            1 S1                 0.0000
     12 ****         3.0159  -3.2522  -5.3583 O.2            1 S1                 0.0000
     13 ****         2.6999  -2.6349  -3.1869 N.pl3          1 S1                -1.0000
     14 ****         1.9153  -2.0628  -2.2274 C.2            1 S1                 0.0000
     15 ****         2.2576  -1.9871  -1.0490 O.2            1 S1                 0.0000
     16 ****         0.3136   0.3342  -0.9045 C.3            1 S1                 0.0000
     17 ****        -0.4764   1.4870  -1.1123 O.3            1 S1                 0.0000
     18 ****         0.3197  -0.0052   0.5848 C.3            1 S1                 0.0000
     19 ****         1.6489  -0.0644   1.0881 O.3            1 S1                 0.0000
     20 ****         2.2924   1.0522   1.4865 C.2            1 S1                 0.0000
     21 ****         1.7861   2.1762   1.4707 O.2            1 S1                 0.0000
     22 ****         3.6846   0.7819   1.9464 C.ar           1 S1                 0.0000
     23 ****         4.4611   1.8422   2.4693 C.ar           1 S1                 0.0000
     24 ****         5.7799   1.6160   2.9093 C.ar           1 S1                 0.0000
     25 ****         6.3389   0.3272   2.8292 C.ar           1 S1                 0.0000
     26 ****         5.5775  -0.7353   2.3083 C.ar           1 S1                 0.0000
     27 ****         4.2581  -0.5115   1.8692 C.ar           1 S1                 0.0000
     28 ****        -4.5704   0.7897   0.8399 C.ar           1 S1                 0.0000
     29 ****        -5.8031   1.1957   1.4023 C.ar           1 S1                 0.0000
     30 ****        -6.6157   2.1394   0.7442 C.ar           1 S1                 0.0000
     31 ****        -6.2067   2.6865  -0.4855 C.ar           1 S1                 0.0000
     32 ****        -4.9833   2.2895  -1.0562 C.ar           1 S1                 0.0000
     33 ****        -4.1686   1.3472  -0.3989 C.ar           1 S1                 0.0000
     34 ****        -1.4396  -1.1260   2.5294 H              1 S1                 0.0000
     35 ****        -2.0862  -2.3911   1.4930 H              1 S1                 0.0000
     36 ****         0.3470  -2.0940   1.1621 H              1 S1                 0.0000
     37 ****        -1.2038  -0.6754  -2.1344 H              1 S1                 0.0000
     38 ****        -0.7563  -1.2926  -4.1960 H              1 S1                 0.0000
     39 ****         0.6394  -2.3227  -5.8730 H              1 S1                 0.0000
     40 ****         1.3145   0.5368  -1.2881 H              1 S1                 0.0000
     41 ****        -0.0697   2.2109  -0.6606 H              1 S1                 0.0000
     42 ****        -0.2558   0.7216   1.1614 H              1 S1                 0.0000
     43 ****         4.0532   2.8403   2.5394 H              1 S1                 0.0000
     44 ****         6.3631   2.4331   3.3079 H              1 S1                 0.0000
     45 ****         7.3507   0.1542   3.1653 H              1 S1                 0.0000
     46 ****         6.0055  -1.7248   2.2428 H              1 S1                 0.0000
     47 ****         3.7029  -1.3484   1.4704 H              1 S1                 0.0000
     48 ****        -6.1384   0.7891   2.3455 H              1 S1                 0.0000
     49 ****        -7.5538   2.4436   1.1845 H              1 S1                 0.0000
     50 ****        -6.8305   3.4097  -0.9900 H              1 S1                 0.0000
     51 ****        -4.6676   2.7087  -2.0001 H              1 S1                 0.0000
     52 ****        -3.2365   1.0631  -0.8651 H              1 S1                 0.0000
     53 ****        -3.4619  -1.4034   3.0635 LP             1 S1                 0.0000
     54 ****        -4.9469  -0.5122   3.0395 LP             1 S1                 0.0000
     55 ****        -1.5553  -2.1150  -0.6991 LP             1 S1                 0.0000
     56 ****        -0.0251  -2.6786  -0.7850 LP             1 S1                 0.0000
     57 ****         2.6847  -3.3114  -6.3000 LP             1 S1                 0.0000
     58 ****         3.9214  -3.6056  -5.1235 LP             1 S1                 0.0000
     59 ****         3.5979  -2.9879  -2.9241 LP             1 S1                 0.0000
     60 ****         1.6502  -1.5614  -0.3782 LP             1 S1                 0.0000
     61 ****         3.1434  -2.3512  -0.7612 LP             1 S1                 0.0000
     62 ****        -1.3963   1.3363  -0.7502 LP             1 S1                 0.0000
     63 ****        -0.5319   1.6871  -2.0905 LP             1 S1                 0.0000
     64 ****         0.8469   2.2971   1.1494 LP             1 S1                 0.0000
     65 ****         2.3147   2.9671   1.7792 LP             1 S1                 0.0000
@<TRIPOS>BOND
    1    1    2 2     
    2    2    3 1     
    3    2   28 1     
    4    3    4 1     
    5    4    5 1     
    6    4   34 1     
    7    4   35 1     
    8    5   18 1     
    9    5    6 1     
   10    5   36 1     
   11    6    7 1     
   12    7    8 1     
   13    7   16 1     
   14    7   37 1     
   15    8   14 am    
   16    8    9 1     
   17    9   10 2     
   18    9   38 1     
   19   10   11 1     
   20   10   39 1     
   21   11   12 2     
   22   11   13 1     
   23   13   14 1     
   24   14   15 2     
   25   16   17 1     
   26   16   18 1     
   27   16   40 1     
   28   17   41 1     
   29   18   19 1     
   30   18   42 1     
   31   19   20 1     
   32   20   21 2     
   33   20   22 1     
   34   22   27 ar    
   35   22   23 ar    
   36   23   24 ar    
   37   23   43 1     
   38   24   25 ar    
   39   24   44 1     
   40   25   26 ar    
   41   25   45 1     
   42   26   27 ar    
   43   26   46 1     
   44   27   47 1     
   45   28   33 ar    
   46   28   29 ar    
   47   29   30 ar    
   48   29   48 1     
   49   30   31 ar    
   50   30   49 1     
   51   31   32 ar    
   52   31   50 1     
   53   32   33 ar    
   54   32   51 1     
   55   33   52 1     
   56    1   53 1     
   57    1   54 1     
   58    6   55 1     
   59    6   56 1     
   60   12   57 1     
   61   12   58 1     
   62   13   59 1     
   63   15   60 1     
   64   15   61 1     
   65   17   62 1     
   66   17   63 1     
   67   21   64 1     
   68   21   65 1     
@<TRIPOS>SUBSTRUCTURE
      1 S1             1
@<TRIPOS>SET
LONE_PAIRS      STATIC     ATOMS    <user>   **** ""
13 53 54 55 56 57 58 59 60 61 62 63 64 65
DONOR_HYDROGENS      STATIC     ATOMS    <user>   **** ""
1 41
ATOM$BLUE        STATIC     ATOMS    COLORGROUP SYSTEM
13 53 54 55 56 57 58 59 60 61 62 63 64 65
ATOM$RED        STATIC     ATOMS    COLORGROUP SYSTEM
1 41
