AV-unprocessed.smi:1990|AV-procd|sdf|8061|dock2
  -GOLD-   2272010263D 1   1.00000     0.00000
 Structure written by MMmdl.
 46 47  0  0  0  0  0  0  0  0  1 V2000
  151.1126  145.2347  159.3951 C   0  0  0  0  0  0  0  0  0  0  0  0
  152.2715  144.5619  158.6384 C   0  0  2  0  0  0  0  0  0  0  0  0
  151.8091  143.7155  157.4354 C   0  0  0  0  0  0  0  0  0  0  0  0
  151.2310  142.4488  157.8744 N   0  0  0  0  0  0  0  0  0  0  0  0
  150.5304  141.7303  156.8827 C   0  0  0  0  0  0  0  0  0  0  0  0
  149.1214  141.8248  156.8022 C   0  0  0  0  0  0  0  0  0  0  0  0
  148.4368  141.1000  155.8077 C   0  0  0  0  0  0  0  0  0  0  0  0
  149.1811  140.3017  154.9078 C   0  0  0  0  0  0  0  0  0  0  0  0
  148.6168  139.5044  153.8754 N   0  0  0  0  0  0  0  0  0  0  0  0
  147.3363  139.4214  153.4682 C   0  0  0  0  0  0  0  0  0  0  0  0
  146.4168  140.1087  153.9114 O   0  0  0  0  0  0  0  0  0  0  0  0
  147.0625  138.4061  152.3497 C   0  0  2  0  0  0  0  0  0  0  0  0
  146.5268  139.0823  151.0766 C   0  0  0  0  0  0  0  0  0  0  0  0
  145.8589  137.1238  152.9377 S   0  0  0  0  0  0  0  0  0  0  0  0
  145.5813  136.0880  151.4390 C   0  0  0  0  0  0  0  0  0  0  0  0
  146.5116  136.2860  153.9555 O   0  0  0  0  0  0  0  0  0  0  0  0
  144.5961  137.8030  153.2656 O   0  0  0  0  0  0  0  0  0  0  0  0
  150.5794  140.2616  155.0761 C   0  0  0  0  0  0  0  0  0  0  0  0
  151.2389  140.9513  156.0295 N   0  0  0  0  0  0  0  0  0  0  0  0
  152.1027  141.7015  158.7762 C   0  0  0  0  0  0  0  0  0  0  0  0
  152.5082  142.5762  159.9753 C   0  0  1  0  0  0  0  0  0  0  0  0
  153.5213  141.8685  160.8812 C   0  0  0  0  0  0  0  0  0  0  0  0
  153.1025  143.7848  159.5040 O   0  0  0  0  0  0  0  0  0  0  0  0
  150.5777  145.9268  158.7443 H   0  0  0  0  0  0  0  0  0  0  0  0
  151.4836  145.8037  160.2477 H   0  0  0  0  0  0  0  0  0  0  0  0
  150.3844  144.5129  159.7647 H   0  0  0  0  0  0  0  0  0  0  0  0
  152.9020  145.3639  158.2539 H   0  0  0  0  0  0  0  0  0  0  0  0
  151.1115  144.2943  156.8312 H   0  0  0  0  0  0  0  0  0  0  0  0
  152.6644  143.4933  156.7956 H   0  0  0  0  0  0  0  0  0  0  0  0
  148.5602  142.4270  157.5015 H   0  0  0  0  0  0  0  0  0  0  0  0
  147.3606  141.1605  155.7713 H   0  0  0  0  0  0  0  0  0  0  0  0
  149.2787  138.9416  153.3611 H   0  0  0  0  0  0  0  0  0  0  0  0
  147.9884  137.8864  152.1008 H   0  0  0  0  0  0  0  0  0  0  0  0
  147.2003  139.8668  150.7300 H   0  0  0  0  0  0  0  0  0  0  0  0
  145.5462  139.5303  151.2428 H   0  0  0  0  0  0  0  0  0  0  0  0
  146.4230  138.3589  150.2675 H   0  0  0  0  0  0  0  0  0  0  0  0
  144.8025  135.3552  151.6490 H   0  0  0  0  0  0  0  0  0  0  0  0
  146.4984  135.5627  151.1739 H   0  0  0  0  0  0  0  0  0  0  0  0
  145.2666  136.7198  150.6089 H   0  0  0  0  0  0  0  0  0  0  0  0
  151.1924  139.6552  154.4253 H   0  0  0  0  0  0  0  0  0  0  0  0
  151.5932  140.8071  159.1370 H   0  0  0  0  0  0  0  0  0  0  0  0
  152.9888  141.3751  158.2301 H   0  0  0  0  0  0  0  0  0  0  0  0
  151.6267  142.8088  160.5729 H   0  0  0  0  0  0  0  0  0  0  0  0
  153.1098  140.9409  161.2794 H   0  0  0  0  0  0  0  0  0  0  0  0
  153.7958  142.4999  161.7264 H   0  0  0  0  0  0  0  0  0  0  0  0
  154.4341  141.6236  160.3377 H   0  0  0  0  0  0  0  0  0  0  0  0
  1  2  1  0  0  0  0
  1 24  1  0  0  0  0
  1 25  1  0  0  0  0
  1 26  1  0  0  0  0
  2 23  1  0  0  0  0
  2  3  1  0  0  0  0
  2 27  1  0  0  0  0
  3  4  1  0  0  0  0
  3 28  1  0  0  0  0
  3 29  1  0  0  0  0
  4  5  1  0  0  0  0
  4 20  1  0  0  0  0
  5 19  1  0  0  0  0
  5  6  2  0  0  0  0
  6  7  1  0  0  0  0
  6 30  1  0  0  0  0
  7  8  2  0  0  0  0
  7 31  1  0  0  0  0
  8  9  1  0  0  0  0
  8 18  1  0  0  0  0
  9 10  1  0  0  0  0
  9 32  1  0  0  0  0
 10 11  2  0  0  0  0
 10 12  1  0  0  0  0
 12 13  1  0  0  0  0
 12 14  1  0  0  0  0
 12 33  1  0  0  0  0
 13 34  1  0  0  0  0
 13 35  1  0  0  0  0
 13 36  1  0  0  0  0
 14 15  1  0  0  0  0
 14 16  2  0  0  0  0
 14 17  2  0  0  0  0
 15 37  1  0  0  0  0
 15 38  1  0  0  0  0
 15 39  1  0  0  0  0
 18 19  2  0  0  0  0
 18 40  1  0  0  0  0
 20 21  1  0  0  0  0
 20 41  1  0  0  0  0
 20 42  1  0  0  0  0
 21 22  1  0  0  0  0
 21 23  1  0  0  0  0
 21 43  1  0  0  0  0
 22 44  1  0  0  0  0
 22 45  1  0  0  0  0
 22 46  1  0  0  0  0
M  END
> <s_m_source_file>
AV-unprocessed.smi

> <i_m_source_file_index>
1990

> <i_lp_mmshare_version>
43012

> <i_f3d_flags>
0

> <s_epik_input>
W0NIM11bQ0BASF0xW0NIMl1OKFtDSDJdW0NASF0oTzEpW0NIM10pYzJbY0hdW2NIXWMoW2NIXW4yKVtOSF1DKD1PKVtDQEhdKFtDSDNdKVMoPU8pKD1PKVtDSDNd

> <s_epik_cmdline>
J2VwaWtfcHl0aG9uJywgJy1waCcsICc3LjAnLCAnLXRuJywgJzgnLCAnLW1hJywgJzIwMCcsICctbWV0YWxfYmluZGluZycsICctaW1hZScsICc8aW5maWxlLm1hZT4nLCAnLW9tYWUnLCAnPG91dGZpbGUubWFlPic=

> <r_lp_tautomer_probability>
1

> <r_epik_Ionization_Penalty>
0.000334888

> <r_epik_Ionization_Penalty_Charging>
0

> <r_epik_Ionization_Penalty_Neutral>
0.000334888

> <r_epik_State_Penalty>
0.000200905

> <r_epik_Charging_Adjusted_Penalty>
0.000200905

> <i_epik_Tot_Q>
0

> <i_epik_Tot_abs_Q>
0

> <r_epik_Metal_State_Penalty>
-0

> <b_epik_Metal_Only>
0

> <s_lp_Force_Field>
OPLS_2005

> <r_lp_Energy>
21.5885

> <b_lp_Chiralities_Consistent>
1

> <s_lp_Variant>
AV-unprocessed.smi:1990-1

> <Gold.Version>
5.8.1

> <Gold.Id.Protein>
6NUR|6NUR_protein|mol2

> <Gold.PLP.Fitness>
40.2504

> <Gold.PLP.PLP>
-40.7854

> <Gold.PLP.part.hbond>
-1.0921

> <Gold.PLP.part.metal>
0.0000

> <Gold.PLP.part.buried>
1.8419

> <Gold.PLP.part.nonpolar>
-42.2789

> <Gold.PLP.part.repulsive>
1.5375

> <Gold.PLP.ligand.clash>
0.0000

> <Gold.PLP.ligand.torsion>
0.5000

> <Gold.PLP.Chemscore.Hbond>
0.0000

> <Gold.PLP.Chemscore.CHOScore>
0.0000

> <Gold.PLP.Chemscore.Metal>
0.0000

> <Gold.PLP.Chemscore.Internal.Correction>
0.4649

> <Gold.Rescore>
     Score         DG    S(hbond)    S(metal)    S(lipo)     H(rot)  DE(clash)    DE(int)     intcor
     12.31     -14.63       0.00        0.00     111.40       1.52       0.83       1.49       ----

> <Gold.Chemscore.Fitness>
12.3096

> <Gold.Chemscore.DG>
-14.6284

> <Gold.Chemscore.ZeroCoef>
-5.4800

> <Gold.Chemscore.Hbond>
0.0000

> <Gold.Chemscore.Metal>
0.0000

> <Gold.Chemscore.Lipo>
111.3987

> <Gold.Chemscore.Internal_Hbond>
0.0000

> <Gold.Chemscore.DEClash>
0.8321

> <Gold.Chemscore.DEInternal>
1.4867

> <Gold.Chemscore.Rot>
1.5177

> <Gold.Chemscore.Internal.Correction>
   9.000000E+99

> <Gold.Chemscore.Hbond.Weighted>
-0.0000

> <Gold.Chemscore.Metal.Weighted>
-0.0000

> <Gold.Chemscore.Lipo.Weighted>
-13.0337

> <Gold.Chemscore.Internal_Hbond.Weighted>
0.0000

> <Gold.Chemscore.DEClash.Weighted>
0.8321

> <Gold.Chemscore.DEInternal.Weighted>
1.4867

> <Gold.Chemscore.Rot.Weighted>
3.8853

> <Gold.Chemscore.Internal.Correction.Weighted>
   9.000000E+99

> <Gold.Protein.RotatedTorsions>
[ 6907 6896 6895 6894 ] final  157.44 input  -60.11 | X-H torsion
[ 7974 7965 7964 7962 ] final  133.44 input  175.53 | X-H torsion
[ 8008 7997 7996 7995 ] final   83.65 input   59.86 | X-H torsion
[ 10167 10162 10161 10158 ] final  -91.88 input  -65.29 | X-H torsion
[ 10718 10713 10712 10709 ] final   -0.72 input   66.30 | X-H torsion
[ 10763 10752 10751 10750 ] final  -62.99 input  -60.55 | X-H torsion
[ 11005 11000 10999 10996 ] final  -99.93 input  -57.11 | X-H torsion

> <Gold.Protein.ActiveResidues>
 VAL166  LYS551  ARG553  GLY616  TRP617  ASP618  TYR619  PRO620  LYS621  CYS622 
 ASP623  PHE694  ASN695  SER759  ASP760  ASP761  ALA762  ILE779  LEU786  VAL792 
 PHE793  MET794  SER795  GLU796  ALA797  LYS798  CYS799  TRP800  GLU811  SER814 

> <Gold.Protein.RotatedAtoms>
  152.0151  133.3876  159.4235 H   0  0  0  0  0  0  0  0  0  0  0  0  # atno 6907 bound_to 6896
  150.6895  134.3688  159.4992 H   0  0  0  0  0  0  0  0  0  0  0  0  # atno 6908 bound_to 6896
  152.1454  134.9030  160.0602 H   0  0  0  0  0  0  0  0  0  0  0  0  # atno 6909 bound_to 6896
  144.9865  139.4450  143.5360 H   0  0  0  0  0  0  0  0  0  0  0  0  # atno 7974 bound_to 7965
  155.9268  140.3417  155.6216 H   0  0  0  0  0  0  0  0  0  0  0  0  # atno 8008 bound_to 7997
  155.7207  140.0783  157.2350 H   0  0  0  0  0  0  0  0  0  0  0  0  # atno 8009 bound_to 7997
  154.4078  140.1606  156.2386 H   0  0  0  0  0  0  0  0  0  0  0  0  # atno 8010 bound_to 7997
  140.3404  143.2945  151.9841 H   0  0  0  0  0  0  0  0  0  0  0  0  # atno 10167 bound_to 10162
  156.8163  130.5441  149.5702 H   0  0  0  0  0  0  0  0  0  0  0  0  # atno 10718 bound_to 10713
  154.3082  135.6221  153.5454 H   0  0  0  0  0  0  0  0  0  0  0  0  # atno 10763 bound_to 10752
  152.9832  135.5695  154.5207 H   0  0  0  0  0  0  0  0  0  0  0  0  # atno 10764 bound_to 10752
  154.4851  135.2865  155.1517 H   0  0  0  0  0  0  0  0  0  0  0  0  # atno 10765 bound_to 10752
  141.1290  133.8359  157.1036 H   0  0  0  0  0  0  0  0  0  0  0  0  # atno 11005 bound_to 11000
  146.3421  139.9170  142.8772 LP  0  0  0  0  0  0  0  0  0  0  0  0  # atno 17320 bound_to 7965
  145.2346  140.9986  143.3971 LP  0  0  0  0  0  0  0  0  0  0  0  0  # atno 17321 bound_to 7965
  139.4841  144.6161  151.7343 LP  0  0  0  0  0  0  0  0  0  0  0  0  # atno 17342 bound_to 10162
  140.5314  144.0724  150.6055 LP  0  0  0  0  0  0  0  0  0  0  0  0  # atno 17343 bound_to 10162
  156.1015  130.5972  150.9901 LP  0  0  0  0  0  0  0  0  0  0  0  0  # atno 17370 bound_to 10713
  157.6480  131.0901  150.8112 LP  0  0  0  0  0  0  0  0  0  0  0  0  # atno 17371 bound_to 10713
  140.0318  134.9897  157.0795 LP  0  0  0  0  0  0  0  0  0  0  0  0  # atno 17394 bound_to 11000
  140.4273  134.1818  155.7166 LP  0  0  0  0  0  0  0  0  0  0  0  0  # atno 17395 bound_to 11000

$$$$
