AV-unprocessed.smi:2061|AV-procd|sdf|8395|dock5
  -GOLD-   2272011 83D 1   1.00000     0.00000
 Structure written by MMmdl.
 45 46  0  0  0  0  0  0  0  0  3 V2000
  153.5291  141.6938  161.0076 C   0  0  0  0  0  0  0  0  0  0  0  0
  152.7214  141.9007  159.7725 C   0  0  0  0  0  0  0  0  0  0  0  0
  152.3696  141.0756  158.7420 C   0  0  0  0  0  0  0  0  0  0  0  0
  151.5961  141.9209  157.9026 C   0  0  0  0  0  0  0  0  0  0  0  0
  151.0385  141.4258  156.6942 N   0  0  0  0  0  0  0  0  0  0  0  0
  151.3886  140.3352  155.9882 C   0  0  0  0  0  0  0  0  0  0  0  0
  152.3288  139.6239  156.3622 O   0  0  0  0  0  0  0  0  0  0  0  0
  150.6037  140.1612  154.8900 N   0  5  0  0  0  0  0  0  0  0  0  0
  150.1751  138.8620  154.3724 C   0  0  0  0  0  0  0  0  0  0  0  0
  148.6210  138.7620  154.3750 C   0  0  1  0  0  0  0  0  0  0  0  0
  148.0155  139.6117  153.2200 C   0  0  0  0  0  0  0  0  0  0  0  0
  148.1995  137.3152  154.3662 N   0  3  1  0  0  0  0  0  0  0  0  0
  148.8622  136.4640  155.3987 C   0  0  0  0  0  0  0  0  0  0  0  0
  148.1922  136.6167  156.7808 C   0  0  2  0  0  0  0  0  0  0  0  0
  148.8094  135.6799  157.8248 C   0  0  0  0  0  0  0  0  0  0  0  0
  146.8103  136.2992  156.6652 O   0  0  0  0  0  0  0  0  0  0  0  0
  146.1242  137.1637  155.7675 C   0  0  2  0  0  0  0  0  0  0  0  0
  144.6393  136.7861  155.7877 C   0  0  0  0  0  0  0  0  0  0  0  0
  146.7411  137.0127  154.3604 C   0  0  0  0  0  0  0  0  0  0  0  0
  151.4853  143.1518  158.3801 N   0  0  0  0  0  0  0  0  0  0  0  0
  152.2052  143.1448  159.5807 O   0  0  0  0  0  0  0  0  0  0  0  0
  153.9421  140.6854  161.0388 H   0  0  0  0  0  0  0  0  0  0  0  0
  152.9163  141.8363  161.8978 H   0  0  0  0  0  0  0  0  0  0  0  0
  154.3586  142.3999  161.0494 H   0  0  0  0  0  0  0  0  0  0  0  0
  152.6264  140.0350  158.6102 H   0  0  0  0  0  0  0  0  0  0  0  0
  150.2682  141.9593  156.3198 H   0  0  0  0  0  0  0  0  0  0  0  0
  150.5437  138.6812  153.3621 H   0  0  0  0  0  0  0  0  0  0  0  0
  150.5833  138.0508  154.9761 H   0  0  0  0  0  0  0  0  0  0  0  0
  148.2516  139.1992  155.3032 H   0  0  0  0  0  0  0  0  0  0  0  0
  148.3241  140.6582  153.2680 H   0  0  0  0  0  0  0  0  0  0  0  0
  146.9280  139.6388  153.2594 H   0  0  0  0  0  0  0  0  0  0  0  0
  148.2996  139.2382  152.2341 H   0  0  0  0  0  0  0  0  0  0  0  0
  148.7887  135.4247  155.0752 H   0  0  0  0  0  0  0  0  0  0  0  0
  149.9287  136.6758  155.4741 H   0  0  0  0  0  0  0  0  0  0  0  0
  148.2957  137.6411  157.1413 H   0  0  0  0  0  0  0  0  0  0  0  0
  149.8707  135.8898  157.9603 H   0  0  0  0  0  0  0  0  0  0  0  0
  148.7092  134.6354  157.5285 H   0  0  0  0  0  0  0  0  0  0  0  0
  148.3220  135.8000  158.7927 H   0  0  0  0  0  0  0  0  0  0  0  0
  146.2220  138.1899  156.1229 H   0  0  0  0  0  0  0  0  0  0  0  0
  144.0629  137.4271  155.1202 H   0  0  0  0  0  0  0  0  0  0  0  0
  144.2239  136.8917  156.7902 H   0  0  0  0  0  0  0  0  0  0  0  0
  144.4897  135.7530  155.4726 H   0  0  0  0  0  0  0  0  0  0  0  0
  146.1994  137.5940  153.6157 H   0  0  0  0  0  0  0  0  0  0  0  0
  146.6252  135.9765  154.0390 H   0  0  0  0  0  0  0  0  0  0  0  0
  148.5354  136.9815  153.4737 H   0  0  0  0  0  0  0  0  0  0  0  0
  1  2  1  0  0  0  0
  1 22  1  0  0  0  0
  1 23  1  0  0  0  0
  1 24  1  0  0  0  0
  2 21  1  0  0  0  0
  2  3  2  0  0  0  0
  3  4  1  0  0  0  0
  3 25  1  0  0  0  0
  4  5  1  0  0  0  0
  4 20  2  0  0  0  0
  5  6  1  0  0  0  0
  5 26  1  0  0  0  0
  6  7  2  0  0  0  0
  6  8  1  0  0  0  0
  8  9  1  0  0  0  0
  9 10  1  0  0  0  0
  9 27  1  0  0  0  0
  9 28  1  0  0  0  0
 10 11  1  0  0  0  0
 10 12  1  0  0  0  0
 10 29  1  0  0  0  0
 11 30  1  0  0  0  0
 11 31  1  0  0  0  0
 11 32  1  0  0  0  0
 12 19  1  0  0  0  0
 12 13  1  0  0  0  0
 12 45  1  0  0  0  0
 13 14  1  0  0  0  0
 13 33  1  0  0  0  0
 13 34  1  0  0  0  0
 14 15  1  0  0  0  0
 14 16  1  0  0  0  0
 14 35  1  0  0  0  0
 15 36  1  0  0  0  0
 15 37  1  0  0  0  0
 15 38  1  0  0  0  0
 16 17  1  0  0  0  0
 17 18  1  0  0  0  0
 17 19  1  0  0  0  0
 17 39  1  0  0  0  0
 18 40  1  0  0  0  0
 18 41  1  0  0  0  0
 18 42  1  0  0  0  0
 19 43  1  0  0  0  0
 19 44  1  0  0  0  0
 20 21  1  0  0  0  0
M  CHG  1   8  -1
M  CHG  1  12   1
M  END
> <s_m_source_file>
AV-unprocessed.smi

> <i_m_source_file_index>
2061

> <i_lp_mmshare_version>
43012

> <i_f3d_flags>
0

> <s_epik_input>
W0NIM11jMVtjSF1jKG5vMSlbTkhdQyg9TylbTkhdW0NIMl1bQ0BIXShbQ0gzXSlOMltDSDJdW0NAQEhdKFtDSDNdKU9bQ0BASF0oW0NIM10pW0NIMl0y

> <s_epik_cmdline>
J2VwaWtfcHl0aG9uJywgJy1waCcsICc3LjAnLCAnLXRuJywgJzgnLCAnLW1hJywgJzIwMCcsICctbWV0YWxfYmluZGluZycsICctaW1hZScsICc8aW5maWxlLm1hZT4nLCAnLW9tYWUnLCAnPG91dGZpbGUubWFlPic=

> <r_epik_Ionization_Penalty>
6.8073

> <r_epik_Ionization_Penalty_Charging>
6.80729

> <r_epik_Ionization_Penalty_Neutral>
5.65391e-06

> <r_epik_State_Penalty>
7.47323

> <r_epik_Charging_Adjusted_Penalty>
14.2805

> <i_epik_Tot_Q>
0

> <i_epik_Tot_abs_Q>
2

> <r_epik_Metal_State_Penalty>
3.40035

> <b_epik_Metal_Only>
1

> <s_lp_Force_Field>
OPLS_2005

> <r_lp_Energy>
21.1883

> <b_lp_Chiralities_Consistent>
1

> <s_lp_Variant>
AV-unprocessed.smi:2061-36

> <Gold.Version>
5.8.1

> <Gold.Id.Protein>
6NUR|6NUR_protein|mol2

> <Gold.PLP.Fitness>
37.4945

> <Gold.PLP.PLP>
-26.4096

> <Gold.PLP.part.hbond>
-3.0000

> <Gold.PLP.part.metal>
0.0000

> <Gold.PLP.part.buried>
-1.4484

> <Gold.PLP.part.nonpolar>
-21.4240

> <Gold.PLP.part.repulsive>
0.2579

> <Gold.PLP.ligand.clash>
0.0000

> <Gold.PLP.ligand.torsion>
0.5446

> <Gold.PLP.Chemscore.Hbond>
4.0000

> <Gold.PLP.Chemscore.CHOScore>
0.0000

> <Gold.PLP.Chemscore.Metal>
0.0000

> <Gold.Chemscore.Hbonds>
donor molecule, donor type, donor heavy atom, donor atom, acceptor molecule, acceptor atom, score
      L1  H    12    45       P1  7948  2.00
      P1  H  7989  7998       L1     8  1.00
      P1  H  7997  8010       L1     7  0.83

> <Gold.PLP.Chemscore.Internal.Correction>
0.1740

> <Gold.Rescore>
     Score         DG    S(hbond)    S(metal)    S(lipo)     H(rot)  DE(clash)    DE(int)     intcor
     13.35     -17.47       2.66        0.00      60.57       1.56       2.08       2.05       ----

> <Gold.Chemscore.Fitness>
13.3478

> <Gold.Chemscore.DG>
-17.4699

> <Gold.Chemscore.ZeroCoef>
-5.4800

> <Gold.Chemscore.Hbond>
2.6600

> <Gold.Chemscore.Metal>
0.0000

> <Gold.Chemscore.Lipo>
60.5663

> <Gold.Chemscore.Internal_Hbond>
0.0000

> <Gold.Chemscore.DEClash>
2.0751

> <Gold.Chemscore.DEInternal>
2.0470

> <Gold.Chemscore.Rot>
1.5550

> <Gold.Chemscore.Internal.Correction>
   9.000000E+99

> <Gold.Chemscore.Hbonds>
donor molecule, donor type, donor heavy atom, donor atom, acceptor molecule, acceptor atom, score
      L1  H    12    45       P1  7948  1.00
      P1  H  7989  7998       L1     8  0.20
      P1  H  7997  8010       L1     7  0.81

> <Gold.Chemscore.Hbond.Weighted>
-8.8845

> <Gold.Chemscore.Metal.Weighted>
-0.0000

> <Gold.Chemscore.Lipo.Weighted>
-7.0863

> <Gold.Chemscore.Internal_Hbond.Weighted>
0.0000

> <Gold.Chemscore.DEClash.Weighted>
2.0751

> <Gold.Chemscore.DEInternal.Weighted>
2.0470

> <Gold.Chemscore.Rot.Weighted>
3.9809

> <Gold.Chemscore.Internal.Correction.Weighted>
   9.000000E+99

> <Gold.Protein.RotatedTorsions>
[ 6907 6896 6895 6894 ] final  161.79 input  -60.11 | X-H torsion
[ 7974 7965 7964 7962 ] final  145.07 input  175.53 | X-H torsion
[ 8008 7997 7996 7995 ] final   87.39 input   59.86 | X-H torsion
[ 10167 10162 10161 10158 ] final  139.00 input  -65.29 | X-H torsion
[ 10718 10713 10712 10709 ] final  -27.72 input   66.30 | X-H torsion
[ 10763 10752 10751 10750 ] final   14.31 input  -60.55 | X-H torsion
[ 11005 11000 10999 10996 ] final  125.69 input  -57.11 | X-H torsion

> <Gold.Protein.ActiveResidues>
 VAL166  LYS551  ARG553  GLY616  TRP617  ASP618  TYR619  PRO620  LYS621  CYS622 
 ASP623  PHE694  ASN695  SER759  ASP760  ASP761  ALA762  ILE779  LEU786  VAL792 
 PHE793  MET794  SER795  GLU796  ALA797  LYS798  CYS799  TRP800  GLU811  SER814 

> <Gold.Protein.RotatedAtoms>
  151.9503  133.3664  159.3997 H   0  0  0  0  0  0  0  0  0  0  0  0  # atno 6907 bound_to 6896
  150.6982  134.4347  159.5274 H   0  0  0  0  0  0  0  0  0  0  0  0  # atno 6908 bound_to 6896
  152.2019  134.8580  160.0558 H   0  0  0  0  0  0  0  0  0  0  0  0  # atno 6909 bound_to 6896
  144.8783  139.5738  143.5855 H   0  0  0  0  0  0  0  0  0  0  0  0  # atno 7974 bound_to 7965
  155.9748  140.3382  155.6608 H   0  0  0  0  0  0  0  0  0  0  0  0  # atno 8008 bound_to 7997
  155.6627  140.0718  157.2566 H   0  0  0  0  0  0  0  0  0  0  0  0  # atno 8009 bound_to 7997
  154.4176  140.1705  156.1781 H   0  0  0  0  0  0  0  0  0  0  0  0  # atno 8010 bound_to 7997
  139.5093  144.6320  151.5792 H   0  0  0  0  0  0  0  0  0  0  0  0  # atno 10167 bound_to 10162
  156.4346  130.4452  149.7094 H   0  0  0  0  0  0  0  0  0  0  0  0  # atno 10718 bound_to 10713
  153.1634  135.6800  153.8709 H   0  0  0  0  0  0  0  0  0  0  0  0  # atno 10763 bound_to 10752
  153.8097  135.3144  155.3400 H   0  0  0  0  0  0  0  0  0  0  0  0  # atno 10764 bound_to 10752
  154.7948  135.4813  154.0226 H   0  0  0  0  0  0  0  0  0  0  0  0  # atno 10765 bound_to 10752
  139.9419  134.9634  156.8595 H   0  0  0  0  0  0  0  0  0  0  0  0  # atno 11005 bound_to 11000
  146.2977  139.7330  142.9114 LP  0  0  0  0  0  0  0  0  0  0  0  0  # atno 17320 bound_to 7965
  145.4001  141.0384  143.3075 LP  0  0  0  0  0  0  0  0  0  0  0  0  # atno 17321 bound_to 7965
  140.6057  143.9529  150.6417 LP  0  0  0  0  0  0  0  0  0  0  0  0  # atno 17342 bound_to 10162
  140.2755  143.3426  152.1199 LP  0  0  0  0  0  0  0  0  0  0  0  0  # atno 17343 bound_to 10162
  156.3983  130.7662  151.2668 LP  0  0  0  0  0  0  0  0  0  0  0  0  # atno 17370 bound_to 10713
  157.7507  131.0247  150.3888 LP  0  0  0  0  0  0  0  0  0  0  0  0  # atno 17371 bound_to 10713
  140.5931  134.0242  155.7507 LP  0  0  0  0  0  0  0  0  0  0  0  0  # atno 17394 bound_to 11000
  141.1056  133.9699  157.3003 LP  0  0  0  0  0  0  0  0  0  0  0  0  # atno 17395 bound_to 11000

$$$$
