#       Name:                AV-unprocessed.smi:240
#       Creating user name   scv26
#       Creation time:       Thu Mar 26 20:44:29 2020


#       File generated by GOLD software.
#

@<TRIPOS>MOLECULE
AV-unprocessed.smi:240
    67    71     1
SMALL
NO_CHARGES


@<TRIPOS>ATOM
      1 ****        -2.0887  -2.1527   0.7082 O.3            1 S1                 0.0000
      2 ****        -2.7963  -2.4784  -0.4700 C.3            1 S1                 0.0000
      3 ****        -2.7298  -3.9793  -0.7455 C.3            1 S1                 0.0000
      4 ****        -3.0703  -4.0984  -2.2315 C.3            1 S1                 0.0000
      5 ****        -2.5908  -2.7914  -2.8819 C.3            1 S1                 0.0000
      6 ****        -2.1778  -1.8489  -1.7325 C.3            1 S1                 0.0000
      7 ****        -2.4749  -0.3369  -1.9943 C.3            1 S1                 0.0000
      8 ****        -3.9913  -0.0164  -2.0595 C.3            1 S1                 0.0000
      9 ****        -4.1919   1.3638  -2.3359 O.3            1 S1                 0.0000
     10 ****        -3.6709   2.1832  -1.2989 C.3            1 S1                 0.0000
     11 ****        -2.1541   1.9713  -1.2128 C.3            1 S1                 0.0000
     12 ****        -1.8361   0.5597  -1.0172 N.3            1 S1                 0.0000
     13 ****        -0.5044   0.4214  -0.8128 C.ar           1 S1                 0.0000
     14 ****         0.3384   0.2398  -1.8647 N.ar           1 S1                 0.0000
     15 ****         1.6513   0.1064  -1.6536 C.ar           1 S1                 0.0000
     16 ****         2.3180   0.1302  -0.4971 N.ar           1 S1                 0.0000
     17 ****         1.4750   0.3300   0.5569 C.ar           1 S1                 0.0000
     18 ****         0.0635   0.4903   0.4865 C.ar           1 S1                 0.0000
     19 ****        -0.4604   0.6763   1.7591 N.2            1 S1                 0.0000
     20 ****         0.5836   0.6232   2.5407 C.2            1 S1                 0.0000
     21 ****         1.7873   0.4240   1.9020 N.pl3          1 S1                 0.0000
     22 ****         3.0982   0.3189   2.5241 C.3            1 S1                 0.0000
     23 ****         3.7433   1.6841   2.8747 C.3            1 S1                 0.0000
     24 ****         2.9473   2.3375   3.8464 O.3            1 S1                 0.0000
     25 ****         3.9355   2.6114   1.6764 C.3            1 S1                 0.0000
     26 ****         5.3349   2.2474   1.2056 C.3            1 S1                 0.0000
     27 ****         6.0447   2.1041   2.4248 O.3            1 S1                 0.0000
     28 ****         5.1848   1.5109   3.3945 C.3            1 S1                 0.0000
     29 ****        -1.1875  -2.4155   0.6005 H              1 S1                 0.0000
     30 ****        -3.8406  -2.1945  -0.3508 H              1 S1                 0.0000
     31 ****        -1.7171  -4.3493  -0.5766 H              1 S1                 0.0000
     32 ****        -3.4049  -4.5548  -0.1114 H              1 S1                 0.0000
     33 ****        -2.6161  -4.9795  -2.6856 H              1 S1                 0.0000
     34 ****        -4.1507  -4.1885  -2.3517 H              1 S1                 0.0000
     35 ****        -1.7423  -2.9728  -3.5428 H              1 S1                 0.0000
     36 ****        -3.3836  -2.3780  -3.5032 H              1 S1                 0.0000
     37 ****        -1.0997  -1.9877  -1.6491 H              1 S1                 0.0000
     38 ****        -2.0559  -0.0888  -2.9706 H              1 S1                 0.0000
     39 ****        -4.4833  -0.5860  -2.8458 H              1 S1                 0.0000
     40 ****        -4.4993  -0.2623  -1.1273 H              1 S1                 0.0000
     41 ****        -3.8924   3.2264  -1.5244 H              1 S1                 0.0000
     42 ****        -4.1551   1.9509  -0.3489 H              1 S1                 0.0000
     43 ****        -1.6807   2.3262  -2.1295 H              1 S1                 0.0000
     44 ****        -1.7500   2.5659  -0.3921 H              1 S1                 0.0000
     45 ****         2.2536  -0.0411  -2.5380 H              1 S1                 0.0000
     46 ****         0.5046   0.7311   3.6129 H              1 S1                 0.0000
     47 ****         2.9977  -0.2901   3.4237 H              1 S1                 0.0000
     48 ****         3.7483  -0.2430   1.8523 H              1 S1                 0.0000
     49 ****         3.3614   3.1571   4.0701 H              1 S1                 0.0000
     50 ****         3.1828   2.5109   0.8958 H              1 S1                 0.0000
     51 ****         3.9354   3.6555   1.9943 H              1 S1                 0.0000
     52 ****         5.3336   1.3005   0.6633 H              1 S1                 0.0000
     53 ****         5.7793   3.0119   0.5681 H              1 S1                 0.0000
     54 ****         5.3462   2.0031   4.3546 H              1 S1                 0.0000
     55 ****         5.4466   0.4596   3.5214 H              1 S1                 0.0000
     56 ****        -2.4898  -2.6356   1.4866 LP             1 S1                 0.0000
     57 ****        -2.1354  -1.1666   0.8676 LP             1 S1                 0.0000
     58 ****        -5.1724   1.5380  -2.4262 LP             1 S1                 0.0000
     59 ****        -3.7322   1.5937  -3.1937 LP             1 S1                 0.0000
     60 ****        -2.2663   0.2281  -0.1776 LP             1 S1                 0.0000
     61 ****        -0.0243   0.2061  -2.7960 LP             1 S1                 0.0000
     62 ****         3.3080   0.0163  -0.4141 LP             1 S1                 0.0000
     63 ****        -1.4161   0.8181   2.0169 LP             1 S1                 0.0000
     64 ****         2.8716   1.7639   4.6620 LP             1 S1                 0.0000
     65 ****         2.0352   2.5105   3.4747 LP             1 S1                 0.0000
     66 ****         6.3437   3.0025   2.7465 LP             1 S1                 0.0000
     67 ****         6.8428   1.5189   2.2815 LP             1 S1                 0.0000
@<TRIPOS>BOND
    1    1    2 1     
    2    1   29 1     
    3    2    6 1     
    4    2    3 1     
    5    2   30 1     
    6    3    4 1     
    7    3   31 1     
    8    3   32 1     
    9    4    5 1     
   10    4   33 1     
   11    4   34 1     
   12    5    6 1     
   13    5   35 1     
   14    5   36 1     
   15    6    7 1     
   16    6   37 1     
   17    7   12 1     
   18    7    8 1     
   19    7   38 1     
   20    8    9 1     
   21    8   39 1     
   22    8   40 1     
   23    9   10 1     
   24   10   11 1     
   25   10   41 1     
   26   10   42 1     
   27   11   12 1     
   28   11   43 1     
   29   11   44 1     
   30   12   13 1     
   31   13   18 ar    
   32   13   14 ar    
   33   14   15 ar    
   34   15   16 ar    
   35   15   45 1     
   36   16   17 ar    
   37   17   21 1     
   38   17   18 ar    
   39   18   19 1     
   40   19   20 2     
   41   20   21 1     
   42   20   46 1     
   43   21   22 1     
   44   22   23 1     
   45   22   47 1     
   46   22   48 1     
   47   23   28 1     
   48   23   24 1     
   49   23   25 1     
   50   24   49 1     
   51   25   26 1     
   52   25   50 1     
   53   25   51 1     
   54   26   27 1     
   55   26   52 1     
   56   26   53 1     
   57   27   28 1     
   58   28   54 1     
   59   28   55 1     
   60    1   56 1     
   61    1   57 1     
   62    9   58 1     
   63    9   59 1     
   64   12   60 1     
   65   14   61 1     
   66   16   62 1     
   67   19   63 1     
   68   24   64 1     
   69   24   65 1     
   70   27   66 1     
   71   27   67 1     
@<TRIPOS>SUBSTRUCTURE
      1 S1             1
@<TRIPOS>SET
LONE_PAIRS      STATIC     ATOMS    <user>   **** ""
12 56 57 58 59 60 61 62 63 64 65 66 67
DONOR_HYDROGENS      STATIC     ATOMS    <user>   **** ""
2 29 49
ATOM$BLUE        STATIC     ATOMS    COLORGROUP SYSTEM
12 56 57 58 59 60 61 62 63 64 65 66 67
ATOM$RED        STATIC     ATOMS    COLORGROUP SYSTEM
2 29 49
