AV-unprocessed.smi:1369|AV-procd|sdf|5579|dock8
  -GOLD-   22720 5173D 1   1.00000     0.00000
 Structure written by MMmdl.
 39 41  0  0  0  0  0  0  0  0  1 V2000
  155.0736  137.0069  160.3647 C   0  0  0  0  0  0  0  0  0  0  0  0
  154.4974  138.3201  160.8827 C   0  0  0  0  0  0  0  0  0  0  0  0
  154.4114  138.5057  162.0958 O   0  0  0  0  0  0  0  0  0  0  0  0
  154.0934  139.1892  159.9385 N   0  0  0  0  0  0  0  0  0  0  0  0
  153.5233  140.4831  160.1032 C   0  0  0  0  0  0  0  0  0  0  0  0
  153.6280  141.2172  161.3101 C   0  0  0  0  0  0  0  0  0  0  0  0
  153.0673  142.5030  161.4118 C   0  0  0  0  0  0  0  0  0  0  0  0
  152.4080  143.0704  160.3082 C   0  0  0  0  0  0  0  0  0  0  0  0
  152.3139  142.3555  159.1001 C   0  0  0  0  0  0  0  0  0  0  0  0
  152.8748  141.0582  158.9837 C   0  0  0  0  0  0  0  0  0  0  0  0
  152.8184  140.3062  157.8281 O   0  0  0  0  0  0  0  0  0  0  0  0
  151.7563  140.5402  156.9133 C   0  0  0  0  0  0  0  0  0  0  0  0
  152.1153  139.8935  155.5687 C   0  0  0  0  0  0  0  0  0  0  0  0
  150.9387  139.3125  154.9281 N   0  0  0  0  0  0  0  0  0  0  0  0
  150.7851  137.9650  154.5918 C   0  0  0  0  0  0  0  0  0  0  0  0
  151.5873  137.0466  154.7504 O   0  0  0  0  0  0  0  0  0  0  0  0
  149.5371  137.8352  154.0390 O   0  0  0  0  0  0  0  0  0  0  0  0
  148.9256  139.0547  154.0373 C   0  0  0  0  0  0  0  0  0  0  0  0
  147.6446  139.4073  153.5806 C   0  0  0  0  0  0  0  0  0  0  0  0
  147.2535  140.7613  153.7027 C   0  0  0  0  0  0  0  0  0  0  0  0
  148.1305  141.7213  154.2693 C   0  0  0  0  0  0  0  0  0  0  0  0
  149.4139  141.3450  154.7274 C   0  0  0  0  0  0  0  0  0  0  0  0
  149.7728  139.9934  154.5868 C   0  0  0  0  0  0  0  0  0  0  0  0
  155.8364  137.1937  159.6083 H   0  0  0  0  0  0  0  0  0  0  0  0
  154.2854  136.3981  159.9217 H   0  0  0  0  0  0  0  0  0  0  0  0
  155.5307  136.4373  161.1744 H   0  0  0  0  0  0  0  0  0  0  0  0
  154.1336  138.8564  158.9858 H   0  0  0  0  0  0  0  0  0  0  0  0
  154.1479  140.8200  162.1680 H   0  0  0  0  0  0  0  0  0  0  0  0
  153.1489  143.0563  162.3358 H   0  0  0  0  0  0  0  0  0  0  0  0
  151.9779  144.0581  160.3858 H   0  0  0  0  0  0  0  0  0  0  0  0
  151.8032  142.8269  158.2745 H   0  0  0  0  0  0  0  0  0  0  0  0
  150.8345  140.0968  157.2924 H   0  0  0  0  0  0  0  0  0  0  0  0
  151.5874  141.6102  156.7805 H   0  0  0  0  0  0  0  0  0  0  0  0
  152.5774  140.6278  154.9086 H   0  0  0  0  0  0  0  0  0  0  0  0
  152.8613  139.1127  155.7232 H   0  0  0  0  0  0  0  0  0  0  0  0
  146.9820  138.6702  153.1514 H   0  0  0  0  0  0  0  0  0  0  0  0
  146.2755  141.0674  153.3612 H   0  0  0  0  0  0  0  0  0  0  0  0
  147.8133  142.7502  154.3543 H   0  0  0  0  0  0  0  0  0  0  0  0
  150.0853  142.0684  155.1660 H   0  0  0  0  0  0  0  0  0  0  0  0
  1  2  1  0  0  0  0
  1 24  1  0  0  0  0
  1 25  1  0  0  0  0
  1 26  1  0  0  0  0
  2  3  2  0  0  0  0
  2  4  1  0  0  0  0
  4  5  1  0  0  0  0
  4 27  1  0  0  0  0
  5 10  1  0  0  0  0
  5  6  2  0  0  0  0
  6  7  1  0  0  0  0
  6 28  1  0  0  0  0
  7  8  2  0  0  0  0
  7 29  1  0  0  0  0
  8  9  1  0  0  0  0
  8 30  1  0  0  0  0
  9 10  2  0  0  0  0
  9 31  1  0  0  0  0
 10 11  1  0  0  0  0
 11 12  1  0  0  0  0
 12 13  1  0  0  0  0
 12 32  1  0  0  0  0
 12 33  1  0  0  0  0
 13 14  1  0  0  0  0
 13 34  1  0  0  0  0
 13 35  1  0  0  0  0
 14 23  1  0  0  0  0
 14 15  1  0  0  0  0
 15 16  2  0  0  0  0
 15 17  1  0  0  0  0
 17 18  1  0  0  0  0
 18 23  2  0  0  0  0
 18 19  1  0  0  0  0
 19 20  2  0  0  0  0
 19 36  1  0  0  0  0
 20 21  1  0  0  0  0
 20 37  1  0  0  0  0
 21 22  2  0  0  0  0
 21 38  1  0  0  0  0
 22 23  1  0  0  0  0
 22 39  1  0  0  0  0
M  END
> <s_m_source_file>
AV-unprocessed.smi

> <i_m_source_file_index>
1369

> <i_lp_mmshare_version>
43012

> <i_f3d_flags>
0

> <s_epik_input>
W0NIM11DKD1PKVtOSF1jMVtjSF1bY0hdW2NIXVtjSF1jMU9bQ0gyXVtDSDJdbihjKD1PKW8yKWMoYzIzKVtjSF1bY0hdW2NIXVtjSF0z

> <s_epik_cmdline>
J2VwaWtfcHl0aG9uJywgJy1waCcsICc3LjAnLCAnLXRuJywgJzgnLCAnLW1hJywgJzIwMCcsICctbWV0YWxfYmluZGluZycsICctaW1hZScsICc8aW5maWxlLm1hZT4nLCAnLW9tYWUnLCAnPG91dGZpbGUubWFlPic=

> <r_lp_tautomer_probability>
1

> <r_epik_Ionization_Penalty>
9.24277e-08

> <r_epik_Ionization_Penalty_Charging>
1.02615e-14

> <r_epik_Ionization_Penalty_Neutral>
9.24277e-08

> <r_epik_State_Penalty>
-0

> <r_epik_Charging_Adjusted_Penalty>
1.02615e-14

> <i_epik_Tot_Q>
0

> <i_epik_Tot_abs_Q>
0

> <r_epik_Metal_State_Penalty>
-0

> <b_epik_Metal_Only>
0

> <s_lp_Force_Field>
OPLS_2005

> <r_lp_Energy>
36.4772

> <b_lp_Chiralities_Consistent>
1

> <s_lp_Variant>
AV-unprocessed.smi:1369-1

> <Gold.Version>
5.8.1

> <Gold.Id.Protein>
6NUR|6NUR_protein|mol2

> <Gold.PLP.Fitness>
50.7310

> <Gold.PLP.PLP>
-46.3350

> <Gold.PLP.part.hbond>
-2.0000

> <Gold.PLP.part.metal>
0.0000

> <Gold.PLP.part.buried>
-1.4822

> <Gold.PLP.part.nonpolar>
-42.9256

> <Gold.PLP.part.repulsive>
2.5581

> <Gold.PLP.ligand.clash>
0.0000

> <Gold.PLP.ligand.torsion>
0.7430

> <Gold.PLP.Chemscore.Hbond>
1.9440

> <Gold.PLP.Chemscore.CHOScore>
0.0000

> <Gold.PLP.Chemscore.Metal>
0.0000

> <Gold.Chemscore.Hbonds>
donor molecule, donor type, donor heavy atom, donor atom, acceptor molecule, acceptor atom, score
      P1  H  7997  8008       L1    11  0.93
      P1  H 10752 10764       L1    16  1.00

> <Gold.PLP.Chemscore.Internal.Correction>
0.0501

> <Gold.Rescore>
     Score         DG    S(hbond)    S(metal)    S(lipo)     H(rot)  DE(clash)    DE(int)     intcor
     17.82     -20.70       1.61        0.00     121.30       1.70       0.94       1.94       ----

> <Gold.Chemscore.Fitness>
17.8174

> <Gold.Chemscore.DG>
-20.6968

> <Gold.Chemscore.ZeroCoef>
-5.4800

> <Gold.Chemscore.Hbond>
1.6113

> <Gold.Chemscore.Metal>
0.0000

> <Gold.Chemscore.Lipo>
121.2999

> <Gold.Chemscore.Internal_Hbond>
0.0000

> <Gold.Chemscore.DEClash>
0.9436

> <Gold.Chemscore.DEInternal>
1.9358

> <Gold.Chemscore.Rot>
1.7019

> <Gold.Chemscore.Internal.Correction>
   9.000000E+99

> <Gold.Chemscore.Hbonds>
donor molecule, donor type, donor heavy atom, donor atom, acceptor molecule, acceptor atom, score
      P1  H  7997  8008       L1    11  0.66
      P1  H 10752 10764       L1    16  0.94

> <Gold.Chemscore.Hbond.Weighted>
-5.3816

> <Gold.Chemscore.Metal.Weighted>
-0.0000

> <Gold.Chemscore.Lipo.Weighted>
-14.1921

> <Gold.Chemscore.Internal_Hbond.Weighted>
0.0000

> <Gold.Chemscore.DEClash.Weighted>
0.9436

> <Gold.Chemscore.DEInternal.Weighted>
1.9358

> <Gold.Chemscore.Rot.Weighted>
4.3569

> <Gold.Chemscore.Internal.Correction.Weighted>
   9.000000E+99

> <Gold.Protein.RotatedTorsions>
[ 6907 6896 6895 6894 ] final -153.26 input  -60.11 | X-H torsion
[ 7974 7965 7964 7962 ] final -129.46 input  175.53 | X-H torsion
[ 8008 7997 7996 7995 ] final  -77.75 input   59.86 | X-H torsion
[ 10167 10162 10161 10158 ] final   35.80 input  -65.29 | X-H torsion
[ 10718 10713 10712 10709 ] final  163.08 input   66.30 | X-H torsion
[ 10763 10752 10751 10750 ] final  -56.32 input  -60.55 | X-H torsion
[ 11005 11000 10999 10996 ] final  -39.63 input  -57.11 | X-H torsion

> <Gold.Protein.ActiveResidues>
 VAL166  LYS551  ARG553  GLY616  TRP617  ASP618  TYR619  PRO620  LYS621  CYS622 
 ASP623  PHE694  ASN695  SER759  ASP760  ASP761  ALA762  ILE779  LEU786  VAL792 
 PHE793  MET794  SER795  GLU796  ALA797  LYS798  CYS799  TRP800  GLU811  SER814 

> <Gold.Protein.RotatedAtoms>
  151.2399  133.4405  159.2606 H   0  0  0  0  0  0  0  0  0  0  0  0  # atno 6907 bound_to 6896
  151.0715  134.9801  159.8321 H   0  0  0  0  0  0  0  0  0  0  0  0  # atno 6908 bound_to 6896
  152.5412  134.2344  159.8890 H   0  0  0  0  0  0  0  0  0  0  0  0  # atno 6909 bound_to 6896
  144.9570  140.7406  143.4752 H   0  0  0  0  0  0  0  0  0  0  0  0  # atno 7974 bound_to 7965
  154.5625  140.0705  156.8841 H   0  0  0  0  0  0  0  0  0  0  0  0  # atno 8008 bound_to 7997
  155.2784  140.3370  155.4242 H   0  0  0  0  0  0  0  0  0  0  0  0  # atno 8009 bound_to 7997
  156.2054  140.1738  156.7797 H   0  0  0  0  0  0  0  0  0  0  0  0  # atno 8010 bound_to 7997
  140.4187  144.1490  150.6146 H   0  0  0  0  0  0  0  0  0  0  0  0  # atno 10167 bound_to 10162
  157.1135  131.0474  151.2446 H   0  0  0  0  0  0  0  0  0  0  0  0  # atno 10718 bound_to 10713
  154.2048  135.6405  153.5097 H   0  0  0  0  0  0  0  0  0  0  0  0  # atno 10763 bound_to 10752
  153.0003  135.5460  154.6277 H   0  0  0  0  0  0  0  0  0  0  0  0  # atno 10764 bound_to 10752
  154.5699  135.2916  155.0810 H   0  0  0  0  0  0  0  0  0  0  0  0  # atno 10765 bound_to 10752
  141.0116  133.6905  156.2212 H   0  0  0  0  0  0  0  0  0  0  0  0  # atno 11005 bound_to 11000
  145.2757  139.1937  143.4817 LP  0  0  0  0  0  0  0  0  0  0  0  0  # atno 17320 bound_to 7965
  146.3340  140.2711  142.8606 LP  0  0  0  0  0  0  0  0  0  0  0  0  # atno 17321 bound_to 7965
  140.4557  143.2468  151.9288 LP  0  0  0  0  0  0  0  0  0  0  0  0  # atno 17342 bound_to 10162
  139.4782  144.5518  151.8375 LP  0  0  0  0  0  0  0  0  0  0  0  0  # atno 17343 bound_to 10162
  157.4538  130.7614  149.7175 LP  0  0  0  0  0  0  0  0  0  0  0  0  # atno 17370 bound_to 10713
  155.9845  130.3991  150.3310 LP  0  0  0  0  0  0  0  0  0  0  0  0  # atno 17371 bound_to 10713
  140.6724  134.4853  157.5587 LP  0  0  0  0  0  0  0  0  0  0  0  0  # atno 17394 bound_to 11000
  139.9093  134.8380  156.1588 LP  0  0  0  0  0  0  0  0  0  0  0  0  # atno 17395 bound_to 11000

$$$$
