AV-unprocessed.smi:323|AV-procd|sdf|2339|dock3
  -GOLD-   2262022253D 1   1.00000     0.00000
 Structure written by MMmdl.
 41 42  0  0  0  0  0  0  0  0  1 V2000
  150.7072  131.6172  155.4612 C   0  0  0  0  0  0  0  0  0  0  0  0
  149.5346  132.1829  154.6443 C   0  0  0  0  0  0  0  0  0  0  0  0
  149.1670  131.2320  153.4962 C   0  0  0  0  0  0  0  0  0  0  0  0
  149.8135  133.6100  154.1177 C   0  0  0  0  0  0  0  0  0  0  0  0
  150.0857  134.6716  155.2049 C   0  0  0  0  0  0  0  0  0  0  0  0
  150.4584  135.9563  154.6240 N   0  0  0  0  0  0  0  0  0  0  0  0
  151.4699  136.7329  155.0432 C   0  0  0  0  0  0  0  0  0  0  0  0
  152.1115  136.5188  156.0715 O   0  0  0  0  0  0  0  0  0  0  0  0
  151.8456  137.9048  154.1336 C   0  0  0  0  0  0  0  0  0  0  0  0
  151.2982  139.1744  154.7196 C   0  0  0  0  0  0  0  0  0  0  0  0
  150.2001  139.8776  154.2887 C   0  0  0  0  0  0  0  0  0  0  0  0
  149.8487  141.2369  155.3216 S   0  0  0  0  0  0  0  0  0  0  0  0
  151.2390  140.7969  156.3176 C   0  0  0  0  0  0  0  0  0  0  0  0
  151.6602  141.4379  157.5205 N   0  0  0  0  0  0  0  0  0  0  0  0
  151.1367  142.7402  157.9238 C   0  0  0  0  0  0  0  0  0  0  0  0
  152.0159  143.2032  159.0894 C   0  0  0  0  0  0  0  0  0  0  0  0
  152.7586  141.9529  159.5545 C   0  0  0  0  0  0  0  0  0  0  0  0
  152.5549  140.9733  158.4104 C   0  0  0  0  0  0  0  0  0  0  0  0
  153.1655  139.9067  158.3611 O   0  0  0  0  0  0  0  0  0  0  0  0
  151.9037  139.7368  155.8486 N   0  0  0  0  0  0  0  0  0  0  0  0
  151.6210  131.5782  154.8681 H   0  0  0  0  0  0  0  0  0  0  0  0
  150.4910  130.6054  155.8057 H   0  0  0  0  0  0  0  0  0  0  0  0
  150.9069  132.2209  156.3458 H   0  0  0  0  0  0  0  0  0  0  0  0
  148.6663  132.2199  155.2986 H   0  0  0  0  0  0  0  0  0  0  0  0
  149.9884  131.1291  152.7866 H   0  0  0  0  0  0  0  0  0  0  0  0
  148.2960  131.5951  152.9501 H   0  0  0  0  0  0  0  0  0  0  0  0
  148.9227  130.2383  153.8732 H   0  0  0  0  0  0  0  0  0  0  0  0
  150.6559  133.5830  153.4256 H   0  0  0  0  0  0  0  0  0  0  0  0
  148.9586  133.9412  153.5263 H   0  0  0  0  0  0  0  0  0  0  0  0
  149.2007  134.8183  155.8232 H   0  0  0  0  0  0  0  0  0  0  0  0
  150.8688  134.3229  155.8797 H   0  0  0  0  0  0  0  0  0  0  0  0
  149.9878  136.2197  153.7700 H   0  0  0  0  0  0  0  0  0  0  0  0
  152.9303  137.9573  154.0282 H   0  0  0  0  0  0  0  0  0  0  0  0
  151.4425  137.7324  153.1347 H   0  0  0  0  0  0  0  0  0  0  0  0
  149.5610  139.6614  153.4456 H   0  0  0  0  0  0  0  0  0  0  0  0
  151.1575  143.4630  157.1077 H   0  0  0  0  0  0  0  0  0  0  0  0
  150.1006  142.6220  158.2438 H   0  0  0  0  0  0  0  0  0  0  0  0
  152.7308  143.9512  158.7438 H   0  0  0  0  0  0  0  0  0  0  0  0
  151.4270  143.6539  159.8886 H   0  0  0  0  0  0  0  0  0  0  0  0
  153.8170  142.1456  159.7329 H   0  0  0  0  0  0  0  0  0  0  0  0
  152.3180  141.5436  160.4641 H   0  0  0  0  0  0  0  0  0  0  0  0
  1  2  1  0  0  0  0
  1 21  1  0  0  0  0
  1 22  1  0  0  0  0
  1 23  1  0  0  0  0
  2  3  1  0  0  0  0
  2  4  1  0  0  0  0
  2 24  1  0  0  0  0
  3 25  1  0  0  0  0
  3 26  1  0  0  0  0
  3 27  1  0  0  0  0
  4  5  1  0  0  0  0
  4 28  1  0  0  0  0
  4 29  1  0  0  0  0
  5  6  1  0  0  0  0
  5 30  1  0  0  0  0
  5 31  1  0  0  0  0
  6  7  1  0  0  0  0
  6 32  1  0  0  0  0
  7  8  2  0  0  0  0
  7  9  1  0  0  0  0
  9 10  1  0  0  0  0
  9 33  1  0  0  0  0
  9 34  1  0  0  0  0
 10 20  1  0  0  0  0
 10 11  2  0  0  0  0
 11 12  1  0  0  0  0
 11 35  1  0  0  0  0
 12 13  1  0  0  0  0
 13 14  1  0  0  0  0
 13 20  2  0  0  0  0
 14 18  1  0  0  0  0
 14 15  1  0  0  0  0
 15 16  1  0  0  0  0
 15 36  1  0  0  0  0
 15 37  1  0  0  0  0
 16 17  1  0  0  0  0
 16 38  1  0  0  0  0
 16 39  1  0  0  0  0
 17 18  1  0  0  0  0
 17 40  1  0  0  0  0
 17 41  1  0  0  0  0
 18 19  2  0  0  0  0
M  END
> <s_m_source_file>
AV-unprocessed.smi

> <i_m_source_file_index>
323

> <i_lp_mmshare_version>
43012

> <i_f3d_flags>
0

> <s_epik_input>
W0NIM11bQ0hdKFtDSDNdKVtDSDJdW0NIMl1bTkhdQyg9TylbQ0gyXWMxW2NIXXNjKG4xKU4yW0NIMl1bQ0gyXVtDSDJdQzI9Tw==

> <s_epik_cmdline>
J2VwaWtfcHl0aG9uJywgJy1waCcsICc3LjAnLCAnLXRuJywgJzgnLCAnLW1hJywgJzIwMCcsICctbWV0YWxfYmluZGluZycsICctaW1hZScsICc8aW5maWxlLm1hZT4nLCAnLW9tYWUnLCAnPG91dGZpbGUubWFlPic=

> <r_lp_tautomer_probability>
1

> <r_epik_Ionization_Penalty>
3.047e-05

> <r_epik_Ionization_Penalty_Charging>
0

> <r_epik_Ionization_Penalty_Neutral>
3.047e-05

> <r_epik_State_Penalty>
-0

> <r_epik_Charging_Adjusted_Penalty>
0

> <i_epik_Tot_Q>
0

> <i_epik_Tot_abs_Q>
0

> <r_epik_Metal_State_Penalty>
-0

> <b_epik_Metal_Only>
0

> <s_lp_Force_Field>
OPLS_2005

> <r_lp_Energy>
17.0488

> <b_lp_Chiralities_Consistent>
1

> <s_lp_Variant>
AV-unprocessed.smi:323-1

> <Gold.Version>
5.8.1

> <Gold.Id.Protein>
6NUR|6NUR_protein|mol2

> <Gold.PLP.Fitness>
52.6912

> <Gold.PLP.PLP>
-42.0685

> <Gold.PLP.part.hbond>
-3.0485

> <Gold.PLP.part.metal>
0.0000

> <Gold.PLP.part.buried>
-1.6487

> <Gold.PLP.part.nonpolar>
-36.5436

> <Gold.PLP.part.repulsive>
0.0799

> <Gold.PLP.ligand.clash>
0.0000

> <Gold.PLP.ligand.torsion>
0.6085

> <Gold.PLP.Chemscore.Hbond>
2.9913

> <Gold.PLP.Chemscore.CHOScore>
0.9278

> <Gold.PLP.Chemscore.Metal>
0.0000

> <Gold.Chemscore.Hbonds>
donor molecule, donor type, donor heavy atom, donor atom, acceptor molecule, acceptor atom, score
      L1  H     6    32       P1  7948  0.65
      P1  H  7997  8008       L1    19  0.98
      P1  H 10752 10765       L1     8  0.45
      L1  C    11    35       P1  7957  1.00

> <Gold.PLP.Chemscore.Internal.Correction>
0.0826

> <Gold.Rescore>
     Score         DG    S(hbond)    S(metal)    S(lipo)     H(rot)  DE(clash)    DE(int)     intcor
     16.12     -18.29       2.23        0.00      84.16       1.74       0.11       2.06       ----

> <Gold.Chemscore.Fitness>
16.1245

> <Gold.Chemscore.DG>
-18.2923

> <Gold.Chemscore.ZeroCoef>
-5.4800

> <Gold.Chemscore.Hbond>
2.2251

> <Gold.Chemscore.Metal>
0.0000

> <Gold.Chemscore.Lipo>
84.1614

> <Gold.Chemscore.Internal_Hbond>
0.0000

> <Gold.Chemscore.DEClash>
0.1104

> <Gold.Chemscore.DEInternal>
2.0575

> <Gold.Chemscore.Rot>
1.7446

> <Gold.Chemscore.Internal.Correction>
   9.000000E+99

> <Gold.Chemscore.Hbonds>
donor molecule, donor type, donor heavy atom, donor atom, acceptor molecule, acceptor atom, score
      L1  H     6    32       P1  7948  0.11
      P1  H  7997  8008       L1    19  0.50
      P1  H 10752 10765       L1     8  0.02

> <Gold.Chemscore.Hbond.Weighted>
-7.4317

> <Gold.Chemscore.Metal.Weighted>
-0.0000

> <Gold.Chemscore.Lipo.Weighted>
-9.8469

> <Gold.Chemscore.Internal_Hbond.Weighted>
0.0000

> <Gold.Chemscore.DEClash.Weighted>
0.1104

> <Gold.Chemscore.DEInternal.Weighted>
2.0575

> <Gold.Chemscore.Rot.Weighted>
4.4662

> <Gold.Chemscore.Internal.Correction.Weighted>
   9.000000E+99

> <Gold.Protein.RotatedTorsions>
[ 6907 6896 6895 6894 ] final   38.12 input  -60.11 | X-H torsion
[ 7974 7965 7964 7962 ] final   55.72 input  175.53 | X-H torsion
[ 8008 7997 7996 7995 ] final  -72.23 input   59.86 | X-H torsion
[ 10167 10162 10161 10158 ] final -166.92 input  -65.29 | X-H torsion
[ 10718 10713 10712 10709 ] final  103.11 input   66.30 | X-H torsion
[ 10763 10752 10751 10750 ] final -143.81 input  -60.55 | X-H torsion
[ 11005 11000 10999 10996 ] final -122.42 input  -57.11 | X-H torsion

> <Gold.Protein.ActiveResidues>
 VAL166  LYS551  ARG553  GLY616  TRP617  ASP618  TYR619  PRO620  LYS621  CYS622 
 ASP623  PHE694  ASN695  SER759  ASP760  ASP761  ALA762  ILE779  LEU786  VAL792 
 PHE793  MET794  SER795  GLU796  ALA797  LYS798  CYS799  TRP800  GLU811  SER814 

> <Gold.Protein.RotatedAtoms>
  152.1522  134.8979  160.0547 H   0  0  0  0  0  0  0  0  0  0  0  0  # atno 6907 bound_to 6896
  152.0006  133.3819  159.4188 H   0  0  0  0  0  0  0  0  0  0  0  0  # atno 6908 bound_to 6896
  150.6877  134.3760  159.5057 H   0  0  0  0  0  0  0  0  0  0  0  0  # atno 6909 bound_to 6896
  145.9474  139.3942  143.0327 H   0  0  0  0  0  0  0  0  0  0  0  0  # atno 7974 bound_to 7965
  154.5150  140.0801  156.8063 H   0  0  0  0  0  0  0  0  0  0  0  0  # atno 8008 bound_to 7997
  155.3701  140.3422  155.4225 H   0  0  0  0  0  0  0  0  0  0  0  0  # atno 8009 bound_to 7997
  156.1617  140.1590  156.8588 H   0  0  0  0  0  0  0  0  0  0  0  0  # atno 8010 bound_to 7997
  139.6083  144.0867  152.1816 H   0  0  0  0  0  0  0  0  0  0  0  0  # atno 10167 bound_to 10162
  157.6782  131.0770  150.5506 H   0  0  0  0  0  0  0  0  0  0  0  0  # atno 10718 bound_to 10713
  154.8454  135.3457  154.6247 H   0  0  0  0  0  0  0  0  0  0  0  0  # atno 10763 bound_to 10752
  153.6856  135.6978  153.5109 H   0  0  0  0  0  0  0  0  0  0  0  0  # atno 10764 bound_to 10752
  153.2635  135.4315  155.0873 H   0  0  0  0  0  0  0  0  0  0  0  0  # atno 10765 bound_to 10752
  140.9997  134.0421  157.3553 H   0  0  0  0  0  0  0  0  0  0  0  0  # atno 11005 bound_to 11000
  145.8218  140.9675  143.0895 LP  0  0  0  0  0  0  0  0  0  0  0  0  # atno 17320 bound_to 7965
  144.6789  140.0050  143.7484 LP  0  0  0  0  0  0  0  0  0  0  0  0  # atno 17321 bound_to 7965
  140.0480  144.5955  150.7358 LP  0  0  0  0  0  0  0  0  0  0  0  0  # atno 17342 bound_to 10162
  140.7301  143.2679  151.3983 LP  0  0  0  0  0  0  0  0  0  0  0  0  # atno 17343 bound_to 10162
  156.5811  130.4304  149.5977 LP  0  0  0  0  0  0  0  0  0  0  0  0  # atno 17370 bound_to 10713
  156.2661  130.6990  151.1773 LP  0  0  0  0  0  0  0  0  0  0  0  0  # atno 17371 bound_to 10713
  139.9032  135.0171  156.7367 LP  0  0  0  0  0  0  0  0  0  0  0  0  # atno 17394 bound_to 11000
  140.6910  133.9390  155.7966 LP  0  0  0  0  0  0  0  0  0  0  0  0  # atno 17395 bound_to 11000

$$$$
