AV-unprocessed.smi:3250|AV-procd|sdf|12430|dock5
  -GOLD-   2272018313D 1   1.00000     0.00000
 Structure written by MMmdl.
 38 39  0  0  0  0  0  0  0  0  1 V2000
  151.6430  145.8646  160.0065 C   0  0  0  0  0  0  0  0  0  0  0  0
  151.9117  144.9218  158.8250 C   0  0  0  0  0  0  0  0  0  0  0  0
  151.7988  143.4977  159.1348 N   0  0  0  0  0  0  0  0  0  0  0  0
  153.0842  142.8956  159.4805 C   0  0  0  0  0  0  0  0  0  0  0  0
  152.9525  141.3904  159.7670 C   0  0  0  0  0  0  0  0  0  0  0  0
  152.3657  140.7422  158.6438 O   0  0  0  0  0  0  0  0  0  0  0  0
  151.0784  141.2586  158.3134 C   0  0  2  0  0  0  0  0  0  0  0  0
  150.5433  140.4879  157.0996 C   0  0  0  0  0  0  0  0  0  0  0  0
  149.0890  140.4408  157.0918 N   0  0  0  0  0  0  0  0  0  0  0  0
  148.3032  140.9736  156.0876 C   0  0  0  0  0  0  0  0  0  0  0  0
  148.7503  140.7833  154.8444 N   0  0  0  0  0  0  0  0  0  0  0  0
  148.0069  141.2962  153.8401 C   0  0  0  0  0  0  0  0  0  0  0  0
  146.8116  142.0010  154.0852 C   0  0  0  0  0  0  0  0  0  0  0  0
  146.4303  142.1409  155.4351 C   0  0  0  0  0  0  0  0  0  0  0  0
  145.2684  142.8165  155.7453 O   0  0  0  0  0  0  0  0  0  0  0  0
  144.4952  143.3469  154.6744 C   0  0  0  0  0  0  0  0  0  0  0  0
  147.1856  141.6221  156.4354 N   0  0  0  0  0  0  0  0  0  0  0  0
  151.2188  142.7643  158.0144 C   0  0  0  0  0  0  0  0  0  0  0  0
  151.6468  146.9031  159.6752 H   0  0  0  0  0  0  0  0  0  0  0  0
  152.4014  145.7714  160.7834 H   0  0  0  0  0  0  0  0  0  0  0  0
  150.6700  145.6646  160.4560 H   0  0  0  0  0  0  0  0  0  0  0  0
  151.1940  145.1687  158.0416 H   0  0  0  0  0  0  0  0  0  0  0  0
  152.8963  145.1338  158.4061 H   0  0  0  0  0  0  0  0  0  0  0  0
  153.7951  143.0468  158.6668 H   0  0  0  0  0  0  0  0  0  0  0  0
  153.5061  143.3813  160.3596 H   0  0  0  0  0  0  0  0  0  0  0  0
  153.9326  140.9536  159.9595 H   0  0  0  0  0  0  0  0  0  0  0  0
  152.3433  141.2171  160.6555 H   0  0  0  0  0  0  0  0  0  0  0  0
  150.4015  141.1200  159.1590 H   0  0  0  0  0  0  0  0  0  0  0  0
  150.8759  140.9741  156.1818 H   0  0  0  0  0  0  0  0  0  0  0  0
  150.9424  139.4729  157.0895 H   0  0  0  0  0  0  0  0  0  0  0  0
  148.6236  139.9065  157.8111 H   0  0  0  0  0  0  0  0  0  0  0  0
  148.3677  141.1433  152.8339 H   0  0  0  0  0  0  0  0  0  0  0  0
  146.2190  142.4108  153.2809 H   0  0  0  0  0  0  0  0  0  0  0  0
  143.6188  143.8535  155.0780 H   0  0  0  0  0  0  0  0  0  0  0  0
  144.1441  142.5587  154.0068 H   0  0  0  0  0  0  0  0  0  0  0  0
  145.0630  144.0779  154.0967 H   0  0  0  0  0  0  0  0  0  0  0  0
  150.2370  143.1751  157.7761 H   0  0  0  0  0  0  0  0  0  0  0  0
  151.8370  142.9009  157.1255 H   0  0  0  0  0  0  0  0  0  0  0  0
  1  2  1  0  0  0  0
  1 19  1  0  0  0  0
  1 20  1  0  0  0  0
  1 21  1  0  0  0  0
  2  3  1  0  0  0  0
  2 22  1  0  0  0  0
  2 23  1  0  0  0  0
  3 18  1  0  0  0  0
  3  4  1  0  0  0  0
  4  5  1  0  0  0  0
  4 24  1  0  0  0  0
  4 25  1  0  0  0  0
  5  6  1  0  0  0  0
  5 26  1  0  0  0  0
  5 27  1  0  0  0  0
  6  7  1  0  0  0  0
  7  8  1  0  0  0  0
  7 18  1  0  0  0  0
  7 28  1  0  0  0  0
  8  9  1  0  0  0  0
  8 29  1  0  0  0  0
  8 30  1  0  0  0  0
  9 10  1  0  0  0  0
  9 31  1  0  0  0  0
 10 17  1  0  0  0  0
 10 11  2  0  0  0  0
 11 12  1  0  0  0  0
 12 13  2  0  0  0  0
 12 32  1  0  0  0  0
 13 14  1  0  0  0  0
 13 33  1  0  0  0  0
 14 15  1  0  0  0  0
 14 17  2  0  0  0  0
 15 16  1  0  0  0  0
 16 34  1  0  0  0  0
 16 35  1  0  0  0  0
 16 36  1  0  0  0  0
 18 37  1  0  0  0  0
 18 38  1  0  0  0  0
M  END
> <s_m_source_file>
AV-unprocessed.smi

> <i_m_source_file_index>
3250

> <i_lp_mmshare_version>
43012

> <i_f3d_flags>
0

> <s_epik_input>
W0NIM11bQ0gyXU4xW0NIMl1bQ0gyXU9bQ0BIXShbQ0gyXTEpW0NIMl1bTkhdYzJuW2NIXVtjSF1jKG4yKU9bQ0gzXQ==

> <s_epik_cmdline>
J2VwaWtfcHl0aG9uJywgJy1waCcsICc3LjAnLCAnLXRuJywgJzgnLCAnLW1hJywgJzIwMCcsICctbWV0YWxfYmluZGluZycsICctaW1hZScsICc8aW5maWxlLm1hZT4nLCAnLW9tYWUnLCAnPG91dGZpbGUubWFlPic=

> <r_lp_tautomer_probability>
1

> <r_epik_Ionization_Penalty>
0.832605

> <r_epik_Ionization_Penalty_Charging>
0

> <r_epik_Ionization_Penalty_Neutral>
0.832605

> <r_epik_State_Penalty>
0.927194

> <r_epik_Charging_Adjusted_Penalty>
0.927194

> <i_epik_Tot_Q>
0

> <i_epik_Tot_abs_Q>
0

> <r_epik_Metal_State_Penalty>
0.908632

> <b_epik_Metal_Only>
0

> <s_lp_Force_Field>
OPLS_2005

> <r_lp_Energy>
15.3414

> <b_lp_Chiralities_Consistent>
1

> <s_lp_Variant>
AV-unprocessed.smi:3250-6

> <Gold.Version>
5.8.1

> <Gold.Id.Protein>
6NUR|6NUR_protein|mol2

> <Gold.PLP.Fitness>
36.2176

> <Gold.PLP.PLP>
-35.7444

> <Gold.PLP.part.hbond>
0.0000

> <Gold.PLP.part.metal>
0.0000

> <Gold.PLP.part.buried>
-5.5607

> <Gold.PLP.part.nonpolar>
-30.1908

> <Gold.PLP.part.repulsive>
0.4678

> <Gold.PLP.ligand.clash>
0.2512

> <Gold.PLP.ligand.torsion>
1.1505

> <Gold.PLP.Chemscore.Hbond>
0.0000

> <Gold.PLP.Chemscore.CHOScore>
1.0000

> <Gold.PLP.Chemscore.Metal>
0.0000

> <Gold.Chemscore.Hbonds>
donor molecule, donor type, donor heavy atom, donor atom, acceptor molecule, acceptor atom, score
      L1  C    12    32       P1  7957  1.00

> <Gold.PLP.Chemscore.Internal.Correction>
0.0254

> <Gold.Rescore>
     Score         DG    S(hbond)    S(metal)    S(lipo)     H(rot)  DE(clash)    DE(int)     intcor
      9.96     -11.32       0.00        0.00      86.37       1.67       0.02       1.34       ----

> <Gold.Chemscore.Fitness>
9.9645

> <Gold.Chemscore.DG>
-11.3205

> <Gold.Chemscore.ZeroCoef>
-5.4800

> <Gold.Chemscore.Hbond>
0.0000

> <Gold.Chemscore.Metal>
0.0000

> <Gold.Chemscore.Lipo>
86.3653

> <Gold.Chemscore.Internal_Hbond>
0.0000

> <Gold.Chemscore.DEClash>
0.0202

> <Gold.Chemscore.DEInternal>
1.3357

> <Gold.Chemscore.Rot>
1.6657

> <Gold.Chemscore.Internal.Correction>
   9.000000E+99

> <Gold.Chemscore.Hbond.Weighted>
-0.0000

> <Gold.Chemscore.Metal.Weighted>
-0.0000

> <Gold.Chemscore.Lipo.Weighted>
-10.1047

> <Gold.Chemscore.Internal_Hbond.Weighted>
0.0000

> <Gold.Chemscore.DEClash.Weighted>
0.0202

> <Gold.Chemscore.DEInternal.Weighted>
1.3357

> <Gold.Chemscore.Rot.Weighted>
4.2642

> <Gold.Chemscore.Internal.Correction.Weighted>
   9.000000E+99

> <Gold.Protein.RotatedTorsions>
[ 6907 6896 6895 6894 ] final  126.25 input  -60.11 | X-H torsion
[ 7974 7965 7964 7962 ] final -168.60 input  175.53 | X-H torsion
[ 8008 7997 7996 7995 ] final -114.90 input   59.86 | X-H torsion
[ 10167 10162 10161 10158 ] final -179.95 input  -65.29 | X-H torsion
[ 10718 10713 10712 10709 ] final   83.55 input   66.30 | X-H torsion
[ 10763 10752 10751 10750 ] final   -5.29 input  -60.55 | X-H torsion
[ 11005 11000 10999 10996 ] final -101.97 input  -57.11 | X-H torsion

> <Gold.Protein.ActiveResidues>
 VAL166  LYS551  ARG553  GLY616  TRP617  ASP618  TYR619  PRO620  LYS621  CYS622 
 ASP623  PHE694  ASN695  SER759  ASP760  ASP761  ALA762  ILE779  LEU786  VAL792 
 PHE793  MET794  SER795  GLU796  ALA797  LYS798  CYS799  TRP800  GLU811  SER814 

> <Gold.Protein.RotatedAtoms>
  152.3920  133.6693  159.6245 H   0  0  0  0  0  0  0  0  0  0  0  0  # atno 6907 bound_to 6896
  150.7826  133.8938  159.3330 H   0  0  0  0  0  0  0  0  0  0  0  0  # atno 6908 bound_to 6896
  151.6722  135.0976  160.0251 H   0  0  0  0  0  0  0  0  0  0  0  0  # atno 6909 bound_to 6896
  144.7200  140.2346  143.6299 H   0  0  0  0  0  0  0  0  0  0  0  0  # atno 7974 bound_to 7965
  155.0436  140.0392  157.2518 H   0  0  0  0  0  0  0  0  0  0  0  0  # atno 8008 bound_to 7997
  154.7196  140.2709  155.6529 H   0  0  0  0  0  0  0  0  0  0  0  0  # atno 8009 bound_to 7997
  156.2813  140.2705  156.1864 H   0  0  0  0  0  0  0  0  0  0  0  0  # atno 8010 bound_to 7997
  139.5363  144.2488  152.0801 H   0  0  0  0  0  0  0  0  0  0  0  0  # atno 10167 bound_to 10162
  157.6881  131.0095  150.2540 H   0  0  0  0  0  0  0  0  0  0  0  0  # atno 10718 bound_to 10713
  153.3966  135.7003  153.6456 H   0  0  0  0  0  0  0  0  0  0  0  0  # atno 10763 bound_to 10752
  153.5007  135.3653  155.2539 H   0  0  0  0  0  0  0  0  0  0  0  0  # atno 10764 bound_to 10752
  154.8707  135.4111  154.3292 H   0  0  0  0  0  0  0  0  0  0  0  0  # atno 10765 bound_to 10752
  141.1209  133.8521  157.1300 H   0  0  0  0  0  0  0  0  0  0  0  0  # atno 11005 bound_to 11000
  145.8377  139.2115  143.1845 LP  0  0  0  0  0  0  0  0  0  0  0  0  # atno 17320 bound_to 7965
  146.0374  140.8199  142.9846 LP  0  0  0  0  0  0  0  0  0  0  0  0  # atno 17321 bound_to 7965
  140.1959  144.4706  150.6455 LP  0  0  0  0  0  0  0  0  0  0  0  0  # atno 17342 bound_to 10162
  140.6571  143.2241  151.5943 LP  0  0  0  0  0  0  0  0  0  0  0  0  # atno 17343 bound_to 10162
  156.3131  130.3775  149.7643 LP  0  0  0  0  0  0  0  0  0  0  0  0  # atno 17370 bound_to 10713
  156.5237  130.8226  151.3213 LP  0  0  0  0  0  0  0  0  0  0  0  0  # atno 17371 bound_to 10713
  140.0165  134.9965  157.0504 LP  0  0  0  0  0  0  0  0  0  0  0  0  # atno 17394 bound_to 11000
  140.4511  134.1581  155.7181 LP  0  0  0  0  0  0  0  0  0  0  0  0  # atno 17395 bound_to 11000

$$$$
