AV-unprocessed.smi:99|AV-procd|sdf|890|dock3
  -GOLD-   2262017373D 1   1.00000     0.00000
 Structure written by MMmdl.
 52 55  0  0  0  0  0  0  0  0  2 V2000
  146.3613  137.9094  160.2354 O   0  0  0  0  0  0  0  0  0  0  0  0
  146.7951  136.8657  159.7440 C   0  0  0  0  0  0  0  0  0  0  0  0
  147.0217  136.6978  158.4296 O   0  0  0  0  0  0  0  0  0  0  0  0
  146.5995  137.6758  157.4925 C   0  0  0  0  0  0  0  0  0  0  0  0
  147.4926  137.6164  156.2457 C   0  0  1  0  0  0  0  0  0  0  0  0
  148.5311  138.5787  156.3279 O   0  0  0  0  0  0  0  0  0  0  0  0
  149.6233  138.1569  155.5686 C   0  0  1  0  0  0  0  0  0  0  0  0
  150.8815  138.3897  156.3795 N   0  0  0  0  0  0  0  0  0  0  0  0
  150.9957  137.8677  157.6564 C   0  0  0  0  0  0  0  0  0  0  0  0
  152.1085  138.0531  158.3950 C   0  0  0  0  0  0  0  0  0  0  0  0
  153.2180  138.8207  157.8363 C   0  0  0  0  0  0  0  0  0  0  0  0
  154.2248  138.9958  158.5198 O   0  0  0  0  0  0  0  0  0  0  0  0
  153.0871  139.3114  156.5695 N   0  5  0  0  0  0  0  0  0  0  0  0
  151.9653  139.1164  155.8165 C   0  0  0  0  0  0  0  0  0  0  0  0
  151.8492  139.5284  154.6620 O   0  0  0  0  0  0  0  0  0  0  0  0
  149.4144  136.6699  155.1927 C   0  0  1  0  0  0  0  0  0  0  0  0
  150.5042  135.8206  155.5025 O   0  0  0  0  0  0  0  0  0  0  0  0
  148.1956  136.2779  156.0164 C   0  0  2  0  0  0  0  0  0  0  0  0
  147.3391  135.4159  155.2782 O   0  0  0  0  0  0  0  0  0  0  0  0
  147.8386  134.3637  154.5956 C   0  0  0  0  0  0  0  0  0  0  0  0
  148.8514  133.7463  154.9303 O   0  0  0  0  0  0  0  0  0  0  0  0
  147.0304  134.0216  153.3897 C   0  0  0  0  0  0  0  0  0  0  0  0
  145.8140  134.7041  153.1542 C   0  0  0  0  0  0  0  0  0  0  0  0
  145.0297  134.4030  152.0239 C   0  0  0  0  0  0  0  0  0  0  0  0
  145.4513  133.4147  151.1156 C   0  0  0  0  0  0  0  0  0  0  0  0
  146.6589  132.7278  151.3389 C   0  0  0  0  0  0  0  0  0  0  0  0
  147.4452  133.0282  152.4684 C   0  0  0  0  0  0  0  0  0  0  0  0
  147.1339  135.6537  160.5443 C   0  0  0  0  0  0  0  0  0  0  0  0
  147.4335  134.4433  159.8771 C   0  0  0  0  0  0  0  0  0  0  0  0
  147.7509  133.2816  160.6075 C   0  0  0  0  0  0  0  0  0  0  0  0
  147.7732  133.3164  162.0141 C   0  0  0  0  0  0  0  0  0  0  0  0
  147.4803  134.5153  162.6897 C   0  0  0  0  0  0  0  0  0  0  0  0
  147.1647  135.6783  161.9610 C   0  0  0  0  0  0  0  0  0  0  0  0
  145.5614  137.4840  157.2180 H   0  0  0  0  0  0  0  0  0  0  0  0
  146.6443  138.6719  157.9347 H   0  0  0  0  0  0  0  0  0  0  0  0
  146.9016  137.8722  155.3645 H   0  0  0  0  0  0  0  0  0  0  0  0
  149.6894  138.8073  154.6958 H   0  0  0  0  0  0  0  0  0  0  0  0
  150.1835  137.2951  158.0757 H   0  0  0  0  0  0  0  0  0  0  0  0
  152.1796  137.6363  159.3889 H   0  0  0  0  0  0  0  0  0  0  0  0
  149.1976  136.6241  154.1245 H   0  0  0  0  0  0  0  0  0  0  0  0
  151.2481  136.0912  154.9851 H   0  0  0  0  0  0  0  0  0  0  0  0
  148.5075  135.8552  156.9726 H   0  0  0  0  0  0  0  0  0  0  0  0
  145.4692  135.4667  153.8376 H   0  0  0  0  0  0  0  0  0  0  0  0
  144.1031  134.9316  151.8541 H   0  0  0  0  0  0  0  0  0  0  0  0
  144.8493  133.1839  150.2491 H   0  0  0  0  0  0  0  0  0  0  0  0
  146.9833  131.9686  150.6426 H   0  0  0  0  0  0  0  0  0  0  0  0
  148.3663  132.4818  152.6097 H   0  0  0  0  0  0  0  0  0  0  0  0
  147.4202  134.3917  158.7979 H   0  0  0  0  0  0  0  0  0  0  0  0
  147.9765  132.3624  160.0871 H   0  0  0  0  0  0  0  0  0  0  0  0
  148.0157  132.4253  162.5740 H   0  0  0  0  0  0  0  0  0  0  0  0
  147.4986  134.5447  163.7692 H   0  0  0  0  0  0  0  0  0  0  0  0
  146.9516  136.5823  162.5121 H   0  0  0  0  0  0  0  0  0  0  0  0
  1  2  2  0  0  0  0
  2  3  1  0  0  0  0
  2 28  1  0  0  0  0
  3  4  1  0  0  0  0
  4  5  1  0  0  0  0
  4 34  1  0  0  0  0
  4 35  1  0  0  0  0
  5 18  1  0  0  0  0
  5  6  1  0  0  0  0
  5 36  1  0  0  0  0
  6  7  1  0  0  0  0
  7  8  1  0  0  0  0
  7 16  1  0  0  0  0
  7 37  1  0  0  0  0
  8 14  1  0  0  0  0
  8  9  1  0  0  0  0
  9 10  2  0  0  0  0
  9 38  1  0  0  0  0
 10 11  1  0  0  0  0
 10 39  1  0  0  0  0
 11 12  2  0  0  0  0
 11 13  1  0  0  0  0
 13 14  1  0  0  0  0
 14 15  2  0  0  0  0
 16 17  1  0  0  0  0
 16 18  1  0  0  0  0
 16 40  1  0  0  0  0
 17 41  1  0  0  0  0
 18 19  1  0  0  0  0
 18 42  1  0  0  0  0
 19 20  1  0  0  0  0
 20 21  2  0  0  0  0
 20 22  1  0  0  0  0
 22 27  1  0  0  0  0
 22 23  2  0  0  0  0
 23 24  1  0  0  0  0
 23 43  1  0  0  0  0
 24 25  2  0  0  0  0
 24 44  1  0  0  0  0
 25 26  1  0  0  0  0
 25 45  1  0  0  0  0
 26 27  2  0  0  0  0
 26 46  1  0  0  0  0
 27 47  1  0  0  0  0
 28 33  1  0  0  0  0
 28 29  2  0  0  0  0
 29 30  1  0  0  0  0
 29 48  1  0  0  0  0
 30 31  2  0  0  0  0
 30 49  1  0  0  0  0
 31 32  1  0  0  0  0
 31 50  1  0  0  0  0
 32 33  2  0  0  0  0
 32 51  1  0  0  0  0
 33 52  1  0  0  0  0
M  CHG  1  13  -1
M  END
> <s_m_source_file>
AV-unprocessed.smi

> <i_m_source_file_index>
99

> <i_lp_mmshare_version>
43012

> <i_f3d_flags>
0

> <s_epik_input>
W2NIXTFbY0hdW2NIXVtjSF1bY0hdYzFDKD1PKU9bQ0gyXVtDQEBIXTJPW0NAQEhdKG4zW2NIXVtjSF1jKD1PKVtuSF1jMz1PKVtDQEBIXShbT0hdKVtDQEhdMk9DKD1PKWM0W2NIXVtjSF1bY0hdW2NIXVtjSF00

> <s_epik_cmdline>
J2VwaWtfcHl0aG9uJywgJy1waCcsICc3LjAnLCAnLXRuJywgJzgnLCAnLW1hJywgJzIwMCcsICctbWV0YWxfYmluZGluZycsICctaW1hZScsICc8aW5maWxlLm1hZT4nLCAnLW9tYWUnLCAnPG91dGZpbGUubWFlPic=

> <r_lp_tautomer_probability>
1

> <r_epik_Ionization_Penalty>
2.89159

> <r_epik_Ionization_Penalty_Charging>
2.1077e-08

> <r_epik_Ionization_Penalty_Neutral>
2.89159

> <r_epik_State_Penalty>
2.88671

> <r_epik_Charging_Adjusted_Penalty>
2.88671

> <i_epik_Tot_Q>
-1

> <i_epik_Tot_abs_Q>
1

> <r_epik_Metal_State_Penalty>
0.0727308

> <b_epik_Metal_Only>
1

> <s_epik_Chemistry_Notes>
This compound has an ester and may undergo hydrolysis at high or low pH. This compound contains an acetal/aminal-like group ( X-CH(R)-Y where X, Y are N, S, or O) that may be acid/base labile, releasing an aldehyde.

> <s_lp_Force_Field>
OPLS_2005

> <r_lp_Energy>
45.1404

> <b_lp_Chiralities_Consistent>
1

> <s_lp_Variant>
AV-unprocessed.smi:99-26

> <Gold.Version>
5.8.1

> <Gold.Id.Protein>
6NUR|6NUR_protein|mol2

> <Gold.PLP.Fitness>
47.9979

> <Gold.PLP.PLP>
-37.7500

> <Gold.PLP.part.hbond>
-3.9735

> <Gold.PLP.part.metal>
0.0000

> <Gold.PLP.part.buried>
-6.2395

> <Gold.PLP.part.nonpolar>
-27.8473

> <Gold.PLP.part.repulsive>
0.1850

> <Gold.PLP.ligand.clash>
0.0000

> <Gold.PLP.ligand.torsion>
1.3850

> <Gold.PLP.Chemscore.Hbond>
4.1759

> <Gold.PLP.Chemscore.CHOScore>
0.0000

> <Gold.PLP.Chemscore.Metal>
0.0000

> <Gold.Chemscore.Hbonds>
donor molecule, donor type, donor heavy atom, donor atom, acceptor molecule, acceptor atom, score
      P1  H  6934  6947       L1     1  0.99
      P1  H  7989  7998       L1    15  1.00
      P1  H  7997  8008       L1    13  1.86
      P1  H  7997  8010       L1    12  0.39

> <Gold.PLP.Chemscore.Internal.Correction>
0.4903

> <Gold.Rescore>
     Score         DG    S(hbond)    S(metal)    S(lipo)     H(rot)  DE(clash)    DE(int)     intcor
     13.31     -16.09       2.91        0.00      76.22       3.13       0.05       2.73       ----

> <Gold.Chemscore.Fitness>
13.3121

> <Gold.Chemscore.DG>
-16.0942

> <Gold.Chemscore.ZeroCoef>
-5.4800

> <Gold.Chemscore.Hbond>
2.9105

> <Gold.Chemscore.Metal>
0.0000

> <Gold.Chemscore.Lipo>
76.2206

> <Gold.Chemscore.Internal_Hbond>
0.0000

> <Gold.Chemscore.DEClash>
0.0494

> <Gold.Chemscore.DEInternal>
2.7327

> <Gold.Chemscore.Rot>
3.1346

> <Gold.Chemscore.Internal.Correction>
   9.000000E+99

> <Gold.Chemscore.Hbonds>
donor molecule, donor type, donor heavy atom, donor atom, acceptor molecule, acceptor atom, score
      P1  H  6934  6947       L1     1  0.91
      P1  H  7989  7998       L1    15  0.94
      P1  H  7997  8008       L1    13  0.69
      P1  H  7997  8010       L1    12  0.20

> <Gold.Chemscore.Hbond.Weighted>
-9.7209

> <Gold.Chemscore.Metal.Weighted>
-0.0000

> <Gold.Chemscore.Lipo.Weighted>
-8.9178

> <Gold.Chemscore.Internal_Hbond.Weighted>
0.0000

> <Gold.Chemscore.DEClash.Weighted>
0.0494

> <Gold.Chemscore.DEInternal.Weighted>
2.7327

> <Gold.Chemscore.Rot.Weighted>
8.0246

> <Gold.Chemscore.Internal.Correction.Weighted>
   9.000000E+99

> <Gold.Protein.RotatedTorsions>
[ 6907 6896 6895 6894 ] final  146.96 input  -60.11 | X-H torsion
[ 7974 7965 7964 7962 ] final  -74.65 input  175.53 | X-H torsion
[ 8008 7997 7996 7995 ] final  -30.00 input   59.86 | X-H torsion
[ 10167 10162 10161 10158 ] final -161.90 input  -65.29 | X-H torsion
[ 10718 10713 10712 10709 ] final   11.14 input   66.30 | X-H torsion
[ 10763 10752 10751 10750 ] final   54.70 input  -60.55 | X-H torsion
[ 11005 11000 10999 10996 ] final  129.91 input  -57.11 | X-H torsion

> <Gold.Protein.ActiveResidues>
 VAL166  LYS551  ARG553  GLY616  TRP617  ASP618  TYR619  PRO620  LYS621  CYS622 
 ASP623  PHE694  ASN695  SER759  ASP760  ASP761  ALA762  ILE779  LEU786  VAL792 
 PHE793  MET794  SER795  GLU796  ALA797  LYS798  CYS799  TRP800  GLU811  SER814 

> <Gold.Protein.RotatedAtoms>
  152.1611  133.4582  159.4860 H   0  0  0  0  0  0  0  0  0  0  0  0  # atno 6907 bound_to 6896
  150.6907  134.2071  159.4353 H   0  0  0  0  0  0  0  0  0  0  0  0  # atno 6908 bound_to 6896
  151.9973  134.9947  160.0614 H   0  0  0  0  0  0  0  0  0  0  0  0  # atno 6909 bound_to 6896
  145.6363  140.9323  143.1059 H   0  0  0  0  0  0  0  0  0  0  0  0  # atno 7974 bound_to 7965
  154.4267  140.1803  156.1337 H   0  0  0  0  0  0  0  0  0  0  0  0  # atno 8008 bound_to 7997
  156.0047  140.3356  155.6855 H   0  0  0  0  0  0  0  0  0  0  0  0  # atno 8009 bound_to 7997
  155.6194  140.0658  157.2673 H   0  0  0  0  0  0  0  0  0  0  0  0  # atno 8010 bound_to 7997
  139.6431  144.0222  152.2107 H   0  0  0  0  0  0  0  0  0  0  0  0  # atno 10167 bound_to 10162
  156.9912  130.6043  149.5686 H   0  0  0  0  0  0  0  0  0  0  0  0  # atno 10718 bound_to 10713
  152.9808  135.5736  154.4947 H   0  0  0  0  0  0  0  0  0  0  0  0  # atno 10763 bound_to 10752
  154.4476  135.2777  155.1806 H   0  0  0  0  0  0  0  0  0  0  0  0  # atno 10764 bound_to 10752
  154.3447  135.6222  153.5667 H   0  0  0  0  0  0  0  0  0  0  0  0  # atno 10765 bound_to 10752
  139.9642  134.9595  156.9217 H   0  0  0  0  0  0  0  0  0  0  0  0  # atno 11005 bound_to 11000
  144.7174  139.8148  143.7394 LP  0  0  0  0  0  0  0  0  0  0  0  0  # atno 17320 bound_to 7965
  146.1316  139.4353  143.0165 LP  0  0  0  0  0  0  0  0  0  0  0  0  # atno 17321 bound_to 7965
  139.9917  144.6357  150.7809 LP  0  0  0  0  0  0  0  0  0  0  0  0  # atno 17342 bound_to 10162
  140.7501  143.2950  151.3230 LP  0  0  0  0  0  0  0  0  0  0  0  0  # atno 17343 bound_to 10162
  156.0206  130.5301  150.8265 LP  0  0  0  0  0  0  0  0  0  0  0  0  # atno 17370 bound_to 10713
  157.5457  131.0942  150.9766 LP  0  0  0  0  0  0  0  0  0  0  0  0  # atno 17371 bound_to 10713
  140.5433  134.0698  155.7348 LP  0  0  0  0  0  0  0  0  0  0  0  0  # atno 17394 bound_to 11000
  141.1321  133.9284  157.2513 LP  0  0  0  0  0  0  0  0  0  0  0  0  # atno 17395 bound_to 11000

$$$$
