AV-unprocessed.smi:3110|AV-procd|sdf|11831|dock9
  -GOLD-   2272017203D 1   1.00000     0.00000
 Structure written by MMmdl.
 33 34  0  0  0  0  0  0  0  0  1 V2000
  152.4910  140.7268  157.6551 O   0  0  0  0  0  0  0  0  0  0  0  0
  151.5050  141.3269  157.2270 C   0  0  0  0  0  0  0  0  0  0  0  0
  151.2391  142.7770  157.6443 C   0  0  0  0  0  0  0  0  0  0  0  0
  152.2796  143.3249  158.6431 C   0  0  1  0  0  0  0  0  0  0  0  0
  151.8836  144.6683  159.1991 C   0  0  0  0  0  0  0  0  0  0  0  0
  151.9299  144.7098  160.5287 C   0  0  0  0  0  0  0  0  0  0  0  0
  152.3648  143.4024  161.1303 C   0  0  0  0  0  0  0  0  0  0  0  0
  152.4716  142.4552  159.9148 C   0  0  0  0  0  0  0  0  0  0  0  0
  150.6149  140.7751  156.3882 N   0  0  0  0  0  0  0  0  0  0  0  0
  150.6789  139.4100  155.8805 C   0  0  0  0  0  0  0  0  0  0  0  0
  150.3843  139.3536  154.3723 C   0  0  0  0  0  0  0  0  0  0  0  0
  149.0315  139.7815  154.0801 N   0  0  0  0  0  0  0  0  0  0  0  0
  147.9846  138.9960  153.6162 C   0  0  0  0  0  0  0  0  0  0  0  0
  146.8959  139.8290  153.4886 C   0  0  0  0  0  0  0  0  0  0  0  0
  147.2477  141.1224  153.8674 N   0  0  0  0  0  0  0  0  0  0  0  0
  148.5269  141.0167  154.2038 C   0  0  0  0  0  0  0  0  0  0  0  0
  151.2383  143.3889  156.7416 H   0  0  0  0  0  0  0  0  0  0  0  0
  150.2387  142.8592  158.0730 H   0  0  0  0  0  0  0  0  0  0  0  0
  153.2391  143.4614  158.1418 H   0  0  0  0  0  0  0  0  0  0  0  0
  151.6116  145.4967  158.5615 H   0  0  0  0  0  0  0  0  0  0  0  0
  151.7012  145.5750  161.1335 H   0  0  0  0  0  0  0  0  0  0  0  0
  153.3256  143.5275  161.6305 H   0  0  0  0  0  0  0  0  0  0  0  0
  151.6345  143.0489  161.8585 H   0  0  0  0  0  0  0  0  0  0  0  0
  151.6933  141.6941  159.9850 H   0  0  0  0  0  0  0  0  0  0  0  0
  153.4279  141.9312  159.8981 H   0  0  0  0  0  0  0  0  0  0  0  0
  149.8350  141.3399  156.0840 H   0  0  0  0  0  0  0  0  0  0  0  0
  151.6788  139.0225  156.0784 H   0  0  0  0  0  0  0  0  0  0  0  0
  149.9843  138.7739  156.4323 H   0  0  0  0  0  0  0  0  0  0  0  0
  151.0736  139.9919  153.8176 H   0  0  0  0  0  0  0  0  0  0  0  0
  150.5178  138.3388  153.9950 H   0  0  0  0  0  0  0  0  0  0  0  0
  148.0971  137.9396  153.4216 H   0  0  0  0  0  0  0  0  0  0  0  0
  145.8940  139.5986  153.1570 H   0  0  0  0  0  0  0  0  0  0  0  0
  149.1101  141.8567  154.5523 H   0  0  0  0  0  0  0  0  0  0  0  0
  1  2  2  0  0  0  0
  2  3  1  0  0  0  0
  2  9  1  0  0  0  0
  3  4  1  0  0  0  0
  3 17  1  0  0  0  0
  3 18  1  0  0  0  0
  4  8  1  0  0  0  0
  4  5  1  0  0  0  0
  4 19  1  0  0  0  0
  5  6  2  0  0  0  0
  5 20  1  0  0  0  0
  6  7  1  0  0  0  0
  6 21  1  0  0  0  0
  7  8  1  0  0  0  0
  7 22  1  0  0  0  0
  7 23  1  0  0  0  0
  8 24  1  0  0  0  0
  8 25  1  0  0  0  0
  9 10  1  0  0  0  0
  9 26  1  0  0  0  0
 10 11  1  0  0  0  0
 10 27  1  0  0  0  0
 10 28  1  0  0  0  0
 11 12  1  0  0  0  0
 11 29  1  0  0  0  0
 11 30  1  0  0  0  0
 12 16  1  0  0  0  0
 12 13  1  0  0  0  0
 13 14  2  0  0  0  0
 13 31  1  0  0  0  0
 14 15  1  0  0  0  0
 14 32  1  0  0  0  0
 15 16  2  0  0  0  0
 16 33  1  0  0  0  0
M  END
> <s_m_source_file>
AV-unprocessed.smi

> <i_m_source_file_index>
3110

> <i_lp_mmshare_version>
43012

> <i_f3d_flags>
0

> <s_epik_input>
W0NIMl0xW0NIMl1bQ0hdPVtDSF1bQ0BIXTFbQ0gyXUMoPU8pW05IXVtDSDJdW0NIMl1uMltjSF1bY0hdbltjSF0y

> <s_epik_cmdline>
J2VwaWtfcHl0aG9uJywgJy1waCcsICc3LjAnLCAnLXRuJywgJzgnLCAnLW1hJywgJzIwMCcsICctbWV0YWxfYmluZGluZycsICctaW1hZScsICc8aW5maWxlLm1hZT4nLCAnLW9tYWUnLCAnPG91dGZpbGUubWFlPic=

> <r_lp_tautomer_probability>
1

> <r_epik_Ionization_Penalty>
0.593629

> <r_epik_Ionization_Penalty_Charging>
0.593629

> <r_epik_Ionization_Penalty_Neutral>
1.57355e-08

> <r_epik_State_Penalty>
0.607413

> <r_epik_Charging_Adjusted_Penalty>
1.20104

> <i_epik_Tot_Q>
0

> <i_epik_Tot_abs_Q>
0

> <r_epik_Metal_State_Penalty>
0.299385

> <b_epik_Metal_Only>
0

> <s_lp_Force_Field>
OPLS_2005

> <r_lp_Energy>
16.9466

> <b_lp_Chiralities_Consistent>
1

> <s_lp_Variant>
AV-unprocessed.smi:3110-4

> <Gold.Version>
5.8.1

> <Gold.Id.Protein>
6NUR|6NUR_protein|mol2

> <Gold.PLP.Fitness>
44.2214

> <Gold.PLP.PLP>
-37.4649

> <Gold.PLP.part.hbond>
-0.8905

> <Gold.PLP.part.metal>
0.0000

> <Gold.PLP.part.buried>
-0.2963

> <Gold.PLP.part.nonpolar>
-35.2780

> <Gold.PLP.part.repulsive>
0.2382

> <Gold.PLP.ligand.clash>
0.0000

> <Gold.PLP.ligand.torsion>
0.2026

> <Gold.PLP.Chemscore.Hbond>
0.3744

> <Gold.PLP.Chemscore.CHOScore>
2.0000

> <Gold.PLP.Chemscore.Metal>
0.0000

> <Gold.Chemscore.Hbonds>
donor molecule, donor type, donor heavy atom, donor atom, acceptor molecule, acceptor atom, score
      P1  H  7997  8010       L1     1  0.40
      L1  C    13    31       P1  7948  1.00
      L1  C    14    32       P1 10175  1.00

> <Gold.PLP.Chemscore.Internal.Correction>
0.0384

> <Gold.Rescore>
     Score         DG    S(hbond)    S(metal)    S(lipo)     H(rot)  DE(clash)    DE(int)     intcor
     12.22     -14.34       0.85        0.00      95.49       2.01       0.46       1.66       ----

> <Gold.Chemscore.Fitness>
12.2207

> <Gold.Chemscore.DG>
-14.3419

> <Gold.Chemscore.ZeroCoef>
-5.4800

> <Gold.Chemscore.Hbond>
0.8495

> <Gold.Chemscore.Metal>
0.0000

> <Gold.Chemscore.Lipo>
95.4894

> <Gold.Chemscore.Internal_Hbond>
0.0000

> <Gold.Chemscore.DEClash>
0.4646

> <Gold.Chemscore.DEInternal>
1.6567

> <Gold.Chemscore.Rot>
2.0108

> <Gold.Chemscore.Internal.Correction>
   9.000000E+99

> <Gold.Chemscore.Hbonds>
donor molecule, donor type, donor heavy atom, donor atom, acceptor molecule, acceptor atom, score
      P1  H  7997  8010       L1     1  0.41

> <Gold.Chemscore.Hbond.Weighted>
-2.8374

> <Gold.Chemscore.Metal.Weighted>
-0.0000

> <Gold.Chemscore.Lipo.Weighted>
-11.1723

> <Gold.Chemscore.Internal_Hbond.Weighted>
0.0000

> <Gold.Chemscore.DEClash.Weighted>
0.4646

> <Gold.Chemscore.DEInternal.Weighted>
1.6567

> <Gold.Chemscore.Rot.Weighted>
5.1477

> <Gold.Chemscore.Internal.Correction.Weighted>
   9.000000E+99

> <Gold.Protein.RotatedTorsions>
[ 6907 6896 6895 6894 ] final -112.38 input  -60.11 | X-H torsion
[ 7974 7965 7964 7962 ] final   76.02 input  175.53 | X-H torsion
[ 8008 7997 7996 7995 ] final   50.98 input   59.86 | X-H torsion
[ 10167 10162 10161 10158 ] final  -62.37 input  -65.29 | X-H torsion
[ 10718 10713 10712 10709 ] final -174.76 input   66.30 | X-H torsion
[ 10763 10752 10751 10750 ] final -111.74 input  -60.55 | X-H torsion
[ 11005 11000 10999 10996 ] final  -93.70 input  -57.11 | X-H torsion

> <Gold.Protein.ActiveResidues>
 VAL166  LYS551  ARG553  GLY616  TRP617  ASP618  TYR619  PRO620  LYS621  CYS622 
 ASP623  PHE694  ASN695  SER759  ASP760  ASP761  ALA762  ILE779  LEU786  VAL792 
 PHE793  MET794  SER795  GLU796  ALA797  LYS798  CYS799  TRP800  GLU811  SER814 

> <Gold.Protein.RotatedAtoms>
  150.7755  133.9097  159.3365 H   0  0  0  0  0  0  0  0  0  0  0  0  # atno 6907 bound_to 6896
  151.6973  135.0934  160.0254 H   0  0  0  0  0  0  0  0  0  0  0  0  # atno 6908 bound_to 6896
  152.3789  133.6480  159.6181 H   0  0  0  0  0  0  0  0  0  0  0  0  # atno 6909 bound_to 6896
  145.7082  139.2605  143.1666 H   0  0  0  0  0  0  0  0  0  0  0  0  # atno 7974 bound_to 7965
  155.4277  140.3449  155.4277 H   0  0  0  0  0  0  0  0  0  0  0  0  # atno 8008 bound_to 7997
  156.1355  140.1526  156.9032 H   0  0  0  0  0  0  0  0  0  0  0  0  # atno 8009 bound_to 7997
  154.4928  140.0836  156.7612 H   0  0  0  0  0  0  0  0  0  0  0  0  # atno 8010 bound_to 7997
  140.5943  143.2348  151.6070 H   0  0  0  0  0  0  0  0  0  0  0  0  # atno 10167 bound_to 10162
  156.7898  130.9514  151.3120 H   0  0  0  0  0  0  0  0  0  0  0  0  # atno 10718 bound_to 10713
  154.8315  135.4516  154.1086 H   0  0  0  0  0  0  0  0  0  0  0  0  # atno 10763 bound_to 10752
  153.2355  135.6910  153.7848 H   0  0  0  0  0  0  0  0  0  0  0  0  # atno 10764 bound_to 10752
  153.7215  135.3341  155.3244 H   0  0  0  0  0  0  0  0  0  0  0  0  # atno 10765 bound_to 10752
  141.1490  133.7906  157.0196 H   0  0  0  0  0  0  0  0  0  0  0  0  # atno 11005 bound_to 11000
  146.0737  140.7841  142.9675 LP  0  0  0  0  0  0  0  0  0  0  0  0  # atno 17320 bound_to 7965
  144.6949  140.3381  143.7204 LP  0  0  0  0  0  0  0  0  0  0  0  0  # atno 17321 bound_to 7965
  139.5248  144.3093  152.1007 LP  0  0  0  0  0  0  0  0  0  0  0  0  # atno 17342 bound_to 10162
  140.2263  144.4415  150.6320 LP  0  0  0  0  0  0  0  0  0  0  0  0  # atno 17343 bound_to 10162
  157.6606  130.8963  149.9822 LP  0  0  0  0  0  0  0  0  0  0  0  0  # atno 17370 bound_to 10713
  156.1166  130.3647  149.9958 LP  0  0  0  0  0  0  0  0  0  0  0  0  # atno 17371 bound_to 10713
  140.0824  134.9640  157.1646 LP  0  0  0  0  0  0  0  0  0  0  0  0  # atno 17394 bound_to 11000
  140.3558  134.2548  155.7193 LP  0  0  0  0  0  0  0  0  0  0  0  0  # atno 17395 bound_to 11000

$$$$
