AV-unprocessed.smi:1382|AV-procd|sdf|5621|dock2
  -GOLD-   22720 5233D 1   1.00000     0.00000
 Structure written by MMmdl.
 44 45  0  0  0  0  0  0  0  0  1 V2000
  152.0157  144.1320  159.0037 C   0  0  0  0  0  0  0  0  0  0  0  0
  151.5467  143.4929  157.6924 C   0  0  0  0  0  0  0  0  0  0  0  0
  150.7084  142.2251  157.9222 C   0  0  0  0  0  0  0  0  0  0  0  0
  150.5647  141.3294  156.6743 C   0  0  0  0  0  0  0  0  0  0  0  0
  150.4051  139.9169  156.9714 N   0  0  0  0  0  0  0  0  0  0  0  0
  149.2508  139.3558  157.5291 C   0  0  0  0  0  0  0  0  0  0  0  0
  148.1898  140.1985  157.8267 N   0  0  0  0  0  0  0  0  0  0  0  0
  149.1501  138.0140  157.7711 C   0  0  0  0  0  0  0  0  0  0  0  0
  148.0045  137.4573  158.3684 N   0  0  0  0  0  0  0  0  0  0  0  0
  146.7515  137.5379  157.6124 C   0  0  0  0  0  0  0  0  0  0  0  0
  148.0339  136.8144  159.5646 C   0  0  0  0  0  0  0  0  0  0  0  0
  149.0899  136.6397  160.1758 O   0  0  0  0  0  0  0  0  0  0  0  0
  146.7084  136.3131  160.1959 C   0  0  1  0  0  0  0  0  0  0  0  0
  146.7277  134.8542  160.6693 C   0  0  0  0  0  0  0  0  0  0  0  0
  147.3665  134.9195  162.0496 C   0  0  0  0  0  0  0  0  0  0  0  0
  147.2066  136.3852  162.4654 C   0  0  0  0  0  0  0  0  0  0  0  0
  146.4529  136.9942  161.4209 O   0  0  0  0  0  0  0  0  0  0  0  0
  150.2812  137.1178  157.4963 C   0  0  0  0  0  0  0  0  0  0  0  0
  150.3061  135.9063  157.7102 O   0  0  0  0  0  0  0  0  0  0  0  0
  151.4031  137.7395  156.9555 N   0  0  0  0  0  0  0  0  0  0  0  0
  151.5210  139.0965  156.6782 C   0  0  0  0  0  0  0  0  0  0  0  0
  152.5729  139.5254  156.2026 O   0  0  0  0  0  0  0  0  0  0  0  0
  152.2015  137.1560  156.7521 H   0  0  0  0  0  0  0  0  0  0  0  0
  152.6047  145.0285  158.8099 H   0  0  0  0  0  0  0  0  0  0  0  0
  152.6366  143.4434  159.5774 H   0  0  0  0  0  0  0  0  0  0  0  0
  151.1683  144.4190  159.6269 H   0  0  0  0  0  0  0  0  0  0  0  0
  150.9668  144.2256  157.1304 H   0  0  0  0  0  0  0  0  0  0  0  0
  152.4166  143.2503  157.0813 H   0  0  0  0  0  0  0  0  0  0  0  0
  151.1679  141.6360  158.7165 H   0  0  0  0  0  0  0  0  0  0  0  0
  149.7222  142.5061  158.2929 H   0  0  0  0  0  0  0  0  0  0  0  0
  149.7169  141.6373  156.0644 H   0  0  0  0  0  0  0  0  0  0  0  0
  151.4289  141.4239  156.0139 H   0  0  0  0  0  0  0  0  0  0  0  0
  148.2347  141.1923  157.6511 H   0  0  0  0  0  0  0  0  0  0  0  0
  147.3152  139.8464  158.1884 H   0  0  0  0  0  0  0  0  0  0  0  0
  146.3928  136.5410  157.3519 H   0  0  0  0  0  0  0  0  0  0  0  0
  146.8758  138.0986  156.6846 H   0  0  0  0  0  0  0  0  0  0  0  0
  145.9787  138.0414  158.1953 H   0  0  0  0  0  0  0  0  0  0  0  0
  145.8910  136.4695  159.4924 H   0  0  0  0  0  0  0  0  0  0  0  0
  145.7020  134.4948  160.7603 H   0  0  0  0  0  0  0  0  0  0  0  0
  147.2458  134.1722  159.9939 H   0  0  0  0  0  0  0  0  0  0  0  0
  146.8779  134.2382  162.7468 H   0  0  0  0  0  0  0  0  0  0  0  0
  148.4231  134.6527  162.0039 H   0  0  0  0  0  0  0  0  0  0  0  0
  146.6928  136.4931  163.4206 H   0  0  0  0  0  0  0  0  0  0  0  0
  148.1792  136.8724  162.5477 H   0  0  0  0  0  0  0  0  0  0  0  0
  1  2  1  0  0  0  0
  1 24  1  0  0  0  0
  1 25  1  0  0  0  0
  1 26  1  0  0  0  0
  2  3  1  0  0  0  0
  2 27  1  0  0  0  0
  2 28  1  0  0  0  0
  3  4  1  0  0  0  0
  3 29  1  0  0  0  0
  3 30  1  0  0  0  0
  4  5  1  0  0  0  0
  4 31  1  0  0  0  0
  4 32  1  0  0  0  0
  5 21  1  0  0  0  0
  5  6  1  0  0  0  0
  6  7  1  0  0  0  0
  6  8  2  0  0  0  0
  7 33  1  0  0  0  0
  7 34  1  0  0  0  0
  8  9  1  0  0  0  0
  8 18  1  0  0  0  0
  9 10  1  0  0  0  0
  9 11  1  0  0  0  0
 10 35  1  0  0  0  0
 10 36  1  0  0  0  0
 10 37  1  0  0  0  0
 11 12  2  0  0  0  0
 11 13  1  0  0  0  0
 13 17  1  0  0  0  0
 13 14  1  0  0  0  0
 13 38  1  0  0  0  0
 14 15  1  0  0  0  0
 14 39  1  0  0  0  0
 14 40  1  0  0  0  0
 15 16  1  0  0  0  0
 15 41  1  0  0  0  0
 15 42  1  0  0  0  0
 16 17  1  0  0  0  0
 16 43  1  0  0  0  0
 16 44  1  0  0  0  0
 18 19  2  0  0  0  0
 18 20  1  0  0  0  0
 20 23  1  0  0  0  0
 20 21  1  0  0  0  0
 21 22  2  0  0  0  0
M  END
> <s_m_source_file>
AV-unprocessed.smi

> <i_m_source_file_index>
1382

> <i_lp_mmshare_version>
43012

> <i_f3d_flags>
0

> <s_epik_input>
W0NIM11bQ0gyXVtDSDJdW0NIMl1uMWMoW05IMl0pYyhjKD1PKVtuSF1jMT1PKU4oW0NIM10pQyg9TylbQ0BASF0yW0NIMl1bQ0gyXVtDSDJdTzI=

> <s_epik_cmdline>
J2VwaWtfcHl0aG9uJywgJy1waCcsICc3LjAnLCAnLXRuJywgJzgnLCAnLW1hJywgJzIwMCcsICctbWV0YWxfYmluZGluZycsICctaW1hZScsICc8aW5maWxlLm1hZT4nLCAnLW9tYWUnLCAnPG91dGZpbGUubWFlPic=

> <r_lp_tautomer_probability>
1

> <r_epik_Ionization_Penalty>
1.19634e-05

> <r_epik_Ionization_Penalty_Charging>
6.01811e-06

> <r_epik_Ionization_Penalty_Neutral>
5.94533e-06

> <r_epik_State_Penalty>
-0

> <r_epik_Charging_Adjusted_Penalty>
6.01811e-06

> <i_epik_Tot_Q>
0

> <i_epik_Tot_abs_Q>
0

> <r_epik_Metal_State_Penalty>
-0

> <b_epik_Metal_Only>
0

> <s_epik_Chemistry_Notes>
This compound has an imine and may undergo hydrolysis.

> <s_lp_Force_Field>
OPLS_2005

> <r_lp_Energy>
42.8449

> <b_lp_Chiralities_Consistent>
1

> <s_lp_Variant>
AV-unprocessed.smi:1382-2

> <Gold.Version>
5.8.1

> <Gold.Id.Protein>
6NUR|6NUR_protein|mol2

> <Gold.PLP.Fitness>
43.5382

> <Gold.PLP.PLP>
-34.8461

> <Gold.PLP.part.hbond>
-4.0000

> <Gold.PLP.part.metal>
0.0000

> <Gold.PLP.part.buried>
-4.4617

> <Gold.PLP.part.nonpolar>
-26.6948

> <Gold.PLP.part.repulsive>
0.2246

> <Gold.PLP.ligand.clash>
0.0000

> <Gold.PLP.ligand.torsion>
1.6484

> <Gold.PLP.Chemscore.Hbond>
3.2320

> <Gold.PLP.Chemscore.CHOScore>
0.0000

> <Gold.PLP.Chemscore.Metal>
0.0000

> <Gold.Chemscore.Hbonds>
donor molecule, donor type, donor heavy atom, donor atom, acceptor molecule, acceptor atom, score
      P1  H  6896  6907       L1    19  0.25
      P1  H  6931  6943       L1    12  0.15
      P1  H  6934  6947       L1    17  0.57
      P1  H  7997  8008       L1    22  1.00

> <Gold.PLP.Chemscore.Internal.Correction>
2.2929

> <Gold.Rescore>
     Score         DG    S(hbond)    S(metal)    S(lipo)     H(rot)  DE(clash)    DE(int)     intcor
     13.60     -17.15       2.37        0.00      69.16       1.69       0.00       3.55       ----

> <Gold.Chemscore.Fitness>
13.5960

> <Gold.Chemscore.DG>
-17.1513

> <Gold.Chemscore.ZeroCoef>
-5.4800

> <Gold.Chemscore.Hbond>
2.3705

> <Gold.Chemscore.Metal>
0.0000

> <Gold.Chemscore.Lipo>
69.1558

> <Gold.Chemscore.Internal_Hbond>
0.0000

> <Gold.Chemscore.DEClash>
0.0029

> <Gold.Chemscore.DEInternal>
3.5524

> <Gold.Chemscore.Rot>
1.6942

> <Gold.Chemscore.Internal.Correction>
   9.000000E+99

> <Gold.Chemscore.Hbonds>
donor molecule, donor type, donor heavy atom, donor atom, acceptor molecule, acceptor atom, score
      P1  H  6896  6907       L1    19  0.24
      P1  H  6931  6943       L1    12  0.08
      P1  H  6934  6947       L1    17  0.14
      P1  H  7997  8008       L1    22  1.00

> <Gold.Chemscore.Hbond.Weighted>
-7.9174

> <Gold.Chemscore.Metal.Weighted>
-0.0000

> <Gold.Chemscore.Lipo.Weighted>
-8.0912

> <Gold.Chemscore.Internal_Hbond.Weighted>
0.0000

> <Gold.Chemscore.DEClash.Weighted>
0.0029

> <Gold.Chemscore.DEInternal.Weighted>
3.5524

> <Gold.Chemscore.Rot.Weighted>
4.3372

> <Gold.Chemscore.Internal.Correction.Weighted>
   9.000000E+99

> <Gold.Protein.RotatedTorsions>
[ 6907 6896 6895 6894 ] final  -49.86 input  -60.11 | X-H torsion
[ 7974 7965 7964 7962 ] final  -29.23 input  175.53 | X-H torsion
[ 8008 7997 7996 7995 ] final  -49.80 input   59.86 | X-H torsion
[ 10167 10162 10161 10158 ] final  121.05 input  -65.29 | X-H torsion
[ 10718 10713 10712 10709 ] final   93.19 input   66.30 | X-H torsion
[ 10763 10752 10751 10750 ] final -108.81 input  -60.55 | X-H torsion
[ 11005 11000 10999 10996 ] final   55.64 input  -57.11 | X-H torsion

> <Gold.Protein.ActiveResidues>
 VAL166  LYS551  ARG553  GLY616  TRP617  ASP618  TYR619  PRO620  LYS621  CYS622 
 ASP623  PHE694  ASN695  SER759  ASP760  ASP761  ALA762  ILE779  LEU786  VAL792 
 PHE793  MET794  SER795  GLU796  ALA797  LYS798  CYS799  TRP800  GLU811  SER814 

> <Gold.Protein.RotatedAtoms>
  150.8764  134.8147  159.7192 H   0  0  0  0  0  0  0  0  0  0  0  0  # atno 6907 bound_to 6896
  152.4749  134.4865  159.9692 H   0  0  0  0  0  0  0  0  0  0  0  0  # atno 6908 bound_to 6896
  151.4947  133.3479  159.2894 H   0  0  0  0  0  0  0  0  0  0  0  0  # atno 6909 bound_to 6896
  146.1232  140.5385  142.8726 H   0  0  0  0  0  0  0  0  0  0  0  0  # atno 7974 bound_to 7965
  154.4050  140.1288  156.4562 H   0  0  0  0  0  0  0  0  0  0  0  0  # atno 8008 bound_to 7997
  155.7318  140.3491  155.5043 H   0  0  0  0  0  0  0  0  0  0  0  0  # atno 8009 bound_to 7997
  155.9120  140.1037  157.1262 H   0  0  0  0  0  0  0  0  0  0  0  0  # atno 8010 bound_to 7997
  139.5944  144.7036  151.3212 H   0  0  0  0  0  0  0  0  0  0  0  0  # atno 10167 bound_to 10162
  157.6956  131.0469  150.3996 H   0  0  0  0  0  0  0  0  0  0  0  0  # atno 10718 bound_to 10713
  154.8157  135.4624  154.0636 H   0  0  0  0  0  0  0  0  0  0  0  0  # atno 10763 bound_to 10752
  153.2031  135.6871  153.8212 H   0  0  0  0  0  0  0  0  0  0  0  0  # atno 10764 bound_to 10752
  153.7690  135.3273  155.3326 H   0  0  0  0  0  0  0  0  0  0  0  0  # atno 10765 bound_to 10752
  140.0591  134.5628  155.9173 H   0  0  0  0  0  0  0  0  0  0  0  0  # atno 11005 bound_to 11000
  144.7617  140.5436  143.6731 LP  0  0  0  0  0  0  0  0  0  0  0  0  # atno 17320 bound_to 7965
  145.5422  139.1475  143.3440 LP  0  0  0  0  0  0  0  0  0  0  0  0  # atno 17321 bound_to 7965
  140.7200  143.7163  150.7730 LP  0  0  0  0  0  0  0  0  0  0  0  0  # atno 17342 bound_to 10162
  140.0726  143.5046  152.2572 LP  0  0  0  0  0  0  0  0  0  0  0  0  # atno 17343 bound_to 10162
  156.4390  130.3988  149.6709 LP  0  0  0  0  0  0  0  0  0  0  0  0  # atno 17370 bound_to 10713
  156.3899  130.7622  151.2622 LP  0  0  0  0  0  0  0  0  0  0  0  0  # atno 17371 bound_to 10713
  141.1965  133.6592  156.5696 LP  0  0  0  0  0  0  0  0  0  0  0  0  # atno 17394 bound_to 11000
  140.3798  134.7533  157.4653 LP  0  0  0  0  0  0  0  0  0  0  0  0  # atno 17395 bound_to 11000

$$$$
