#       Name:                AV-unprocessed.smi:1535
#       Creating user name   scv26
#       Creation time:       Fri Mar 27 06:32:55 2020


#       File generated by GOLD software.
#

@<TRIPOS>MOLECULE
AV-unprocessed.smi:1535
    51    52     1
SMALL
NO_CHARGES


@<TRIPOS>ATOM
      1 ****        -1.6221   3.2532   5.1292 C.3            1 S1                 0.0000
      2 ****        -1.6052   2.7072   3.7115 C.ar           1 S1                 0.0000
      3 ****        -2.8382   2.4039   3.0911 C.ar           1 S1                 0.0000
      4 ****        -2.7903   1.9037   1.7953 C.ar           1 S1                 0.0000
      5 ****        -3.8117   1.5126   0.9269 N.pl3          1 S1                 1.0000
      6 ****        -3.2705   1.0824  -0.2465 C.2            1 S1                 0.0000
      7 ****        -1.9183   1.1930  -0.1394 N.pl3          1 S1                 0.0000
      8 ****        -0.8632   0.8627  -1.1072 C.3            1 S1                 0.0000
      9 ****        -0.1736  -0.4838  -0.8096 C.3            1 S1                 0.0000
     10 ****        -1.1469  -1.5104  -0.8017 O.3            1 S1                 0.0000
     11 ****         0.8882  -0.8243  -1.8757 C.3            1 S1                 0.0000
     12 ****         1.7728  -1.9486  -1.5494 N.3            1 S1                 0.0000
     13 ****         2.6965  -1.6028  -0.4724 C.3            1 S1                 0.0000
     14 ****         2.5294  -2.4074  -2.7170 C.3            1 S1                 0.0000
     15 ****         1.7042  -3.1034  -3.8184 C.3            1 S1                 0.0000
     16 ****         1.0175  -4.3797  -3.3110 C.3            1 S1                 0.0000
     17 ****         2.5553  -3.4081  -4.9795 C.1            1 S1                 0.0000
     18 ****         3.2245  -3.6476  -5.8924 N.1            1 S1                 0.0000
     19 ****        -1.5728   1.7038   1.1163 C.ar           1 S1                 0.0000
     20 ****        -0.3490   2.0006   1.7110 C.ar           1 S1                 0.0000
     21 ****        -0.3764   2.5088   3.0296 C.ar           1 S1                 0.0000
     22 ****         0.9431   2.8391   3.7063 C.3            1 S1                 0.0000
     23 ****        -2.6376   3.3133   5.5218 H              1 S1                 0.0000
     24 ****        -1.1937   4.2552   5.1580 H              1 S1                 0.0000
     25 ****        -1.0469   2.6105   5.7957 H              1 S1                 0.0000
     26 ****        -3.7775   2.5535   3.6031 H              1 S1                 0.0000
     27 ****        -3.8152   0.7153  -1.1043 H              1 S1                 0.0000
     28 ****        -1.3217   0.8442  -2.0971 H              1 S1                 0.0000
     29 ****        -0.1391   1.6784  -1.1156 H              1 S1                 0.0000
     30 ****         0.2702  -0.4304   0.1828 H              1 S1                 0.0000
     31 ****        -1.4863  -1.6092  -1.6779 H              1 S1                 0.0000
     32 ****         0.3591  -1.0163  -2.8074 H              1 S1                 0.0000
     33 ****         1.4996   0.0587  -2.0680 H              1 S1                 0.0000
     34 ****         3.3588  -2.4395  -0.2480 H              1 S1                 0.0000
     35 ****         2.1700  -1.3652   0.4504 H              1 S1                 0.0000
     36 ****         3.3163  -0.7469  -0.7428 H              1 S1                 0.0000
     37 ****         3.0706  -1.5647  -3.1505 H              1 S1                 0.0000
     38 ****         3.2953  -3.1136  -2.3927 H              1 S1                 0.0000
     39 ****         0.9422  -2.4280  -4.2033 H              1 S1                 0.0000
     40 ****         0.4511  -4.8608  -4.1088 H              1 S1                 0.0000
     41 ****         0.3213  -4.1609  -2.5010 H              1 S1                 0.0000
     42 ****         1.7473  -5.0998  -2.9399 H              1 S1                 0.0000
     43 ****         0.5855   1.8477   1.1917 H              1 S1                 0.0000
     44 ****         1.7903   2.6351   3.0508 H              1 S1                 0.0000
     45 ****         1.0703   2.2421   4.6095 H              1 S1                 0.0000
     46 ****         0.9800   3.8940   3.9793 H              1 S1                 0.0000
     47 ****        -4.8050   1.5336   1.1189 H              1 S1                 0.0000
     48 ****        -1.8894  -1.2663  -0.1780 LP             1 S1                 0.0000
     49 ****        -0.7293  -2.3686  -0.5031 LP             1 S1                 0.0000
     50 ****         1.1818  -2.6953  -1.2443 LP             1 S1                 0.0000
     51 ****         3.8029  -3.8546  -6.6815 LP             1 S1                 0.0000
@<TRIPOS>BOND
    1    1    2 1     
    2    1   23 1     
    3    1   24 1     
    4    1   25 1     
    5    2   21 ar    
    6    2    3 ar    
    7    3    4 ar    
    8    3   26 1     
    9    4   19 ar    
   10    4    5 1     
   11    5    6 2     
   12    5   47 1     
   13    6    7 1     
   14    6   27 1     
   15    7    8 1     
   16    7   19 1     
   17    8    9 1     
   18    8   28 1     
   19    8   29 1     
   20    9   10 1     
   21    9   11 1     
   22    9   30 1     
   23   10   31 1     
   24   11   12 1     
   25   11   32 1     
   26   11   33 1     
   27   12   13 1     
   28   12   14 1     
   29   13   34 1     
   30   13   35 1     
   31   13   36 1     
   32   14   15 1     
   33   14   37 1     
   34   14   38 1     
   35   15   16 1     
   36   15   17 1     
   37   15   39 1     
   38   16   40 1     
   39   16   41 1     
   40   16   42 1     
   41   17   18 3     
   42   19   20 ar    
   43   20   21 ar    
   44   20   43 1     
   45   21   22 1     
   46   22   44 1     
   47   22   45 1     
   48   22   46 1     
   49   10   48 1     
   50   10   49 1     
   51   12   50 1     
   52   18   51 1     
@<TRIPOS>SUBSTRUCTURE
      1 S1             1
@<TRIPOS>SET
LONE_PAIRS      STATIC     ATOMS    <user>   **** ""
4 48 49 50 51
DONOR_HYDROGENS      STATIC     ATOMS    <user>   **** ""
2 47 31
ATOM$BLUE        STATIC     ATOMS    COLORGROUP SYSTEM
4 48 49 50 51
ATOM$RED        STATIC     ATOMS    COLORGROUP SYSTEM
2 47 31
