#       Name:                AV-unprocessed.smi:54
#       Creating user name   scv26
#       Creation time:       Thu Mar 26 16:40:48 2020


#       File generated by GOLD software.
#

@<TRIPOS>MOLECULE
AV-unprocessed.smi:54
    58    60     1
SMALL
NO_CHARGES


@<TRIPOS>ATOM
      1 ****        -0.4234   4.7985  -0.9586 C.3            1 S1                 0.0000
      2 ****        -0.7784   3.9501   0.2732 C.3            1 S1                 0.0000
      3 ****         0.1377   4.2822   1.4622 C.3            1 S1                 0.0000
      4 ****        -0.7064   2.4560  -0.0608 C.2            1 S1                 0.0000
      5 ****         0.3445   1.9148  -0.4071 O.2            1 S1                 0.0000
      6 ****        -1.9602   1.7313   0.0503 N.am           1 S1                 0.0000
      7 ****        -2.1605   0.4098  -0.1597 C.2            1 S1                 0.0000
      8 ****        -1.1702  -0.4681  -0.2107 N.2            1 S1                 0.0000
      9 ****        -1.5553  -1.7635  -0.4119 C.2            1 S1                 0.0000
     10 ****        -2.8522  -2.2127  -0.5576 C.2            1 S1                 0.0000
     11 ****        -2.8653  -3.5896  -0.7428 N.2            1 S1                 0.0000
     12 ****        -1.6068  -3.9251  -0.6998 C.2            1 S1                 0.0000
     13 ****        -0.7391  -2.8756  -0.5127 N.pl3          1 S1                 0.0000
     14 ****         0.7542  -2.9502  -0.3999 C.3            1 S1                 0.0000
     15 ****         1.1232  -2.4875   0.8665 O.3            1 S1                 0.0000
     16 ****         1.8913  -1.2895   0.7651 C.3            1 S1                 0.0000
     17 ****         2.8505  -1.1382   1.9593 C.3            1 S1                 0.0000
     18 ****         2.1678  -0.5830   3.0635 O.3            1 S1                 0.0000
     19 ****         2.5560  -1.4087  -0.6124 C.3            1 S1                 0.0000
     20 ****         3.7333  -2.1975  -0.5282 O.3            1 S1                 0.0000
     21 ****         1.4612  -2.0720  -1.4450 C.3            1 S1                 0.0000
     22 ****         1.9930  -2.8103  -2.5288 O.3            1 S1                 0.0000
     23 ****        -3.9388  -1.2771  -0.5006 C.2            1 S1                 0.0000
     24 ****        -5.1425  -1.5006  -0.6096 O.2            1 S1                 0.0000
     25 ****        -3.4968   0.0355  -0.2917 N.am           1 S1                 0.0000
     26 ****         0.9951  -4.0109  -0.4834 H              1 S1                 0.0000
     27 ****         1.2187  -0.4339   0.7390 H              1 S1                 0.0000
     28 ****         2.8294  -0.4318  -1.0126 H              1 S1                 0.0000
     29 ****         0.7797  -1.3112  -1.8250 H              1 S1                 0.0000
     30 ****        -1.0710   4.5616  -1.8033 H              1 S1                 0.0000
     31 ****         0.6086   4.6375  -1.2733 H              1 S1                 0.0000
     32 ****        -0.5409   5.8615  -0.7459 H              1 S1                 0.0000
     33 ****        -1.8038   4.1858   0.5620 H              1 S1                 0.0000
     34 ****        -0.1102   3.6768   2.3351 H              1 S1                 0.0000
     35 ****         0.0361   5.3284   1.7511 H              1 S1                 0.0000
     36 ****         1.1873   4.1069   1.2221 H              1 S1                 0.0000
     37 ****        -2.7718   2.2825   0.2874 H              1 S1                 0.0000
     38 ****        -1.2784  -4.9490  -0.8047 H              1 S1                 0.0000
     39 ****         3.3007  -2.0925   2.2343 H              1 S1                 0.0000
     40 ****         3.6617  -0.4556   1.7039 H              1 S1                 0.0000
     41 ****         2.7808  -0.4824   3.7757 H              1 S1                 0.0000
     42 ****         3.4949  -3.0576  -0.2176 H              1 S1                 0.0000
     43 ****         1.2756  -3.1955  -3.0085 H              1 S1                 0.0000
     44 ****        -4.2091   0.7485  -0.2379 H              1 S1                 0.0000
     45 ****         1.1845   2.4529  -0.4772 LP             1 S1                 0.0000
     46 ****         0.3577   0.9375  -0.6181 LP             1 S1                 0.0000
     47 ****        -0.2115  -0.2025  -0.1094 LP             1 S1                 0.0000
     48 ****        -3.6571  -4.1852  -0.8778 LP             1 S1                 0.0000
     49 ****         1.6688  -3.1887   1.3254 LP             1 S1                 0.0000
     50 ****         0.2985  -2.3037   1.4014 LP             1 S1                 0.0000
     51 ****         1.4248  -1.1918   3.3415 LP             1 S1                 0.0000
     52 ****         1.7918   0.3093   2.8136 LP             1 S1                 0.0000
     53 ****         4.3779  -1.7750   0.1090 LP             1 S1                 0.0000
     54 ****         4.1565  -2.2699  -1.4314 LP             1 S1                 0.0000
     55 ****         2.5940  -3.5311  -2.1837 LP             1 S1                 0.0000
     56 ****         2.5125  -2.2021  -3.1290 LP             1 S1                 0.0000
     57 ****        -5.4661  -2.4350  -0.7584 LP             1 S1                 0.0000
     58 ****        -5.7982  -0.7480  -0.5495 LP             1 S1                 0.0000
@<TRIPOS>BOND
    1    1    2 1     
    2    1   30 1     
    3    1   31 1     
    4    1   32 1     
    5    2    3 1     
    6    2    4 1     
    7    2   33 1     
    8    3   34 1     
    9    3   35 1     
   10    3   36 1     
   11    4    5 2     
   12    4    6 am    
   13    6   37 1     
   14    6    7 1     
   15    7   25 1     
   16    7    8 2     
   17    8    9 1     
   18    9   13 1     
   19    9   10 2     
   20   10   11 1     
   21   10   23 1     
   22   11   12 2     
   23   12   13 1     
   24   12   38 1     
   25   13   14 1     
   26   14   26 1     
   27   14   21 1     
   28   14   15 1     
   29   15   16 1     
   30   16   27 1     
   31   16   17 1     
   32   16   19 1     
   33   17   18 1     
   34   17   39 1     
   35   17   40 1     
   36   18   41 1     
   37   19   28 1     
   38   19   20 1     
   39   19   21 1     
   40   20   42 1     
   41   21   29 1     
   42   21   22 1     
   43   22   43 1     
   44   23   24 2     
   45   23   25 am    
   46   25   44 1     
   47    5   45 1     
   48    5   46 1     
   49    8   47 1     
   50   11   48 1     
   51   15   49 1     
   52   15   50 1     
   53   18   51 1     
   54   18   52 1     
   55   20   53 1     
   56   20   54 1     
   57   22   55 1     
   58   22   56 1     
   59   24   57 1     
   60   24   58 1     
@<TRIPOS>SUBSTRUCTURE
      1 S1             1
@<TRIPOS>SET
LONE_PAIRS      STATIC     ATOMS    <user>   **** ""
14 45 46 47 48 49 50 51 52 53 54 55 56 57 58
DONOR_HYDROGENS      STATIC     ATOMS    <user>   **** ""
5 37 41 42 43 44
ATOM$BLUE        STATIC     ATOMS    COLORGROUP SYSTEM
14 45 46 47 48 49 50 51 52 53 54 55 56 57 58
ATOM$RED        STATIC     ATOMS    COLORGROUP SYSTEM
5 37 41 42 43 44
