#       Name:                AV-unprocessed.smi:937
#       Creating user name   scv26
#       Creation time:       Fri Mar 27 02:12:15 2020


#       File generated by GOLD software.
#

@<TRIPOS>MOLECULE
AV-unprocessed.smi:937
    48    49     1
SMALL
NO_CHARGES


@<TRIPOS>ATOM
      1 ****        -3.1583   7.3105  -0.1269 C.3            1 S1                 0.0000
      2 ****        -2.6214   5.8993  -0.0139 C.ar           1 S1                 0.0000
      3 ****        -1.9073   5.4577   1.1205 C.ar           1 S1                 0.0000
      4 ****        -1.4324   4.1304   1.1612 C.ar           1 S1                 0.0000
      5 ****        -1.6813   3.2716   0.0680 C.ar           1 S1                 0.0000
      6 ****        -1.1814   1.8408   0.0874 C.3            1 S1                 0.0000
      7 ****         0.2375   1.7157  -0.4906 C.3            1 S1                 0.0000
      8 ****         0.7244   0.3439  -0.4159 N.am           1 S1                 0.0000
      9 ****         1.2473  -0.2248   0.6836 C.2            1 S1                 0.0000
     10 ****         1.3787   0.3680   1.7530 O.2            1 S1                 0.0000
     11 ****         1.6230  -1.5073   0.5338 N.am           1 S1                 0.0000
     12 ****         2.2218  -2.4088   1.5237 C.3            1 S1                 0.0000
     13 ****         3.7328  -2.1409   1.6944 C.3            1 S1                 0.0000
     14 ****         4.5372  -2.5583   0.4525 C.3            1 S1                 0.0000
     15 ****         4.2760  -4.0277   0.0866 C.3            1 S1                 0.0000
     16 ****         2.7733  -4.3051  -0.1270 C.3            1 S1                 0.0000
     17 ****         2.5049  -5.7754  -0.5089 C.3            1 S1                 0.0000
     18 ****         2.8904  -6.5979   0.4673 F              1 S1                 0.0000
     19 ****         1.2043  -5.9571  -0.7370 F              1 S1                 0.0000
     20 ****         3.1693  -6.0865  -1.6220 F              1 S1                 0.0000
     21 ****         1.9695  -3.8762   1.1226 C.3            1 S1                 0.0000
     22 ****        -2.3979   3.7690  -1.0415 C.ar           1 S1                 0.0000
     23 ****        -2.8356   5.0474  -1.0424 N.pl3          1 S1                 1.0000
     24 ****        -3.3200   7.7431   0.8610 H              1 S1                 0.0000
     25 ****        -4.1089   7.3240  -0.6614 H              1 S1                 0.0000
     26 ****        -2.4506   7.9412  -0.6654 H              1 S1                 0.0000
     27 ****        -1.7237   6.1254   1.9499 H              1 S1                 0.0000
     28 ****        -0.8826   3.7773   2.0220 H              1 S1                 0.0000
     29 ****        -1.2064   1.4775   1.1158 H              1 S1                 0.0000
     30 ****        -1.8718   1.2116  -0.4764 H              1 S1                 0.0000
     31 ****         0.2440   2.0251  -1.5360 H              1 S1                 0.0000
     32 ****         0.9251   2.3810   0.0347 H              1 S1                 0.0000
     33 ****         0.6585  -0.2142  -1.2548 H              1 S1                 0.0000
     34 ****         1.4924  -1.9020  -0.3864 H              1 S1                 0.0000
     35 ****         1.7268  -2.2477   2.4827 H              1 S1                 0.0000
     36 ****         3.9167  -1.0902   1.9203 H              1 S1                 0.0000
     37 ****         4.0977  -2.7007   2.5565 H              1 S1                 0.0000
     38 ****         4.2758  -1.9176  -0.3905 H              1 S1                 0.0000
     39 ****         5.6014  -2.4066   0.6341 H              1 S1                 0.0000
     40 ****         4.8353  -4.2790  -0.8151 H              1 S1                 0.0000
     41 ****         4.6622  -4.6716   0.8777 H              1 S1                 0.0000
     42 ****         2.4414  -3.6918  -0.9662 H              1 S1                 0.0000
     43 ****         2.2387  -4.5211   1.9601 H              1 S1                 0.0000
     44 ****         0.9030  -4.0318   0.9559 H              1 S1                 0.0000
     45 ****        -2.6323   3.1888  -1.9223 H              1 S1                 0.0000
     46 ****        -3.3511   5.3849  -1.8557 H              1 S1                 0.0000
     47 ****         1.0897   1.3218   1.8348 LP             1 S1                 0.0000
     48 ****         1.7745  -0.1038   2.5409 LP             1 S1                 0.0000
@<TRIPOS>BOND
    1    1    2 1     
    2    1   24 1     
    3    1   25 1     
    4    1   26 1     
    5    2   23 ar    
    6    2    3 ar    
    7    3    4 ar    
    8    3   27 1     
    9    4    5 ar    
   10    4   28 1     
   11    5    6 1     
   12    5   22 ar    
   13    6    7 1     
   14    6   29 1     
   15    6   30 1     
   16    7    8 1     
   17    7   31 1     
   18    7   32 1     
   19    8    9 am    
   20    8   33 1     
   21    9   10 2     
   22    9   11 am    
   23   11   12 1     
   24   11   34 1     
   25   12   21 1     
   26   12   13 1     
   27   12   35 1     
   28   13   14 1     
   29   13   36 1     
   30   13   37 1     
   31   14   15 1     
   32   14   38 1     
   33   14   39 1     
   34   15   16 1     
   35   15   40 1     
   36   15   41 1     
   37   16   17 1     
   38   16   21 1     
   39   16   42 1     
   40   17   18 1     
   41   17   19 1     
   42   17   20 1     
   43   21   43 1     
   44   21   44 1     
   45   22   23 ar    
   46   22   45 1     
   47   23   46 1     
   48   10   47 1     
   49   10   48 1     
@<TRIPOS>SUBSTRUCTURE
      1 S1             1
@<TRIPOS>SET
LONE_PAIRS      STATIC     ATOMS    <user>   **** ""
2 47 48
DONOR_HYDROGENS      STATIC     ATOMS    <user>   **** ""
3 33 34 46
ATOM$BLUE        STATIC     ATOMS    COLORGROUP SYSTEM
2 47 48
ATOM$RED        STATIC     ATOMS    COLORGROUP SYSTEM
3 33 34 46
