AV-unprocessed.smi:1824|AV-procd|sdf|7412|dock5
  -GOLD-   22720 9 93D 1   1.00000     0.00000
 Structure written by MMmdl.
 45 47  0  0  0  0  0  0  0  0  2 V2000
  145.9081  138.2483  156.1814 C   0  0  0  0  0  0  0  0  0  0  0  0
  146.8818  139.2365  155.5312 C   0  0  1  0  0  0  0  0  0  0  0  0
  148.2667  138.6104  155.2870 C   0  0  0  0  0  0  0  0  0  0  0  0
  149.1653  139.5265  154.5956 N   0  0  0  0  0  0  0  0  0  0  0  0
  150.4900  138.9288  154.4206 C   0  0  0  0  0  0  0  0  0  0  0  0
  151.2094  138.5256  155.7233 C   0  0  1  0  0  0  0  0  0  0  0  0
  151.8373  137.2757  155.5173 O   0  0  0  0  0  0  0  0  0  0  0  0
  152.2658  139.5696  156.1329 C   0  0  0  0  0  0  0  0  0  0  0  0
  151.6770  140.8760  156.4614 N   0  0  0  0  0  0  0  0  0  0  0  0
  150.7390  141.5969  155.7894 C   0  0  0  0  0  0  0  0  0  0  0  0
  150.5217  142.7443  156.4899 N   0  3  0  0  0  0  0  0  0  0  0  0
  151.3319  142.7568  157.6274 C   0  0  0  0  0  0  0  0  0  0  0  0
  151.4669  143.7022  158.6388 C   0  0  0  0  0  0  0  0  0  0  0  0
  152.3862  143.4061  159.6665 C   0  0  0  0  0  0  0  0  0  0  0  0
  152.5575  144.2929  160.6753 F   0  0  0  0  0  0  0  0  0  0  0  0
  153.1280  142.2059  159.6642 C   0  0  0  0  0  0  0  0  0  0  0  0
  153.9983  141.9598  160.6720 F   0  0  0  0  0  0  0  0  0  0  0  0
  152.9827  141.2551  158.6326 C   0  0  0  0  0  0  0  0  0  0  0  0
  152.0750  141.5575  157.6181 C   0  0  0  0  0  0  0  0  0  0  0  0
  148.5507  139.9210  153.3287 C   0  0  0  0  0  0  0  0  0  0  0  0
  147.1458  140.5288  153.5134 C   0  0  2  0  0  0  0  0  0  0  0  0
  147.1729  141.9512  154.0983 C   0  0  0  0  0  0  0  0  0  0  0  0
  146.3242  139.6526  154.2862 O   0  0  0  0  0  0  0  0  0  0  0  0
  146.2811  137.9076  157.1475 H   0  0  0  0  0  0  0  0  0  0  0  0
  145.7569  137.3709  155.5521 H   0  0  0  0  0  0  0  0  0  0  0  0
  144.9351  138.7119  156.3455 H   0  0  0  0  0  0  0  0  0  0  0  0
  146.9833  140.1001  156.1890 H   0  0  0  0  0  0  0  0  0  0  0  0
  148.7007  138.3215  156.2449 H   0  0  0  0  0  0  0  0  0  0  0  0
  148.1564  137.6929  154.7062 H   0  0  0  0  0  0  0  0  0  0  0  0
  150.4056  138.0385  153.7952 H   0  0  0  0  0  0  0  0  0  0  0  0
  151.1198  139.6216  153.8604 H   0  0  0  0  0  0  0  0  0  0  0  0
  150.4999  138.4210  156.5429 H   0  0  0  0  0  0  0  0  0  0  0  0
  151.9580  136.8635  156.3597 H   0  0  0  0  0  0  0  0  0  0  0  0
  152.8666  139.2201  156.9727 H   0  0  0  0  0  0  0  0  0  0  0  0
  152.9613  139.7330  155.3089 H   0  0  0  0  0  0  0  0  0  0  0  0
  150.2544  141.3103  154.8671 H   0  0  0  0  0  0  0  0  0  0  0  0
  150.8995  144.6211  158.6460 H   0  0  0  0  0  0  0  0  0  0  0  0
  153.5515  140.3375  158.6458 H   0  0  0  0  0  0  0  0  0  0  0  0
  149.1750  140.6409  152.8019 H   0  0  0  0  0  0  0  0  0  0  0  0
  148.4730  139.0485  152.6781 H   0  0  0  0  0  0  0  0  0  0  0  0
  146.6786  140.5984  152.5308 H   0  0  0  0  0  0  0  0  0  0  0  0
  147.7020  142.6334  153.4327 H   0  0  0  0  0  0  0  0  0  0  0  0
  147.6738  141.9873  155.0654 H   0  0  0  0  0  0  0  0  0  0  0  0
  146.1619  142.3367  154.2305 H   0  0  0  0  0  0  0  0  0  0  0  0
  149.8670  143.4635  156.2097 H   0  0  0  0  0  0  0  0  0  0  0  0
  1  2  1  0  0  0  0
  1 24  1  0  0  0  0
  1 25  1  0  0  0  0
  1 26  1  0  0  0  0
  2 23  1  0  0  0  0
  2  3  1  0  0  0  0
  2 27  1  0  0  0  0
  3  4  1  0  0  0  0
  3 28  1  0  0  0  0
  3 29  1  0  0  0  0
  4  5  1  0  0  0  0
  4 20  1  0  0  0  0
  5  6  1  0  0  0  0
  5 30  1  0  0  0  0
  5 31  1  0  0  0  0
  6  7  1  0  0  0  0
  6  8  1  0  0  0  0
  6 32  1  0  0  0  0
  7 33  1  0  0  0  0
  8  9  1  0  0  0  0
  8 34  1  0  0  0  0
  8 35  1  0  0  0  0
  9 19  1  0  0  0  0
  9 10  1  0  0  0  0
 10 11  2  0  0  0  0
 10 36  1  0  0  0  0
 11 12  1  0  0  0  0
 11 45  1  0  0  0  0
 12 19  2  0  0  0  0
 12 13  1  0  0  0  0
 13 14  2  0  0  0  0
 13 37  1  0  0  0  0
 14 15  1  0  0  0  0
 14 16  1  0  0  0  0
 16 17  1  0  0  0  0
 16 18  2  0  0  0  0
 18 19  1  0  0  0  0
 18 38  1  0  0  0  0
 20 21  1  0  0  0  0
 20 39  1  0  0  0  0
 20 40  1  0  0  0  0
 21 22  1  0  0  0  0
 21 23  1  0  0  0  0
 21 41  1  0  0  0  0
 22 42  1  0  0  0  0
 22 43  1  0  0  0  0
 22 44  1  0  0  0  0
M  CHG  1  11   1
M  END
> <s_m_source_file>
AV-unprocessed.smi

> <i_m_source_file_index>
1824

> <i_lp_mmshare_version>
43012

> <i_f3d_flags>
0

> <s_epik_input>
W0NIM11bQ0BASF0xW0NIMl1OKFtDSDJdW0NASF0oTzEpW0NIM10pW0NIMl1bQ0BIXShbT0hdKVtDSDJdbihbY0hdbjIpYyhjMjMpW2NIXWMoRiljKEYpW2NIXTM=

> <s_epik_cmdline>
J2VwaWtfcHl0aG9uJywgJy1waCcsICc3LjAnLCAnLXRuJywgJzgnLCAnLW1hJywgJzIwMCcsICctbWV0YWxfYmluZGluZycsICctaW1hZScsICc8aW5maWxlLm1hZT4nLCAnLW9tYWUnLCAnPG91dGZpbGUubWFlPic=

> <r_epik_Ionization_Penalty>
2.58709

> <r_epik_Ionization_Penalty_Charging>
2.37273

> <r_epik_Ionization_Penalty_Neutral>
0.214359

> <r_epik_State_Penalty>
2.71799

> <r_epik_Charging_Adjusted_Penalty>
5.09071

> <i_epik_Tot_Q>
1

> <i_epik_Tot_abs_Q>
1

> <r_epik_Metal_State_Penalty>
6.80217

> <b_epik_Metal_Only>
0

> <s_lp_Force_Field>
OPLS_2005

> <r_lp_Energy>
35.189

> <b_lp_Chiralities_Consistent>
1

> <s_lp_Variant>
AV-unprocessed.smi:1824-20

> <Gold.Version>
5.8.1

> <Gold.Id.Protein>
6NUR|6NUR_protein|mol2

> <Gold.PLP.Fitness>
48.2977

> <Gold.PLP.PLP>
-43.2825

> <Gold.PLP.part.hbond>
-1.8501

> <Gold.PLP.part.metal>
0.0000

> <Gold.PLP.part.buried>
-1.3108

> <Gold.PLP.part.nonpolar>
-39.5139

> <Gold.PLP.part.repulsive>
0.3036

> <Gold.PLP.ligand.clash>
0.0000

> <Gold.PLP.ligand.torsion>
0.7480

> <Gold.PLP.Chemscore.Hbond>
2.1671

> <Gold.PLP.Chemscore.CHOScore>
0.0000

> <Gold.PLP.Chemscore.Metal>
0.0000

> <Gold.Chemscore.Hbonds>
donor molecule, donor type, donor heavy atom, donor atom, acceptor molecule, acceptor atom, score
      L1  H    11    45       P1  8028  2.00
      P1  H 10752 10763       L1     7  0.25

> <Gold.PLP.Chemscore.Internal.Correction>
0.0098

> <Gold.Rescore>
     Score         DG    S(hbond)    S(metal)    S(lipo)     H(rot)  DE(clash)    DE(int)     intcor
     10.60     -15.79       1.25        0.00     103.31       2.32       1.85       3.34       ----

> <Gold.Chemscore.Fitness>
10.5992

> <Gold.Chemscore.DG>
-15.7913

> <Gold.Chemscore.ZeroCoef>
-5.4800

> <Gold.Chemscore.Hbond>
1.2472

> <Gold.Chemscore.Metal>
0.0000

> <Gold.Chemscore.Lipo>
103.3100

> <Gold.Chemscore.Internal_Hbond>
0.0000

> <Gold.Chemscore.DEClash>
1.8529

> <Gold.Chemscore.DEInternal>
3.3392

> <Gold.Chemscore.Rot>
2.3210

> <Gold.Chemscore.Internal.Correction>
   9.000000E+99

> <Gold.Chemscore.Hbonds>
donor molecule, donor type, donor heavy atom, donor atom, acceptor molecule, acceptor atom, score
      L1  H    11    45       P1  8028  1.00
      P1  H 10752 10763       L1     7  0.02

> <Gold.Chemscore.Hbond.Weighted>
-4.1657

> <Gold.Chemscore.Metal.Weighted>
-0.0000

> <Gold.Chemscore.Lipo.Weighted>
-12.0873

> <Gold.Chemscore.Internal_Hbond.Weighted>
0.0000

> <Gold.Chemscore.DEClash.Weighted>
1.8529

> <Gold.Chemscore.DEInternal.Weighted>
3.3392

> <Gold.Chemscore.Rot.Weighted>
5.9416

> <Gold.Chemscore.Internal.Correction.Weighted>
   9.000000E+99

> <Gold.Protein.RotatedTorsions>
[ 6907 6896 6895 6894 ] final  114.34 input  -60.11 | X-H torsion
[ 7974 7965 7964 7962 ] final  174.59 input  175.53 | X-H torsion
[ 8008 7997 7996 7995 ] final  126.53 input   59.86 | X-H torsion
[ 10167 10162 10161 10158 ] final  -78.05 input  -65.29 | X-H torsion
[ 10718 10713 10712 10709 ] final  103.94 input   66.30 | X-H torsion
[ 10763 10752 10751 10750 ] final   51.15 input  -60.55 | X-H torsion
[ 11005 11000 10999 10996 ] final -132.34 input  -57.11 | X-H torsion

> <Gold.Protein.ActiveResidues>
 VAL166  LYS551  ARG553  GLY616  TRP617  ASP618  TYR619  PRO620  LYS621  CYS622 
 ASP623  PHE694  ASN695  SER759  ASP760  ASP761  ALA762  ILE779  LEU786  VAL792 
 PHE793  MET794  SER795  GLU796  ALA797  LYS798  CYS799  TRP800  GLU811  SER814 

> <Gold.Protein.RotatedAtoms>
  152.4808  133.8250  159.7072 H   0  0  0  0  0  0  0  0  0  0  0  0  # atno 6907 bound_to 6896
  150.8857  133.7302  159.2926 H   0  0  0  0  0  0  0  0  0  0  0  0  # atno 6908 bound_to 6896
  151.4792  135.1054  159.9825 H   0  0  0  0  0  0  0  0  0  0  0  0  # atno 6909 bound_to 6896
  144.7218  139.9819  143.6439 H   0  0  0  0  0  0  0  0  0  0  0  0  # atno 7974 bound_to 7965
  156.2866  140.2690  156.2126 H   0  0  0  0  0  0  0  0  0  0  0  0  # atno 8008 bound_to 7997
  155.0249  140.0386  157.2469 H   0  0  0  0  0  0  0  0  0  0  0  0  # atno 8009 bound_to 7997
  154.7404  140.2724  155.6383 H   0  0  0  0  0  0  0  0  0  0  0  0  # atno 8010 bound_to 7997
  140.4717  143.2425  151.8195 H   0  0  0  0  0  0  0  0  0  0  0  0  # atno 10167 bound_to 10162
  157.6756  131.0791  150.5632 H   0  0  0  0  0  0  0  0  0  0  0  0  # atno 10718 bound_to 10713
  152.9785  135.5855  154.4368 H   0  0  0  0  0  0  0  0  0  0  0  0  # atno 10763 bound_to 10752
  154.3974  135.2768  155.2119 H   0  0  0  0  0  0  0  0  0  0  0  0  # atno 10764 bound_to 10752
  154.3965  135.6113  153.5927 H   0  0  0  0  0  0  0  0  0  0  0  0  # atno 10765 bound_to 10752
  140.9178  134.1483  157.4338 H   0  0  0  0  0  0  0  0  0  0  0  0  # atno 11005 bound_to 11000
  146.0480  139.3484  143.0656 LP  0  0  0  0  0  0  0  0  0  0  0  0  # atno 17320 bound_to 7965
  145.8250  140.9660  143.0879 LP  0  0  0  0  0  0  0  0  0  0  0  0  # atno 17321 bound_to 7965
  139.4819  144.4884  151.9217 LP  0  0  0  0  0  0  0  0  0  0  0  0  # atno 17342 bound_to 10162
  140.3969  144.2543  150.5895 LP  0  0  0  0  0  0  0  0  0  0  0  0  # atno 17343 bound_to 10162
  156.5934  130.4335  149.5927 LP  0  0  0  0  0  0  0  0  0  0  0  0  # atno 17370 bound_to 10713
  156.2565  130.6937  151.1692 LP  0  0  0  0  0  0  0  0  0  0  0  0  # atno 17371 bound_to 10713
  139.8769  134.9960  156.5773 LP  0  0  0  0  0  0  0  0  0  0  0  0  # atno 17394 bound_to 11000
  140.8027  133.8493  155.8740 LP  0  0  0  0  0  0  0  0  0  0  0  0  # atno 17395 bound_to 11000

$$$$
