AV-unprocessed.smi:765|AV-procd|sdf|3649|dock9
  -GOLD-   22720 1 53D 1   1.00000     0.00000
 Structure written by MMmdl.
 39 40  0  0  0  0  0  0  0  0  1 V2000
  146.4008  139.5683  156.8134 C   0  0  0  0  0  0  0  0  0  0  0  0
  147.9053  139.2766  156.7232 C   0  0  2  0  0  0  0  0  0  0  0  0
  148.2054  137.7906  156.9885 C   0  0  0  0  0  0  0  0  0  0  0  0
  149.7105  137.4981  156.9175 C   0  0  0  0  0  0  0  0  0  0  0  0
  150.4917  138.4002  157.8862 C   0  0  0  0  0  0  0  0  0  0  0  0
  150.2348  139.9013  157.6274 C   0  0  2  0  0  0  0  0  0  0  0  0
  150.7727  140.2689  156.3019 C   0  0  0  0  0  0  0  0  0  0  0  0
  151.1936  140.5563  155.2628 N   0  0  0  0  0  0  0  0  0  0  0  0
  150.9086  140.6436  158.6943 N   0  0  0  0  0  0  0  0  0  0  0  0
  152.2313  140.7134  158.9217 C   0  0  0  0  0  0  0  0  0  0  0  0
  153.0666  140.1046  158.2528 O   0  0  0  0  0  0  0  0  0  0  0  0
  152.6659  141.6323  160.0735 C   0  0  1  0  0  0  0  0  0  0  0  0
  154.1814  141.5846  160.3416 C   0  0  0  0  0  0  0  0  0  0  0  0
  152.2229  142.9971  159.8194 N   0  0  0  0  0  0  0  0  0  0  0  0
  152.6029  143.8582  158.8076 C   0  0  0  0  0  0  0  0  0  0  0  0
  151.9144  145.0240  158.9826 C   0  0  0  0  0  0  0  0  0  0  0  0
  151.1301  144.7815  160.1444 C   0  0  0  0  0  0  0  0  0  0  0  0
  151.3165  143.5698  160.6421 N   0  0  0  0  0  0  0  0  0  0  0  0
  148.7092  140.1672  157.6923 C   0  0  0  0  0  0  0  0  0  0  0  0
  146.0146  139.3561  157.8110 H   0  0  0  0  0  0  0  0  0  0  0  0
  145.8399  138.9605  156.1030 H   0  0  0  0  0  0  0  0  0  0  0  0
  146.1894  140.6146  156.5902 H   0  0  0  0  0  0  0  0  0  0  0  0
  148.2211  139.5080  155.7052 H   0  0  0  0  0  0  0  0  0  0  0  0
  147.8278  137.5084  157.9724 H   0  0  0  0  0  0  0  0  0  0  0  0
  147.6773  137.1674  156.2660 H   0  0  0  0  0  0  0  0  0  0  0  0
  149.8949  136.4506  157.1572 H   0  0  0  0  0  0  0  0  0  0  0  0
  150.0676  137.6470  155.8980 H   0  0  0  0  0  0  0  0  0  0  0  0
  150.2080  138.1469  158.9091 H   0  0  0  0  0  0  0  0  0  0  0  0
  151.5579  138.1836  157.8044 H   0  0  0  0  0  0  0  0  0  0  0  0
  150.3101  141.1815  159.3044 H   0  0  0  0  0  0  0  0  0  0  0  0
  152.1650  141.2747  160.9755 H   0  0  0  0  0  0  0  0  0  0  0  0
  154.5141  140.5669  160.5479 H   0  0  0  0  0  0  0  0  0  0  0  0
  154.4402  142.1943  161.2077 H   0  0  0  0  0  0  0  0  0  0  0  0
  154.7562  141.9583  159.4930 H   0  0  0  0  0  0  0  0  0  0  0  0
  153.3219  143.5705  158.0545 H   0  0  0  0  0  0  0  0  0  0  0  0
  151.9641  145.9144  158.3739 H   0  0  0  0  0  0  0  0  0  0  0  0
  150.4352  145.4452  160.6376 H   0  0  0  0  0  0  0  0  0  0  0  0
  148.5020  141.2144  157.4682 H   0  0  0  0  0  0  0  0  0  0  0  0
  148.3528  140.0006  158.7105 H   0  0  0  0  0  0  0  0  0  0  0  0
  1  2  1  0  0  0  0
  1 20  1  0  0  0  0
  1 21  1  0  0  0  0
  1 22  1  0  0  0  0
  2 19  1  0  0  0  0
  2  3  1  0  0  0  0
  2 23  1  0  0  0  0
  3  4  1  0  0  0  0
  3 24  1  0  0  0  0
  3 25  1  0  0  0  0
  4  5  1  0  0  0  0
  4 26  1  0  0  0  0
  4 27  1  0  0  0  0
  5  6  1  0  0  0  0
  5 28  1  0  0  0  0
  5 29  1  0  0  0  0
  6  7  1  0  0  0  0
  6  9  1  0  0  0  0
  6 19  1  0  0  0  0
  7  8  3  0  0  0  0
  9 10  1  0  0  0  0
  9 30  1  0  0  0  0
 10 11  2  0  0  0  0
 10 12  1  0  0  0  0
 12 13  1  0  0  0  0
 12 14  1  0  0  0  0
 12 31  1  0  0  0  0
 13 32  1  0  0  0  0
 13 33  1  0  0  0  0
 13 34  1  0  0  0  0
 14 18  1  0  0  0  0
 14 15  1  0  0  0  0
 15 16  2  0  0  0  0
 15 35  1  0  0  0  0
 16 17  1  0  0  0  0
 16 36  1  0  0  0  0
 17 18  2  0  0  0  0
 17 37  1  0  0  0  0
 19 38  1  0  0  0  0
 19 39  1  0  0  0  0
M  END
> <s_m_source_file>
AV-unprocessed.smi

> <i_m_source_file_index>
765

> <i_lp_mmshare_version>
43012

> <i_f3d_flags>
0

> <s_epik_input>
W0NIM11bQ0BASF0oW0NIMl0xKVtDSDJdW0NIMl1bQ0gyXVtDQEBdMShDI04pW05IXUMoPU8pW0NASF0oW0NIM10pbjJbY0hdW2NIXVtjSF1uMg==

> <s_epik_cmdline>
J2VwaWtfcHl0aG9uJywgJy1waCcsICc3LjAnLCAnLXRuJywgJzgnLCAnLW1hJywgJzIwMCcsICctbWV0YWxfYmluZGluZycsICctaW1hZScsICc8aW5maWxlLm1hZT4nLCAnLW9tYWUnLCAnPG91dGZpbGUubWFlPic=

> <r_lp_tautomer_probability>
1

> <r_epik_Ionization_Penalty>
2.71142e-05

> <r_epik_Ionization_Penalty_Charging>
0

> <r_epik_Ionization_Penalty_Neutral>
2.71142e-05

> <r_epik_State_Penalty>
-0

> <r_epik_Charging_Adjusted_Penalty>
0

> <i_epik_Tot_Q>
0

> <i_epik_Tot_abs_Q>
0

> <r_epik_Metal_State_Penalty>
-0

> <b_epik_Metal_Only>
0

> <s_lp_Force_Field>
OPLS_2005

> <r_lp_Energy>
10.7608

> <b_lp_Chiralities_Consistent>
1

> <s_lp_Variant>
AV-unprocessed.smi:765-7

> <Gold.Version>
5.8.1

> <Gold.Id.Protein>
6NUR|6NUR_protein|mol2

> <Gold.PLP.Fitness>
41.1509

> <Gold.PLP.PLP>
-35.4658

> <Gold.PLP.part.hbond>
-2.0000

> <Gold.PLP.part.metal>
0.0000

> <Gold.PLP.part.buried>
-5.2407

> <Gold.PLP.part.nonpolar>
-28.2838

> <Gold.PLP.part.repulsive>
0.3062

> <Gold.PLP.ligand.clash>
0.0000

> <Gold.PLP.ligand.torsion>
0.0822

> <Gold.PLP.Chemscore.Hbond>
1.9280

> <Gold.PLP.Chemscore.CHOScore>
0.0000

> <Gold.PLP.Chemscore.Metal>
0.0000

> <Gold.Chemscore.Hbonds>
donor molecule, donor type, donor heavy atom, donor atom, acceptor molecule, acceptor atom, score
      P1  H  7989  7998       L1     8  0.91
      P1  H  7997  8009       L1    11  1.00

> <Gold.PLP.Chemscore.Internal.Correction>
0.0656

> <Gold.Rescore>
     Score         DG    S(hbond)    S(metal)    S(lipo)     H(rot)  DE(clash)    DE(int)     intcor
     15.59     -16.70       1.93        0.00      71.82       1.42       0.05       1.05       ----

> <Gold.Chemscore.Fitness>
15.5923

> <Gold.Chemscore.DG>
-16.6999

> <Gold.Chemscore.ZeroCoef>
-5.4800

> <Gold.Chemscore.Hbond>
1.9305

> <Gold.Chemscore.Metal>
0.0000

> <Gold.Chemscore.Lipo>
71.8206

> <Gold.Chemscore.Internal_Hbond>
0.0000

> <Gold.Chemscore.DEClash>
0.0536

> <Gold.Chemscore.DEInternal>
1.0540

> <Gold.Chemscore.Rot>
1.4183

> <Gold.Chemscore.Internal.Correction>
   9.000000E+99

> <Gold.Chemscore.Hbonds>
donor molecule, donor type, donor heavy atom, donor atom, acceptor molecule, acceptor atom, score
      P1  H  7989  7998       L1     8  0.88
      P1  H  7997  8009       L1    11  0.94

> <Gold.Chemscore.Hbond.Weighted>
-6.4478

> <Gold.Chemscore.Metal.Weighted>
-0.0000

> <Gold.Chemscore.Lipo.Weighted>
-8.4030

> <Gold.Chemscore.Internal_Hbond.Weighted>
0.0000

> <Gold.Chemscore.DEClash.Weighted>
0.0536

> <Gold.Chemscore.DEInternal.Weighted>
1.0540

> <Gold.Chemscore.Rot.Weighted>
3.6309

> <Gold.Chemscore.Internal.Correction.Weighted>
   9.000000E+99

> <Gold.Protein.RotatedTorsions>
[ 6907 6896 6895 6894 ] final  -26.70 input  -60.11 | X-H torsion
[ 7974 7965 7964 7962 ] final -127.30 input  175.53 | X-H torsion
[ 8008 7997 7996 7995 ] final  153.04 input   59.86 | X-H torsion
[ 10167 10162 10161 10158 ] final  117.11 input  -65.29 | X-H torsion
[ 10718 10713 10712 10709 ] final -133.60 input   66.30 | X-H torsion
[ 10763 10752 10751 10750 ] final   -3.54 input  -60.55 | X-H torsion
[ 11005 11000 10999 10996 ] final   92.43 input  -57.11 | X-H torsion

> <Gold.Protein.ActiveResidues>
 VAL166  LYS551  ARG553  GLY616  TRP617  ASP618  TYR619  PRO620  LYS621  CYS622 
 ASP623  PHE694  ASN695  SER759  ASP760  ASP761  ALA762  ILE779  LEU786  VAL792 
 PHE793  MET794  SER795  GLU796  ALA797  LYS798  CYS799  TRP800  GLU811  SER814 

> <Gold.Protein.RotatedAtoms>
  151.1572  135.0256  159.8694 H   0  0  0  0  0  0  0  0  0  0  0  0  # atno 6907 bound_to 6896
  152.5452  134.1320  159.8453 H   0  0  0  0  0  0  0  0  0  0  0  0  # atno 6908 bound_to 6896
  151.1412  133.4924  159.2629 H   0  0  0  0  0  0  0  0  0  0  0  0  # atno 6909 bound_to 6896
  144.9785  140.7616  143.4627 H   0  0  0  0  0  0  0  0  0  0  0  0  # atno 7974 bound_to 7965
  156.2601  140.2004  156.6427 H   0  0  0  0  0  0  0  0  0  0  0  0  # atno 8008 bound_to 7997
  154.6597  140.0562  157.0073 H   0  0  0  0  0  0  0  0  0  0  0  0  # atno 8009 bound_to 7997
  155.1295  140.3232  155.4480 H   0  0  0  0  0  0  0  0  0  0  0  0  # atno 8010 bound_to 7997
  139.6201  144.7099  151.2654 H   0  0  0  0  0  0  0  0  0  0  0  0  # atno 10167 bound_to 10162
  156.2466  130.7128  151.1011 H   0  0  0  0  0  0  0  0  0  0  0  0  # atno 10718 bound_to 10713
  153.3727  135.6995  153.6625 H   0  0  0  0  0  0  0  0  0  0  0  0  # atno 10763 bound_to 10752
  153.5269  135.3600  155.2658 H   0  0  0  0  0  0  0  0  0  0  0  0  # atno 10764 bound_to 10752
  154.8683  135.4171  154.3008 H   0  0  0  0  0  0  0  0  0  0  0  0  # atno 10765 bound_to 10752
  139.8823  134.8732  156.3572 H   0  0  0  0  0  0  0  0  0  0  0  0  # atno 11005 bound_to 11000
  145.2455  139.2054  143.4970 LP  0  0  0  0  0  0  0  0  0  0  0  0  # atno 17320 bound_to 7965
  146.3402  140.2359  142.8594 LP  0  0  0  0  0  0  0  0  0  0  0  0  # atno 17321 bound_to 7965
  140.7376  143.6672  150.8113 LP  0  0  0  0  0  0  0  0  0  0  0  0  # atno 17342 bound_to 10162
  140.0282  143.5471  152.2772 LP  0  0  0  0  0  0  0  0  0  0  0  0  # atno 17343 bound_to 10162
  157.7197  131.0688  150.6184 LP  0  0  0  0  0  0  0  0  0  0  0  0  # atno 17370 bound_to 10713
  156.6261  130.4419  149.5804 LP  0  0  0  0  0  0  0  0  0  0  0  0  # atno 17371 bound_to 10713
  140.9554  133.7423  156.0328 LP  0  0  0  0  0  0  0  0  0  0  0  0  # atno 17394 bound_to 11000
  140.8055  134.3460  157.5427 LP  0  0  0  0  0  0  0  0  0  0  0  0  # atno 17395 bound_to 11000

$$$$
