AV-unprocessed.smi:605|AV-procd|sdf|3039|dock5
  -GOLD-   2262023553D 1   1.00000     0.00000
 Structure written by MMmdl.
 35 36  0  0  0  0  0  0  0  0  1 V2000
  146.2839  137.7442  152.8260 C   0  0  0  0  0  0  0  0  0  0  0  0
  146.4740  139.2533  152.6134 C   0  0  0  0  0  0  0  0  0  0  0  0
  146.7988  139.6215  151.1585 C   0  0  0  0  0  0  0  0  0  0  0  0
  147.4585  139.8401  153.5767 C   0  0  0  0  0  0  0  0  0  0  0  0
  148.3028  139.0945  154.3018 N   0  0  0  0  0  0  0  0  0  0  0  0
  149.1193  139.8639  155.1170 N   0  0  0  0  0  0  0  0  0  0  0  0
  148.8660  141.1743  154.9912 C   0  0  0  0  0  0  0  0  0  0  0  0
  149.5599  142.2041  155.6915 N   0  0  0  0  0  0  0  0  0  0  0  0
  150.6099  142.1618  156.5396 C   0  0  0  0  0  0  0  0  0  0  0  0
  151.1497  141.0934  156.8213 O   0  0  0  0  0  0  0  0  0  0  0  0
  151.0234  143.3412  157.0317 N   0  0  0  0  0  0  0  0  0  0  0  0
  152.1342  143.5518  157.9567 C   0  0  0  0  0  0  0  0  0  0  0  0
  151.8626  142.8540  159.3045 C   0  0  0  0  0  0  0  0  0  0  0  0
  152.0466  143.9228  160.3848 C   0  0  0  0  0  0  0  0  0  0  0  0
  151.7249  145.2372  159.6808 C   0  0  0  0  0  0  0  0  0  0  0  0
  152.2893  145.0498  158.2733 C   0  0  0  0  0  0  0  0  0  0  0  0
  147.6059  141.5749  153.8362 S   0  0  0  0  0  0  0  0  0  0  0  0
  145.9650  137.5287  153.8462 H   0  0  0  0  0  0  0  0  0  0  0  0
  147.2099  137.1977  152.6436 H   0  0  0  0  0  0  0  0  0  0  0  0
  145.5260  137.3447  152.1519 H   0  0  0  0  0  0  0  0  0  0  0  0
  145.5121  139.7159  152.8378 H   0  0  0  0  0  0  0  0  0  0  0  0
  146.8395  140.7034  151.0279 H   0  0  0  0  0  0  0  0  0  0  0  0
  146.0401  139.2353  150.4774 H   0  0  0  0  0  0  0  0  0  0  0  0
  147.7612  139.2119  150.8505 H   0  0  0  0  0  0  0  0  0  0  0  0
  149.2118  143.1341  155.5094 H   0  0  0  0  0  0  0  0  0  0  0  0
  150.5190  144.1673  156.7420 H   0  0  0  0  0  0  0  0  0  0  0  0
  153.0706  143.1834  157.5343 H   0  0  0  0  0  0  0  0  0  0  0  0
  150.8396  142.4761  159.3458 H   0  0  0  0  0  0  0  0  0  0  0  0
  152.5244  142.0022  159.4641 H   0  0  0  0  0  0  0  0  0  0  0  0
  151.4176  143.7490  161.2584 H   0  0  0  0  0  0  0  0  0  0  0  0
  153.0849  143.9323  160.7189 H   0  0  0  0  0  0  0  0  0  0  0  0
  150.6437  145.3725  159.6291 H   0  0  0  0  0  0  0  0  0  0  0  0
  152.1470  146.1031  160.1914 H   0  0  0  0  0  0  0  0  0  0  0  0
  153.3492  145.3076  158.2767 H   0  0  0  0  0  0  0  0  0  0  0  0
  151.8055  145.7002  157.5433 H   0  0  0  0  0  0  0  0  0  0  0  0
  1  2  1  0  0  0  0
  1 18  1  0  0  0  0
  1 19  1  0  0  0  0
  1 20  1  0  0  0  0
  2  3  1  0  0  0  0
  2  4  1  0  0  0  0
  2 21  1  0  0  0  0
  3 22  1  0  0  0  0
  3 23  1  0  0  0  0
  3 24  1  0  0  0  0
  4 17  1  0  0  0  0
  4  5  2  0  0  0  0
  5  6  1  0  0  0  0
  6  7  2  0  0  0  0
  7  8  1  0  0  0  0
  7 17  1  0  0  0  0
  8  9  1  0  0  0  0
  8 25  1  0  0  0  0
  9 10  2  0  0  0  0
  9 11  1  0  0  0  0
 11 12  1  0  0  0  0
 11 26  1  0  0  0  0
 12 16  1  0  0  0  0
 12 13  1  0  0  0  0
 12 27  1  0  0  0  0
 13 14  1  0  0  0  0
 13 28  1  0  0  0  0
 13 29  1  0  0  0  0
 14 15  1  0  0  0  0
 14 30  1  0  0  0  0
 14 31  1  0  0  0  0
 15 16  1  0  0  0  0
 15 32  1  0  0  0  0
 15 33  1  0  0  0  0
 16 34  1  0  0  0  0
 16 35  1  0  0  0  0
M  END
> <s_m_source_file>
AV-unprocessed.smi

> <i_m_source_file_index>
605

> <i_lp_mmshare_version>
43012

> <i_f3d_flags>
0

> <s_epik_input>
W0NIM11bQ0hdKFtDSDNdKWMxbm5jKHMxKVtOSF1DKD1PKVtOSF1bQ0hdMltDSDJdW0NIMl1bQ0gyXVtDSDJdMg==

> <s_epik_cmdline>
J2VwaWtfcHl0aG9uJywgJy1waCcsICc3LjAnLCAnLXRuJywgJzgnLCAnLW1hJywgJzIwMCcsICctbWV0YWxfYmluZGluZycsICctaW1hZScsICc8aW5maWxlLm1hZT4nLCAnLW9tYWUnLCAnPG91dGZpbGUubWFlPic=

> <r_lp_tautomer_probability>
1

> <r_epik_Ionization_Penalty>
0.000375049

> <r_epik_Ionization_Penalty_Charging>
0

> <r_epik_Ionization_Penalty_Neutral>
0.000375049

> <r_epik_State_Penalty>
-0

> <r_epik_Charging_Adjusted_Penalty>
0

> <i_epik_Tot_Q>
0

> <i_epik_Tot_abs_Q>
0

> <r_epik_Metal_State_Penalty>
0.186879

> <b_epik_Metal_Only>
0

> <s_lp_Force_Field>
OPLS_2005

> <r_lp_Energy>
14.8416

> <b_lp_Chiralities_Consistent>
1

> <s_lp_Variant>
AV-unprocessed.smi:605-1

> <Gold.Version>
5.8.1

> <Gold.Id.Protein>
6NUR|6NUR_protein|mol2

> <Gold.PLP.Fitness>
40.2171

> <Gold.PLP.PLP>
-35.0440

> <Gold.PLP.part.hbond>
-2.0000

> <Gold.PLP.part.metal>
0.0000

> <Gold.PLP.part.buried>
-0.1924

> <Gold.PLP.part.nonpolar>
-32.8268

> <Gold.PLP.part.repulsive>
0.3993

> <Gold.PLP.ligand.clash>
0.0000

> <Gold.PLP.ligand.torsion>
0.2390

> <Gold.PLP.Chemscore.Hbond>
1.8564

> <Gold.PLP.Chemscore.CHOScore>
0.0000

> <Gold.PLP.Chemscore.Metal>
0.0000

> <Gold.Chemscore.Hbonds>
donor molecule, donor type, donor heavy atom, donor atom, acceptor molecule, acceptor atom, score
      L1  H     8    25       P1  8028  1.00
      L1  H    11    26       P1  8028  0.85

> <Gold.PLP.Chemscore.Internal.Correction>
0.0818

> <Gold.Rescore>
     Score         DG    S(hbond)    S(metal)    S(lipo)     H(rot)  DE(clash)    DE(int)     intcor
     17.74     -20.22       1.88        0.00      98.51       1.20       1.07       1.41       ----

> <Gold.Chemscore.Fitness>
17.7360

> <Gold.Chemscore.DG>
-20.2161

> <Gold.Chemscore.ZeroCoef>
-5.4800

> <Gold.Chemscore.Hbond>
1.8789

> <Gold.Chemscore.Metal>
0.0000

> <Gold.Chemscore.Lipo>
98.5070

> <Gold.Chemscore.Internal_Hbond>
0.0000

> <Gold.Chemscore.DEClash>
1.0728

> <Gold.Chemscore.DEInternal>
1.4074

> <Gold.Chemscore.Rot>
1.1971

> <Gold.Chemscore.Internal.Correction>
   9.000000E+99

> <Gold.Chemscore.Hbonds>
donor molecule, donor type, donor heavy atom, donor atom, acceptor molecule, acceptor atom, score
      L1  H     8    25       P1  8028  0.99
      L1  H    11    26       P1  8028  0.79

> <Gold.Chemscore.Hbond.Weighted>
-6.2755

> <Gold.Chemscore.Metal.Weighted>
-0.0000

> <Gold.Chemscore.Lipo.Weighted>
-11.5253

> <Gold.Chemscore.Internal_Hbond.Weighted>
0.0000

> <Gold.Chemscore.DEClash.Weighted>
1.0728

> <Gold.Chemscore.DEInternal.Weighted>
1.4074

> <Gold.Chemscore.Rot.Weighted>
3.0647

> <Gold.Chemscore.Internal.Correction.Weighted>
   9.000000E+99

> <Gold.Protein.RotatedTorsions>
[ 6907 6896 6895 6894 ] final    8.46 input  -60.11 | X-H torsion
[ 7974 7965 7964 7962 ] final  148.86 input  175.53 | X-H torsion
[ 8008 7997 7996 7995 ] final -152.93 input   59.86 | X-H torsion
[ 10167 10162 10161 10158 ] final  -48.70 input  -65.29 | X-H torsion
[ 10718 10713 10712 10709 ] final   70.62 input   66.30 | X-H torsion
[ 10763 10752 10751 10750 ] final -125.34 input  -60.55 | X-H torsion
[ 11005 11000 10999 10996 ] final  167.87 input  -57.11 | X-H torsion

> <Gold.Protein.ActiveResidues>
 VAL166  LYS551  ARG553  GLY616  TRP617  ASP618  TYR619  PRO620  LYS621  CYS622 
 ASP623  PHE694  ASN695  SER759  ASP760  ASP761  ALA762  ILE779  LEU786  VAL792 
 PHE793  MET794  SER795  GLU796  ALA797  LYS798  CYS799  TRP800  GLU811  SER814 

> <Gold.Protein.RotatedAtoms>
  151.7064  135.0921  160.0259 H   0  0  0  0  0  0  0  0  0  0  0  0  # atno 6907 bound_to 6896
  152.3689  133.6388  159.6080 H   0  0  0  0  0  0  0  0  0  0  0  0  # atno 6908 bound_to 6896
  150.7658  133.9219  159.3442 H   0  0  0  0  0  0  0  0  0  0  0  0  # atno 6909 bound_to 6896
  144.8482  139.6207  143.5986 H   0  0  0  0  0  0  0  0  0  0  0  0  # atno 7974 bound_to 7965
  155.6629  140.0724  157.2548 H   0  0  0  0  0  0  0  0  0  0  0  0  # atno 8008 bound_to 7997
  154.4139  140.1713  156.1846 H   0  0  0  0  0  0  0  0  0  0  0  0  # atno 8009 bound_to 7997
  155.9682  140.3364  155.6555 H   0  0  0  0  0  0  0  0  0  0  0  0  # atno 8010 bound_to 7997
  140.6719  143.2728  151.4109 H   0  0  0  0  0  0  0  0  0  0  0  0  # atno 10167 bound_to 10162
  157.6410  130.9487  150.0676 H   0  0  0  0  0  0  0  0  0  0  0  0  # atno 10718 bound_to 10713
  154.8734  135.4033  154.3253 H   0  0  0  0  0  0  0  0  0  0  0  0  # atno 10763 bound_to 10752
  153.4075  135.7020  153.6388 H   0  0  0  0  0  0  0  0  0  0  0  0  # atno 10764 bound_to 10752
  153.5105  135.3708  155.2554 H   0  0  0  0  0  0  0  0  0  0  0  0  # atno 10765 bound_to 10752
  140.2813  134.7748  157.3760 H   0  0  0  0  0  0  0  0  0  0  0  0  # atno 11005 bound_to 11000
  146.2762  139.6759  142.9261 LP  0  0  0  0  0  0  0  0  0  0  0  0  # atno 17320 bound_to 7965
  145.4554  141.0430  143.2781 LP  0  0  0  0  0  0  0  0  0  0  0  0  # atno 17321 bound_to 7965
  139.5991  144.1333  152.2178 LP  0  0  0  0  0  0  0  0  0  0  0  0  # atno 17342 bound_to 10162
  140.0712  144.5778  150.7190 LP  0  0  0  0  0  0  0  0  0  0  0  0  # atno 17343 bound_to 10162
  156.1690  130.3646  149.9191 LP  0  0  0  0  0  0  0  0  0  0  0  0  # atno 17370 bound_to 10713
  156.7171  130.8992  151.3615 LP  0  0  0  0  0  0  0  0  0  0  0  0  # atno 17371 bound_to 10713
  140.1281  134.5131  155.8128 LP  0  0  0  0  0  0  0  0  0  0  0  0  # atno 17394 bound_to 11000
  141.2162  133.6780  156.6989 LP  0  0  0  0  0  0  0  0  0  0  0  0  # atno 17395 bound_to 11000

$$$$
