AV-unprocessed.smi:1533|AV-procd|sdf|6163|dock8
  -GOLD-   22720 6313D 1   1.00000     0.00000
 Structure written by MMmdl.
 37 39  0  0  0  0  0  0  0  0  1 V2000
  144.9859  144.0912  154.1261 C   0  0  0  0  0  0  0  0  0  0  0  0
  145.9774  143.0310  154.4626 C   0  0  0  0  0  0  0  0  0  0  0  0
  145.6784  142.0599  155.3167 N   0  0  0  0  0  0  0  0  0  0  0  0
  146.8480  141.2874  155.3493 O   0  0  0  0  0  0  0  0  0  0  0  0
  147.7190  141.8994  154.5104 C   0  0  0  0  0  0  0  0  0  0  0  0
  149.0549  141.2732  154.2703 C   0  0  0  0  0  0  0  0  0  0  0  0
  149.8943  141.0770  155.5474 C   0  0  0  0  0  0  0  0  0  0  0  0
  150.0970  142.3231  156.2833 N   0  0  0  0  0  0  0  0  0  0  0  0
  150.8769  142.4728  157.3658 C   0  0  0  0  0  0  0  0  0  0  0  0
  151.5242  141.5486  157.8596 O   0  0  0  0  0  0  0  0  0  0  0  0
  150.8874  143.8746  158.0001 C   0  0  1  0  0  0  0  0  0  0  0  0
  150.2474  143.9494  159.4084 C   0  0  0  0  0  0  0  0  0  0  0  0
  151.3450  144.6261  160.2513 C   0  0  1  0  0  0  0  0  0  0  0  0
  152.4929  143.6292  160.4970 C   0  0  0  0  0  0  0  0  0  0  0  0
  153.1898  143.5695  159.1253 C   0  0  0  0  0  0  0  0  0  0  0  0
  152.2962  144.4757  158.2498 C   0  0  2  0  0  0  0  0  0  0  0  0
  151.9674  145.5861  159.2434 C   0  0  0  0  0  0  0  0  0  0  0  0
  147.2272  142.9882  153.9248 N   0  0  0  0  0  0  0  0  0  0  0  0
  144.6787  144.6217  155.0277 H   0  0  0  0  0  0  0  0  0  0  0  0
  144.1029  143.6490  153.6640 H   0  0  0  0  0  0  0  0  0  0  0  0
  145.4138  144.8135  153.4303 H   0  0  0  0  0  0  0  0  0  0  0  0
  148.9007  140.3099  153.7832 H   0  0  0  0  0  0  0  0  0  0  0  0
  149.6034  141.8913  153.5588 H   0  0  0  0  0  0  0  0  0  0  0  0
  149.4329  140.3220  156.1865 H   0  0  0  0  0  0  0  0  0  0  0  0
  150.8752  140.6852  155.2781 H   0  0  0  0  0  0  0  0  0  0  0  0
  149.5945  143.1334  155.9509 H   0  0  0  0  0  0  0  0  0  0  0  0
  150.3357  144.5490  157.3420 H   0  0  0  0  0  0  0  0  0  0  0  0
  149.3512  144.5706  159.3802 H   0  0  0  0  0  0  0  0  0  0  0  0
  149.9545  142.9835  159.8226 H   0  0  0  0  0  0  0  0  0  0  0  0
  150.9694  145.0923  161.1625 H   0  0  0  0  0  0  0  0  0  0  0  0
  153.1783  144.0003  161.2598 H   0  0  0  0  0  0  0  0  0  0  0  0
  152.1280  142.6533  160.8198 H   0  0  0  0  0  0  0  0  0  0  0  0
  154.1935  143.9902  159.1977 H   0  0  0  0  0  0  0  0  0  0  0  0
  153.2998  142.5541  158.7470 H   0  0  0  0  0  0  0  0  0  0  0  0
  152.7862  144.8229  157.3396 H   0  0  0  0  0  0  0  0  0  0  0  0
  151.2626  146.3237  158.8552 H   0  0  0  0  0  0  0  0  0  0  0  0
  152.8495  146.1032  159.6258 H   0  0  0  0  0  0  0  0  0  0  0  0
  1  2  1  0  0  0  0
  1 19  1  0  0  0  0
  1 20  1  0  0  0  0
  1 21  1  0  0  0  0
  2 18  1  0  0  0  0
  2  3  2  0  0  0  0
  3  4  1  0  0  0  0
  4  5  1  0  0  0  0
  5  6  1  0  0  0  0
  5 18  2  0  0  0  0
  6  7  1  0  0  0  0
  6 22  1  0  0  0  0
  6 23  1  0  0  0  0
  7  8  1  0  0  0  0
  7 24  1  0  0  0  0
  7 25  1  0  0  0  0
  8  9  1  0  0  0  0
  8 26  1  0  0  0  0
  9 10  2  0  0  0  0
  9 11  1  0  0  0  0
 11 16  1  0  0  0  0
 11 12  1  0  0  0  0
 11 27  1  0  0  0  0
 12 13  1  0  0  0  0
 12 28  1  0  0  0  0
 12 29  1  0  0  0  0
 13 17  1  0  0  0  0
 13 14  1  0  0  0  0
 13 30  1  0  0  0  0
 14 15  1  0  0  0  0
 14 31  1  0  0  0  0
 14 32  1  0  0  0  0
 15 16  1  0  0  0  0
 15 33  1  0  0  0  0
 15 34  1  0  0  0  0
 16 17  1  0  0  0  0
 16 35  1  0  0  0  0
 17 36  1  0  0  0  0
 17 37  1  0  0  0  0
M  END
> <s_m_source_file>
AV-unprocessed.smi

> <i_m_source_file_index>
1533

> <i_lp_mmshare_version>
43012

> <i_f3d_flags>
0

> <s_epik_input>
W0NIM11jMW5vYyhuMSlbQ0gyXVtDSDJdW05IXUMoPU8pW0NASF0oW0NIMl1bQ0BASF0yMylbQ0BASF0oW0NIMl0zKVtDSDJdW0NIMl0y

> <s_epik_cmdline>
J2VwaWtfcHl0aG9uJywgJy1waCcsICc3LjAnLCAnLXRuJywgJzgnLCAnLW1hJywgJzIwMCcsICctbWV0YWxfYmluZGluZycsICctaW1hZScsICc8aW5maWxlLm1hZT4nLCAnLW9tYWUnLCAnPG91dGZpbGUubWFlPic=

> <r_lp_tautomer_probability>
1

> <r_epik_Ionization_Penalty>
1.90116e-08

> <r_epik_Ionization_Penalty_Charging>
0

> <r_epik_Ionization_Penalty_Neutral>
1.90116e-08

> <r_epik_State_Penalty>
-0

> <r_epik_Charging_Adjusted_Penalty>
0

> <i_epik_Tot_Q>
0

> <i_epik_Tot_abs_Q>
0

> <r_epik_Metal_State_Penalty>
-0

> <b_epik_Metal_Only>
0

> <s_lp_Force_Field>
OPLS_2005

> <r_lp_Energy>
44.7071

> <b_lp_Chiralities_Consistent>
1

> <s_lp_Variant>
AV-unprocessed.smi:1533-2

> <Gold.Version>
5.8.1

> <Gold.Id.Protein>
6NUR|6NUR_protein|mol2

> <Gold.PLP.Fitness>
45.5549

> <Gold.PLP.PLP>
-41.9504

> <Gold.PLP.part.hbond>
-2.0887

> <Gold.PLP.part.metal>
0.0000

> <Gold.PLP.part.buried>
-2.2000

> <Gold.PLP.part.nonpolar>
-39.6498

> <Gold.PLP.part.repulsive>
1.9162

> <Gold.PLP.ligand.clash>
0.0000

> <Gold.PLP.ligand.torsion>
0.1455

> <Gold.PLP.Chemscore.Hbond>
1.2917

> <Gold.PLP.Chemscore.CHOScore>
0.0000

> <Gold.PLP.Chemscore.Metal>
0.0000

> <Gold.Chemscore.Hbonds>
donor molecule, donor type, donor heavy atom, donor atom, acceptor molecule, acceptor atom, score
      L1  H     8    26       P1  8028  1.00
      P1  H  8022  8030       L1    18  0.26

> <Gold.PLP.Chemscore.Internal.Correction>
0.0202

> <Gold.Rescore>
     Score         DG    S(hbond)    S(metal)    S(lipo)     H(rot)  DE(clash)    DE(int)     intcor
     15.29     -18.02       1.42        0.00     107.23       1.85       1.58       1.15       ----

> <Gold.Chemscore.Fitness>
15.2875

> <Gold.Chemscore.DG>
-18.0194

> <Gold.Chemscore.ZeroCoef>
-5.4800

> <Gold.Chemscore.Hbond>
1.4151

> <Gold.Chemscore.Metal>
0.0000

> <Gold.Chemscore.Lipo>
107.2340

> <Gold.Chemscore.Internal_Hbond>
0.0000

> <Gold.Chemscore.DEClash>
1.5805

> <Gold.Chemscore.DEInternal>
1.1514

> <Gold.Chemscore.Rot>
1.8490

> <Gold.Chemscore.Internal.Correction>
   9.000000E+99

> <Gold.Chemscore.Hbonds>
donor molecule, donor type, donor heavy atom, donor atom, acceptor molecule, acceptor atom, score
      L1  H     8    26       P1  8028  1.00
      P1  H  8022  8030       L1    18  0.25

> <Gold.Chemscore.Hbond.Weighted>
-4.7264

> <Gold.Chemscore.Metal.Weighted>
-0.0000

> <Gold.Chemscore.Lipo.Weighted>
-12.5464

> <Gold.Chemscore.Internal_Hbond.Weighted>
0.0000

> <Gold.Chemscore.DEClash.Weighted>
1.5805

> <Gold.Chemscore.DEInternal.Weighted>
1.1514

> <Gold.Chemscore.Rot.Weighted>
4.7334

> <Gold.Chemscore.Internal.Correction.Weighted>
   9.000000E+99

> <Gold.Protein.RotatedTorsions>
[ 6907 6896 6895 6894 ] final  135.36 input  -60.11 | X-H torsion
[ 7974 7965 7964 7962 ] final  139.46 input  175.53 | X-H torsion
[ 8008 7997 7996 7995 ] final   18.43 input   59.86 | X-H torsion
[ 10167 10162 10161 10158 ] final   43.34 input  -65.29 | X-H torsion
[ 10718 10713 10712 10709 ] final  173.46 input   66.30 | X-H torsion
[ 10763 10752 10751 10750 ] final -108.23 input  -60.55 | X-H torsion
[ 11005 11000 10999 10996 ] final   20.18 input  -57.11 | X-H torsion

> <Gold.Protein.ActiveResidues>
 VAL166  LYS551  ARG553  GLY616  TRP617  ASP618  TYR619  PRO620  LYS621  CYS622 
 ASP623  PHE694  ASN695  SER759  ASP760  ASP761  ALA762  ILE779  LEU786  VAL792 
 PHE793  MET794  SER795  GLU796  ALA797  LYS798  CYS799  TRP800  GLU811  SER814 

> <Gold.Protein.RotatedAtoms>
  152.3013  133.5658  159.5619 H   0  0  0  0  0  0  0  0  0  0  0  0  # atno 6907 bound_to 6896
  150.7279  134.0287  159.3735 H   0  0  0  0  0  0  0  0  0  0  0  0  # atno 6908 bound_to 6896
  151.8187  135.0659  160.0473 H   0  0  0  0  0  0  0  0  0  0  0  0  # atno 6909 bound_to 6896
  144.9276  139.5087  143.5633 H   0  0  0  0  0  0  0  0  0  0  0  0  # atno 7974 bound_to 7965
  154.9058  140.3007  155.5292 H   0  0  0  0  0  0  0  0  0  0  0  0  # atno 8008 bound_to 7997
  156.3017  140.2398  156.4027 H   0  0  0  0  0  0  0  0  0  0  0  0  # atno 8009 bound_to 7997
  154.8475  140.0411  157.1571 H   0  0  0  0  0  0  0  0  0  0  0  0  # atno 8010 bound_to 7997
  140.3453  144.2418  150.6151 H   0  0  0  0  0  0  0  0  0  0  0  0  # atno 10167 bound_to 10162
  156.9639  131.0069  151.2921 H   0  0  0  0  0  0  0  0  0  0  0  0  # atno 10718 bound_to 10713
  154.8123  135.4645  154.0549 H   0  0  0  0  0  0  0  0  0  0  0  0  # atno 10763 bound_to 10752
  153.1970  135.6863  153.8286 H   0  0  0  0  0  0  0  0  0  0  0  0  # atno 10764 bound_to 10752
  153.7784  135.3260  155.3339 H   0  0  0  0  0  0  0  0  0  0  0  0  # atno 10765 bound_to 10752
  140.4055  134.1673  155.7665 H   0  0  0  0  0  0  0  0  0  0  0  0  # atno 11005 bound_to 11000
  146.3233  139.8203  142.8928 LP  0  0  0  0  0  0  0  0  0  0  0  0  # atno 17320 bound_to 7965
  145.3194  141.0240  143.3509 LP  0  0  0  0  0  0  0  0  0  0  0  0  # atno 17321 bound_to 7965
  140.5270  143.2252  151.8299 LP  0  0  0  0  0  0  0  0  0  0  0  0  # atno 17342 bound_to 10162
  139.4834  144.4767  151.9358 LP  0  0  0  0  0  0  0  0  0  0  0  0  # atno 17343 bound_to 10162
  157.5639  130.8264  149.8302 LP  0  0  0  0  0  0  0  0  0  0  0  0  # atno 17370 bound_to 10713
  156.0311  130.3764  150.1686 LP  0  0  0  0  0  0  0  0  0  0  0  0  # atno 17371 bound_to 10713
  141.1841  133.8351  157.1152 LP  0  0  0  0  0  0  0  0  0  0  0  0  # atno 17394 bound_to 11000
  140.0305  134.9903  157.0771 LP  0  0  0  0  0  0  0  0  0  0  0  0  # atno 17395 bound_to 11000

$$$$
