AV-unprocessed.smi:2202|AV-procd|sdf|8933|dock8
  -GOLD-   2272012153D 1   1.00000     0.00000
 Structure written by MMmdl.
 43 45  0  0  0  0  0  0  0  0  2 V2000
  153.4517  138.7071  155.9469 O   0  0  0  0  0  0  0  0  0  0  0  0
  152.5278  138.6580  156.7608 C   0  0  0  0  0  0  0  0  0  0  0  0
  152.7828  138.8539  158.2621 C   0  0  0  0  0  0  0  0  0  0  0  0
  152.5902  140.2396  158.7080 N   0  0  0  0  0  0  0  0  0  0  0  0
  151.6557  141.0749  158.2123 C   0  0  0  0  0  0  0  0  0  0  0  0
  150.9057  140.8703  157.2586 O   0  0  0  0  0  0  0  0  0  0  0  0
  151.5942  142.3208  159.0830 C   0  0  2  0  0  0  0  0  0  0  0  0
  151.3226  143.7186  158.5142 C   0  0  0  0  0  0  0  0  0  0  0  0
  151.5898  144.7419  159.6229 C   0  0  0  0  0  0  0  0  0  0  0  0
  152.2731  144.4593  160.7594 C   0  0  0  0  0  0  0  0  0  0  0  0
  152.8990  143.0929  161.0582 C   0  0  0  0  0  0  0  0  0  0  0  0
  152.9568  142.3008  159.7465 C   0  0  1  0  0  0  0  0  0  0  0  0
  153.3018  140.8205  159.6942 C   0  0  0  0  0  0  0  0  0  0  0  0
  154.1444  140.2876  160.4157 O   0  0  0  0  0  0  0  0  0  0  0  0
  151.2542  138.4277  156.4078 N   0  0  0  0  0  0  0  0  0  0  0  0
  150.7936  138.2219  155.0400 C   0  0  0  0  0  0  0  0  0  0  0  0
  149.3501  137.6915  155.0032 C   0  0  0  0  0  0  0  0  0  0  0  0
  148.3586  138.7566  154.5784 C   0  0  0  0  0  0  0  0  0  0  0  0
  148.4038  140.0734  155.0855 C   0  0  0  0  0  0  0  0  0  0  0  0
  147.4444  141.0117  154.6506 C   0  0  0  0  0  0  0  0  0  0  0  0
  146.4622  140.6142  153.7196 C   0  0  0  0  0  0  0  0  0  0  0  0
  146.4637  139.2861  153.2463 C   0  0  0  0  0  0  0  0  0  0  0  0
  147.3987  138.4163  153.6877 N   0  3  0  0  0  0  0  0  0  0  0  0
  152.1211  138.1943  158.8265 H   0  0  0  0  0  0  0  0  0  0  0  0
  153.7972  138.5209  158.4874 H   0  0  0  0  0  0  0  0  0  0  0  0
  150.8238  142.1120  159.8294 H   0  0  0  0  0  0  0  0  0  0  0  0
  151.9560  143.9352  157.6532 H   0  0  0  0  0  0  0  0  0  0  0  0
  150.2847  143.7986  158.1898 H   0  0  0  0  0  0  0  0  0  0  0  0
  151.1972  145.7362  159.4684 H   0  0  0  0  0  0  0  0  0  0  0  0
  152.4012  145.2251  161.5104 H   0  0  0  0  0  0  0  0  0  0  0  0
  153.9036  143.2339  161.4580 H   0  0  0  0  0  0  0  0  0  0  0  0
  152.3103  142.5763  161.8171 H   0  0  0  0  0  0  0  0  0  0  0  0
  153.6850  142.7909  159.0958 H   0  0  0  0  0  0  0  0  0  0  0  0
  150.5566  138.3963  157.1376 H   0  0  0  0  0  0  0  0  0  0  0  0
  150.8757  139.1544  154.4787 H   0  0  0  0  0  0  0  0  0  0  0  0
  151.4639  137.5097  154.5577 H   0  0  0  0  0  0  0  0  0  0  0  0
  149.2812  136.8438  154.3199 H   0  0  0  0  0  0  0  0  0  0  0  0
  149.0567  137.3176  155.9853 H   0  0  0  0  0  0  0  0  0  0  0  0
  149.1617  140.3627  155.7991 H   0  0  0  0  0  0  0  0  0  0  0  0
  147.4612  142.0240  155.0274 H   0  0  0  0  0  0  0  0  0  0  0  0
  145.7184  141.3175  153.3744 H   0  0  0  0  0  0  0  0  0  0  0  0
  145.7504  138.8958  152.5350 H   0  0  0  0  0  0  0  0  0  0  0  0
  147.3804  137.4594  153.3332 H   0  0  0  0  0  0  0  0  0  0  0  0
  1  2  2  0  0  0  0
  2  3  1  0  0  0  0
  2 15  1  0  0  0  0
  3  4  1  0  0  0  0
  3 24  1  0  0  0  0
  3 25  1  0  0  0  0
  4 13  1  0  0  0  0
  4  5  1  0  0  0  0
  5  6  2  0  0  0  0
  5  7  1  0  0  0  0
  7 12  1  0  0  0  0
  7  8  1  0  0  0  0
  7 26  1  0  0  0  0
  8  9  1  0  0  0  0
  8 27  1  0  0  0  0
  8 28  1  0  0  0  0
  9 10  2  0  0  0  0
  9 29  1  0  0  0  0
 10 11  1  0  0  0  0
 10 30  1  0  0  0  0
 11 12  1  0  0  0  0
 11 31  1  0  0  0  0
 11 32  1  0  0  0  0
 12 13  1  0  0  0  0
 12 33  1  0  0  0  0
 13 14  2  0  0  0  0
 15 16  1  0  0  0  0
 15 34  1  0  0  0  0
 16 17  1  0  0  0  0
 16 35  1  0  0  0  0
 16 36  1  0  0  0  0
 17 18  1  0  0  0  0
 17 37  1  0  0  0  0
 17 38  1  0  0  0  0
 18 23  1  0  0  0  0
 18 19  2  0  0  0  0
 19 20  1  0  0  0  0
 19 39  1  0  0  0  0
 20 21  2  0  0  0  0
 20 40  1  0  0  0  0
 21 22  1  0  0  0  0
 21 41  1  0  0  0  0
 22 23  2  0  0  0  0
 22 42  1  0  0  0  0
 23 43  1  0  0  0  0
M  CHG  1  23   1
M  END
> <s_m_source_file>
AV-unprocessed.smi

> <i_m_source_file_index>
2202

> <i_lp_mmshare_version>
43012

> <i_f3d_flags>
0

> <s_epik_input>
W0NIMl0xW0NIXT1bQ0hdW0NIMl1bQ0BIXShbQ0BIXTEyKUMoPU8pTihDMj1PKVtDSDJdQyg9TylbTkhdW0NIMl1bQ0gyXWMzW2NIXVtjSF1bY0hdW2NIXW4z

> <s_epik_cmdline>
J2VwaWtfcHl0aG9uJywgJy1waCcsICc3LjAnLCAnLXRuJywgJzgnLCAnLW1hJywgJzIwMCcsICctbWV0YWxfYmluZGluZycsICctaW1hZScsICc8aW5maWxlLm1hZT4nLCAnLW9tYWUnLCAnPG91dGZpbGUubWFlPic=

> <r_lp_tautomer_probability>
1

> <r_epik_Ionization_Penalty>
1.90039

> <r_epik_Ionization_Penalty_Charging>
1.90039

> <r_epik_Ionization_Penalty_Neutral>
1.50224e-07

> <r_epik_State_Penalty>
2.02162

> <r_epik_Charging_Adjusted_Penalty>
3.922

> <i_epik_Tot_Q>
1

> <i_epik_Tot_abs_Q>
1

> <r_epik_Metal_State_Penalty>
2.04542

> <b_epik_Metal_Only>
0

> <s_lp_Force_Field>
OPLS_2005

> <r_lp_Energy>
26.3593

> <b_lp_Chiralities_Consistent>
1

> <s_lp_Variant>
AV-unprocessed.smi:2202-5

> <Gold.Version>
5.8.1

> <Gold.Id.Protein>
6NUR|6NUR_protein|mol2

> <Gold.PLP.Fitness>
54.0033

> <Gold.PLP.PLP>
-48.5327

> <Gold.PLP.part.hbond>
-2.4953

> <Gold.PLP.part.metal>
0.0000

> <Gold.PLP.part.buried>
-4.2283

> <Gold.PLP.part.nonpolar>
-41.1494

> <Gold.PLP.part.repulsive>
0.1436

> <Gold.PLP.ligand.clash>
0.0000

> <Gold.PLP.ligand.torsion>
1.3115

> <Gold.PLP.Chemscore.Hbond>
2.6880

> <Gold.PLP.Chemscore.CHOScore>
0.0000

> <Gold.PLP.Chemscore.Metal>
0.0000

> <Gold.Chemscore.Hbonds>
donor molecule, donor type, donor heavy atom, donor atom, acceptor molecule, acceptor atom, score
      P1  H  7997  8010       L1     1  0.91

> <Gold.PLP.Chemscore.Internal.Correction>
0.0296

> <Gold.Rescore>
     Score         DG    S(hbond)    S(metal)    S(lipo)     H(rot)  DE(clash)    DE(int)     intcor
     17.54     -19.83       1.69        0.00     117.27       1.96       0.05       2.24       ----

> <Gold.Chemscore.Fitness>
17.5416

> <Gold.Chemscore.DG>
-19.8266

> <Gold.Chemscore.ZeroCoef>
-5.4800

> <Gold.Chemscore.Hbond>
1.6917

> <Gold.Chemscore.Metal>
0.0000

> <Gold.Chemscore.Lipo>
117.2686

> <Gold.Chemscore.Internal_Hbond>
0.0000

> <Gold.Chemscore.DEClash>
0.0470

> <Gold.Chemscore.DEInternal>
2.2380

> <Gold.Chemscore.Rot>
1.9625

> <Gold.Chemscore.Internal.Correction>
   9.000000E+99

> <Gold.Chemscore.Hbonds>
donor molecule, donor type, donor heavy atom, donor atom, acceptor molecule, acceptor atom, score
      L1  H    23    43       P1  7948  0.02
      P1  H  7997  8010       L1     1  0.53

> <Gold.Chemscore.Hbond.Weighted>
-5.6502

> <Gold.Chemscore.Metal.Weighted>
-0.0000

> <Gold.Chemscore.Lipo.Weighted>
-13.7204

> <Gold.Chemscore.Internal_Hbond.Weighted>
0.0000

> <Gold.Chemscore.DEClash.Weighted>
0.0470

> <Gold.Chemscore.DEInternal.Weighted>
2.2380

> <Gold.Chemscore.Rot.Weighted>
5.0240

> <Gold.Chemscore.Internal.Correction.Weighted>
   9.000000E+99

> <Gold.Protein.RotatedTorsions>
[ 6907 6896 6895 6894 ] final -128.55 input  -60.11 | X-H torsion
[ 7974 7965 7964 7962 ] final  -65.91 input  175.53 | X-H torsion
[ 8008 7997 7996 7995 ] final   79.23 input   59.86 | X-H torsion
[ 10167 10162 10161 10158 ] final  114.29 input  -65.29 | X-H torsion
[ 10718 10713 10712 10709 ] final   55.78 input   66.30 | X-H torsion
[ 10763 10752 10751 10750 ] final  -45.33 input  -60.55 | X-H torsion
[ 11005 11000 10999 10996 ] final  124.20 input  -57.11 | X-H torsion

> <Gold.Protein.ActiveResidues>
 VAL166  LYS551  ARG553  GLY616  TRP617  ASP618  TYR619  PRO620  LYS621  CYS622 
 ASP623  PHE694  ASN695  SER759  ASP760  ASP761  ALA762  ILE779  LEU786  VAL792 
 PHE793  MET794  SER795  GLU796  ALA797  LYS798  CYS799  TRP800  GLU811  SER814 

> <Gold.Protein.RotatedAtoms>
  150.9191  133.6902  159.2836 H   0  0  0  0  0  0  0  0  0  0  0  0  # atno 6907 bound_to 6896
  151.4363  135.1014  159.9666 H   0  0  0  0  0  0  0  0  0  0  0  0  # atno 6908 bound_to 6896
  152.4970  133.8610  159.7305 H   0  0  0  0  0  0  0  0  0  0  0  0  # atno 6909 bound_to 6896
  145.7484  140.8920  143.0493 H   0  0  0  0  0  0  0  0  0  0  0  0  # atno 7974 bound_to 7965
  155.8668  140.3451  155.5793 H   0  0  0  0  0  0  0  0  0  0  0  0  # atno 8008 bound_to 7997
  155.7872  140.0866  157.2047 H   0  0  0  0  0  0  0  0  0  0  0  0  # atno 8009 bound_to 7997
  154.4015  140.1490  156.3108 H   0  0  0  0  0  0  0  0  0  0  0  0  # atno 8010 bound_to 7997
  139.6399  144.7123  151.2258 H   0  0  0  0  0  0  0  0  0  0  0  0  # atno 10167 bound_to 10162
  157.5375  130.8673  149.8774 H   0  0  0  0  0  0  0  0  0  0  0  0  # atno 10718 bound_to 10713
  154.0268  135.6662  153.4777 H   0  0  0  0  0  0  0  0  0  0  0  0  # atno 10763 bound_to 10752
  153.0557  135.5057  154.7970 H   0  0  0  0  0  0  0  0  0  0  0  0  # atno 10764 bound_to 10752
  154.6903  135.3060  154.9454 H   0  0  0  0  0  0  0  0  0  0  0  0  # atno 10765 bound_to 10752
  139.9348  134.9640  156.8374 H   0  0  0  0  0  0  0  0  0  0  0  0  # atno 11005 bound_to 11000
  144.6855  139.9557  143.7479 LP  0  0  0  0  0  0  0  0  0  0  0  0  # atno 17320 bound_to 7965
  146.0380  139.3395  143.0714 LP  0  0  0  0  0  0  0  0  0  0  0  0  # atno 17321 bound_to 7965
  140.7485  143.6330  150.8405 LP  0  0  0  0  0  0  0  0  0  0  0  0  # atno 17342 bound_to 10162
  139.9966  143.5789  152.2891 LP  0  0  0  0  0  0  0  0  0  0  0  0  # atno 17343 bound_to 10162
  156.0470  130.3726  150.1293 LP  0  0  0  0  0  0  0  0  0  0  0  0  # atno 17370 bound_to 10713
  156.9475  130.9764  151.3504 LP  0  0  0  0  0  0  0  0  0  0  0  0  # atno 17371 bound_to 10713
  140.6106  134.0086  155.7575 LP  0  0  0  0  0  0  0  0  0  0  0  0  # atno 17394 bound_to 11000
  141.0956  133.9849  157.3166 LP  0  0  0  0  0  0  0  0  0  0  0  0  # atno 17395 bound_to 11000

$$$$
