#       Name:                AV-unprocessed.smi:1515
#       Creating user name   scv26
#       Creation time:       Fri Mar 27 06:25:15 2020


#       File generated by GOLD software.
#

@<TRIPOS>MOLECULE
AV-unprocessed.smi:1515
    39    40     1
SMALL
NO_CHARGES


@<TRIPOS>ATOM
      1 ****        -2.5697  -4.5952  -0.2024 C.3            1 S1                 0.0000
      2 ****        -1.9120  -3.3328  -0.2210 O.3            1 S1                 0.0000
      3 ****        -2.6837  -2.1863  -0.2098 C.ar           1 S1                 0.0000
      4 ****        -4.0337  -2.3185  -0.1749 N.ar           1 S1                 0.0000
      5 ****        -4.7891  -1.2013  -0.1567 C.ar           1 S1                 0.0000
      6 ****        -4.2455   0.0960  -0.1664 C.ar           1 S1                 0.0000
      7 ****        -2.8460   0.2360  -0.2035 C.ar           1 S1                 0.0000
      8 ****        -2.0390  -0.9274  -0.2369 C.ar           1 S1                 0.0000
      9 ****        -0.6166  -0.8999  -0.2522 N.am           1 S1                 0.0000
     10 ****         0.1997   0.0923  -0.6463 C.2            1 S1                 0.0000
     11 ****        -0.1650   1.1671  -1.1223 O.2            1 S1                 0.0000
     12 ****         1.4861  -0.2427  -0.4723 N.am           1 S1                 0.0000
     13 ****         2.6297   0.6062  -0.7874 C.3            1 S1                 0.0000
     14 ****         3.0252   1.4738   0.4051 C.3            1 S1                 0.0000
     15 ****         2.1401   2.6572   0.8294 C.3            1 S1                 0.0000
     16 ****         3.4140   3.4143   1.2120 C.3            1 S1                 0.0000
     17 ****         4.1687   2.4882   0.2545 C.3            1 S1                 0.0000
     18 ****        -1.8238  -5.3898  -0.2117 H              1 S1                 0.0000
     19 ****        -3.2045  -4.7276  -1.0797 H              1 S1                 0.0000
     20 ****        -3.1728  -4.7188   0.6982 H              1 S1                 0.0000
     21 ****        -5.8589  -1.3458  -0.1263 H              1 S1                 0.0000
     22 ****        -4.8869   0.9644  -0.1402 H              1 S1                 0.0000
     23 ****        -2.4234   1.2284  -0.1890 H              1 S1                 0.0000
     24 ****        -0.1674  -1.7596   0.0281 H              1 S1                 0.0000
     25 ****         1.6908  -1.1510  -0.0824 H              1 S1                 0.0000
     26 ****         3.4593  -0.0434  -1.0669 H              1 S1                 0.0000
     27 ****         2.4204   1.2212  -1.6643 H              1 S1                 0.0000
     28 ****         3.2277   0.8550   1.2821 H              1 S1                 0.0000
     29 ****         1.6149   3.1176  -0.0092 H              1 S1                 0.0000
     30 ****         1.4642   2.4465   1.6587 H              1 S1                 0.0000
     31 ****         3.4216   4.4681   0.9318 H              1 S1                 0.0000
     32 ****         3.6971   3.2679   2.2555 H              1 S1                 0.0000
     33 ****         5.1361   2.1427   0.6200 H              1 S1                 0.0000
     34 ****         4.2432   2.8974  -0.7545 H              1 S1                 0.0000
     35 ****        -1.3524  -3.3038  -1.0492 LP             1 S1                 0.0000
     36 ****        -1.3189  -3.2972   0.5834 LP             1 S1                 0.0000
     37 ****        -4.4588  -3.2236  -0.1629 LP             1 S1                 0.0000
     38 ****        -1.1397   1.3560  -1.2417 LP             1 S1                 0.0000
     39 ****         0.5134   1.8515  -1.3896 LP             1 S1                 0.0000
@<TRIPOS>BOND
    1    1    2 1     
    2    1   18 1     
    3    1   19 1     
    4    1   20 1     
    5    2    3 1     
    6    3    8 ar    
    7    3    4 ar    
    8    4    5 ar    
    9    5    6 ar    
   10    5   21 1     
   11    6    7 ar    
   12    6   22 1     
   13    7    8 ar    
   14    7   23 1     
   15    8    9 1     
   16    9   10 am    
   17    9   24 1     
   18   10   11 2     
   19   10   12 am    
   20   12   13 1     
   21   12   25 1     
   22   13   14 1     
   23   13   26 1     
   24   13   27 1     
   25   14   17 1     
   26   14   15 1     
   27   14   28 1     
   28   15   16 1     
   29   15   29 1     
   30   15   30 1     
   31   16   17 1     
   32   16   31 1     
   33   16   32 1     
   34   17   33 1     
   35   17   34 1     
   36    2   35 1     
   37    2   36 1     
   38    4   37 1     
   39   11   38 1     
   40   11   39 1     
@<TRIPOS>SUBSTRUCTURE
      1 S1             1
@<TRIPOS>SET
LONE_PAIRS      STATIC     ATOMS    <user>   **** ""
5 35 36 37 38 39
DONOR_HYDROGENS      STATIC     ATOMS    <user>   **** ""
2 24 25
ATOM$BLUE        STATIC     ATOMS    COLORGROUP SYSTEM
5 35 36 37 38 39
ATOM$RED        STATIC     ATOMS    COLORGROUP SYSTEM
2 24 25
