#       Name:                AV-unprocessed.smi:458
#       Creating user name   scv26
#       Creation time:       Thu Mar 26 23:02:27 2020


#       File generated by GOLD software.
#

@<TRIPOS>MOLECULE
AV-unprocessed.smi:458
    41    43     1
SMALL
NO_CHARGES


@<TRIPOS>ATOM
      1 ****        -0.1919   3.8137   0.4654 O.3            1 S1                 0.0000
      2 ****        -0.2866   3.4293  -0.8883 C.3            1 S1                 0.0000
      3 ****        -0.7701   2.0252  -1.0446 C.2            1 S1                 0.0000
      4 ****        -2.0755   1.6369  -1.0857 N.pl3          1 S1                 1.0000
      5 ****        -2.1530   0.2504  -1.2152 C.ar           1 S1                 0.0000
      6 ****        -3.2557  -0.5947  -1.2920 C.ar           1 S1                 0.0000
      7 ****        -2.9887  -1.9740  -1.4125 C.ar           1 S1                 0.0000
      8 ****        -1.6678  -2.4646  -1.4531 C.ar           1 S1                 0.0000
      9 ****        -0.5583  -1.5975  -1.3778 C.ar           1 S1                 0.0000
     10 ****        -0.8292  -0.2338  -1.2581 C.ar           1 S1                 0.0000
     11 ****        -0.0085   0.8971  -1.1485 N.pl3          1 S1                 0.0000
     12 ****         1.4560   0.7389  -1.1397 C.3            1 S1                 0.0000
     13 ****         2.0461   0.7889   0.2840 C.3            1 S1                 0.0000
     14 ****         3.4543   0.8195   0.1766 O.3            1 S1                 0.0000
     15 ****         1.5561  -0.3596   1.1550 C.ar           1 S1                 0.0000
     16 ****         0.5111  -0.1432   2.0791 C.ar           1 S1                 0.0000
     17 ****         0.0274  -1.2061   2.8662 C.ar           1 S1                 0.0000
     18 ****         0.5870  -2.4914   2.7352 C.ar           1 S1                 0.0000
     19 ****         0.1196  -3.5140   3.4894 F              1 S1                 0.0000
     20 ****         1.6312  -2.7132   1.8171 C.ar           1 S1                 0.0000
     21 ****         2.1146  -1.6509   1.0288 C.ar           1 S1                 0.0000
     22 ****         0.1200   4.7053   0.5039 H              1 S1                 0.0000
     23 ****        -0.9703   4.1053  -1.4023 H              1 S1                 0.0000
     24 ****         0.6883   3.5420  -1.3617 H              1 S1                 0.0000
     25 ****        -4.2686  -0.2211  -1.2589 H              1 S1                 0.0000
     26 ****        -3.8133  -2.6694  -1.4738 H              1 S1                 0.0000
     27 ****        -1.5012  -3.5284  -1.5432 H              1 S1                 0.0000
     28 ****         0.4470  -1.9903  -1.4059 H              1 S1                 0.0000
     29 ****         1.7326  -0.1816  -1.6532 H              1 S1                 0.0000
     30 ****         1.8668   1.5494  -1.7425 H              1 S1                 0.0000
     31 ****         1.7563   1.7285   0.7554 H              1 S1                 0.0000
     32 ****         3.8181   0.9563   1.0382 H              1 S1                 0.0000
     33 ****         0.0697   0.8378   2.1794 H              1 S1                 0.0000
     34 ****        -0.7748  -1.0354   3.5690 H              1 S1                 0.0000
     35 ****         2.0598  -3.6993   1.7150 H              1 S1                 0.0000
     36 ****         2.9087  -1.8336   0.3196 H              1 S1                 0.0000
     37 ****        -2.8558   2.2779  -1.0210 H              1 S1                 0.0000
     38 ****         0.4482   3.2117   0.9428 LP             1 S1                 0.0000
     39 ****        -1.0920   3.7525   0.8970 LP             1 S1                 0.0000
     40 ****         3.7302   1.5663  -0.4285 LP             1 S1                 0.0000
     41 ****         3.7832  -0.0489  -0.1944 LP             1 S1                 0.0000
@<TRIPOS>BOND
    1    1    2 1     
    2    1   22 1     
    3    2    3 1     
    4    2   23 1     
    5    2   24 1     
    6    3   11 1     
    7    3    4 2     
    8    4    5 1     
    9    4   37 1     
   10    5   10 ar    
   11    5    6 ar    
   12    6    7 ar    
   13    6   25 1     
   14    7    8 ar    
   15    7   26 1     
   16    8    9 ar    
   17    8   27 1     
   18    9   10 ar    
   19    9   28 1     
   20   10   11 1     
   21   11   12 1     
   22   12   13 1     
   23   12   29 1     
   24   12   30 1     
   25   13   14 1     
   26   13   15 1     
   27   13   31 1     
   28   14   32 1     
   29   15   21 ar    
   30   15   16 ar    
   31   16   17 ar    
   32   16   33 1     
   33   17   18 ar    
   34   17   34 1     
   35   18   19 1     
   36   18   20 ar    
   37   20   21 ar    
   38   20   35 1     
   39   21   36 1     
   40    1   38 1     
   41    1   39 1     
   42   14   40 1     
   43   14   41 1     
@<TRIPOS>SUBSTRUCTURE
      1 S1             1
@<TRIPOS>SET
LONE_PAIRS      STATIC     ATOMS    <user>   **** ""
4 38 39 40 41
DONOR_HYDROGENS      STATIC     ATOMS    <user>   **** ""
3 22 37 32
ATOM$BLUE        STATIC     ATOMS    COLORGROUP SYSTEM
4 38 39 40 41
ATOM$RED        STATIC     ATOMS    COLORGROUP SYSTEM
3 22 37 32
