#       Name:                AV-unprocessed.smi:1205
#       Creating user name   scv26
#       Creation time:       Fri Mar 27 04:06:57 2020


#       File generated by GOLD software.
#

@<TRIPOS>MOLECULE
AV-unprocessed.smi:1205
    52    53     1
SMALL
NO_CHARGES


@<TRIPOS>ATOM
      1 ****        -6.1832   4.2752   0.0367 C.3            1 S1                 0.0000
      2 ****        -5.5264   2.9559   0.3178 C.2            1 S1                 0.0000
      3 ****        -4.1338   2.6537   0.3277 C.2            1 S1                 0.0000
      4 ****        -4.1163   1.3212   0.6378 C.2            1 S1                 0.0000
      5 ****        -3.0469   0.4927   0.7758 N.am           1 S1                 0.0000
      6 ****        -1.7376   0.7908   0.7106 C.2            1 S1                 0.0000
      7 ****        -1.2678   1.9164   0.5447 O.2            1 S1                 0.0000
      8 ****        -0.9835  -0.3098   0.8497 N.am           1 S1                 0.0000
      9 ****         0.4769  -0.3445   0.8520 C.3            1 S1                 0.0000
     10 ****         1.0656  -0.7332  -0.5292 C.3            1 S1                 0.0000
     11 ****         0.6714   0.2369  -1.6597 C.3            1 S1                 0.0000
     12 ****         2.5464  -0.9174  -0.5029 N.4            1 S1                 1.0000
     13 ****         3.3247   0.2279   0.0425 C.3            1 S1                 0.0000
     14 ****         4.8262   0.0406  -0.2251 C.3            1 S1                 0.0000
     15 ****         5.3250  -1.2943   0.3487 C.3            1 S1                 0.0000
     16 ****         4.4753  -2.4765  -0.1558 C.3            1 S1                 0.0000
     17 ****         4.7646  -2.8348  -1.6243 C.3            1 S1                 0.0000
     18 ****         2.9759  -2.2110   0.0935 C.3            1 S1                 0.0000
     19 ****        -5.4144   0.8835   0.7924 N.pl3          1 S1                 0.0000
     20 ****        -5.9238  -0.4341   1.1212 C.3            1 S1                 0.0000
     21 ****        -6.2817   1.8999   0.5979 N.2            1 S1                 0.0000
     22 ****        -5.4576   5.0095  -0.3137 H              1 S1                 0.0000
     23 ****        -6.6555   4.6770   0.9335 H              1 S1                 0.0000
     24 ****        -6.9513   4.1772  -0.7309 H              1 S1                 0.0000
     25 ****        -3.3053   3.3183   0.1346 H              1 S1                 0.0000
     26 ****        -3.2752  -0.4758   0.9447 H              1 S1                 0.0000
     27 ****        -1.4571  -1.1920   0.9803 H              1 S1                 0.0000
     28 ****         0.8681   0.6167   1.1884 H              1 S1                 0.0000
     29 ****         0.7755  -1.0724   1.6059 H              1 S1                 0.0000
     30 ****         0.6349  -1.6960  -0.8086 H              1 S1                 0.0000
     31 ****        -0.4023   0.2139  -1.8463 H              1 S1                 0.0000
     32 ****         1.1617  -0.0306  -2.5963 H              1 S1                 0.0000
     33 ****         0.9390   1.2671  -1.4249 H              1 S1                 0.0000
     34 ****         2.9962   1.1627  -0.4105 H              1 S1                 0.0000
     35 ****         3.1570   0.3175   1.1165 H              1 S1                 0.0000
     36 ****         5.0185   0.0823  -1.2977 H              1 S1                 0.0000
     37 ****         5.3868   0.8646   0.2172 H              1 S1                 0.0000
     38 ****         6.3766  -1.4440   0.1016 H              1 S1                 0.0000
     39 ****         5.2709  -1.2547   1.4375 H              1 S1                 0.0000
     40 ****         4.7546  -3.3512   0.4332 H              1 S1                 0.0000
     41 ****         4.4933  -2.0264  -2.3033 H              1 S1                 0.0000
     42 ****         4.2045  -3.7198  -1.9271 H              1 S1                 0.0000
     43 ****         5.8226  -3.0520  -1.7736 H              1 S1                 0.0000
     44 ****         2.7793  -2.1991   1.1663 H              1 S1                 0.0000
     45 ****         2.3896  -3.0322  -0.3210 H              1 S1                 0.0000
     46 ****        -5.1445  -1.1870   1.0044 H              1 S1                 0.0000
     47 ****        -6.7536  -0.6867   0.4603 H              1 S1                 0.0000
     48 ****        -6.2743  -0.4434   2.1534 H              1 S1                 0.0000
     49 ****         2.8111  -0.9842  -1.4754 H              1 S1                 0.0000
     50 ****        -1.8773   2.7030   0.4456 LP             1 S1                 0.0000
     51 ****        -0.2767   2.0443   0.5090 LP             1 S1                 0.0000
     52 ****        -7.2796   1.8651   0.6530 LP             1 S1                 0.0000
@<TRIPOS>BOND
    1    1    2 1     
    2    1   22 1     
    3    1   23 1     
    4    1   24 1     
    5    2   21 2     
    6    2    3 1     
    7    3    4 2     
    8    3   25 1     
    9    4    5 1     
   10    4   19 1     
   11    5    6 am    
   12    5   26 1     
   13    6    7 2     
   14    6    8 am    
   15    8    9 1     
   16    8   27 1     
   17    9   10 1     
   18    9   28 1     
   19    9   29 1     
   20   10   11 1     
   21   10   12 1     
   22   10   30 1     
   23   11   31 1     
   24   11   32 1     
   25   11   33 1     
   26   12   18 1     
   27   12   13 1     
   28   12   49 1     
   29   13   14 1     
   30   13   34 1     
   31   13   35 1     
   32   14   15 1     
   33   14   36 1     
   34   14   37 1     
   35   15   16 1     
   36   15   38 1     
   37   15   39 1     
   38   16   17 1     
   39   16   18 1     
   40   16   40 1     
   41   17   41 1     
   42   17   42 1     
   43   17   43 1     
   44   18   44 1     
   45   18   45 1     
   46   19   20 1     
   47   19   21 1     
   48   20   46 1     
   49   20   47 1     
   50   20   48 1     
   51    7   50 1     
   52    7   51 1     
   53   21   52 1     
@<TRIPOS>SUBSTRUCTURE
      1 S1             1
@<TRIPOS>SET
LONE_PAIRS      STATIC     ATOMS    <user>   **** ""
3 50 51 52
DONOR_HYDROGENS      STATIC     ATOMS    <user>   **** ""
3 26 27 49
ATOM$BLUE        STATIC     ATOMS    COLORGROUP SYSTEM
3 50 51 52
ATOM$RED        STATIC     ATOMS    COLORGROUP SYSTEM
3 26 27 49
