AV-unprocessed.smi:2226|AV-procd|sdf|9019|dock1
  -GOLD-   2272012223D 1   1.00000     0.00000
 Structure written by MMmdl.
 39 41  0  0  0  0  0  0  0  0  3 V2000
  146.2521  131.7416  149.0155 C   0  0  0  0  0  0  0  0  0  0  0  0
  146.6130  131.8917  150.4452 N   0  3  2  0  0  0  0  0  0  0  0  0
  145.6315  131.3209  151.3992 C   0  0  2  0  0  0  0  0  0  0  0  0
  144.3257  132.1551  151.4321 C   0  0  0  0  0  0  0  0  0  0  0  0
  144.5518  133.6608  151.6645 C   0  0  0  0  0  0  0  0  0  0  0  0
  145.7476  134.2059  150.8610 C   0  0  0  0  0  0  0  0  0  0  0  0
  146.9817  133.2685  150.8546 C   0  0  1  0  0  0  0  0  0  0  0  0
  147.7487  133.2000  152.1941 C   0  0  0  0  0  0  0  0  0  0  0  0
  147.0245  132.4052  153.3118 C   0  0  2  0  0  0  0  0  0  0  0  0
  147.9802  132.0098  154.3438 N   0  0  0  0  0  0  0  0  0  0  0  0
  148.8636  132.8138  154.9538 C   0  0  0  0  0  0  0  0  0  0  0  0
  148.9161  134.0091  154.6554 O   0  0  0  0  0  0  0  0  0  0  0  0
  149.6312  132.1800  155.8679 N   0  5  0  0  0  0  0  0  0  0  0  0
  150.4656  131.2032  155.4770 C   0  0  0  0  0  0  0  0  0  0  0  0
  150.2290  130.2941  154.5298 N   0  0  0  0  0  0  0  0  0  0  0  0
  151.3614  129.4961  154.4792 C   0  0  0  0  0  0  0  0  0  0  0  0
  152.2450  129.9615  155.4142 C   0  0  0  0  0  0  0  0  0  0  0  0
  151.6895  131.0353  156.0532 O   0  0  0  0  0  0  0  0  0  0  0  0
  146.3192  131.1379  152.7712 C   0  0  0  0  0  0  0  0  0  0  0  0
  145.3518  132.2973  148.7551 H   0  0  0  0  0  0  0  0  0  0  0  0
  146.0814  130.6918  148.7755 H   0  0  0  0  0  0  0  0  0  0  0  0
  147.0639  132.0963  148.3798 H   0  0  0  0  0  0  0  0  0  0  0  0
  145.3687  130.3213  151.0499 H   0  0  0  0  0  0  0  0  0  0  0  0
  143.8032  132.0277  150.4838 H   0  0  0  0  0  0  0  0  0  0  0  0
  143.6480  131.7621  152.1906 H   0  0  0  0  0  0  0  0  0  0  0  0
  143.6502  134.2102  151.3918 H   0  0  0  0  0  0  0  0  0  0  0  0
  144.6832  133.8651  152.7238 H   0  0  0  0  0  0  0  0  0  0  0  0
  145.4251  134.3703  149.8327 H   0  0  0  0  0  0  0  0  0  0  0  0
  146.0262  135.1906  151.2377 H   0  0  0  0  0  0  0  0  0  0  0  0
  147.6834  133.6604  150.1166 H   0  0  0  0  0  0  0  0  0  0  0  0
  148.7095  132.7213  151.9965 H   0  0  0  0  0  0  0  0  0  0  0  0
  147.9884  134.2057  152.5413 H   0  0  0  0  0  0  0  0  0  0  0  0
  146.2806  133.0395  153.7879 H   0  0  0  0  0  0  0  0  0  0  0  0
  147.9749  131.0399  154.6242 H   0  0  0  0  0  0  0  0  0  0  0  0
  151.4476  128.6695  153.7899 H   0  0  0  0  0  0  0  0  0  0  0  0
  153.2341  129.6653  155.7296 H   0  0  0  0  0  0  0  0  0  0  0  0
  145.6052  130.7655  153.5067 H   0  0  0  0  0  0  0  0  0  0  0  0
  147.0637  130.3477  152.6579 H   0  0  0  0  0  0  0  0  0  0  0  0
  147.4529  131.3418  150.5573 H   0  0  0  0  0  0  0  0  0  0  0  0
  1  2  1  0  0  0  0
  1 20  1  0  0  0  0
  1 21  1  0  0  0  0
  1 22  1  0  0  0  0
  2  7  1  0  0  0  0
  2  3  1  0  0  0  0
  2 39  1  0  0  0  0
  3 19  1  0  0  0  0
  3  4  1  0  0  0  0
  3 23  1  0  0  0  0
  4  5  1  0  0  0  0
  4 24  1  0  0  0  0
  4 25  1  0  0  0  0
  5  6  1  0  0  0  0
  5 26  1  0  0  0  0
  5 27  1  0  0  0  0
  6  7  1  0  0  0  0
  6 28  1  0  0  0  0
  6 29  1  0  0  0  0
  7  8  1  0  0  0  0
  7 30  1  0  0  0  0
  8  9  1  0  0  0  0
  8 31  1  0  0  0  0
  8 32  1  0  0  0  0
  9 10  1  0  0  0  0
  9 19  1  0  0  0  0
  9 33  1  0  0  0  0
 10 34  1  0  0  0  0
 10 11  1  0  0  0  0
 11 13  1  0  0  0  0
 11 12  2  0  0  0  0
 13 14  1  0  0  0  0
 14 18  1  0  0  0  0
 14 15  2  0  0  0  0
 15 16  1  0  0  0  0
 16 35  1  0  0  0  0
 16 17  2  0  0  0  0
 17 36  1  0  0  0  0
 17 18  1  0  0  0  0
 19 37  1  0  0  0  0
 19 38  1  0  0  0  0
M  CHG  1   2   1
M  CHG  1  13  -1
M  END
> <s_m_source_file>
AV-unprocessed.smi

> <i_m_source_file_index>
2226

> <i_lp_mmshare_version>
43012

> <i_f3d_flags>
0

> <s_epik_input>
W0NIMl0xW0NIMl1bQ0gyXVtDQEhdKE4oW0NIM10pW0NIXTEyKVtDSDJdW0NASF0oW0NIMl0yKVtOSF1DKD1PKVtOSF1jM25bY0hdW2NIXW8z

> <s_epik_cmdline>
J2VwaWtfcHl0aG9uJywgJy1waCcsICc3LjAnLCAnLXRuJywgJzgnLCAnLW1hJywgJzIwMCcsICctbWV0YWxfYmluZGluZycsICctaW1hZScsICc8aW5maWxlLm1hZT4nLCAnLW9tYWUnLCAnPG91dGZpbGUubWFlPic=

> <r_lp_tautomer_probability>
0.107061

> <r_epik_Ionization_Penalty>
10.5612

> <r_epik_Ionization_Penalty_Charging>
7.48913

> <r_epik_Ionization_Penalty_Neutral>
3.07202

> <r_epik_State_Penalty>
5.6431

> <r_epik_Charging_Adjusted_Penalty>
13.1322

> <i_epik_Tot_Q>
0

> <i_epik_Tot_abs_Q>
2

> <r_epik_Metal_State_Penalty>
1.58163

> <b_epik_Metal_Only>
1

> <s_lp_Force_Field>
OPLS_2005

> <r_lp_Energy>
24.9808

> <b_lp_Chiralities_Consistent>
1

> <s_lp_Variant>
AV-unprocessed.smi:2226-19

> <Gold.Version>
5.8.1

> <Gold.Id.Protein>
6NUR|6NUR_protein|mol2

> <Gold.PLP.Fitness>
36.0870

> <Gold.PLP.PLP>
-31.9570

> <Gold.PLP.part.hbond>
-1.0000

> <Gold.PLP.part.metal>
0.0000

> <Gold.PLP.part.buried>
-4.7000

> <Gold.PLP.part.nonpolar>
-25.4547

> <Gold.PLP.part.repulsive>
0.2853

> <Gold.PLP.ligand.clash>
0.0000

> <Gold.PLP.ligand.torsion>
0.9397

> <Gold.PLP.Chemscore.Hbond>
1.0000

> <Gold.PLP.Chemscore.CHOScore>
1.0000

> <Gold.PLP.Chemscore.Metal>
0.0000

> <Gold.Chemscore.Hbonds>
donor molecule, donor type, donor heavy atom, donor atom, acceptor molecule, acceptor atom, score
      L1  H     2    39       P1 10747  1.00
      L1  C    16    35       P1 10737  1.00

> <Gold.PLP.Chemscore.Internal.Correction>
0.0093

> <Gold.Rescore>
     Score         DG    S(hbond)    S(metal)    S(lipo)     H(rot)  DE(clash)    DE(int)     intcor
     13.02     -15.38       0.98        0.00      78.62       1.00       0.04       2.32       ----

> <Gold.Chemscore.Fitness>
13.0191

> <Gold.Chemscore.DG>
-15.3771

> <Gold.Chemscore.ZeroCoef>
-5.4800

> <Gold.Chemscore.Hbond>
0.9755

> <Gold.Chemscore.Metal>
0.0000

> <Gold.Chemscore.Lipo>
78.6241

> <Gold.Chemscore.Internal_Hbond>
0.0000

> <Gold.Chemscore.DEClash>
0.0365

> <Gold.Chemscore.DEInternal>
2.3215

> <Gold.Chemscore.Rot>
1.0000

> <Gold.Chemscore.Internal.Correction>
   9.000000E+99

> <Gold.Chemscore.Hbonds>
donor molecule, donor type, donor heavy atom, donor atom, acceptor molecule, acceptor atom, score
      L1  H     2    39       P1 10747  0.98

> <Gold.Chemscore.Hbond.Weighted>
-3.2581

> <Gold.Chemscore.Metal.Weighted>
-0.0000

> <Gold.Chemscore.Lipo.Weighted>
-9.1990

> <Gold.Chemscore.Internal_Hbond.Weighted>
0.0000

> <Gold.Chemscore.DEClash.Weighted>
0.0365

> <Gold.Chemscore.DEInternal.Weighted>
2.3215

> <Gold.Chemscore.Rot.Weighted>
2.5600

> <Gold.Chemscore.Internal.Correction.Weighted>
   9.000000E+99

> <Gold.Protein.RotatedTorsions>
[ 6907 6896 6895 6894 ] final  169.49 input  -60.11 | X-H torsion
[ 7974 7965 7964 7962 ] final  -57.48 input  175.53 | X-H torsion
[ 8008 7997 7996 7995 ] final  -97.15 input   59.86 | X-H torsion
[ 10167 10162 10161 10158 ] final   45.91 input  -65.29 | X-H torsion
[ 10718 10713 10712 10709 ] final -141.97 input   66.30 | X-H torsion
[ 10763 10752 10751 10750 ] final -109.61 input  -60.55 | X-H torsion
[ 11005 11000 10999 10996 ] final -145.86 input  -57.11 | X-H torsion

> <Gold.Protein.ActiveResidues>
 VAL166  LYS551  ARG553  GLY616  TRP617  ASP618  TYR619  PRO620  LYS621  CYS622 
 ASP623  PHE694  ASN695  SER759  ASP760  ASP761  ALA762  ILE779  LEU786  VAL792 
 PHE793  MET794  SER795  GLU796  ALA797  LYS798  CYS799  TRP800  GLU811  SER814 

> <Gold.Protein.RotatedAtoms>
  151.8311  133.3409  159.3613 H   0  0  0  0  0  0  0  0  0  0  0  0  # atno 6907 bound_to 6896
  150.7264  134.5481  159.5790 H   0  0  0  0  0  0  0  0  0  0  0  0  # atno 6908 bound_to 6896
  152.2935  134.7695  160.0424 H   0  0  0  0  0  0  0  0  0  0  0  0  # atno 6909 bound_to 6896
  145.8506  140.8355  142.9988 H   0  0  0  0  0  0  0  0  0  0  0  0  # atno 7974 bound_to 7965
  154.7839  140.0465  157.1149 H   0  0  0  0  0  0  0  0  0  0  0  0  # atno 8008 bound_to 7997
  154.9671  140.3085  155.4985 H   0  0  0  0  0  0  0  0  0  0  0  0  # atno 8009 bound_to 7997
  156.2940  140.2260  156.4761 H   0  0  0  0  0  0  0  0  0  0  0  0  # atno 8010 bound_to 7997
  140.3193  144.2725  150.6185 H   0  0  0  0  0  0  0  0  0  0  0  0  # atno 10167 bound_to 10162
  156.3404  130.7634  151.1769 H   0  0  0  0  0  0  0  0  0  0  0  0  # atno 10718 bound_to 10713
  154.8203  135.4594  154.0759 H   0  0  0  0  0  0  0  0  0  0  0  0  # atno 10763 bound_to 10752
  153.2118  135.6883  153.8111 H   0  0  0  0  0  0  0  0  0  0  0  0  # atno 10764 bound_to 10752
  153.7559  135.3291  155.3306 H   0  0  0  0  0  0  0  0  0  0  0  0  # atno 10765 bound_to 10752
  140.7879  134.3002  157.5023 H   0  0  0  0  0  0  0  0  0  0  0  0  # atno 11005 bound_to 11000
  144.6729  140.0947  143.7463 LP  0  0  0  0  0  0  0  0  0  0  0  0  # atno 17320 bound_to 7965
  145.9362  139.2639  143.1296 LP  0  0  0  0  0  0  0  0  0  0  0  0  # atno 17321 bound_to 7965
  140.5498  143.2208  151.7946 LP  0  0  0  0  0  0  0  0  0  0  0  0  # atno 17342 bound_to 10162
  139.4877  144.4491  151.9675 LP  0  0  0  0  0  0  0  0  0  0  0  0  # atno 17343 bound_to 10162
  157.7446  131.0456  150.4852 LP  0  0  0  0  0  0  0  0  0  0  0  0  # atno 17370 bound_to 10713
  156.5031  130.4122  149.6342 LP  0  0  0  0  0  0  0  0  0  0  0  0  # atno 17371 bound_to 10713
  139.8734  134.9357  156.3641 LP  0  0  0  0  0  0  0  0  0  0  0  0  # atno 17394 bound_to 11000
  140.9418  133.7509  156.0156 LP  0  0  0  0  0  0  0  0  0  0  0  0  # atno 17395 bound_to 11000

$$$$
