AV-unprocessed.smi:308|AV-procd|sdf|2289|dock1
  -GOLD-   2262022193D 1   1.00000     0.00000
 Structure written by MMmdl.
 50 51  0  0  0  0  0  0  0  0  4 V2000
  145.5115  133.3142  151.6828 C   0  0  0  0  0  0  0  0  0  0  0  0
  146.4936  133.5094  152.8467 C   0  0  2  0  0  0  0  0  0  0  0  0
  146.3678  134.9112  153.4675 C   0  0  0  0  0  0  0  0  0  0  0  0
  147.3773  135.1078  154.6102 C   0  0  0  0  0  0  0  0  0  0  0  0
  148.7688  134.8718  154.1386 N   0  3  1  0  0  0  0  0  0  0  0  0
  149.8092  135.2084  155.1477 C   0  0  0  0  0  0  0  0  0  0  0  0
  149.6509  136.6475  155.6831 C   0  0  0  0  0  0  0  0  0  0  0  0
  149.9696  137.6238  154.6371 N   0  5  0  0  0  0  0  0  0  0  0  0
  150.1366  138.9583  154.8410 C   0  0  0  0  0  0  0  0  0  0  0  0
  149.9815  139.8690  154.0201 O   0  0  0  0  0  0  0  0  0  0  0  0
  150.5234  139.2309  156.1000 N   0  0  0  0  0  0  0  0  0  0  0  0
  150.8074  140.4846  156.7064 C   0  0  0  0  0  0  0  0  0  0  0  0
  151.5557  140.4783  157.9011 C   0  0  0  0  0  0  0  0  0  0  0  0
  151.8499  141.6934  158.5521 C   0  0  0  0  0  0  0  0  0  0  0  0
  151.3836  142.9151  158.0077 C   0  0  0  0  0  0  0  0  0  0  0  0
  151.6370  144.1713  158.6000 N   0  0  0  0  0  0  0  0  0  0  0  0
  150.7189  144.6949  159.6052 C   0  0  0  0  0  0  0  0  0  0  0  0
  152.7371  144.9925  158.1118 C   0  0  0  0  0  0  0  0  0  0  0  0
  150.6545  142.8692  156.8658 N   0  3  0  0  0  0  0  0  0  0  0  0
  150.3510  141.7283  156.2098 C   0  0  0  0  0  0  0  0  0  0  0  0
  148.9308  133.5094  153.5699 C   0  0  0  0  0  0  0  0  0  0  0  0
  147.9497  133.2756  152.4086 C   0  0  0  0  0  0  0  0  0  0  0  0
  145.7091  134.0179  150.8734 H   0  0  0  0  0  0  0  0  0  0  0  0
  144.4816  133.4630  152.0089 H   0  0  0  0  0  0  0  0  0  0  0  0
  145.5844  132.3065  151.2728 H   0  0  0  0  0  0  0  0  0  0  0  0
  146.2472  132.7749  153.6150 H   0  0  0  0  0  0  0  0  0  0  0  0
  146.5323  135.6725  152.7034 H   0  0  0  0  0  0  0  0  0  0  0  0
  145.3554  135.0645  153.8430 H   0  0  0  0  0  0  0  0  0  0  0  0
  147.2822  136.1211  155.0017 H   0  0  0  0  0  0  0  0  0  0  0  0
  147.1503  134.4286  155.4334 H   0  0  0  0  0  0  0  0  0  0  0  0
  149.7799  134.4928  155.9704 H   0  0  0  0  0  0  0  0  0  0  0  0
  150.8050  135.1106  154.7123 H   0  0  0  0  0  0  0  0  0  0  0  0
  148.6278  136.7775  156.0359 H   0  0  0  0  0  0  0  0  0  0  0  0
  150.2780  136.7709  156.5666 H   0  0  0  0  0  0  0  0  0  0  0  0
  150.7032  138.4212  156.6758 H   0  0  0  0  0  0  0  0  0  0  0  0
  151.9100  139.5466  158.3178 H   0  0  0  0  0  0  0  0  0  0  0  0
  152.4301  141.6655  159.4619 H   0  0  0  0  0  0  0  0  0  0  0  0
  150.6570  144.0185  160.4581 H   0  0  0  0  0  0  0  0  0  0  0  0
  149.7204  144.8166  159.1846 H   0  0  0  0  0  0  0  0  0  0  0  0
  151.0475  145.6663  159.9748 H   0  0  0  0  0  0  0  0  0  0  0  0
  152.5964  145.2344  157.0578 H   0  0  0  0  0  0  0  0  0  0  0  0
  153.6866  144.4688  158.2265 H   0  0  0  0  0  0  0  0  0  0  0  0
  152.8079  145.9297  158.6637 H   0  0  0  0  0  0  0  0  0  0  0  0
  149.7465  141.8615  155.3251 H   0  0  0  0  0  0  0  0  0  0  0  0
  149.9509  133.3846  153.2035 H   0  0  0  0  0  0  0  0  0  0  0  0
  148.7787  132.7652  154.3532 H   0  0  0  0  0  0  0  0  0  0  0  0
  148.0681  132.2603  152.0285 H   0  0  0  0  0  0  0  0  0  0  0  0
  148.2003  133.9448  151.5842 H   0  0  0  0  0  0  0  0  0  0  0  0
  148.9344  135.5118  153.3738 H   0  0  0  0  0  0  0  0  0  0  0  0
  150.3112  143.7480  156.4782 H   0  0  0  0  0  0  0  0  0  0  0  0
  1  2  1  0  0  0  0
  1 23  1  0  0  0  0
  1 24  1  0  0  0  0
  1 25  1  0  0  0  0
  2 22  1  0  0  0  0
  2  3  1  0  0  0  0
  2 26  1  0  0  0  0
  3  4  1  0  0  0  0
  3 27  1  0  0  0  0
  3 28  1  0  0  0  0
  4  5  1  0  0  0  0
  4 29  1  0  0  0  0
  4 30  1  0  0  0  0
  5  6  1  0  0  0  0
  5 21  1  0  0  0  0
  5 49  1  0  0  0  0
  6  7  1  0  0  0  0
  6 31  1  0  0  0  0
  6 32  1  0  0  0  0
  7  8  1  0  0  0  0
  7 33  1  0  0  0  0
  7 34  1  0  0  0  0
  8  9  1  0  0  0  0
  9 10  2  0  0  0  0
  9 11  1  0  0  0  0
 11 12  1  0  0  0  0
 11 35  1  0  0  0  0
 12 20  1  0  0  0  0
 12 13  2  0  0  0  0
 13 14  1  0  0  0  0
 13 36  1  0  0  0  0
 14 15  2  0  0  0  0
 14 37  1  0  0  0  0
 15 16  1  0  0  0  0
 15 19  1  0  0  0  0
 16 17  1  0  0  0  0
 16 18  1  0  0  0  0
 17 38  1  0  0  0  0
 17 39  1  0  0  0  0
 17 40  1  0  0  0  0
 18 41  1  0  0  0  0
 18 42  1  0  0  0  0
 18 43  1  0  0  0  0
 19 20  2  0  0  0  0
 19 50  1  0  0  0  0
 20 44  1  0  0  0  0
 21 22  1  0  0  0  0
 21 45  1  0  0  0  0
 21 46  1  0  0  0  0
 22 47  1  0  0  0  0
 22 48  1  0  0  0  0
M  CHG  1   5   1
M  CHG  1   8  -1
M  CHG  1  19   1
M  END
> <s_m_source_file>
AV-unprocessed.smi

> <i_m_source_file_index>
308

> <i_lp_mmshare_version>
43012

> <i_f3d_flags>
0

> <s_epik_input>
W0NIM11bQ0hdMVtDSDJdW0NIMl1OKFtDSDJdW0NIMl0xKVtDSDJdW0NIMl1bTkhdQyg9TylbTkhdYzJbY0hdW2NIXWMoTihbQ0gzXSlbQ0gzXSluW2NIXTI=

> <s_epik_cmdline>
J2VwaWtfcHl0aG9uJywgJy1waCcsICc3LjAnLCAnLXRuJywgJzgnLCAnLW1hJywgJzIwMCcsICctbWV0YWxfYmluZGluZycsICctaW1hZScsICc8aW5maWxlLm1hZT4nLCAnLW9tYWUnLCAnPG91dGZpbGUubWFlPic=

> <r_lp_tautomer_probability>
0.999994

> <r_epik_Ionization_Penalty>
7.42107

> <r_epik_Ionization_Penalty_Charging>
7.42107

> <r_epik_Ionization_Penalty_Neutral>
3.68925e-06

> <r_epik_State_Penalty>
7.0982

> <r_epik_Charging_Adjusted_Penalty>
14.5193

> <i_epik_Tot_Q>
1

> <i_epik_Tot_abs_Q>
3

> <r_epik_Metal_State_Penalty>
3.28646

> <b_epik_Metal_Only>
1

> <s_lp_Force_Field>
OPLS_2005

> <r_lp_Energy>
19.707

> <b_lp_Chiralities_Consistent>
1

> <s_lp_Variant>
AV-unprocessed.smi:308-5

> <Gold.Version>
5.8.1

> <Gold.Id.Protein>
6NUR|6NUR_protein|mol2

> <Gold.PLP.Fitness>
52.9327

> <Gold.PLP.PLP>
-41.1835

> <Gold.PLP.part.hbond>
-3.0000

> <Gold.PLP.part.metal>
0.0000

> <Gold.PLP.part.buried>
-7.1437

> <Gold.PLP.part.nonpolar>
-33.0242

> <Gold.PLP.part.repulsive>
1.5906

> <Gold.PLP.ligand.clash>
0.0000

> <Gold.PLP.ligand.torsion>
1.7951

> <Gold.PLP.Chemscore.Hbond>
5.0000

> <Gold.PLP.Chemscore.CHOScore>
0.0000

> <Gold.PLP.Chemscore.Metal>
0.0000

> <Gold.Chemscore.Hbonds>
donor molecule, donor type, donor heavy atom, donor atom, acceptor molecule, acceptor atom, score
      L1  H     5    49       P1  7948  2.00
      L1  H    19    50       P1  8028  1.98
      P1  H  7989  7998       L1    10  0.94

> <Gold.PLP.Chemscore.Internal.Correction>
0.3394

> <Gold.Rescore>
     Score         DG    S(hbond)    S(metal)    S(lipo)     H(rot)  DE(clash)    DE(int)     intcor
     16.92     -20.96       2.87        0.00      81.65       1.42       1.10       2.94       ----

> <Gold.Chemscore.Fitness>
16.9183

> <Gold.Chemscore.DG>
-20.9600

> <Gold.Chemscore.ZeroCoef>
-5.4800

> <Gold.Chemscore.Hbond>
2.8660

> <Gold.Chemscore.Metal>
0.0000

> <Gold.Chemscore.Lipo>
81.6525

> <Gold.Chemscore.Internal_Hbond>
0.0000

> <Gold.Chemscore.DEClash>
1.1038

> <Gold.Chemscore.DEInternal>
2.9380

> <Gold.Chemscore.Rot>
1.4241

> <Gold.Chemscore.Internal.Correction>
   9.000000E+99

> <Gold.Chemscore.Hbonds>
donor molecule, donor type, donor heavy atom, donor atom, acceptor molecule, acceptor atom, score
      L1  H     5    49       P1  7948  0.78
      L1  H    19    50       P1  8028  0.94
      P1  H  7989  7998       L1    10  0.84

> <Gold.Chemscore.Hbond.Weighted>
-9.5723

> <Gold.Chemscore.Metal.Weighted>
-0.0000

> <Gold.Chemscore.Lipo.Weighted>
-9.5533

> <Gold.Chemscore.Internal_Hbond.Weighted>
0.0000

> <Gold.Chemscore.DEClash.Weighted>
1.1038

> <Gold.Chemscore.DEInternal.Weighted>
2.9380

> <Gold.Chemscore.Rot.Weighted>
3.6456

> <Gold.Chemscore.Internal.Correction.Weighted>
   9.000000E+99

> <Gold.Protein.RotatedTorsions>
[ 6907 6896 6895 6894 ] final -176.16 input  -60.11 | X-H torsion
[ 7974 7965 7964 7962 ] final  -38.98 input  175.53 | X-H torsion
[ 8008 7997 7996 7995 ] final    8.77 input   59.86 | X-H torsion
[ 10167 10162 10161 10158 ] final -158.89 input  -65.29 | X-H torsion
[ 10718 10713 10712 10709 ] final -103.95 input   66.30 | X-H torsion
[ 10763 10752 10751 10750 ] final -126.87 input  -60.55 | X-H torsion
[ 11005 11000 10999 10996 ] final  138.91 input  -57.11 | X-H torsion

> <Gold.Protein.ActiveResidues>
 VAL166  LYS551  ARG553  GLY616  TRP617  ASP618  TYR619  PRO620  LYS621  CYS622 
 ASP623  PHE694  ASN695  SER759  ASP760  ASP761  ALA762  ILE779  LEU786  VAL792 
 PHE793  MET794  SER795  GLU796  ALA797  LYS798  CYS799  TRP800  GLU811  SER814 

> <Gold.Protein.RotatedAtoms>
  151.6004  133.3357  159.3045 H   0  0  0  0  0  0  0  0  0  0  0  0  # atno 6907 bound_to 6896
  150.8211  134.7422  159.6784 H   0  0  0  0  0  0  0  0  0  0  0  0  # atno 6908 bound_to 6896
  152.4304  134.5793  159.9995 H   0  0  0  0  0  0  0  0  0  0  0  0  # atno 6909 bound_to 6896
  146.0438  140.6574  142.9074 H   0  0  0  0  0  0  0  0  0  0  0  0  # atno 7974 bound_to 7965
  154.7712  140.2802  155.6136 H   0  0  0  0  0  0  0  0  0  0  0  0  # atno 8008 bound_to 7997
  156.2934  140.2641  156.2442 H   0  0  0  0  0  0  0  0  0  0  0  0  # atno 8009 bound_to 7997
  154.9898  140.0374  157.2304 H   0  0  0  0  0  0  0  0  0  0  0  0  # atno 8010 bound_to 7997
  139.6657  143.9833  152.2253 H   0  0  0  0  0  0  0  0  0  0  0  0  # atno 10167 bound_to 10162
  156.0285  130.5491  150.7326 H   0  0  0  0  0  0  0  0  0  0  0  0  # atno 10718 bound_to 10713
  154.8749  135.3981  154.3502 H   0  0  0  0  0  0  0  0  0  0  0  0  # atno 10763 bound_to 10752
  153.4289  135.7024  153.6249 H   0  0  0  0  0  0  0  0  0  0  0  0  # atno 10764 bound_to 10752
  153.4880  135.3754  155.2446 H   0  0  0  0  0  0  0  0  0  0  0  0  # atno 10765 bound_to 10752
  140.0217  134.9393  157.0487 H   0  0  0  0  0  0  0  0  0  0  0  0  # atno 11005 bound_to 11000
  144.7087  140.3956  143.7097 LP  0  0  0  0  0  0  0  0  0  0  0  0  # atno 17320 bound_to 7965
  145.6840  139.1624  143.2684 LP  0  0  0  0  0  0  0  0  0  0  0  0  # atno 17321 bound_to 7965
  139.9584  144.6574  150.8104 LP  0  0  0  0  0  0  0  0  0  0  0  0  # atno 17342 bound_to 10162
  140.7598  143.3138  151.2782 LP  0  0  0  0  0  0  0  0  0  0  0  0  # atno 17343 bound_to 10162
  157.4915  131.0911  151.0421 LP  0  0  0  0  0  0  0  0  0  0  0  0  # atno 17370 bound_to 10713
  157.0827  130.5909  149.5423 LP  0  0  0  0  0  0  0  0  0  0  0  0  # atno 17371 bound_to 10713
  140.4376  134.1715  155.7171 LP  0  0  0  0  0  0  0  0  0  0  0  0  # atno 17394 bound_to 11000
  141.1778  133.8478  157.1363 LP  0  0  0  0  0  0  0  0  0  0  0  0  # atno 17395 bound_to 11000

$$$$
