AV-unprocessed.smi:3256|AV-procd|sdf|12465|dock4
  -GOLD-   2272018363D 1   1.00000     0.00000
 Structure written by MMmdl.
 36 37  0  0  0  0  0  0  0  0  1 V2000
  150.1663  140.5831  156.6726 O   0  0  0  0  0  0  0  0  0  0  0  0
  149.8754  141.7449  156.3911 C   0  0  0  0  0  0  0  0  0  0  0  0
  149.1365  142.0852  155.3255 N   0  0  0  0  0  0  0  0  0  0  0  0
  148.5832  141.1554  154.3462 C   0  0  0  0  0  0  0  0  0  0  0  0
  147.6035  141.8583  153.3863 C   0  0  0  0  0  0  0  0  0  0  0  0
  146.7622  142.8941  153.9861 N   0  0  0  0  0  0  0  0  0  0  0  0
  145.7379  142.3079  154.8431 C   0  0  0  0  0  0  0  0  0  0  0  0
  144.8464  143.3823  155.4895 C   0  0  0  0  0  0  0  0  0  0  0  0
  144.2543  144.1842  154.4732 O   0  0  0  0  0  0  0  0  0  0  0  0
  145.2207  144.8117  153.6368 C   0  0  0  0  0  0  0  0  0  0  0  0
  146.1149  143.7418  152.9869 C   0  0  0  0  0  0  0  0  0  0  0  0
  150.2494  142.8355  157.0826 N   0  0  0  0  0  0  0  0  0  0  0  0
  151.0201  142.9321  158.2743 C   0  0  0  0  0  0  0  0  0  0  0  0
  151.4138  144.1454  158.8909 C   0  0  0  0  0  0  0  0  0  0  0  0
  152.1877  144.0910  160.0664 C   0  0  0  0  0  0  0  0  0  0  0  0
  152.5446  142.8297  160.5805 C   0  0  0  0  0  0  0  0  0  0  0  0
  152.1823  141.6662  160.0014 N   0  0  0  0  0  0  0  0  0  0  0  0
  151.4398  141.7262  158.8757 C   0  0  0  0  0  0  0  0  0  0  0  0
  148.9517  143.0655  155.1715 H   0  0  0  0  0  0  0  0  0  0  0  0
  149.3690  140.6219  153.8109 H   0  0  0  0  0  0  0  0  0  0  0  0
  148.0394  140.3921  154.9030 H   0  0  0  0  0  0  0  0  0  0  0  0
  148.1662  142.2877  152.5561 H   0  0  0  0  0  0  0  0  0  0  0  0
  146.9658  141.0919  152.9436 H   0  0  0  0  0  0  0  0  0  0  0  0
  145.1160  141.6246  154.2626 H   0  0  0  0  0  0  0  0  0  0  0  0
  146.2077  141.7127  155.6269 H   0  0  0  0  0  0  0  0  0  0  0  0
  144.0583  142.9158  156.0807 H   0  0  0  0  0  0  0  0  0  0  0  0
  145.4274  144.0106  156.1665 H   0  0  0  0  0  0  0  0  0  0  0  0
  144.7060  145.3920  152.8709 H   0  0  0  0  0  0  0  0  0  0  0  0
  145.8196  145.5114  154.2217 H   0  0  0  0  0  0  0  0  0  0  0  0
  146.8604  144.2415  152.3696 H   0  0  0  0  0  0  0  0  0  0  0  0
  145.5129  143.1283  152.3149 H   0  0  0  0  0  0  0  0  0  0  0  0
  149.9606  143.7200  156.6911 H   0  0  0  0  0  0  0  0  0  0  0  0
  151.1527  145.1124  158.4928 H   0  0  0  0  0  0  0  0  0  0  0  0
  152.5037  144.9974  160.5612 H   0  0  0  0  0  0  0  0  0  0  0  0
  153.1395  142.7532  161.4784 H   0  0  0  0  0  0  0  0  0  0  0  0
  151.1706  140.7749  158.4399 H   0  0  0  0  0  0  0  0  0  0  0  0
  1  2  2  0  0  0  0
  2  3  1  0  0  0  0
  2 12  1  0  0  0  0
  3  4  1  0  0  0  0
  3 19  1  0  0  0  0
  4  5  1  0  0  0  0
  4 20  1  0  0  0  0
  4 21  1  0  0  0  0
  5  6  1  0  0  0  0
  5 22  1  0  0  0  0
  5 23  1  0  0  0  0
  6 11  1  0  0  0  0
  6  7  1  0  0  0  0
  7  8  1  0  0  0  0
  7 24  1  0  0  0  0
  7 25  1  0  0  0  0
  8  9  1  0  0  0  0
  8 26  1  0  0  0  0
  8 27  1  0  0  0  0
  9 10  1  0  0  0  0
 10 11  1  0  0  0  0
 10 28  1  0  0  0  0
 10 29  1  0  0  0  0
 11 30  1  0  0  0  0
 11 31  1  0  0  0  0
 12 13  1  0  0  0  0
 12 32  1  0  0  0  0
 13 18  1  0  0  0  0
 13 14  2  0  0  0  0
 14 15  1  0  0  0  0
 14 33  1  0  0  0  0
 15 16  2  0  0  0  0
 15 34  1  0  0  0  0
 16 17  1  0  0  0  0
 16 35  1  0  0  0  0
 17 18  2  0  0  0  0
 18 36  1  0  0  0  0
M  END
> <s_m_source_file>
AV-unprocessed.smi

> <i_m_source_file_index>
3256

> <i_lp_mmshare_version>
43012

> <i_f3d_flags>
0

> <s_epik_input>
W2NIXTFuW2NIXVtjSF1bY0hdYzFbTkhdQyg9TylbTkhdW0NIMl1bQ0gyXU4yW0NIMl1bQ0gyXU9bQ0gyXVtDSDJdMg==

> <s_epik_cmdline>
J2VwaWtfcHl0aG9uJywgJy1waCcsICc3LjAnLCAnLXRuJywgJzgnLCAnLW1hJywgJzIwMCcsICctbWV0YWxfYmluZGluZycsICctaW1hZScsICc8aW5maWxlLm1hZT4nLCAnLW9tYWUnLCAnPG91dGZpbGUubWFlPic=

> <r_epik_Ionization_Penalty>
0.270703

> <r_epik_Ionization_Penalty_Charging>
0

> <r_epik_Ionization_Penalty_Neutral>
0.270703

> <r_epik_State_Penalty>
0.268226

> <r_epik_Charging_Adjusted_Penalty>
0.268226

> <i_epik_Tot_Q>
0

> <i_epik_Tot_abs_Q>
0

> <r_epik_Metal_State_Penalty>
0.26483

> <b_epik_Metal_Only>
0

> <s_lp_Force_Field>
OPLS_2005

> <r_lp_Energy>
28.1533

> <b_lp_Chiralities_Consistent>
1

> <s_lp_Variant>
AV-unprocessed.smi:3256-1

> <Gold.Version>
5.8.1

> <Gold.Id.Protein>
6NUR|6NUR_protein|mol2

> <Gold.PLP.Fitness>
42.2227

> <Gold.PLP.PLP>
-36.7001

> <Gold.PLP.part.hbond>
-2.0000

> <Gold.PLP.part.metal>
0.0000

> <Gold.PLP.part.buried>
-8.0869

> <Gold.PLP.part.nonpolar>
-27.7106

> <Gold.PLP.part.repulsive>
0.5318

> <Gold.PLP.ligand.clash>
0.0000

> <Gold.PLP.ligand.torsion>
0.2477

> <Gold.PLP.Chemscore.Hbond>
2.0000

> <Gold.PLP.Chemscore.CHOScore>
0.0000

> <Gold.PLP.Chemscore.Metal>
0.0000

> <Gold.Chemscore.Hbonds>
donor molecule, donor type, donor heavy atom, donor atom, acceptor molecule, acceptor atom, score
      L1  H     3    19       P1  8028  1.00
      L1  H    12    32       P1  8028  1.00

> <Gold.PLP.Chemscore.Internal.Correction>
0.0180

> <Gold.Rescore>
     Score         DG    S(hbond)    S(metal)    S(lipo)     H(rot)  DE(clash)    DE(int)     intcor
     17.14     -18.89       1.96        0.00      91.26       1.49       0.00       1.74       ----

> <Gold.Chemscore.Fitness>
17.1436

> <Gold.Chemscore.DG>
-18.8867

> <Gold.Chemscore.ZeroCoef>
-5.4800

> <Gold.Chemscore.Hbond>
1.9629

> <Gold.Chemscore.Metal>
0.0000

> <Gold.Chemscore.Lipo>
91.2598

> <Gold.Chemscore.Internal_Hbond>
0.0000

> <Gold.Chemscore.DEClash>
0.0044

> <Gold.Chemscore.DEInternal>
1.7387

> <Gold.Chemscore.Rot>
1.4949

> <Gold.Chemscore.Internal.Correction>
   9.000000E+99

> <Gold.Chemscore.Hbonds>
donor molecule, donor type, donor heavy atom, donor atom, acceptor molecule, acceptor atom, score
      L1  H     3    19       P1  8028  0.98
      L1  H    12    32       P1  8028  0.97

> <Gold.Chemscore.Hbond.Weighted>
-6.5561

> <Gold.Chemscore.Metal.Weighted>
-0.0000

> <Gold.Chemscore.Lipo.Weighted>
-10.6774

> <Gold.Chemscore.Internal_Hbond.Weighted>
0.0000

> <Gold.Chemscore.DEClash.Weighted>
0.0044

> <Gold.Chemscore.DEInternal.Weighted>
1.7387

> <Gold.Chemscore.Rot.Weighted>
3.8269

> <Gold.Chemscore.Internal.Correction.Weighted>
   9.000000E+99

> <Gold.Protein.RotatedTorsions>
[ 6907 6896 6895 6894 ] final -177.59 input  -60.11 | X-H torsion
[ 7974 7965 7964 7962 ] final  110.91 input  175.53 | X-H torsion
[ 8008 7997 7996 7995 ] final  -52.46 input   59.86 | X-H torsion
[ 10167 10162 10161 10158 ] final  142.36 input  -65.29 | X-H torsion
[ 10718 10713 10712 10709 ] final  -40.30 input   66.30 | X-H torsion
[ 10763 10752 10751 10750 ] final   59.37 input  -60.55 | X-H torsion
[ 11005 11000 10999 10996 ] final  -61.54 input  -57.11 | X-H torsion

> <Gold.Protein.ActiveResidues>
 VAL166  LYS551  ARG553  GLY616  TRP617  ASP618  TYR619  PRO620  LYS621  CYS622 
 ASP623  PHE694  ASN695  SER759  ASP760  ASP761  ALA762  ILE779  LEU786  VAL792 
 PHE793  MET794  SER795  GLU796  ALA797  LYS798  CYS799  TRP800  GLU811  SER814 

> <Gold.Protein.RotatedAtoms>
  151.6235  133.3337  159.3092 H   0  0  0  0  0  0  0  0  0  0  0  0  # atno 6907 bound_to 6896
  150.8093  134.7242  159.6685 H   0  0  0  0  0  0  0  0  0  0  0  0  # atno 6908 bound_to 6896
  152.4190  134.5995  160.0047 H   0  0  0  0  0  0  0  0  0  0  0  0  # atno 6909 bound_to 6896
  145.2490  139.2747  143.4077 H   0  0  0  0  0  0  0  0  0  0  0  0  # atno 7974 bound_to 7965
  154.4107  140.1223  156.4995 H   0  0  0  0  0  0  0  0  0  0  0  0  # atno 8008 bound_to 7997
  155.6909  140.3495  155.4874 H   0  0  0  0  0  0  0  0  0  0  0  0  # atno 8009 bound_to 7997
  155.9469  140.1097  157.0999 H   0  0  0  0  0  0  0  0  0  0  0  0  # atno 8010 bound_to 7997
  139.4996  144.6112  151.6268 H   0  0  0  0  0  0  0  0  0  0  0  0  # atno 10167 bound_to 10162
  156.2828  130.4219  149.8319 H   0  0  0  0  0  0  0  0  0  0  0  0  # atno 10718 bound_to 10713
  152.9893  135.5574  154.5702 H   0  0  0  0  0  0  0  0  0  0  0  0  # atno 10763 bound_to 10752
  154.5104  135.2802  155.1350 H   0  0  0  0  0  0  0  0  0  0  0  0  # atno 10764 bound_to 10752
  154.2744  135.6357  153.5375 H   0  0  0  0  0  0  0  0  0  0  0  0  # atno 10765 bound_to 10752
  141.1328  133.6631  156.5391 H   0  0  0  0  0  0  0  0  0  0  0  0  # atno 11005 bound_to 11000
  146.3308  140.2875  142.8613 LP  0  0  0  0  0  0  0  0  0  0  0  0  # atno 17320 bound_to 7965
  144.9520  140.8188  143.5566 LP  0  0  0  0  0  0  0  0  0  0  0  0  # atno 17321 bound_to 7965
  140.5787  143.9984  150.6256 LP  0  0  0  0  0  0  0  0  0  0  0  0  # atno 17342 bound_to 10162
  140.3126  143.3188  152.0864 LP  0  0  0  0  0  0  0  0  0  0  0  0  # atno 17343 bound_to 10162
  156.5760  130.8445  151.3370 LP  0  0  0  0  0  0  0  0  0  0  0  0  # atno 17370 bound_to 10713
  157.7320  130.9708  150.1905 LP  0  0  0  0  0  0  0  0  0  0  0  0  # atno 17371 bound_to 10713
  140.4154  134.7235  157.4859 LP  0  0  0  0  0  0  0  0  0  0  0  0  # atno 17394 bound_to 11000
  140.0398  134.6284  155.8996 LP  0  0  0  0  0  0  0  0  0  0  0  0  # atno 17395 bound_to 11000

$$$$
