AV-unprocessed.smi:2896|AV-procd|sdf|11138|dock5
  -GOLD-   2272016 13D 1   1.00000     0.00000
 Structure written by MMmdl.
 49 50  0  0  0  0  0  0  0  0  1 V2000
  148.7638  135.0672  156.8633 C   0  0  0  0  0  0  0  0  0  0  0  0
  148.7974  135.4783  155.3804 C   0  0  2  0  0  0  0  0  0  0  0  0
  148.3403  134.3327  154.4488 C   0  0  0  0  0  0  0  0  0  0  0  0
  147.3177  134.7635  153.4999 N   0  0  0  0  0  0  0  0  0  0  0  0
  146.0365  134.3563  153.4808 C   0  0  0  0  0  0  0  0  0  0  0  0
  145.5940  133.5403  154.2909 O   0  0  0  0  0  0  0  0  0  0  0  0
  145.1042  134.9309  152.3832 C   0  0  0  0  0  0  0  0  0  0  0  0
  143.7207  135.2002  153.0268 C   0  0  0  0  0  0  0  0  0  0  0  0
  145.6120  136.2867  151.8287 C   0  0  0  0  0  0  0  0  0  0  0  0
  145.0439  133.8992  151.2402 C   0  0  0  0  0  0  0  0  0  0  0  0
  145.9557  132.8161  151.2038 C   0  0  0  0  0  0  0  0  0  0  0  0
  145.8872  131.8824  150.1531 C   0  0  0  0  0  0  0  0  0  0  0  0
  144.9032  132.0612  149.1636 C   0  0  0  0  0  0  0  0  0  0  0  0
  144.0240  133.0835  149.1750 N   0  0  0  0  0  0  0  0  0  0  0  0
  144.0965  133.9737  150.1879 C   0  0  0  0  0  0  0  0  0  0  0  0
  150.2148  135.9694  155.0103 C   0  0  0  0  0  0  0  0  0  0  0  0
  150.5265  137.3563  155.3615 N   0  0  0  0  0  0  0  0  0  0  0  0
  151.9187  137.7119  155.0936 C   0  0  0  0  0  0  0  0  0  0  0  0
  152.2134  139.1809  155.4445 C   0  0  0  0  0  0  0  0  0  0  0  0
  151.3244  140.0333  154.7304 O   0  0  0  0  0  0  0  0  0  0  0  0
  149.9563  139.7487  155.0020 C   0  0  0  0  0  0  0  0  0  0  0  0
  149.6558  138.2829  154.6455 C   0  0  0  0  0  0  0  0  0  0  0  0
  149.3954  134.1973  157.0469 H   0  0  0  0  0  0  0  0  0  0  0  0
  147.7539  134.8208  157.1910 H   0  0  0  0  0  0  0  0  0  0  0  0
  149.1179  135.8757  157.5036 H   0  0  0  0  0  0  0  0  0  0  0  0
  148.0973  136.3065  155.2744 H   0  0  0  0  0  0  0  0  0  0  0  0
  149.1842  133.9748  153.8588 H   0  0  0  0  0  0  0  0  0  0  0  0
  148.0021  133.4772  155.0358 H   0  0  0  0  0  0  0  0  0  0  0  0
  147.6059  135.4306  152.7987 H   0  0  0  0  0  0  0  0  0  0  0  0
  143.2727  134.2996  153.4489 H   0  0  0  0  0  0  0  0  0  0  0  0
  143.0164  135.6089  152.3013 H   0  0  0  0  0  0  0  0  0  0  0  0
  143.7977  135.9262  153.8376 H   0  0  0  0  0  0  0  0  0  0  0  0
  146.5985  136.2142  151.3700 H   0  0  0  0  0  0  0  0  0  0  0  0
  145.6718  137.0428  152.6129 H   0  0  0  0  0  0  0  0  0  0  0  0
  144.9355  136.6700  151.0639 H   0  0  0  0  0  0  0  0  0  0  0  0
  146.7020  132.6935  151.9748 H   0  0  0  0  0  0  0  0  0  0  0  0
  146.5715  131.0482  150.1079 H   0  0  0  0  0  0  0  0  0  0  0  0
  144.8199  131.3649  148.3424 H   0  0  0  0  0  0  0  0  0  0  0  0
  143.3645  134.7641  150.1334 H   0  0  0  0  0  0  0  0  0  0  0  0
  150.9548  135.3121  155.4695 H   0  0  0  0  0  0  0  0  0  0  0  0
  150.3371  135.8421  153.9337 H   0  0  0  0  0  0  0  0  0  0  0  0
  152.5914  137.0795  155.6712 H   0  0  0  0  0  0  0  0  0  0  0  0
  152.1498  137.5383  154.0416 H   0  0  0  0  0  0  0  0  0  0  0  0
  152.1066  139.3500  156.5171 H   0  0  0  0  0  0  0  0  0  0  0  0
  153.2401  139.4350  155.1809 H   0  0  0  0  0  0  0  0  0  0  0  0
  149.7379  139.9436  156.0531 H   0  0  0  0  0  0  0  0  0  0  0  0
  149.3290  140.4184  154.4140 H   0  0  0  0  0  0  0  0  0  0  0  0
  149.7728  138.1439  153.5695 H   0  0  0  0  0  0  0  0  0  0  0  0
  148.6125  138.0645  154.8764 H   0  0  0  0  0  0  0  0  0  0  0  0
  1  2  1  0  0  0  0
  1 23  1  0  0  0  0
  1 24  1  0  0  0  0
  1 25  1  0  0  0  0
  2  3  1  0  0  0  0
  2 16  1  0  0  0  0
  2 26  1  0  0  0  0
  3  4  1  0  0  0  0
  3 27  1  0  0  0  0
  3 28  1  0  0  0  0
  4  5  1  0  0  0  0
  4 29  1  0  0  0  0
  5  6  2  0  0  0  0
  5  7  1  0  0  0  0
  7  8  1  0  0  0  0
  7  9  1  0  0  0  0
  7 10  1  0  0  0  0
  8 30  1  0  0  0  0
  8 31  1  0  0  0  0
  8 32  1  0  0  0  0
  9 33  1  0  0  0  0
  9 34  1  0  0  0  0
  9 35  1  0  0  0  0
 10 15  1  0  0  0  0
 10 11  2  0  0  0  0
 11 12  1  0  0  0  0
 11 36  1  0  0  0  0
 12 13  2  0  0  0  0
 12 37  1  0  0  0  0
 13 14  1  0  0  0  0
 13 38  1  0  0  0  0
 14 15  2  0  0  0  0
 15 39  1  0  0  0  0
 16 17  1  0  0  0  0
 16 40  1  0  0  0  0
 16 41  1  0  0  0  0
 17 22  1  0  0  0  0
 17 18  1  0  0  0  0
 18 19  1  0  0  0  0
 18 42  1  0  0  0  0
 18 43  1  0  0  0  0
 19 20  1  0  0  0  0
 19 44  1  0  0  0  0
 19 45  1  0  0  0  0
 20 21  1  0  0  0  0
 21 22  1  0  0  0  0
 21 46  1  0  0  0  0
 21 47  1  0  0  0  0
 22 48  1  0  0  0  0
 22 49  1  0  0  0  0
M  END
> <s_m_source_file>
AV-unprocessed.smi

> <i_m_source_file_index>
2896

> <i_lp_mmshare_version>
43012

> <i_f3d_flags>
0

> <s_epik_input>
W0NIMl0xW0NIMl1PW0NIMl1bQ0gyXU4xW0NIMl1bQ0BIXShbQ0gzXSlbQ0gyXVtOSF1DKD1PKUMoW0NIM10pKFtDSDNdKWMyW2NIXVtjSF1bY0hdbltjSF0y

> <s_epik_cmdline>
J2VwaWtfcHl0aG9uJywgJy1waCcsICc3LjAnLCAnLXRuJywgJzgnLCAnLW1hJywgJzIwMCcsICctbWV0YWxfYmluZGluZycsICctaW1hZScsICc8aW5maWxlLm1hZT4nLCAnLW9tYWUnLCAnPG91dGZpbGUubWFlPic=

> <r_epik_Ionization_Penalty>
0.458454

> <r_epik_Ionization_Penalty_Charging>
0

> <r_epik_Ionization_Penalty_Neutral>
0.458454

> <r_epik_State_Penalty>
0.453234

> <r_epik_Charging_Adjusted_Penalty>
0.453234

> <i_epik_Tot_Q>
0

> <i_epik_Tot_abs_Q>
0

> <r_epik_Metal_State_Penalty>
0.448418

> <b_epik_Metal_Only>
0

> <s_lp_Force_Field>
OPLS_2005

> <r_lp_Energy>
34.6302

> <b_lp_Chiralities_Consistent>
1

> <s_lp_Variant>
AV-unprocessed.smi:2896-3

> <Gold.Version>
5.8.1

> <Gold.Id.Protein>
6NUR|6NUR_protein|mol2

> <Gold.PLP.Fitness>
37.5139

> <Gold.PLP.PLP>
-33.2187

> <Gold.PLP.part.hbond>
-1.9522

> <Gold.PLP.part.metal>
0.0000

> <Gold.PLP.part.buried>
-4.0300

> <Gold.PLP.part.nonpolar>
-28.9986

> <Gold.PLP.part.repulsive>
1.1369

> <Gold.PLP.ligand.clash>
0.0000

> <Gold.PLP.ligand.torsion>
2.2408

> <Gold.PLP.Chemscore.Hbond>
1.9280

> <Gold.PLP.Chemscore.CHOScore>
0.9448

> <Gold.PLP.Chemscore.Metal>
0.0000

> <Gold.Chemscore.Hbonds>
donor molecule, donor type, donor heavy atom, donor atom, acceptor molecule, acceptor atom, score
      L1  H     4    29       P1  7948  0.98
      P1  H  7989  7998       L1    20  0.98
      L1  C    15    39       P1 10186  0.90

> <Gold.PLP.Chemscore.Internal.Correction>
0.1585

> <Gold.Rescore>
     Score         DG    S(hbond)    S(metal)    S(lipo)     H(rot)  DE(clash)    DE(int)     intcor
     16.94     -18.94       1.91        0.00      97.32       1.68       0.02       1.98       ----

> <Gold.Chemscore.Fitness>
16.9399

> <Gold.Chemscore.DG>
-18.9431

> <Gold.Chemscore.ZeroCoef>
-5.4800

> <Gold.Chemscore.Hbond>
1.9118

> <Gold.Chemscore.Metal>
0.0000

> <Gold.Chemscore.Lipo>
97.3227

> <Gold.Chemscore.Internal_Hbond>
0.0000

> <Gold.Chemscore.DEClash>
0.0186

> <Gold.Chemscore.DEInternal>
1.9847

> <Gold.Chemscore.Rot>
1.6832

> <Gold.Chemscore.Internal.Correction>
   9.000000E+99

> <Gold.Chemscore.Hbonds>
donor molecule, donor type, donor heavy atom, donor atom, acceptor molecule, acceptor atom, score
      L1  H     4    29       P1  7948  0.93
      P1  H  7989  7998       L1    20  0.87

> <Gold.Chemscore.Hbond.Weighted>
-6.3854

> <Gold.Chemscore.Metal.Weighted>
-0.0000

> <Gold.Chemscore.Lipo.Weighted>
-11.3868

> <Gold.Chemscore.Internal_Hbond.Weighted>
0.0000

> <Gold.Chemscore.DEClash.Weighted>
0.0186

> <Gold.Chemscore.DEInternal.Weighted>
1.9847

> <Gold.Chemscore.Rot.Weighted>
4.3090

> <Gold.Chemscore.Internal.Correction.Weighted>
   9.000000E+99

> <Gold.Protein.RotatedTorsions>
[ 6907 6896 6895 6894 ] final   72.79 input  -60.11 | X-H torsion
[ 7974 7965 7964 7962 ] final -163.84 input  175.53 | X-H torsion
[ 8008 7997 7996 7995 ] final -158.77 input   59.86 | X-H torsion
[ 10167 10162 10161 10158 ] final  164.07 input  -65.29 | X-H torsion
[ 10718 10713 10712 10709 ] final  111.50 input   66.30 | X-H torsion
[ 10763 10752 10751 10750 ] final  -79.44 input  -60.55 | X-H torsion
[ 11005 11000 10999 10996 ] final  -91.32 input  -57.11 | X-H torsion

> <Gold.Protein.ActiveResidues>
 VAL166  LYS551  ARG553  GLY616  TRP617  ASP618  TYR619  PRO620  LYS621  CYS622 
 ASP623  PHE694  ASN695  SER759  ASP760  ASP761  ALA762  ILE779  LEU786  VAL792 
 PHE793  MET794  SER795  GLU796  ALA797  LYS798  CYS799  TRP800  GLU811  SER814 

> <Gold.Protein.RotatedAtoms>
  152.4887  134.4519  159.9576 H   0  0  0  0  0  0  0  0  0  0  0  0  # atno 6907 bound_to 6896
  151.4510  133.3611  159.2803 H   0  0  0  0  0  0  0  0  0  0  0  0  # atno 6908 bound_to 6896
  150.9021  134.8458  159.7428 H   0  0  0  0  0  0  0  0  0  0  0  0  # atno 6909 bound_to 6896
  144.7314  140.3049  143.6198 H   0  0  0  0  0  0  0  0  0  0  0  0  # atno 7974 bound_to 7965
  155.7525  140.0828  157.2194 H   0  0  0  0  0  0  0  0  0  0  0  0  # atno 8008 bound_to 7997
  154.4011  140.1558  156.2796 H   0  0  0  0  0  0  0  0  0  0  0  0  # atno 8009 bound_to 7997
  155.8917  140.3415  155.5963 H   0  0  0  0  0  0  0  0  0  0  0  0  # atno 8010 bound_to 7997
  139.4883  144.4272  151.9115 H   0  0  0  0  0  0  0  0  0  0  0  0  # atno 10167 bound_to 10162
  157.6441  131.0952  150.6758 H   0  0  0  0  0  0  0  0  0  0  0  0  # atno 10718 bound_to 10713
  154.5386  135.5695  153.6820 H   0  0  0  0  0  0  0  0  0  0  0  0  # atno 10763 bound_to 10752
  152.9957  135.6222  154.2533 H   0  0  0  0  0  0  0  0  0  0  0  0  # atno 10764 bound_to 10752
  154.2462  135.2860  155.2814 H   0  0  0  0  0  0  0  0  0  0  0  0  # atno 10765 bound_to 10752
  141.1547  133.7748  156.9862 H   0  0  0  0  0  0  0  0  0  0  0  0  # atno 11005 bound_to 11000
  145.7723  139.1862  143.2205 LP  0  0  0  0  0  0  0  0  0  0  0  0  # atno 17320 bound_to 7965
  146.0900  140.7666  142.9600 LP  0  0  0  0  0  0  0  0  0  0  0  0  # atno 17321 bound_to 7965
  140.3718  144.2845  150.5919 LP  0  0  0  0  0  0  0  0  0  0  0  0  # atno 17342 bound_to 10162
  140.5312  143.2243  151.8236 LP  0  0  0  0  0  0  0  0  0  0  0  0  # atno 17343 bound_to 10162
  156.7078  130.4642  149.5555 LP  0  0  0  0  0  0  0  0  0  0  0  0  # atno 17370 bound_to 10713
  156.1751  130.6462  151.0884 LP  0  0  0  0  0  0  0  0  0  0  0  0  # atno 17371 bound_to 10713
  140.1033  134.9522  157.1956 LP  0  0  0  0  0  0  0  0  0  0  0  0  # atno 17394 bound_to 11000
  140.3290  134.2831  155.7231 LP  0  0  0  0  0  0  0  0  0  0  0  0  # atno 17395 bound_to 11000

$$$$
