AV-unprocessed.smi:65|AV-procd|sdf|616|dock4
  -GOLD-   2262016513D 1   1.00000     0.00000
 Structure written by MMmdl.
 26 27  0  0  0  0  0  0  0  0  2 V2000
  142.5560  132.4435  148.1494 N   0  0  0  0  0  0  0  0  0  0  0  0
  143.6593  132.6385  148.9439 C   0  0  0  0  0  0  0  0  0  0  0  0
  144.7605  131.9267  148.6874 N   0  0  0  0  0  0  0  0  0  0  0  0
  145.8468  132.1140  149.4611 C   0  0  0  0  0  0  0  0  0  0  0  0
  145.8429  133.0328  150.5236 C   0  0  0  0  0  0  0  0  0  0  0  0
  144.6488  133.7537  150.7504 C   0  0  0  0  0  0  0  0  0  0  0  0
  144.5245  134.7059  151.7796 N   0  0  0  0  0  0  0  0  0  0  0  0
  143.4358  134.6391  152.7462 C   0  0  0  0  0  0  0  0  0  0  0  0
  143.1892  136.0862  153.1915 C   0  0  0  0  0  0  0  0  0  0  0  0
  144.5055  136.7944  152.8669 C   0  0  2  0  0  0  0  0  0  0  0  0
  144.3405  138.1809  152.6612 O   0  0  0  0  0  0  0  0  0  0  0  0
  144.9747  136.0774  151.6020 C   0  0  0  0  0  0  0  0  0  0  0  0
  143.5798  133.5337  149.9383 N   0  3  0  0  0  0  0  0  0  0  0  0
  141.7078  132.9660  148.3164 H   0  0  0  0  0  0  0  0  0  0  0  0
  142.5814  131.7866  147.3829 H   0  0  0  0  0  0  0  0  0  0  0  0
  146.7243  131.5287  149.2292 H   0  0  0  0  0  0  0  0  0  0  0  0
  146.7277  133.1738  151.1269 H   0  0  0  0  0  0  0  0  0  0  0  0
  142.5302  134.2036  152.3227 H   0  0  0  0  0  0  0  0  0  0  0  0
  143.7512  134.0233  153.5890 H   0  0  0  0  0  0  0  0  0  0  0  0
  142.3797  136.5113  152.5955 H   0  0  0  0  0  0  0  0  0  0  0  0
  142.9083  136.1657  154.2422 H   0  0  0  0  0  0  0  0  0  0  0  0
  145.2214  136.6273  153.6730 H   0  0  0  0  0  0  0  0  0  0  0  0
  144.2540  138.3414  151.7336 H   0  0  0  0  0  0  0  0  0  0  0  0
  146.0567  136.1389  151.4799 H   0  0  0  0  0  0  0  0  0  0  0  0
  144.5004  136.4991  150.7144 H   0  0  0  0  0  0  0  0  0  0  0  0
  142.7168  134.0539  150.0948 H   0  0  0  0  0  0  0  0  0  0  0  0
  1  2  1  0  0  0  0
  1 14  1  0  0  0  0
  1 15  1  0  0  0  0
  2 13  1  0  0  0  0
  2  3  2  0  0  0  0
  3  4  1  0  0  0  0
  4  5  2  0  0  0  0
  4 16  1  0  0  0  0
  5  6  1  0  0  0  0
  5 17  1  0  0  0  0
  6  7  1  0  0  0  0
  6 13  2  0  0  0  0
  7 12  1  0  0  0  0
  7  8  1  0  0  0  0
  8  9  1  0  0  0  0
  8 18  1  0  0  0  0
  8 19  1  0  0  0  0
  9 10  1  0  0  0  0
  9 20  1  0  0  0  0
  9 21  1  0  0  0  0
 10 11  1  0  0  0  0
 10 12  1  0  0  0  0
 10 22  1  0  0  0  0
 11 23  1  0  0  0  0
 12 24  1  0  0  0  0
 12 25  1  0  0  0  0
 13 26  1  0  0  0  0
M  CHG  1  13   1
M  END
> <s_m_source_file>
AV-unprocessed.smi

> <i_m_source_file_index>
65

> <i_lp_mmshare_version>
43012

> <i_f3d_flags>
0

> <s_epik_input>
W05IMl1jMW5bY0hdW2NIXWMobjEpTjJbQ0gyXVtDSDJdW0NAQEhdKFtPSF0pW0NIMl0y

> <s_epik_cmdline>
J2VwaWtfcHl0aG9uJywgJy1waCcsICc3LjAnLCAnLXRuJywgJzgnLCAnLW1hJywgJzIwMCcsICctbWV0YWxfYmluZGluZycsICctaW1hZScsICc8aW5maWxlLm1hZT4nLCAnLW9tYWUnLCAnPG91dGZpbGUubWFlPic=

> <r_lp_tautomer_probability>
0.424989

> <r_epik_Ionization_Penalty>
0.57487

> <r_epik_Ionization_Penalty_Charging>
0.574865

> <r_epik_Ionization_Penalty_Neutral>
4.40886e-06

> <r_epik_State_Penalty>
0.845539

> <r_epik_Charging_Adjusted_Penalty>
1.4204

> <i_epik_Tot_Q>
1

> <i_epik_Tot_abs_Q>
1

> <r_epik_Metal_State_Penalty>
1.14248

> <b_epik_Metal_Only>
0

> <s_lp_Force_Field>
OPLS_2005

> <r_lp_Energy>
20.8145

> <b_lp_Chiralities_Consistent>
1

> <s_lp_Variant>
AV-unprocessed.smi:65-6

> <Gold.Version>
5.8.1

> <Gold.Id.Protein>
6NUR|6NUR_protein|mol2

> <Gold.PLP.Fitness>
45.1056

> <Gold.PLP.PLP>
-30.3891

> <Gold.PLP.part.hbond>
-6.7509

> <Gold.PLP.part.metal>
0.0000

> <Gold.PLP.part.buried>
-5.6279

> <Gold.PLP.part.nonpolar>
-18.8902

> <Gold.PLP.part.repulsive>
0.4954

> <Gold.PLP.ligand.clash>
0.0000

> <Gold.PLP.ligand.torsion>
1.2226

> <Gold.PLP.Chemscore.Hbond>
4.6546

> <Gold.PLP.Chemscore.CHOScore>
0.9957

> <Gold.PLP.Chemscore.Metal>
0.0000

> <Gold.Chemscore.Hbonds>
donor molecule, donor type, donor heavy atom, donor atom, acceptor molecule, acceptor atom, score
      L1  H     1    14       P1 10186  1.63
      L1  H    11    23       P1 10171  1.00
      L1  H    13    26       P1 10186  1.92
      P1  H 10785 10796       L1     3  0.01
      L1  C     4    16       P1 10747  0.96

> <Gold.PLP.Chemscore.Internal.Correction>
0.2111

> <Gold.Rescore>
     Score         DG    S(hbond)    S(metal)    S(lipo)     H(rot)  DE(clash)    DE(int)     intcor
     15.33     -16.60       2.71        0.00      39.63       1.00       0.00       1.27       ----

> <Gold.Chemscore.Fitness>
15.3324

> <Gold.Chemscore.DG>
-16.5982

> <Gold.Chemscore.ZeroCoef>
-5.4800

> <Gold.Chemscore.Hbond>
2.7069

> <Gold.Chemscore.Metal>
0.0000

> <Gold.Chemscore.Lipo>
39.6331

> <Gold.Chemscore.Internal_Hbond>
0.0000

> <Gold.Chemscore.DEClash>
0.0000

> <Gold.Chemscore.DEInternal>
1.2659

> <Gold.Chemscore.Rot>
1.0000

> <Gold.Chemscore.Internal.Correction>
   9.000000E+99

> <Gold.Chemscore.Hbonds>
donor molecule, donor type, donor heavy atom, donor atom, acceptor molecule, acceptor atom, score
      L1  H     1    14       P1 10186  0.78
      L1  H    11    23       P1 10171  0.98
      L1  H    13    26       P1 10186  0.91

> <Gold.Chemscore.Hbond.Weighted>
-9.0411

> <Gold.Chemscore.Metal.Weighted>
-0.0000

> <Gold.Chemscore.Lipo.Weighted>
-4.6371

> <Gold.Chemscore.Internal_Hbond.Weighted>
0.0000

> <Gold.Chemscore.DEClash.Weighted>
0.0000

> <Gold.Chemscore.DEInternal.Weighted>
1.2659

> <Gold.Chemscore.Rot.Weighted>
2.5600

> <Gold.Chemscore.Internal.Correction.Weighted>
   9.000000E+99

> <Gold.Protein.RotatedTorsions>
[ 6907 6896 6895 6894 ] final  124.57 input  -60.11 | X-H torsion
[ 7974 7965 7964 7962 ] final -149.32 input  175.53 | X-H torsion
[ 8008 7997 7996 7995 ] final -125.72 input   59.86 | X-H torsion
[ 10167 10162 10161 10158 ] final  -74.76 input  -65.29 | X-H torsion
[ 10718 10713 10712 10709 ] final  -24.43 input   66.30 | X-H torsion
[ 10763 10752 10751 10750 ] final  172.63 input  -60.55 | X-H torsion
[ 11005 11000 10999 10996 ] final   86.75 input  -57.11 | X-H torsion

> <Gold.Protein.ActiveResidues>
 VAL166  LYS551  ARG553  GLY616  TRP617  ASP618  TYR619  PRO620  LYS621  CYS622 
 ASP623  PHE694  ASN695  SER759  ASP760  ASP761  ALA762  ILE779  LEU786  VAL792 
 PHE793  MET794  SER795  GLU796  ALA797  LYS798  CYS799  TRP800  GLU811  SER814 

> <Gold.Protein.RotatedAtoms>
  152.4067  133.6899  159.6361 H   0  0  0  0  0  0  0  0  0  0  0  0  # atno 6907 bound_to 6896
  150.7951  133.8697  159.3264 H   0  0  0  0  0  0  0  0  0  0  0  0  # atno 6908 bound_to 6896
  151.6449  135.1010  160.0200 H   0  0  0  0  0  0  0  0  0  0  0  0  # atno 6909 bound_to 6896
  144.7974  140.5080  143.5730 H   0  0  0  0  0  0  0  0  0  0  0  0  # atno 7974 bound_to 7965
  155.2180  140.0421  157.2944 H   0  0  0  0  0  0  0  0  0  0  0  0  # atno 8008 bound_to 7997
  154.5968  140.2441  155.7817 H   0  0  0  0  0  0  0  0  0  0  0  0  # atno 8009 bound_to 7997
  156.2295  140.2943  156.0162 H   0  0  0  0  0  0  0  0  0  0  0  0  # atno 8010 bound_to 7997
  140.5000  143.2363  151.7768 H   0  0  0  0  0  0  0  0  0  0  0  0  # atno 10167 bound_to 10162
  156.4777  130.4538  149.6830 H   0  0  0  0  0  0  0  0  0  0  0  0  # atno 10718 bound_to 10713
  154.4288  135.2759  155.1926 H   0  0  0  0  0  0  0  0  0  0  0  0  # atno 10763 bound_to 10752
  154.3841  135.6081  153.5810 H   0  0  0  0  0  0  0  0  0  0  0  0  # atno 10764 bound_to 10752
  152.9835  135.5887  154.4596 H   0  0  0  0  0  0  0  0  0  0  0  0  # atno 10765 bound_to 10752
  139.8936  134.8376  156.2764 H   0  0  0  0  0  0  0  0  0  0  0  0  # atno 11005 bound_to 11000
  145.5638  139.1480  143.3326 LP  0  0  0  0  0  0  0  0  0  0  0  0  # atno 17320 bound_to 7965
  146.2247  140.5773  142.9002 LP  0  0  0  0  0  0  0  0  0  0  0  0  # atno 17321 bound_to 7965
  139.4870  144.4535  151.9626 LP  0  0  0  0  0  0  0  0  0  0  0  0  # atno 17342 bound_to 10162
  140.3624  144.2957  150.5931 LP  0  0  0  0  0  0  0  0  0  0  0  0  # atno 17343 bound_to 10162
  156.3553  130.7453  151.2418 LP  0  0  0  0  0  0  0  0  0  0  0  0  # atno 17370 bound_to 10713
  157.7486  131.0365  150.4414 LP  0  0  0  0  0  0  0  0  0  0  0  0  # atno 17371 bound_to 10713
  141.0067  133.7119  156.1046 LP  0  0  0  0  0  0  0  0  0  0  0  0  # atno 17394 bound_to 11000
  140.7424  134.4136  157.5553 LP  0  0  0  0  0  0  0  0  0  0  0  0  # atno 17395 bound_to 11000

$$$$
