AV-unprocessed.smi:3258|AV-procd|sdf|12471|dock6
  -GOLD-   2272018373D 1   1.00000     0.00000
 Structure written by MMmdl.
 38 39  0  0  0  0  0  0  0  0  1 V2000
  151.5303  136.3550  156.3977 C   0  0  0  0  0  0  0  0  0  0  0  0
  150.5082  137.1130  155.5355 C   0  0  1  0  0  0  0  0  0  0  0  0
  151.1266  138.3102  154.7721 C   0  0  0  0  0  0  0  0  0  0  0  0
  151.0982  139.5590  155.5168 N   0  0  0  0  0  0  0  0  0  0  0  0
  151.5779  139.8138  156.7846 C   0  0  0  0  0  0  0  0  0  0  0  0
  151.3217  141.1264  157.0605 C   0  0  0  0  0  0  0  0  0  0  0  0
  150.6686  141.5972  155.8873 C   0  0  0  0  0  0  0  0  0  0  0  0
  150.5348  140.6570  154.9664 N   0  0  0  0  0  0  0  0  0  0  0  0
  149.8561  136.1739  154.6251 N   0  0  0  0  0  0  0  0  0  0  0  0
  149.2775  135.0193  154.9824 C   0  0  0  0  0  0  0  0  0  0  0  0
  149.2657  134.5797  156.1325 O   0  0  0  0  0  0  0  0  0  0  0  0
  148.6922  134.4160  153.9385 N   0  0  0  0  0  0  0  0  0  0  0  0
  147.9105  133.1859  154.0051 C   0  0  0  0  0  0  0  0  0  0  0  0
  148.7799  131.9466  153.7220 C   0  0  1  0  0  0  0  0  0  0  0  0
  149.8833  131.7264  154.7364 C   0  0  0  0  0  0  0  0  0  0  0  0
  150.2535  130.2667  154.4900 C   0  0  0  0  0  0  0  0  0  0  0  0
  149.0596  129.6306  154.0417 O   0  0  0  0  0  0  0  0  0  0  0  0
  148.0495  130.6041  153.7958 C   0  0  0  0  0  0  0  0  0  0  0  0
  152.0343  137.0296  157.0900 H   0  0  0  0  0  0  0  0  0  0  0  0
  152.2942  135.8701  155.7890 H   0  0  0  0  0  0  0  0  0  0  0  0
  151.0424  135.5807  156.9907 H   0  0  0  0  0  0  0  0  0  0  0  0
  149.7457  137.5073  156.2096 H   0  0  0  0  0  0  0  0  0  0  0  0
  152.1575  138.0980  154.4847 H   0  0  0  0  0  0  0  0  0  0  0  0
  150.5836  138.4646  153.8391 H   0  0  0  0  0  0  0  0  0  0  0  0
  152.0585  139.0488  157.3767 H   0  0  0  0  0  0  0  0  0  0  0  0
  151.5620  141.6674  157.9635 H   0  0  0  0  0  0  0  0  0  0  0  0
  150.2895  142.5868  155.6792 H   0  0  0  0  0  0  0  0  0  0  0  0
  149.8056  136.4469  153.6545 H   0  0  0  0  0  0  0  0  0  0  0  0
  148.7601  134.8617  153.0351 H   0  0  0  0  0  0  0  0  0  0  0  0
  147.4906  133.1136  155.0086 H   0  0  0  0  0  0  0  0  0  0  0  0
  147.0605  133.2253  153.3215 H   0  0  0  0  0  0  0  0  0  0  0  0
  149.2349  132.0419  152.7344 H   0  0  0  0  0  0  0  0  0  0  0  0
  150.7270  132.4051  154.6083 H   0  0  0  0  0  0  0  0  0  0  0  0
  149.4983  131.8472  155.7501 H   0  0  0  0  0  0  0  0  0  0  0  0
  151.0023  130.1921  153.7006 H   0  0  0  0  0  0  0  0  0  0  0  0
  150.6527  129.7831  155.3818 H   0  0  0  0  0  0  0  0  0  0  0  0
  147.3493  130.5910  154.6324 H   0  0  0  0  0  0  0  0  0  0  0  0
  147.4929  130.3778  152.8859 H   0  0  0  0  0  0  0  0  0  0  0  0
  1  2  1  0  0  0  0
  1 19  1  0  0  0  0
  1 20  1  0  0  0  0
  1 21  1  0  0  0  0
  2  3  1  0  0  0  0
  2  9  1  0  0  0  0
  2 22  1  0  0  0  0
  3  4  1  0  0  0  0
  3 23  1  0  0  0  0
  3 24  1  0  0  0  0
  4  8  1  0  0  0  0
  4  5  1  0  0  0  0
  5  6  2  0  0  0  0
  5 25  1  0  0  0  0
  6  7  1  0  0  0  0
  6 26  1  0  0  0  0
  7  8  2  0  0  0  0
  7 27  1  0  0  0  0
  9 10  1  0  0  0  0
  9 28  1  0  0  0  0
 10 11  2  0  0  0  0
 10 12  1  0  0  0  0
 12 13  1  0  0  0  0
 12 29  1  0  0  0  0
 13 14  1  0  0  0  0
 13 30  1  0  0  0  0
 13 31  1  0  0  0  0
 14 18  1  0  0  0  0
 14 15  1  0  0  0  0
 14 32  1  0  0  0  0
 15 16  1  0  0  0  0
 15 33  1  0  0  0  0
 15 34  1  0  0  0  0
 16 17  1  0  0  0  0
 16 35  1  0  0  0  0
 16 36  1  0  0  0  0
 17 18  1  0  0  0  0
 18 37  1  0  0  0  0
 18 38  1  0  0  0  0
M  END
> <s_m_source_file>
AV-unprocessed.smi

> <i_m_source_file_index>
3258

> <i_lp_mmshare_version>
43012

> <i_f3d_flags>
0

> <s_epik_input>
bjFbY0hdW2NIXVtjSF1uMVtDSDJdW0NAQEhdKFtDSDNdKVtOSF1DKD1PKVtOSF1bQ0gyXVtDQEBIXTJbQ0gyXVtDSDJdT1tDSDJdMg==

> <s_epik_cmdline>
J2VwaWtfcHl0aG9uJywgJy1waCcsICc3LjAnLCAnLXRuJywgJzgnLCAnLW1hJywgJzIwMCcsICctbWV0YWxfYmluZGluZycsICctaW1hZScsICc8aW5maWxlLm1hZT4nLCAnLW9tYWUnLCAnPG91dGZpbGUubWFlPic=

> <r_lp_tautomer_probability>
1

> <r_epik_Ionization_Penalty>
6.85079e-05

> <r_epik_Ionization_Penalty_Charging>
0

> <r_epik_Ionization_Penalty_Neutral>
6.85079e-05

> <r_epik_State_Penalty>
-0

> <r_epik_Charging_Adjusted_Penalty>
0

> <i_epik_Tot_Q>
0

> <i_epik_Tot_abs_Q>
0

> <r_epik_Metal_State_Penalty>
-0

> <b_epik_Metal_Only>
0

> <s_lp_Force_Field>
OPLS_2005

> <r_lp_Energy>
16.3591

> <b_lp_Chiralities_Consistent>
1

> <s_lp_Variant>
AV-unprocessed.smi:3258-4

> <Gold.Version>
5.8.1

> <Gold.Id.Protein>
6NUR|6NUR_protein|mol2

> <Gold.PLP.Fitness>
40.6555

> <Gold.PLP.PLP>
-30.1622

> <Gold.PLP.part.hbond>
-3.0000

> <Gold.PLP.part.metal>
0.0000

> <Gold.PLP.part.buried>
-4.2953

> <Gold.PLP.part.nonpolar>
-23.5016

> <Gold.PLP.part.repulsive>
0.2495

> <Gold.PLP.ligand.clash>
0.0000

> <Gold.PLP.ligand.torsion>
0.6541

> <Gold.PLP.Chemscore.Hbond>
2.9280

> <Gold.PLP.Chemscore.CHOScore>
0.9922

> <Gold.PLP.Chemscore.Metal>
0.0000

> <Gold.Chemscore.Hbonds>
donor molecule, donor type, donor heavy atom, donor atom, acceptor molecule, acceptor atom, score
      L1  H     9    28       P1  7948  0.99
      L1  H    12    29       P1  7948  1.00
      P1  H  7989  7998       L1     8  0.93
      L1  C     7    27       P1  8028  0.95

> <Gold.PLP.Chemscore.Internal.Correction>
0.0410

> <Gold.Rescore>
     Score         DG    S(hbond)    S(metal)    S(lipo)     H(rot)  DE(clash)    DE(int)     intcor
     13.44     -15.53       2.40        0.00      58.44       1.87       0.02       2.07       ----

> <Gold.Chemscore.Fitness>
13.4367

> <Gold.Chemscore.DG>
-15.5277

> <Gold.Chemscore.ZeroCoef>
-5.4800

> <Gold.Chemscore.Hbond>
2.3963

> <Gold.Chemscore.Metal>
0.0000

> <Gold.Chemscore.Lipo>
58.4371

> <Gold.Chemscore.Internal_Hbond>
0.0000

> <Gold.Chemscore.DEClash>
0.0174

> <Gold.Chemscore.DEInternal>
2.0735

> <Gold.Chemscore.Rot>
1.8724

> <Gold.Chemscore.Internal.Correction>
   9.000000E+99

> <Gold.Chemscore.Hbonds>
donor molecule, donor type, donor heavy atom, donor atom, acceptor molecule, acceptor atom, score
      L1  H     9    28       P1  7948  0.32
      L1  H    12    29       P1  7948  0.25
      P1  H  7989  7998       L1     8  0.24

> <Gold.Chemscore.Hbond.Weighted>
-8.0038

> <Gold.Chemscore.Metal.Weighted>
-0.0000

> <Gold.Chemscore.Lipo.Weighted>
-6.8371

> <Gold.Chemscore.Internal_Hbond.Weighted>
0.0000

> <Gold.Chemscore.DEClash.Weighted>
0.0174

> <Gold.Chemscore.DEInternal.Weighted>
2.0735

> <Gold.Chemscore.Rot.Weighted>
4.7933

> <Gold.Chemscore.Internal.Correction.Weighted>
   9.000000E+99

> <Gold.Protein.RotatedTorsions>
[ 6907 6896 6895 6894 ] final   37.06 input  -60.11 | X-H torsion
[ 7974 7965 7964 7962 ] final  -83.41 input  175.53 | X-H torsion
[ 8008 7997 7996 7995 ] final  -36.50 input   59.86 | X-H torsion
[ 10167 10162 10161 10158 ] final -151.13 input  -65.29 | X-H torsion
[ 10718 10713 10712 10709 ] final  -54.08 input   66.30 | X-H torsion
[ 10763 10752 10751 10750 ] final   92.60 input  -60.55 | X-H torsion
[ 11005 11000 10999 10996 ] final   28.90 input  -57.11 | X-H torsion

> <Gold.Protein.ActiveResidues>
 VAL166  LYS551  ARG553  GLY616  TRP617  ASP618  TYR619  PRO620  LYS621  CYS622 
 ASP623  PHE694  ASN695  SER759  ASP760  ASP761  ALA762  ILE779  LEU786  VAL792 
 PHE793  MET794  SER795  GLU796  ALA797  LYS798  CYS799  TRP800  GLU811  SER814 

> <Gold.Protein.RotatedAtoms>
  152.1381  134.9083  160.0555 H   0  0  0  0  0  0  0  0  0  0  0  0  # atno 6907 bound_to 6896
  152.0162  133.3875  159.4248 H   0  0  0  0  0  0  0  0  0  0  0  0  # atno 6908 bound_to 6896
  150.6862  134.3598  159.4989 H   0  0  0  0  0  0  0  0  0  0  0  0  # atno 6909 bound_to 6896
  145.5203  140.9532  143.1658 H   0  0  0  0  0  0  0  0  0  0  0  0  # atno 7974 bound_to 7965
  154.4072  140.1629  156.2384 H   0  0  0  0  0  0  0  0  0  0  0  0  # atno 8008 bound_to 7997
  155.9223  140.3420  155.6159 H   0  0  0  0  0  0  0  0  0  0  0  0  # atno 8009 bound_to 7997
  155.7208  140.0768  157.2322 H   0  0  0  0  0  0  0  0  0  0  0  0  # atno 8010 bound_to 7997
  139.7294  143.8832  152.2530 H   0  0  0  0  0  0  0  0  0  0  0  0  # atno 10167 bound_to 10162
  156.1480  130.4152  149.9991 H   0  0  0  0  0  0  0  0  0  0  0  0  # atno 10718 bound_to 10713
  153.2209  135.4355  155.0488 H   0  0  0  0  0  0  0  0  0  0  0  0  # atno 10763 bound_to 10752
  154.8249  135.3356  154.6928 H   0  0  0  0  0  0  0  0  0  0  0  0  # atno 10764 bound_to 10752
  153.7360  135.7008  153.5034 H   0  0  0  0  0  0  0  0  0  0  0  0  # atno 10765 bound_to 10752
  140.3107  134.2653  155.7735 H   0  0  0  0  0  0  0  0  0  0  0  0  # atno 11005 bound_to 11000
  144.7679  139.6802  143.7207 LP  0  0  0  0  0  0  0  0  0  0  0  0  # atno 17320 bound_to 7965
  146.2110  139.5466  142.9681 LP  0  0  0  0  0  0  0  0  0  0  0  0  # atno 17321 bound_to 7965
  139.8751  144.7047  150.8942 LP  0  0  0  0  0  0  0  0  0  0  0  0  # atno 17342 bound_to 10162
  140.7768  143.3706  151.1656 LP  0  0  0  0  0  0  0  0  0  0  0  0  # atno 17343 bound_to 10162
  156.7857  130.9238  151.3646 LP  0  0  0  0  0  0  0  0  0  0  0  0  # atno 17370 bound_to 10713
  157.6633  130.8985  149.9877 LP  0  0  0  0  0  0  0  0  0  0  0  0  # atno 17371 bound_to 10713
  141.2109  133.7706  156.9903 LP  0  0  0  0  0  0  0  0  0  0  0  0  # atno 17394 bound_to 11000
  140.1027  134.9525  157.1948 LP  0  0  0  0  0  0  0  0  0  0  0  0  # atno 17395 bound_to 11000

$$$$
