AV-unprocessed.smi:2959|AV-procd|sdf|11309|dock4
  -GOLD-   2272016203D 1   1.00000     0.00000
 Structure written by MMmdl.
 45 47  0  0  0  0  0  0  0  0  1 V2000
  148.9643  133.3775  153.2126 C   0  0  0  0  0  0  0  0  0  0  0  0
  149.8876  133.8851  154.3158 C   0  0  0  0  0  0  0  0  0  0  0  0
  150.6320  133.1015  154.9035 O   0  0  0  0  0  0  0  0  0  0  0  0
  149.8346  135.1968  154.5846 N   0  0  0  0  0  0  0  0  0  0  0  0
  150.6322  135.8699  155.6025 C   0  0  0  0  0  0  0  0  0  0  0  0
  151.3316  137.1263  155.0492 C   0  0  0  0  0  0  0  0  0  0  0  0
  150.3955  138.2754  154.7907 C   0  0  0  0  0  0  0  0  0  0  0  0
  149.2427  138.0874  154.1457 N   0  0  0  0  0  0  0  0  0  0  0  0
  148.7018  139.3557  154.1029 C   0  0  0  0  0  0  0  0  0  0  0  0
  147.4947  139.8205  153.5336 C   0  0  0  0  0  0  0  0  0  0  0  0
  147.1452  141.1842  153.6168 C   0  0  0  0  0  0  0  0  0  0  0  0
  147.9951  142.0998  154.2703 C   0  0  0  0  0  0  0  0  0  0  0  0
  149.2014  141.6562  154.8456 C   0  0  0  0  0  0  0  0  0  0  0  0
  149.5469  140.2937  154.7586 C   0  0  0  0  0  0  0  0  0  0  0  0
  150.6308  139.5468  155.2128 N   0  0  0  0  0  0  0  0  0  0  0  0
  151.7458  140.0771  155.9878 C   0  0  0  0  0  0  0  0  0  0  0  0
  151.3144  140.6236  157.3562 C   0  0  0  0  0  0  0  0  0  0  0  0
  151.2370  142.0406  157.3034 O   0  0  0  0  0  0  0  0  0  0  0  0
  151.5605  142.7549  158.4367 C   0  0  0  0  0  0  0  0  0  0  0  0
  151.2972  144.1404  158.4171 C   0  0  0  0  0  0  0  0  0  0  0  0
  151.5827  144.9453  159.5362 C   0  0  0  0  0  0  0  0  0  0  0  0
  152.1400  144.3689  160.6922 C   0  0  0  0  0  0  0  0  0  0  0  0
  152.4112  142.9884  160.7250 C   0  0  0  0  0  0  0  0  0  0  0  0
  152.1244  142.1832  159.6052 C   0  0  0  0  0  0  0  0  0  0  0  0
  148.4027  132.5099  153.5593 H   0  0  0  0  0  0  0  0  0  0  0  0
  149.5483  133.0828  152.3406 H   0  0  0  0  0  0  0  0  0  0  0  0
  148.2517  134.1434  152.9034 H   0  0  0  0  0  0  0  0  0  0  0  0
  149.1980  135.7689  154.0481 H   0  0  0  0  0  0  0  0  0  0  0  0
  149.9759  136.1543  156.4266 H   0  0  0  0  0  0  0  0  0  0  0  0
  151.3710  135.1787  156.0099 H   0  0  0  0  0  0  0  0  0  0  0  0
  152.0966  137.4576  155.7520 H   0  0  0  0  0  0  0  0  0  0  0  0
  151.8619  136.8530  154.1396 H   0  0  0  0  0  0  0  0  0  0  0  0
  146.8369  139.1263  153.0320 H   0  0  0  0  0  0  0  0  0  0  0  0
  146.2203  141.5288  153.1778 H   0  0  0  0  0  0  0  0  0  0  0  0
  147.7201  143.1426  154.3307 H   0  0  0  0  0  0  0  0  0  0  0  0
  149.8529  142.3562  155.3470 H   0  0  0  0  0  0  0  0  0  0  0  0
  152.4614  139.2683  156.1381 H   0  0  0  0  0  0  0  0  0  0  0  0
  152.2792  140.8311  155.4098 H   0  0  0  0  0  0  0  0  0  0  0  0
  150.3529  140.1926  157.6396 H   0  0  0  0  0  0  0  0  0  0  0  0
  152.0491  140.3275  158.1066 H   0  0  0  0  0  0  0  0  0  0  0  0
  150.8663  144.5908  157.5349 H   0  0  0  0  0  0  0  0  0  0  0  0
  151.3724  146.0043  159.5071 H   0  0  0  0  0  0  0  0  0  0  0  0
  152.3590  144.9844  161.5523 H   0  0  0  0  0  0  0  0  0  0  0  0
  152.8388  142.5447  161.6120 H   0  0  0  0  0  0  0  0  0  0  0  0
  152.3419  141.1281  159.6700 H   0  0  0  0  0  0  0  0  0  0  0  0
  1  2  1  0  0  0  0
  1 25  1  0  0  0  0
  1 26  1  0  0  0  0
  1 27  1  0  0  0  0
  2  3  2  0  0  0  0
  2  4  1  0  0  0  0
  4  5  1  0  0  0  0
  4 28  1  0  0  0  0
  5  6  1  0  0  0  0
  5 29  1  0  0  0  0
  5 30  1  0  0  0  0
  6  7  1  0  0  0  0
  6 31  1  0  0  0  0
  6 32  1  0  0  0  0
  7 15  1  0  0  0  0
  7  8  2  0  0  0  0
  8  9  1  0  0  0  0
  9 14  2  0  0  0  0
  9 10  1  0  0  0  0
 10 11  2  0  0  0  0
 10 33  1  0  0  0  0
 11 12  1  0  0  0  0
 11 34  1  0  0  0  0
 12 13  2  0  0  0  0
 12 35  1  0  0  0  0
 13 14  1  0  0  0  0
 13 36  1  0  0  0  0
 14 15  1  0  0  0  0
 15 16  1  0  0  0  0
 16 17  1  0  0  0  0
 16 37  1  0  0  0  0
 16 38  1  0  0  0  0
 17 18  1  0  0  0  0
 17 39  1  0  0  0  0
 17 40  1  0  0  0  0
 18 19  1  0  0  0  0
 19 24  1  0  0  0  0
 19 20  2  0  0  0  0
 20 21  1  0  0  0  0
 20 41  1  0  0  0  0
 21 22  2  0  0  0  0
 21 42  1  0  0  0  0
 22 23  1  0  0  0  0
 22 43  1  0  0  0  0
 23 24  2  0  0  0  0
 23 44  1  0  0  0  0
 24 45  1  0  0  0  0
M  END
> <s_m_source_file>
AV-unprocessed.smi

> <i_m_source_file_index>
2959

> <i_lp_mmshare_version>
43012

> <i_f3d_flags>
0

> <s_epik_input>
W0NIM11DKD1PKVtOSF1bQ0gyXVtDSDJdYyhuMSluKGMoYzEyKVtjSF1bY0hdW2NIXVtjSF0yKVtDSDJdW0NIMl1PYzNbY0hdW2NIXVtjSF1bY0hdW2NIXTM=

> <s_epik_cmdline>
J2VwaWtfcHl0aG9uJywgJy1waCcsICc3LjAnLCAnLXRuJywgJzgnLCAnLW1hJywgJzIwMCcsICctbWV0YWxfYmluZGluZycsICctaW1hZScsICc8aW5maWxlLm1hZT4nLCAnLW9tYWUnLCAnPG91dGZpbGUubWFlPic=

> <r_lp_tautomer_probability>
1

> <r_epik_Ionization_Penalty>
0.11099

> <r_epik_Ionization_Penalty_Charging>
0

> <r_epik_Ionization_Penalty_Neutral>
0.11099

> <r_epik_State_Penalty>
0.100724

> <r_epik_Charging_Adjusted_Penalty>
0.100724

> <i_epik_Tot_Q>
0

> <i_epik_Tot_abs_Q>
0

> <r_epik_Metal_State_Penalty>
0.0847

> <b_epik_Metal_Only>
0

> <s_lp_Force_Field>
OPLS_2005

> <r_lp_Energy>
14.3457

> <b_lp_Chiralities_Consistent>
1

> <s_lp_Variant>
AV-unprocessed.smi:2959-1

> <Gold.Version>
5.8.1

> <Gold.Id.Protein>
6NUR|6NUR_protein|mol2

> <Gold.PLP.Fitness>
53.0326

> <Gold.PLP.PLP>
-54.5950

> <Gold.PLP.part.hbond>
-0.3180

> <Gold.PLP.part.metal>
0.0000

> <Gold.PLP.part.buried>
-2.3695

> <Gold.PLP.part.nonpolar>
-50.8836

> <Gold.PLP.part.repulsive>
1.3176

> <Gold.PLP.ligand.clash>
0.0000

> <Gold.PLP.ligand.torsion>
0.8218

> <Gold.PLP.Chemscore.Hbond>
0.0000

> <Gold.PLP.Chemscore.CHOScore>
0.0000

> <Gold.PLP.Chemscore.Metal>
0.0000

> <Gold.Chemscore.Hbonds>
donor molecule, donor type, donor heavy atom, donor atom, acceptor molecule, acceptor atom, score
      L1  H     4    28       P1  7948  0.35

> <Gold.PLP.Chemscore.Internal.Correction>
0.0812

> <Gold.Rescore>
     Score         DG    S(hbond)    S(metal)    S(lipo)     H(rot)  DE(clash)    DE(int)     intcor
     13.90     -16.51       0.00        0.00     141.04       2.14       0.44       2.17       ----

> <Gold.Chemscore.Fitness>
13.9035

> <Gold.Chemscore.DG>
-16.5148

> <Gold.Chemscore.ZeroCoef>
-5.4800

> <Gold.Chemscore.Hbond>
0.0000

> <Gold.Chemscore.Metal>
0.0000

> <Gold.Chemscore.Lipo>
141.0421

> <Gold.Chemscore.Internal_Hbond>
0.0000

> <Gold.Chemscore.DEClash>
0.4367

> <Gold.Chemscore.DEInternal>
2.1746

> <Gold.Chemscore.Rot>
2.1356

> <Gold.Chemscore.Internal.Correction>
   9.000000E+99

> <Gold.Chemscore.Hbonds>
donor molecule, donor type, donor heavy atom, donor atom, acceptor molecule, acceptor atom, score
      L1  H     4    28       P1  7948  0.28

> <Gold.Chemscore.Hbond.Weighted>
-0.0000

> <Gold.Chemscore.Metal.Weighted>
-0.0000

> <Gold.Chemscore.Lipo.Weighted>
-16.5019

> <Gold.Chemscore.Internal_Hbond.Weighted>
0.0000

> <Gold.Chemscore.DEClash.Weighted>
0.4367

> <Gold.Chemscore.DEInternal.Weighted>
2.1746

> <Gold.Chemscore.Rot.Weighted>
5.4671

> <Gold.Chemscore.Internal.Correction.Weighted>
   9.000000E+99

> <Gold.Protein.RotatedTorsions>
[ 6907 6896 6895 6894 ] final   18.56 input  -60.11 | X-H torsion
[ 7974 7965 7964 7962 ] final  -26.61 input  175.53 | X-H torsion
[ 8008 7997 7996 7995 ] final  148.33 input   59.86 | X-H torsion
[ 10167 10162 10161 10158 ] final  -37.36 input  -65.29 | X-H torsion
[ 10718 10713 10712 10709 ] final  -64.01 input   66.30 | X-H torsion
[ 10763 10752 10751 10750 ] final -107.79 input  -60.55 | X-H torsion
[ 11005 11000 10999 10996 ] final -137.30 input  -57.11 | X-H torsion

> <Gold.Protein.ActiveResidues>
 VAL166  LYS551  ARG553  GLY616  TRP617  ASP618  TYR619  PRO620  LYS621  CYS622 
 ASP623  PHE694  ASN695  SER759  ASP760  ASP761  ALA762  ILE779  LEU786  VAL792 
 PHE793  MET794  SER795  GLU796  ALA797  LYS798  CYS799  TRP800  GLU811  SER814 

> <Gold.Protein.RotatedAtoms>
  151.8671  135.0503  160.0475 H   0  0  0  0  0  0  0  0  0  0  0  0  # atno 6907 bound_to 6896
  152.2617  133.5299  159.5394 H   0  0  0  0  0  0  0  0  0  0  0  0  # atno 6908 bound_to 6896
  150.7119  134.0737  159.3916 H   0  0  0  0  0  0  0  0  0  0  0  0  # atno 6909 bound_to 6896
  146.1414  140.5043  142.8650 H   0  0  0  0  0  0  0  0  0  0  0  0  # atno 7974 bound_to 7965
  156.2795  140.2131  156.5681 H   0  0  0  0  0  0  0  0  0  0  0  0  # atno 8008 bound_to 7997
  154.7158  140.0508  157.0616 H   0  0  0  0  0  0  0  0  0  0  0  0  # atno 8009 bound_to 7997
  155.0544  140.3160  155.4684 H   0  0  0  0  0  0  0  0  0  0  0  0  # atno 8010 bound_to 7997
  140.7120  143.3347  151.2489 H   0  0  0  0  0  0  0  0  0  0  0  0  # atno 10167 bound_to 10162
  156.0755  130.4228  150.1359 H   0  0  0  0  0  0  0  0  0  0  0  0  # atno 10718 bound_to 10713
  154.8096  135.4662  154.0483 H   0  0  0  0  0  0  0  0  0  0  0  0  # atno 10763 bound_to 10752
  153.1924  135.6857  153.8343 H   0  0  0  0  0  0  0  0  0  0  0  0  # atno 10764 bound_to 10752
  153.7856  135.3250  155.3349 H   0  0  0  0  0  0  0  0  0  0  0  0  # atno 10765 bound_to 10752
  140.8724  134.2034  157.4643 H   0  0  0  0  0  0  0  0  0  0  0  0  # atno 11005 bound_to 11000
  144.7796  140.5813  143.6614 LP  0  0  0  0  0  0  0  0  0  0  0  0  # atno 17320 bound_to 7965
  145.5039  139.1482  143.3642 LP  0  0  0  0  0  0  0  0  0  0  0  0  # atno 17321 bound_to 7965
  139.6839  143.9807  152.2823 LP  0  0  0  0  0  0  0  0  0  0  0  0  # atno 17342 bound_to 10162
  139.9446  144.6660  150.8232 LP  0  0  0  0  0  0  0  0  0  0  0  0  # atno 17343 bound_to 10162
  156.9401  130.9741  151.3517 LP  0  0  0  0  0  0  0  0  0  0  0  0  # atno 17370 bound_to 10713
  157.5848  130.8402  149.8574 LP  0  0  0  0  0  0  0  0  0  0  0  0  # atno 17371 bound_to 10713
  139.8713  134.9780  156.4981 LP  0  0  0  0  0  0  0  0  0  0  0  0  # atno 17394 bound_to 11000
  140.8558  133.8097  155.9214 LP  0  0  0  0  0  0  0  0  0  0  0  0  # atno 17395 bound_to 11000

$$$$
