#       Name:                AV-unprocessed.smi:1912
#       Creating user name   scv26
#       Creation time:       Fri Mar 27 09:49:11 2020


#       File generated by GOLD software.
#

@<TRIPOS>MOLECULE
AV-unprocessed.smi:1912
    50    52     1
SMALL
NO_CHARGES


@<TRIPOS>ATOM
      1 ****        -3.9725  -1.6927   1.6145 C.3            1 S1                 0.0000
      2 ****        -2.5526  -1.6632   1.6008 O.3            1 S1                 0.0000
      3 ****        -1.9308  -0.4371   1.5044 C.ar           1 S1                 0.0000
      4 ****        -2.6146   0.7980   1.4191 C.ar           1 S1                 0.0000
      5 ****        -1.8979   2.0035   1.3089 C.ar           1 S1                 0.0000
      6 ****        -0.4812   2.0069   1.2781 C.ar           1 S1                 0.0000
      7 ****         0.2717   3.1558   1.1444 O.3            1 S1                 0.0000
      8 ****        -0.4034   4.4027   1.0668 C.3            1 S1                 0.0000
      9 ****         0.2071   0.7729   1.3716 C.ar           1 S1                 0.0000
     10 ****         1.7339   0.7403   1.3114 C.3            1 S1                 0.0000
     11 ****         2.2962  -0.3315   2.0439 O.3            1 S1                 0.0000
     12 ****         2.2706   0.7266  -0.1390 C.3            1 S1                 0.0000
     13 ****         1.9523  -0.5075  -0.8827 N.pl3          1 S1                 0.0000
     14 ****         2.6201  -1.6969  -0.9481 C.2            1 S1                 0.0000
     15 ****         3.8976  -2.0563  -0.2646 C.3            1 S1                 0.0000
     16 ****         1.8978  -2.5223  -1.7561 N.pl3          1 S1                 1.0000
     17 ****         0.7627  -1.8578  -2.2191 C.ar           1 S1                 0.0000
     18 ****        -0.2649  -2.2873  -3.0532 C.ar           1 S1                 0.0000
     19 ****        -1.2849  -1.3546  -3.3326 C.ar           1 S1                 0.0000
     20 ****        -1.2547  -0.0518  -2.7948 C.ar           1 S1                 0.0000
     21 ****        -0.2049   0.3728  -1.9545 C.ar           1 S1                 0.0000
     22 ****         0.7960  -0.5582  -1.6735 C.ar           1 S1                 0.0000
     23 ****        -0.5236  -0.4320   1.4847 C.ar           1 S1                 0.0000
     24 ****        -4.3099  -2.7260   1.6940 H              1 S1                 0.0000
     25 ****        -4.3889  -1.2799   0.6946 H              1 S1                 0.0000
     26 ****        -4.3749  -1.1481   2.4697 H              1 S1                 0.0000
     27 ****        -3.6927   0.8489   1.4312 H              1 S1                 0.0000
     28 ****        -2.4661   2.9185   1.2416 H              1 S1                 0.0000
     29 ****         0.3307   5.2024   0.9709 H              1 S1                 0.0000
     30 ****        -0.9858   4.5969   1.9686 H              1 S1                 0.0000
     31 ****        -1.0574   4.4501   0.1951 H              1 S1                 0.0000
     32 ****         2.1084   1.6408   1.7988 H              1 S1                 0.0000
     33 ****         2.0681  -0.2223   2.9547 H              1 S1                 0.0000
     34 ****         1.9067   1.5884  -0.6986 H              1 S1                 0.0000
     35 ****         3.3563   0.8248  -0.1277 H              1 S1                 0.0000
     36 ****         4.4134  -2.8440  -0.8141 H              1 S1                 0.0000
     37 ****         3.6949  -2.4154   0.7443 H              1 S1                 0.0000
     38 ****         4.5600  -1.1933  -0.2026 H              1 S1                 0.0000
     39 ****        -0.2886  -3.2845  -3.4672 H              1 S1                 0.0000
     40 ****        -2.1057  -1.6441  -3.9725 H              1 S1                 0.0000
     41 ****        -2.0537   0.6363  -3.0303 H              1 S1                 0.0000
     42 ****        -0.1976   1.3719  -1.5460 H              1 S1                 0.0000
     43 ****        -0.0026  -1.3768   1.5378 H              1 S1                 0.0000
     44 ****         2.1648  -3.4740  -1.9723 H              1 S1                 0.0000
     45 ****        -2.2515  -2.2113   0.8204 LP             1 S1                 0.0000
     46 ****        -2.2383  -2.0899   2.4488 LP             1 S1                 0.0000
     47 ****         0.8112   3.0596   0.3079 LP             1 S1                 0.0000
     48 ****         0.8848   3.2005   1.9332 LP             1 S1                 0.0000
     49 ****         3.2910  -0.3253   1.9417 LP             1 S1                 0.0000
     50 ****         1.9318  -1.1994   1.7061 LP             1 S1                 0.0000
@<TRIPOS>BOND
    1    1    2 1     
    2    1   24 1     
    3    1   25 1     
    4    1   26 1     
    5    2    3 1     
    6    3   23 ar    
    7    3    4 ar    
    8    4    5 ar    
    9    4   27 1     
   10    5    6 ar    
   11    5   28 1     
   12    6    7 1     
   13    6    9 ar    
   14    7    8 1     
   15    8   29 1     
   16    8   30 1     
   17    8   31 1     
   18    9   10 1     
   19    9   23 ar    
   20   10   11 1     
   21   10   12 1     
   22   10   32 1     
   23   11   33 1     
   24   12   13 1     
   25   12   34 1     
   26   12   35 1     
   27   13   22 1     
   28   13   14 1     
   29   14   15 1     
   30   14   16 2     
   31   15   36 1     
   32   15   37 1     
   33   15   38 1     
   34   16   17 1     
   35   16   44 1     
   36   17   22 ar    
   37   17   18 ar    
   38   18   19 ar    
   39   18   39 1     
   40   19   20 ar    
   41   19   40 1     
   42   20   21 ar    
   43   20   41 1     
   44   21   22 ar    
   45   21   42 1     
   46   23   43 1     
   47    2   45 1     
   48    2   46 1     
   49    7   47 1     
   50    7   48 1     
   51   11   49 1     
   52   11   50 1     
@<TRIPOS>SUBSTRUCTURE
      1 S1             1
@<TRIPOS>SET
LONE_PAIRS      STATIC     ATOMS    <user>   **** ""
6 45 46 47 48 49 50
DONOR_HYDROGENS      STATIC     ATOMS    <user>   **** ""
2 33 44
ATOM$BLUE        STATIC     ATOMS    COLORGROUP SYSTEM
6 45 46 47 48 49 50
ATOM$RED        STATIC     ATOMS    COLORGROUP SYSTEM
2 33 44
