AV-unprocessed.smi:157|AV-procd|sdf|1310|dock10
  -GOLD-   2262019 03D 1   1.00000     0.00000
 Structure written by MMmdl.
 36 38  0  0  0  0  0  0  0  0  2 V2000
  151.4616  139.4599  154.7221 O   0  0  0  0  0  0  0  0  0  0  0  0
  152.5577  139.0531  155.5138 C   0  0  0  0  0  0  0  0  0  0  0  0
  152.0888  138.1629  156.6832 C   0  0  2  0  0  0  0  0  0  0  0  0
  151.5545  139.0333  157.6836 O   0  0  0  0  0  0  0  0  0  0  0  0
  152.3312  138.9848  158.8427 C   0  0  2  0  0  0  0  0  0  0  0  0
  152.5503  140.3792  159.3302 N   0  0  0  0  0  0  0  0  0  0  0  0
  153.2258  140.7402  160.4414 C   0  0  0  0  0  0  0  0  0  0  0  0
  153.2686  142.0446  160.6531 N   0  3  0  0  0  0  0  0  0  0  0  0
  152.5719  142.6315  159.6182 C   0  0  0  0  0  0  0  0  0  0  0  0
  152.1227  141.5807  158.8142 C   0  0  0  0  0  0  0  0  0  0  0  0
  151.3523  141.6111  157.6417 N   0  0  0  0  0  0  0  0  0  0  0  0
  150.6910  142.6549  157.2595 C   0  0  0  0  0  0  0  0  0  0  0  0
  150.6588  143.9228  157.8161 N   0  0  0  0  0  0  0  0  0  0  0  0
  151.8507  144.6388  158.2348 C   0  0  0  0  0  0  0  0  0  0  0  0
  152.4495  144.1213  159.5491 C   0  0  1  0  0  0  0  0  0  0  0  0
  151.7065  144.6550  160.6257 O   0  0  0  0  0  0  0  0  0  0  0  0
  153.6578  138.3395  158.4619 C   0  0  0  0  0  0  0  0  0  0  0  0
  153.1899  137.3635  157.4062 C   0  0  2  0  0  0  0  0  0  0  0  0
  154.2583  136.9412  156.5830 O   0  0  0  0  0  0  0  0  0  0  0  0
  151.2942  137.4987  156.3406 H   0  0  0  0  0  0  0  0  0  0  0  0
  151.7975  138.4615  159.6369 H   0  0  0  0  0  0  0  0  0  0  0  0
  153.4526  144.5396  159.6413 H   0  0  0  0  0  0  0  0  0  0  0  0
  152.7477  136.4912  157.8900 H   0  0  0  0  0  0  0  0  0  0  0  0
  150.8692  138.7294  154.6288 H   0  0  0  0  0  0  0  0  0  0  0  0
  153.3007  138.5480  154.8962 H   0  0  0  0  0  0  0  0  0  0  0  0
  153.0285  139.9565  155.9028 H   0  0  0  0  0  0  0  0  0  0  0  0
  153.6896  140.0235  161.0952 H   0  0  0  0  0  0  0  0  0  0  0  0
  150.0578  142.5824  156.3741 H   0  0  0  0  0  0  0  0  0  0  0  0
  149.9283  144.5588  157.5289 H   0  0  0  0  0  0  0  0  0  0  0  0
  152.5918  144.5311  157.4414 H   0  0  0  0  0  0  0  0  0  0  0  0
  151.6326  145.7052  158.3022 H   0  0  0  0  0  0  0  0  0  0  0  0
  152.2375  145.2944  161.0748 H   0  0  0  0  0  0  0  0  0  0  0  0
  154.3290  139.0886  158.0379 H   0  0  0  0  0  0  0  0  0  0  0  0
  154.1347  137.8716  159.3237 H   0  0  0  0  0  0  0  0  0  0  0  0
  154.8978  137.6362  156.5409 H   0  0  0  0  0  0  0  0  0  0  0  0
  153.7292  142.5142  161.4223 H   0  0  0  0  0  0  0  0  0  0  0  0
  1  2  1  0  0  0  0
  1 24  1  0  0  0  0
  2  3  1  0  0  0  0
  2 25  1  0  0  0  0
  2 26  1  0  0  0  0
  3 20  1  0  0  0  0
  3 18  1  0  0  0  0
  3  4  1  0  0  0  0
  4  5  1  0  0  0  0
  5 21  1  0  0  0  0
  5  6  1  0  0  0  0
  5 17  1  0  0  0  0
  6 10  1  0  0  0  0
  6  7  1  0  0  0  0
  7  8  2  0  0  0  0
  7 27  1  0  0  0  0
  8  9  1  0  0  0  0
  8 36  1  0  0  0  0
  9 15  1  0  0  0  0
  9 10  2  0  0  0  0
 10 11  1  0  0  0  0
 11 12  2  0  0  0  0
 12 13  1  0  0  0  0
 12 28  1  0  0  0  0
 13 14  1  0  0  0  0
 13 29  1  0  0  0  0
 14 15  1  0  0  0  0
 14 30  1  0  0  0  0
 14 31  1  0  0  0  0
 15 22  1  0  0  0  0
 15 16  1  0  0  0  0
 16 32  1  0  0  0  0
 17 18  1  0  0  0  0
 17 33  1  0  0  0  0
 17 34  1  0  0  0  0
 18 23  1  0  0  0  0
 18 19  1  0  0  0  0
 19 35  1  0  0  0  0
M  CHG  1   8   1
M  END
> <s_m_source_file>
AV-unprocessed.smi

> <i_m_source_file_index>
157

> <i_lp_mmshare_version>
43012

> <i_f3d_flags>
0

> <s_epik_input>
W09IXVtDSDJdW0NASF0xT1tDQEhdKFtDSDJdW0NAQEhdMVtPSF0pbihbY0hdbjIpYyhjMjMpTj1bQ0hdW05IXVtDSDJdW0NASF0zW09IXQ==

> <s_epik_cmdline>
J2VwaWtfcHl0aG9uJywgJy1waCcsICc3LjAnLCAnLXRuJywgJzgnLCAnLW1hJywgJzIwMCcsICctbWV0YWxfYmluZGluZycsICctaW1hZScsICc8aW5maWxlLm1hZT4nLCAnLW9tYWUnLCAnPG91dGZpbGUubWFlPic=

> <r_epik_Ionization_Penalty>
1.68594

> <r_epik_Ionization_Penalty_Charging>
0

> <r_epik_Ionization_Penalty_Neutral>
1.68594

> <r_epik_State_Penalty>
1.79006

> <r_epik_Charging_Adjusted_Penalty>
1.79006

> <i_epik_Tot_Q>
1

> <i_epik_Tot_abs_Q>
1

> <r_epik_Metal_State_Penalty>
5.85324

> <b_epik_Metal_Only>
0

> <s_epik_Chemistry_Notes>
This compound has an imine and may undergo hydrolysis. This compound contains an acetal/aminal-like group ( X-CH(R)-Y where X, Y are N, S, or O) that may be acid/base labile, releasing an aldehyde.

> <s_lp_Force_Field>
OPLS_2005

> <r_lp_Energy>
54.8473

> <b_lp_Chiralities_Consistent>
1

> <s_lp_Variant>
AV-unprocessed.smi:157-20

> <Gold.Version>
5.8.1

> <Gold.Id.Protein>
6NUR|6NUR_protein|mol2

> <Gold.PLP.Fitness>
43.7179

> <Gold.PLP.PLP>
-34.5342

> <Gold.PLP.part.hbond>
-3.0000

> <Gold.PLP.part.metal>
0.0000

> <Gold.PLP.part.buried>
-5.8228

> <Gold.PLP.part.nonpolar>
-25.8184

> <Gold.PLP.part.repulsive>
0.0856

> <Gold.PLP.ligand.clash>
0.0000

> <Gold.PLP.ligand.torsion>
0.1550

> <Gold.PLP.Chemscore.Hbond>
2.4720

> <Gold.PLP.Chemscore.CHOScore>
0.6878

> <Gold.PLP.Chemscore.Metal>
0.0000

> <Gold.Chemscore.Hbonds>
donor molecule, donor type, donor heavy atom, donor atom, acceptor molecule, acceptor atom, score
      L1  H    13    29       P1  8028  0.44
      P1  H  7989  7998       L1     1  1.00
      P1  H 10752 10765       L1    19  0.70
      L1  C    12    28       P1  8028  0.70

> <Gold.PLP.Chemscore.Internal.Correction>
0.0141

> <Gold.Rescore>
     Score         DG    S(hbond)    S(metal)    S(lipo)     H(rot)  DE(clash)    DE(int)     intcor
      9.57     -11.39       2.44        0.00      61.17       3.67       0.02       1.80       ----

> <Gold.Chemscore.Fitness>
9.5707

> <Gold.Chemscore.DG>
-11.3950

> <Gold.Chemscore.ZeroCoef>
-5.4800

> <Gold.Chemscore.Hbond>
2.4379

> <Gold.Chemscore.Metal>
0.0000

> <Gold.Chemscore.Lipo>
61.1732

> <Gold.Chemscore.Internal_Hbond>
0.0000

> <Gold.Chemscore.DEClash>
0.0245

> <Gold.Chemscore.DEInternal>
1.7997

> <Gold.Chemscore.Rot>
3.6659

> <Gold.Chemscore.Internal.Correction>
   9.000000E+99

> <Gold.Chemscore.Hbonds>
donor molecule, donor type, donor heavy atom, donor atom, acceptor molecule, acceptor atom, score
      L1  H    13    29       P1  8028  0.07
      P1  H  7989  7998       L1     1  0.97
      P1  H 10752 10765       L1    19  0.64

> <Gold.Chemscore.Hbond.Weighted>
-8.1425

> <Gold.Chemscore.Metal.Weighted>
-0.0000

> <Gold.Chemscore.Lipo.Weighted>
-7.1573

> <Gold.Chemscore.Internal_Hbond.Weighted>
0.0000

> <Gold.Chemscore.DEClash.Weighted>
0.0245

> <Gold.Chemscore.DEInternal.Weighted>
1.7997

> <Gold.Chemscore.Rot.Weighted>
9.3848

> <Gold.Chemscore.Internal.Correction.Weighted>
   9.000000E+99

> <Gold.Protein.RotatedTorsions>
[ 6907 6896 6895 6894 ] final   56.14 input  -60.11 | X-H torsion
[ 7974 7965 7964 7962 ] final -148.85 input  175.53 | X-H torsion
[ 8008 7997 7996 7995 ] final  159.41 input   59.86 | X-H torsion
[ 10167 10162 10161 10158 ] final -134.28 input  -65.29 | X-H torsion
[ 10718 10713 10712 10709 ] final -112.15 input   66.30 | X-H torsion
[ 10763 10752 10751 10750 ] final  -97.78 input  -60.55 | X-H torsion
[ 11005 11000 10999 10996 ] final  140.72 input  -57.11 | X-H torsion

> <Gold.Protein.ActiveResidues>
 VAL166  LYS551  ARG553  GLY616  TRP617  ASP618  TYR619  PRO620  LYS621  CYS622 
 ASP623  PHE694  ASN695  SER759  ASP760  ASP761  ALA762  ILE779  LEU786  VAL792 
 PHE793  MET794  SER795  GLU796  ALA797  LYS798  CYS799  TRP800  GLU811  SER814 

> <Gold.Protein.RotatedAtoms>
  152.3608  134.6875  160.0207 H   0  0  0  0  0  0  0  0  0  0  0  0  # atno 6907 bound_to 6896
  151.7199  133.3309  159.3320 H   0  0  0  0  0  0  0  0  0  0  0  0  # atno 6908 bound_to 6896
  150.7603  134.6391  159.6272 H   0  0  0  0  0  0  0  0  0  0  0  0  # atno 6909 bound_to 6896
  144.8004  140.5142  143.5711 H   0  0  0  0  0  0  0  0  0  0  0  0  # atno 7974 bound_to 7965
  156.2240  140.1832  156.7407 H   0  0  0  0  0  0  0  0  0  0  0  0  # atno 8008 bound_to 7997
  154.5912  140.0650  156.9269 H   0  0  0  0  0  0  0  0  0  0  0  0  # atno 8009 bound_to 7997
  155.2334  140.3316  155.4303 H   0  0  0  0  0  0  0  0  0  0  0  0  # atno 8010 bound_to 7997
  139.8897  143.6738  152.2614 H   0  0  0  0  0  0  0  0  0  0  0  0  # atno 10167 bound_to 10162
  156.0689  130.5905  150.8470 H   0  0  0  0  0  0  0  0  0  0  0  0  # atno 10718 bound_to 10713
  154.7357  135.5034  153.9038 H   0  0  0  0  0  0  0  0  0  0  0  0  # atno 10763 bound_to 10752
  153.0993  135.6681  153.9711 H   0  0  0  0  0  0  0  0  0  0  0  0  # atno 10764 bound_to 10752
  153.9501  135.3058  155.3418 H   0  0  0  0  0  0  0  0  0  0  0  0  # atno 10765 bound_to 10752
  140.0348  134.9334  157.0732 H   0  0  0  0  0  0  0  0  0  0  0  0  # atno 11005 bound_to 11000
  145.5568  139.1478  143.3363 LP  0  0  0  0  0  0  0  0  0  0  0  0  # atno 17320 bound_to 7965
  146.2283  140.5705  142.8986 LP  0  0  0  0  0  0  0  0  0  0  0  0  # atno 17321 bound_to 7965
  139.7121  144.7618  151.1095 LP  0  0  0  0  0  0  0  0  0  0  0  0  # atno 17342 bound_to 10162
  140.7729  143.5317  150.9415 LP  0  0  0  0  0  0  0  0  0  0  0  0  # atno 17343 bound_to 10162
  157.5747  131.0946  150.9363 LP  0  0  0  0  0  0  0  0  0  0  0  0  # atno 17370 bound_to 10713
  156.9572  130.5441  149.5284 LP  0  0  0  0  0  0  0  0  0  0  0  0  # atno 17371 bound_to 10713
  140.4165  134.1926  155.7163 LP  0  0  0  0  0  0  0  0  0  0  0  0  # atno 17394 bound_to 11000
  141.1851  133.8329  157.1115 LP  0  0  0  0  0  0  0  0  0  0  0  0  # atno 17395 bound_to 11000

$$$$
