#       Name:                AV-unprocessed.smi:3060
#       Creating user name   scv26
#       Creation time:       Fri Mar 27 17:08:22 2020


#       File generated by GOLD software.
#

@<TRIPOS>MOLECULE
AV-unprocessed.smi:3060
    47    48     1
SMALL
NO_CHARGES


@<TRIPOS>ATOM
      1 ****        -1.6263  -4.7169  -0.5550 C.3            1 S1                 0.0000
      2 ****        -1.6766  -3.2206  -0.2290 C.3            1 S1                 0.0000
      3 ****        -2.4779  -2.4412  -1.2236 C.2            1 S1                 0.0000
      4 ****        -3.7891  -2.2483  -1.1631 N.2            1 S1                 0.0000
      5 ****        -4.0644  -1.4972  -2.2901 N.2            1 S1                 0.0000
      6 ****        -2.9855  -1.2669  -2.9813 N.2            1 S1                 0.0000
      7 ****        -1.9633  -1.8645  -2.3200 N.pl3          1 S1                 0.0000
      8 ****        -0.6026  -1.7980  -2.8338 C.3            1 S1                 0.0000
      9 ****         0.1270  -0.5193  -2.4051 C.2            1 S1                 0.0000
     10 ****         0.8281   0.0808  -3.2189 O.2            1 S1                 0.0000
     11 ****        -0.0231  -0.1252  -1.1289 N.am           1 S1                 0.0000
     12 ****         0.5813   1.0536  -0.5135 C.3            1 S1                 0.0000
     13 ****         1.9046   0.6252   0.1672 C.3            1 S1                 0.0000
     14 ****         2.7852   1.7812   0.6826 C.3            1 S1                 0.0000
     15 ****         2.7309   2.0310   2.2024 C.3            1 S1                 0.0000
     16 ****         1.3412   2.0031   2.8636 C.3            1 S1                 0.0000
     17 ****         0.3551   3.1045   2.4350 C.3            1 S1                 0.0000
     18 ****        -0.1150   3.0866   0.9675 C.3            1 S1                 0.0000
     19 ****        -0.4841   1.6994   0.4040 C.3            1 S1                 0.0000
     20 ****        -1.0394  -5.2566   0.1885 H              1 S1                 0.0000
     21 ****        -1.1712  -4.8919  -1.5303 H              1 S1                 0.0000
     22 ****        -2.6269  -5.1503  -0.5686 H              1 S1                 0.0000
     23 ****        -2.1154  -3.0757   0.7587 H              1 S1                 0.0000
     24 ****        -0.6664  -2.8146  -0.1749 H              1 S1                 0.0000
     25 ****        -0.0436  -2.6683  -2.4900 H              1 S1                 0.0000
     26 ****        -0.6363  -1.8561  -3.9229 H              1 S1                 0.0000
     27 ****        -0.6158  -0.6849  -0.5334 H              1 S1                 0.0000
     28 ****         0.8171   1.7749  -1.2981 H              1 S1                 0.0000
     29 ****         1.7216  -0.1086   0.9526 H              1 S1                 0.0000
     30 ****         2.4948   0.0906  -0.5789 H              1 S1                 0.0000
     31 ****         3.8229   1.5523   0.4366 H              1 S1                 0.0000
     32 ****         2.5798   2.6965   0.1303 H              1 S1                 0.0000
     33 ****         3.3379   1.2663   2.6887 H              1 S1                 0.0000
     34 ****         3.2222   2.9785   2.4256 H              1 S1                 0.0000
     35 ****         0.8861   1.0204   2.7501 H              1 S1                 0.0000
     36 ****         1.4931   2.1064   3.9385 H              1 S1                 0.0000
     37 ****        -0.5274   3.0161   3.0698 H              1 S1                 0.0000
     38 ****         0.7798   4.0831   2.6613 H              1 S1                 0.0000
     39 ****        -0.9997   3.7219   0.9108 H              1 S1                 0.0000
     40 ****         0.6071   3.5832   0.3221 H              1 S1                 0.0000
     41 ****        -1.3859   1.8337  -0.1960 H              1 S1                 0.0000
     42 ****        -0.7816   1.0178   1.2013 H              1 S1                 0.0000
     43 ****        -4.4286  -2.5709  -0.4653 LP             1 S1                 0.0000
     44 ****        -4.9758  -1.1722  -2.5424 LP             1 S1                 0.0000
     45 ****        -2.9226  -0.7495  -3.8348 LP             1 S1                 0.0000
     46 ****         0.9190  -0.2661  -4.1524 LP             1 S1                 0.0000
     47 ****         1.3071   0.9154  -2.9469 LP             1 S1                 0.0000
@<TRIPOS>BOND
    1    1    2 1     
    2    1   20 1     
    3    1   21 1     
    4    1   22 1     
    5    2    3 1     
    6    2   23 1     
    7    2   24 1     
    8    3    7 1     
    9    3    4 2     
   10    4    5 1     
   11    5    6 2     
   12    6    7 1     
   13    7    8 1     
   14    8    9 1     
   15    8   25 1     
   16    8   26 1     
   17    9   10 2     
   18    9   11 am    
   19   11   12 1     
   20   11   27 1     
   21   12   19 1     
   22   12   13 1     
   23   12   28 1     
   24   13   14 1     
   25   13   29 1     
   26   13   30 1     
   27   14   15 1     
   28   14   31 1     
   29   14   32 1     
   30   15   16 1     
   31   15   33 1     
   32   15   34 1     
   33   16   17 1     
   34   16   35 1     
   35   16   36 1     
   36   17   18 1     
   37   17   37 1     
   38   17   38 1     
   39   18   19 1     
   40   18   39 1     
   41   18   40 1     
   42   19   41 1     
   43   19   42 1     
   44    4   43 1     
   45    5   44 1     
   46    6   45 1     
   47   10   46 1     
   48   10   47 1     
@<TRIPOS>SUBSTRUCTURE
      1 S1             1
@<TRIPOS>SET
LONE_PAIRS      STATIC     ATOMS    <user>   **** ""
5 43 44 45 46 47
DONOR_HYDROGENS      STATIC     ATOMS    <user>   **** ""
1 27
ATOM$BLUE        STATIC     ATOMS    COLORGROUP SYSTEM
5 43 44 45 46 47
ATOM$RED        STATIC     ATOMS    COLORGROUP SYSTEM
1 27
