#       Name:                AV-unprocessed.smi:933
#       Creating user name   scv26
#       Creation time:       Fri Mar 27 02:10:48 2020


#       File generated by GOLD software.
#

@<TRIPOS>MOLECULE
AV-unprocessed.smi:933
    45    46     1
SMALL
NO_CHARGES


@<TRIPOS>ATOM
      1 ****        -6.5856  -6.5036   2.3924 C.3            1 S1                 0.0000
      2 ****        -7.0881  -5.0564   2.3571 C.3            1 S1                 0.0000
      3 ****        -6.4301  -4.2471   1.2902 C.2            1 S1                 0.0000
      4 ****        -5.2767  -3.5966   1.4648 N.2            1 S1                 0.0000
      5 ****        -4.8492  -2.9368   0.3083 C.2            1 S1                 0.0000
      6 ****        -3.5724  -2.1523   0.3239 C.3            1 S1                 0.0000
      7 ****        -2.3366  -3.0548   0.2087 C.3            1 S1                 0.0000
      8 ****        -1.1130  -2.2574   0.2265 N.am           1 S1                 0.0000
      9 ****         0.1514  -2.7093   0.1694 C.2            1 S1                 0.0000
     10 ****         0.4107  -3.9090   0.0957 O.2            1 S1                 0.0000
     11 ****         1.0894  -1.7480   0.2038 N.am           1 S1                 0.0000
     12 ****         2.5305  -1.9755   0.1427 C.3            1 S1                 0.0000
     13 ****         3.1022  -2.3748   1.5196 C.3            1 S1                 0.0000
     14 ****         4.0210  -1.2305   1.9509 C.3            1 S1                 0.0000
     15 ****         4.4984  -0.6164   0.6393 C.3            1 S1                 0.0000
     16 ****         3.2691  -0.6850  -0.2709 C.3            1 S1                 0.0000
     17 ****         3.6057  -0.6156  -1.7668 C.3            1 S1                 0.0000
     18 ****        -5.6964  -3.1101  -0.7578 C.2            1 S1                 0.0000
     19 ****        -7.0619  -4.1110  -0.3468 S.3            1 S1                 0.0000
     20 ****        -7.0844  -7.0686   3.1801 H              1 S1                 0.0000
     21 ****        -5.5125  -6.5425   2.5823 H              1 S1                 0.0000
     22 ****        -6.7776  -7.0096   1.4460 H              1 S1                 0.0000
     23 ****        -8.1658  -5.0416   2.1918 H              1 S1                 0.0000
     24 ****        -6.9137  -4.5776   3.3214 H              1 S1                 0.0000
     25 ****        -3.5720  -1.4296  -0.4932 H              1 S1                 0.0000
     26 ****        -3.5106  -1.5656   1.2416 H              1 S1                 0.0000
     27 ****        -2.3191  -3.7670   1.0353 H              1 S1                 0.0000
     28 ****        -2.3829  -3.6300  -0.7174 H              1 S1                 0.0000
     29 ****        -1.2357  -1.2577   0.2981 H              1 S1                 0.0000
     30 ****         0.7822  -0.7885   0.2684 H              1 S1                 0.0000
     31 ****         2.7450  -2.7710  -0.5740 H              1 S1                 0.0000
     32 ****         2.3340  -2.5757   2.2676 H              1 S1                 0.0000
     33 ****         3.6879  -3.2887   1.4123 H              1 S1                 0.0000
     34 ****         3.4487  -0.4922   2.5142 H              1 S1                 0.0000
     35 ****         4.8436  -1.5677   2.5821 H              1 S1                 0.0000
     36 ****         4.8712   0.4006   0.7648 H              1 S1                 0.0000
     37 ****         5.3084  -1.2205   0.2275 H              1 S1                 0.0000
     38 ****         2.6435   0.1749  -0.0229 H              1 S1                 0.0000
     39 ****         4.2486  -1.4429  -2.0692 H              1 S1                 0.0000
     40 ****         4.1221   0.3137  -2.0082 H              1 S1                 0.0000
     41 ****         2.6996  -0.6593  -2.3721 H              1 S1                 0.0000
     42 ****        -5.5975  -2.7156  -1.7582 H              1 S1                 0.0000
     43 ****        -4.7735  -3.5829   2.3288 LP             1 S1                 0.0000
     44 ****        -0.3302  -4.5804   0.0768 LP             1 S1                 0.0000
     45 ****         1.3624  -4.2133   0.0548 LP             1 S1                 0.0000
@<TRIPOS>BOND
    1    1    2 1     
    2    1   20 1     
    3    1   21 1     
    4    1   22 1     
    5    2    3 1     
    6    2   23 1     
    7    2   24 1     
    8    3   19 1     
    9    3    4 2     
   10    4    5 1     
   11    5    6 1     
   12    5   18 2     
   13    6    7 1     
   14    6   25 1     
   15    6   26 1     
   16    7    8 1     
   17    7   27 1     
   18    7   28 1     
   19    8    9 am    
   20    8   29 1     
   21    9   10 2     
   22    9   11 am    
   23   11   12 1     
   24   11   30 1     
   25   12   16 1     
   26   12   13 1     
   27   12   31 1     
   28   13   14 1     
   29   13   32 1     
   30   13   33 1     
   31   14   15 1     
   32   14   34 1     
   33   14   35 1     
   34   15   16 1     
   35   15   36 1     
   36   15   37 1     
   37   16   17 1     
   38   16   38 1     
   39   17   39 1     
   40   17   40 1     
   41   17   41 1     
   42   18   19 1     
   43   18   42 1     
   44    4   43 1     
   45   10   44 1     
   46   10   45 1     
@<TRIPOS>SUBSTRUCTURE
      1 S1             1
@<TRIPOS>SET
LONE_PAIRS      STATIC     ATOMS    <user>   **** ""
3 43 44 45
DONOR_HYDROGENS      STATIC     ATOMS    <user>   **** ""
2 29 30
ATOM$BLUE        STATIC     ATOMS    COLORGROUP SYSTEM
3 43 44 45
ATOM$RED        STATIC     ATOMS    COLORGROUP SYSTEM
2 29 30
