AV-unprocessed.smi:1071|AV-procd|sdf|4680|dock3
  -GOLD-   22720 3193D 1   1.00000     0.00000
 Structure written by MMmdl.
 47 48  0  0  0  0  0  0  0  0  2 V2000
  152.7140  142.9022  161.5483 C   0  0  0  0  0  0  0  0  0  0  0  0
  152.4616  142.0233  160.4662 O   0  0  0  0  0  0  0  0  0  0  0  0
  153.4248  140.9872  160.3721 C   0  0  0  0  0  0  0  0  0  0  0  0
  152.9212  139.9246  159.3913 C   0  0  0  0  0  0  0  0  0  0  0  0
  152.8461  140.5008  158.0907 O   0  0  0  0  0  0  0  0  0  0  0  0
  151.6065  140.6299  157.4983 C   0  0  0  0  0  0  0  0  0  0  0  0
  151.5333  140.6774  156.0920 C   0  0  0  0  0  0  0  0  0  0  0  0
  150.2717  140.8096  155.4823 C   0  0  0  0  0  0  0  0  0  0  0  0
  149.1208  140.8783  156.2928 C   0  0  0  0  0  0  0  0  0  0  0  0
  147.8599  141.0323  155.6570 N   0  0  0  0  0  0  0  0  0  0  0  0
  146.7982  141.7490  156.0734 C   0  0  0  0  0  0  0  0  0  0  0  0
  146.6973  142.2246  157.2038 O   0  0  0  0  0  0  0  0  0  0  0  0
  145.7842  141.7474  155.1742 N   0  0  0  0  0  0  0  0  0  0  0  0
  146.0611  142.0330  153.7586 C   0  0  0  0  0  0  0  0  0  0  0  0
  145.9058  143.5472  153.5081 C   0  0  0  0  0  0  0  0  0  0  0  0
  144.5667  144.0355  153.9303 N   0  3  2  0  0  0  0  0  0  0  0  0
  144.4031  145.4895  153.7206 C   0  0  0  0  0  0  0  0  0  0  0  0
  144.1895  143.6134  155.3048 C   0  0  0  0  0  0  0  0  0  0  0  0
  144.3843  142.0941  155.4911 C   0  0  2  0  0  0  0  0  0  0  0  0
  143.8785  141.5924  156.8602 C   0  0  0  0  0  0  0  0  0  0  0  0
  149.2993  140.8334  157.6969 C   0  0  0  0  0  0  0  0  0  0  0  0
  150.5068  140.7112  158.2873 N   0  0  0  0  0  0  0  0  0  0  0  0
  151.9537  143.6829  161.5708 H   0  0  0  0  0  0  0  0  0  0  0  0
  153.6877  143.3835  161.4474 H   0  0  0  0  0  0  0  0  0  0  0  0
  152.6817  142.3728  162.5014 H   0  0  0  0  0  0  0  0  0  0  0  0
  154.3764  141.3930  160.0253 H   0  0  0  0  0  0  0  0  0  0  0  0
  153.5935  140.5396  161.3529 H   0  0  0  0  0  0  0  0  0  0  0  0
  153.6019  139.0717  159.3930 H   0  0  0  0  0  0  0  0  0  0  0  0
  151.9369  139.5731  159.7053 H   0  0  0  0  0  0  0  0  0  0  0  0
  152.4290  140.6153  155.4919 H   0  0  0  0  0  0  0  0  0  0  0  0
  150.1924  140.8532  154.4057 H   0  0  0  0  0  0  0  0  0  0  0  0
  147.7503  140.5392  154.7829 H   0  0  0  0  0  0  0  0  0  0  0  0
  147.0567  141.7135  153.4475 H   0  0  0  0  0  0  0  0  0  0  0  0
  145.3661  141.4739  153.1302 H   0  0  0  0  0  0  0  0  0  0  0  0
  146.6769  144.0929  154.0548 H   0  0  0  0  0  0  0  0  0  0  0  0
  146.0550  143.7643  152.4498 H   0  0  0  0  0  0  0  0  0  0  0  0
  145.0908  146.0556  154.3504 H   0  0  0  0  0  0  0  0  0  0  0  0
  143.3855  145.8008  153.9589 H   0  0  0  0  0  0  0  0  0  0  0  0
  144.5961  145.7523  152.6800 H   0  0  0  0  0  0  0  0  0  0  0  0
  144.7892  144.1621  156.0330 H   0  0  0  0  0  0  0  0  0  0  0  0
  143.1477  143.8800  155.4867 H   0  0  0  0  0  0  0  0  0  0  0  0
  143.7605  141.5865  154.7531 H   0  0  0  0  0  0  0  0  0  0  0  0
  142.7962  141.7043  156.9304 H   0  0  0  0  0  0  0  0  0  0  0  0
  144.3052  142.1474  157.6952 H   0  0  0  0  0  0  0  0  0  0  0  0
  144.1051  140.5353  157.0026 H   0  0  0  0  0  0  0  0  0  0  0  0
  148.4686  140.9193  158.3800 H   0  0  0  0  0  0  0  0  0  0  0  0
  143.9047  143.5842  153.3152 H   0  0  0  0  0  0  0  0  0  0  0  0
  1  2  1  0  0  0  0
  1 23  1  0  0  0  0
  1 24  1  0  0  0  0
  1 25  1  0  0  0  0
  2  3  1  0  0  0  0
  3  4  1  0  0  0  0
  3 26  1  0  0  0  0
  3 27  1  0  0  0  0
  4  5  1  0  0  0  0
  4 28  1  0  0  0  0
  4 29  1  0  0  0  0
  5  6  1  0  0  0  0
  6 22  1  0  0  0  0
  6  7  2  0  0  0  0
  7  8  1  0  0  0  0
  7 30  1  0  0  0  0
  8  9  2  0  0  0  0
  8 31  1  0  0  0  0
  9 10  1  0  0  0  0
  9 21  1  0  0  0  0
 10 11  1  0  0  0  0
 10 32  1  0  0  0  0
 11 12  2  0  0  0  0
 11 13  1  0  0  0  0
 13 19  1  0  0  0  0
 13 14  1  0  0  0  0
 14 15  1  0  0  0  0
 14 33  1  0  0  0  0
 14 34  1  0  0  0  0
 15 16  1  0  0  0  0
 15 35  1  0  0  0  0
 15 36  1  0  0  0  0
 16 17  1  0  0  0  0
 16 18  1  0  0  0  0
 16 47  1  0  0  0  0
 17 37  1  0  0  0  0
 17 38  1  0  0  0  0
 17 39  1  0  0  0  0
 18 19  1  0  0  0  0
 18 40  1  0  0  0  0
 18 41  1  0  0  0  0
 19 20  1  0  0  0  0
 19 42  1  0  0  0  0
 20 43  1  0  0  0  0
 20 44  1  0  0  0  0
 20 45  1  0  0  0  0
 21 22  2  0  0  0  0
 21 46  1  0  0  0  0
M  CHG  1  16   1
M  END
> <s_m_source_file>
AV-unprocessed.smi

> <i_m_source_file_index>
1071

> <i_lp_mmshare_version>
43012

> <i_f3d_flags>
0

> <s_epik_input>
W0NIM11PW0NIMl1bQ0gyXU9jMVtjSF1bY0hdYyhbY0hdbjEpW05IXUMoPU8pTjJbQ0gyXVtDSDJdTihbQ0gzXSlbQ0gyXVtDQEhdMltDSDNd

> <s_epik_cmdline>
J2VwaWtfcHl0aG9uJywgJy1waCcsICc3LjAnLCAnLXRuJywgJzgnLCAnLW1hJywgJzIwMCcsICctbWV0YWxfYmluZGluZycsICctaW1hZScsICc8aW5maWxlLm1hZT4nLCAnLW9tYWUnLCAnPG91dGZpbGUubWFlPic=

> <r_lp_tautomer_probability>
1

> <r_epik_Ionization_Penalty>
0.25455

> <r_epik_Ionization_Penalty_Charging>
0.254506

> <r_epik_Ionization_Penalty_Neutral>
4.43365e-05

> <r_epik_State_Penalty>
0.245983

> <r_epik_Charging_Adjusted_Penalty>
0.500488

> <i_epik_Tot_Q>
1

> <i_epik_Tot_abs_Q>
1

> <r_epik_Metal_State_Penalty>
0.245987

> <b_epik_Metal_Only>
0

> <s_lp_Force_Field>
OPLS_2005

> <r_lp_Energy>
54.7367

> <b_lp_Chiralities_Consistent>
1

> <s_lp_Variant>
AV-unprocessed.smi:1071-4

> <Gold.Version>
5.8.1

> <Gold.Id.Protein>
6NUR|6NUR_protein|mol2

> <Gold.PLP.Fitness>
39.2006

> <Gold.PLP.PLP>
-33.2034

> <Gold.PLP.part.hbond>
-2.0000

> <Gold.PLP.part.metal>
0.0000

> <Gold.PLP.part.buried>
-4.1913

> <Gold.PLP.part.nonpolar>
-26.9189

> <Gold.PLP.part.repulsive>
0.2347

> <Gold.PLP.ligand.clash>
0.0000

> <Gold.PLP.ligand.torsion>
1.4369

> <Gold.PLP.Chemscore.Hbond>
2.7436

> <Gold.PLP.Chemscore.CHOScore>
0.0000

> <Gold.PLP.Chemscore.Metal>
0.0000

> <Gold.Chemscore.Hbonds>
donor molecule, donor type, donor heavy atom, donor atom, acceptor molecule, acceptor atom, score
      L1  H    16    47       P1 10174  2.00
      P1  H  7997  8009       L1     5  0.74

> <Gold.PLP.Chemscore.Internal.Correction>
0.6401

> <Gold.Rescore>
     Score         DG    S(hbond)    S(metal)    S(lipo)     H(rot)  DE(clash)    DE(int)     intcor
     10.41     -14.18       1.28        0.00      73.06       1.60       0.05       3.72       ----

> <Gold.Chemscore.Fitness>
10.4097

> <Gold.Chemscore.DG>
-14.1847

> <Gold.Chemscore.ZeroCoef>
-5.4800

> <Gold.Chemscore.Hbond>
1.2766

> <Gold.Chemscore.Metal>
0.0000

> <Gold.Chemscore.Lipo>
73.0640

> <Gold.Chemscore.Internal_Hbond>
0.0000

> <Gold.Chemscore.DEClash>
0.0515

> <Gold.Chemscore.DEInternal>
3.7234

> <Gold.Chemscore.Rot>
1.6045

> <Gold.Chemscore.Internal.Correction>
   9.000000E+99

> <Gold.Chemscore.Hbonds>
donor molecule, donor type, donor heavy atom, donor atom, acceptor molecule, acceptor atom, score
      L1  H    16    47       P1 10174  0.47
      P1  H  7997  8009       L1     5  0.57

> <Gold.Chemscore.Hbond.Weighted>
-4.2637

> <Gold.Chemscore.Metal.Weighted>
-0.0000

> <Gold.Chemscore.Lipo.Weighted>
-8.5485

> <Gold.Chemscore.Internal_Hbond.Weighted>
0.0000

> <Gold.Chemscore.DEClash.Weighted>
0.0515

> <Gold.Chemscore.DEInternal.Weighted>
3.7234

> <Gold.Chemscore.Rot.Weighted>
4.1075

> <Gold.Chemscore.Internal.Correction.Weighted>
   9.000000E+99

> <Gold.Protein.RotatedTorsions>
[ 6907 6896 6895 6894 ] final   46.05 input  -60.11 | X-H torsion
[ 7974 7965 7964 7962 ] final  136.12 input  175.53 | X-H torsion
[ 8008 7997 7996 7995 ] final  161.15 input   59.86 | X-H torsion
[ 10167 10162 10161 10158 ] final  -85.38 input  -65.29 | X-H torsion
[ 10718 10713 10712 10709 ] final  113.16 input   66.30 | X-H torsion
[ 10763 10752 10751 10750 ] final  -71.94 input  -60.55 | X-H torsion
[ 11005 11000 10999 10996 ] final   34.22 input  -57.11 | X-H torsion

> <Gold.Protein.ActiveResidues>
 VAL166  LYS551  ARG553  GLY616  TRP617  ASP618  TYR619  PRO620  LYS621  CYS622 
 ASP623  PHE694  ASN695  SER759  ASP760  ASP761  ALA762  ILE779  LEU786  VAL792 
 PHE793  MET794  SER795  GLU796  ALA797  LYS798  CYS799  TRP800  GLU811  SER814 

> <Gold.Protein.RotatedAtoms>
  152.2518  134.8124  160.0444 H   0  0  0  0  0  0  0  0  0  0  0  0  # atno 6907 bound_to 6896
  151.8802  133.3488  159.3772 H   0  0  0  0  0  0  0  0  0  0  0  0  # atno 6908 bound_to 6896
  150.7086  134.4953  159.5579 H   0  0  0  0  0  0  0  0  0  0  0  0  # atno 6909 bound_to 6896
  144.9596  139.4725  143.5486 H   0  0  0  0  0  0  0  0  0  0  0  0  # atno 7974 bound_to 7965
  156.2123  140.1785  156.7667 H   0  0  0  0  0  0  0  0  0  0  0  0  # atno 8008 bound_to 7997
  154.5741  140.0677  156.9037 H   0  0  0  0  0  0  0  0  0  0  0  0  # atno 8009 bound_to 7997
  155.2620  140.3336  155.4275 H   0  0  0  0  0  0  0  0  0  0  0  0  # atno 8010 bound_to 7997
  140.4043  143.2649  151.9101 H   0  0  0  0  0  0  0  0  0  0  0  0  # atno 10167 bound_to 10162
  157.6353  131.0979  150.7001 H   0  0  0  0  0  0  0  0  0  0  0  0  # atno 10718 bound_to 10713
  154.4387  135.5946  153.6115 H   0  0  0  0  0  0  0  0  0  0  0  0  # atno 10763 bound_to 10752
  152.9804  135.5993  154.3749 H   0  0  0  0  0  0  0  0  0  0  0  0  # atno 10764 bound_to 10752
  154.3596  135.2841  155.2306 H   0  0  0  0  0  0  0  0  0  0  0  0  # atno 10765 bound_to 10752
  140.2551  134.3258  155.7877 H   0  0  0  0  0  0  0  0  0  0  0  0  # atno 11005 bound_to 11000
  146.3349  139.8737  142.8836 LP  0  0  0  0  0  0  0  0  0  0  0  0  # atno 17320 bound_to 7965
  145.2720  141.0111  143.3766 LP  0  0  0  0  0  0  0  0  0  0  0  0  # atno 17321 bound_to 7965
  139.4784  144.5602  151.8251 LP  0  0  0  0  0  0  0  0  0  0  0  0  # atno 17342 bound_to 10162
  140.4706  144.1592  150.5917 LP  0  0  0  0  0  0  0  0  0  0  0  0  # atno 17343 bound_to 10162
  156.7333  130.4716  149.5494 LP  0  0  0  0  0  0  0  0  0  0  0  0  # atno 17370 bound_to 10713
  156.1587  130.6359  151.0691 LP  0  0  0  0  0  0  0  0  0  0  0  0  # atno 17371 bound_to 10713
  141.2197  133.7376  156.9098 LP  0  0  0  0  0  0  0  0  0  0  0  0  # atno 17394 bound_to 11000
  140.1520  134.9224  157.2605 LP  0  0  0  0  0  0  0  0  0  0  0  0  # atno 17395 bound_to 11000

$$$$
