AV-unprocessed.smi:21|AV-procd|sdf|161|dock10
  -GOLD-   2262015403D 1   1.00000     0.00000
 Structure written by MMmdl.
 61 64  0  0  0  0  0  0  0  0  1 V2000
  146.3612  133.3273  150.4989 C   0  0  0  0  0  0  0  0  0  0  0  0
  145.3918  134.3329  150.7478 O   0  0  0  0  0  0  0  0  0  0  0  0
  144.9391  134.3628  152.0945 C   0  0  1  0  0  0  0  0  0  0  0  0
  145.9521  135.0514  153.0264 C   0  0  0  0  0  0  0  0  0  0  0  0
  145.1140  136.0830  153.7900 C   0  0  1  0  0  0  0  0  0  0  0  0
  145.9473  137.2444  154.3730 C   0  0  0  0  0  0  0  0  0  0  0  0
  146.0969  138.3645  153.4430 N   0  0  0  0  0  0  0  0  0  0  0  0
  146.2145  138.0531  152.0196 C   0  0  0  0  0  0  0  0  0  0  0  0
  146.7699  139.4533  153.9048 C   0  0  0  0  0  0  0  0  0  0  0  0
  146.8444  140.5702  153.1305 N   0  0  0  0  0  0  0  0  0  0  0  0
  147.5058  141.6504  153.5548 C   0  0  0  0  0  0  0  0  0  0  0  0
  148.1531  141.8326  154.7061 N   0  0  0  0  0  0  0  0  0  0  0  0
  148.0729  140.7250  155.4967 C   0  0  0  0  0  0  0  0  0  0  0  0
  147.4105  139.5046  155.1780 C   0  0  0  0  0  0  0  0  0  0  0  0
  147.5423  138.6133  156.2367 N   0  0  0  0  0  0  0  0  0  0  0  0
  148.2517  139.2598  157.1199 C   0  0  0  0  0  0  0  0  0  0  0  0
  148.5969  140.5436  156.7646 N   0  0  0  0  0  0  0  0  0  0  0  0
  149.3791  141.4814  157.5500 C   0  0  0  0  0  0  0  0  0  0  0  0
  150.6924  141.9538  156.8728 C   0  0  2  0  0  0  0  0  0  0  0  0
  151.4326  140.7291  156.2870 C   0  0  0  0  0  0  0  0  0  0  0  0
  151.0131  140.4466  154.9673 O   0  0  0  0  0  0  0  0  0  0  0  0
  151.6050  142.8265  157.7835 C   0  0  1  0  0  0  0  0  0  0  0  0
  150.9544  144.0982  158.3058 C   0  0  0  0  0  0  0  0  0  0  0  0
  151.8579  144.4642  159.4732 C   0  0  0  0  0  0  0  0  0  0  0  0
  152.1807  143.2177  160.0687 O   0  0  0  0  0  0  0  0  0  0  0  0
  152.0508  142.1766  159.1044 C   0  0  0  0  0  0  0  0  0  0  0  0
  144.1017  136.4886  152.8298 N   0  0  0  0  0  0  0  0  0  0  0  0
  142.9813  137.2097  153.4182 C   0  0  0  0  0  0  0  0  0  0  0  0
  143.6887  135.2466  152.2010 C   0  0  0  0  0  0  0  0  0  0  0  0
  144.6981  133.3561  152.4404 H   0  0  0  0  0  0  0  0  0  0  0  0
  144.6127  135.5609  154.6059 H   0  0  0  0  0  0  0  0  0  0  0  0
  146.6553  133.3573  149.4500 H   0  0  0  0  0  0  0  0  0  0  0  0
  145.9602  132.3343  150.7056 H   0  0  0  0  0  0  0  0  0  0  0  0
  147.2583  133.4739  151.1012 H   0  0  0  0  0  0  0  0  0  0  0  0
  146.4580  134.3494  153.6898 H   0  0  0  0  0  0  0  0  0  0  0  0
  146.7129  135.5576  152.4329 H   0  0  0  0  0  0  0  0  0  0  0  0
  145.5183  137.5590  155.3238 H   0  0  0  0  0  0  0  0  0  0  0  0
  146.9502  136.8900  154.6111 H   0  0  0  0  0  0  0  0  0  0  0  0
  146.0621  138.9456  151.4116 H   0  0  0  0  0  0  0  0  0  0  0  0
  145.4692  137.3212  151.7116 H   0  0  0  0  0  0  0  0  0  0  0  0
  147.2004  137.6443  151.7952 H   0  0  0  0  0  0  0  0  0  0  0  0
  147.5166  142.4891  152.8744 H   0  0  0  0  0  0  0  0  0  0  0  0
  148.5309  138.8190  158.0660 H   0  0  0  0  0  0  0  0  0  0  0  0
  148.7493  142.3391  157.7897 H   0  0  0  0  0  0  0  0  0  0  0  0
  149.6048  140.9937  158.4992 H   0  0  0  0  0  0  0  0  0  0  0  0
  150.4169  142.5661  156.0135 H   0  0  0  0  0  0  0  0  0  0  0  0
  152.5089  140.9039  156.2794 H   0  0  0  0  0  0  0  0  0  0  0  0
  151.2769  139.8437  156.9032 H   0  0  0  0  0  0  0  0  0  0  0  0
  150.4550  139.6843  154.9856 H   0  0  0  0  0  0  0  0  0  0  0  0
  152.4970  143.1152  157.2252 H   0  0  0  0  0  0  0  0  0  0  0  0
  150.8996  144.8918  157.5599 H   0  0  0  0  0  0  0  0  0  0  0  0
  149.9450  143.8937  158.6655 H   0  0  0  0  0  0  0  0  0  0  0  0
  152.7743  144.9355  159.1155 H   0  0  0  0  0  0  0  0  0  0  0  0
  151.3799  145.1384  160.1837 H   0  0  0  0  0  0  0  0  0  0  0  0
  151.3068  141.4694  159.4726 H   0  0  0  0  0  0  0  0  0  0  0  0
  152.9974  141.6479  159.0005 H   0  0  0  0  0  0  0  0  0  0  0  0
  142.2274  137.4282  152.6614 H   0  0  0  0  0  0  0  0  0  0  0  0
  143.3069  138.1600  153.8404 H   0  0  0  0  0  0  0  0  0  0  0  0
  142.5077  136.6284  154.2103 H   0  0  0  0  0  0  0  0  0  0  0  0
  143.2184  135.4275  151.2337 H   0  0  0  0  0  0  0  0  0  0  0  0
  142.9546  134.7397  152.8298 H   0  0  0  0  0  0  0  0  0  0  0  0
  1  2  1  0  0  0  0
  1 32  1  0  0  0  0
  1 33  1  0  0  0  0
  1 34  1  0  0  0  0
  2  3  1  0  0  0  0
  3 30  1  0  0  0  0
  3 29  1  0  0  0  0
  3  4  1  0  0  0  0
  4  5  1  0  0  0  0
  4 35  1  0  0  0  0
  4 36  1  0  0  0  0
  5 31  1  0  0  0  0
  5  6  1  0  0  0  0
  5 27  1  0  0  0  0
  6  7  1  0  0  0  0
  6 37  1  0  0  0  0
  6 38  1  0  0  0  0
  7  8  1  0  0  0  0
  7  9  1  0  0  0  0
  8 39  1  0  0  0  0
  8 40  1  0  0  0  0
  8 41  1  0  0  0  0
  9 14  1  0  0  0  0
  9 10  2  0  0  0  0
 10 11  1  0  0  0  0
 11 12  2  0  0  0  0
 11 42  1  0  0  0  0
 12 13  1  0  0  0  0
 13 17  1  0  0  0  0
 13 14  2  0  0  0  0
 14 15  1  0  0  0  0
 15 16  2  0  0  0  0
 16 17  1  0  0  0  0
 16 43  1  0  0  0  0
 17 18  1  0  0  0  0
 18 19  1  0  0  0  0
 18 44  1  0  0  0  0
 18 45  1  0  0  0  0
 19 20  1  0  0  0  0
 19 22  1  0  0  0  0
 19 46  1  0  0  0  0
 20 21  1  0  0  0  0
 20 47  1  0  0  0  0
 20 48  1  0  0  0  0
 21 49  1  0  0  0  0
 22 26  1  0  0  0  0
 22 23  1  0  0  0  0
 22 50  1  0  0  0  0
 23 24  1  0  0  0  0
 23 51  1  0  0  0  0
 23 52  1  0  0  0  0
 24 25  1  0  0  0  0
 24 53  1  0  0  0  0
 24 54  1  0  0  0  0
 25 26  1  0  0  0  0
 26 55  1  0  0  0  0
 26 56  1  0  0  0  0
 27 28  1  0  0  0  0
 27 29  1  0  0  0  0
 28 57  1  0  0  0  0
 28 58  1  0  0  0  0
 28 59  1  0  0  0  0
 29 60  1  0  0  0  0
 29 61  1  0  0  0  0
M  END
> <s_m_source_file>
AV-unprocessed.smi

> <i_m_source_file_index>
21

> <i_lp_mmshare_version>
43012

> <i_f3d_flags>
0

> <s_epik_input>
W0NIM11PW0NASF0xW0NIMl1bQ0BIXShOKFtDSDNdKVtDSDJdMSlbQ0gyXU4oW0NIM10pYyhuW2NIXW4yKWMoYzIzKW5bY0hdbjNbQ0gyXVtDQEhdKFtDSDJdW09IXSlbQ0BASF00W0NIMl1bQ0gyXU9bQ0gyXTQ=

> <s_epik_cmdline>
J2VwaWtfcHl0aG9uJywgJy1waCcsICc3LjAnLCAnLXRuJywgJzgnLCAnLW1hJywgJzIwMCcsICctbWV0YWxfYmluZGluZycsICctaW1hZScsICc8aW5maWxlLm1hZT4nLCAnLW9tYWUnLCAnPG91dGZpbGUubWFlPic=

> <r_lp_tautomer_probability>
1

> <r_epik_Ionization_Penalty>
2.17574

> <r_epik_Ionization_Penalty_Charging>
0

> <r_epik_Ionization_Penalty_Neutral>
2.17574

> <r_epik_State_Penalty>
2.31336

> <r_epik_Charging_Adjusted_Penalty>
2.31336

> <i_epik_Tot_Q>
0

> <i_epik_Tot_abs_Q>
0

> <r_epik_Metal_State_Penalty>
2.31025

> <b_epik_Metal_Only>
0

> <s_lp_Force_Field>
OPLS_2005

> <r_lp_Energy>
70.1796

> <b_lp_Chiralities_Consistent>
1

> <s_lp_Variant>
AV-unprocessed.smi:21-41

> <Gold.Version>
5.8.1

> <Gold.Id.Protein>
6NUR|6NUR_protein|mol2

> <Gold.PLP.Fitness>
40.6030

> <Gold.PLP.PLP>
-39.6933

> <Gold.PLP.part.hbond>
-1.0000

> <Gold.PLP.part.metal>
0.0000

> <Gold.PLP.part.buried>
-8.7907

> <Gold.PLP.part.nonpolar>
-31.1568

> <Gold.PLP.part.repulsive>
0.8381

> <Gold.PLP.ligand.clash>
0.0000

> <Gold.PLP.ligand.torsion>
1.4499

> <Gold.PLP.Chemscore.Hbond>
1.0000

> <Gold.PLP.Chemscore.CHOScore>
0.0000

> <Gold.PLP.Chemscore.Metal>
0.0000

> <Gold.Chemscore.Hbonds>
donor molecule, donor type, donor heavy atom, donor atom, acceptor molecule, acceptor atom, score
      P1  H  7989  7998       L1    21  1.00

> <Gold.PLP.Chemscore.Internal.Correction>
0.8096

> <Gold.Rescore>
     Score         DG    S(hbond)    S(metal)    S(lipo)     H(rot)  DE(clash)    DE(int)     intcor
      7.72     -11.92       0.97        0.00      93.03       3.00       0.17       4.03       ----

> <Gold.Chemscore.Fitness>
7.7225

> <Gold.Chemscore.DG>
-11.9204

> <Gold.Chemscore.ZeroCoef>
-5.4800

> <Gold.Chemscore.Hbond>
0.9713

> <Gold.Chemscore.Metal>
0.0000

> <Gold.Chemscore.Lipo>
93.0280

> <Gold.Chemscore.Internal_Hbond>
0.0000

> <Gold.Chemscore.DEClash>
0.1660

> <Gold.Chemscore.DEInternal>
4.0318

> <Gold.Chemscore.Rot>
3.0031

> <Gold.Chemscore.Internal.Correction>
   9.000000E+99

> <Gold.Chemscore.Hbonds>
donor molecule, donor type, donor heavy atom, donor atom, acceptor molecule, acceptor atom, score
      P1  H  7989  7998       L1    21  0.91

> <Gold.Chemscore.Hbond.Weighted>
-3.2441

> <Gold.Chemscore.Metal.Weighted>
-0.0000

> <Gold.Chemscore.Lipo.Weighted>
-10.8843

> <Gold.Chemscore.Internal_Hbond.Weighted>
0.0000

> <Gold.Chemscore.DEClash.Weighted>
0.1660

> <Gold.Chemscore.DEInternal.Weighted>
4.0318

> <Gold.Chemscore.Rot.Weighted>
7.6880

> <Gold.Chemscore.Internal.Correction.Weighted>
   9.000000E+99

> <Gold.Protein.RotatedTorsions>
[ 6907 6896 6895 6894 ] final  -67.44 input  -60.11 | X-H torsion
[ 7974 7965 7964 7962 ] final  129.33 input  175.53 | X-H torsion
[ 8008 7997 7996 7995 ] final -139.53 input   59.86 | X-H torsion
[ 10167 10162 10161 10158 ] final  132.47 input  -65.29 | X-H torsion
[ 10718 10713 10712 10709 ] final  -62.40 input   66.30 | X-H torsion
[ 10763 10752 10751 10750 ] final -132.69 input  -60.55 | X-H torsion
[ 11005 11000 10999 10996 ] final  -14.26 input  -57.11 | X-H torsion

> <Gold.Protein.ActiveResidues>
 VAL166  LYS551  ARG553  GLY616  TRP617  ASP618  TYR619  PRO620  LYS621  CYS622 
 ASP623  PHE694  ASN695  SER759  ASP760  ASP761  ALA762  ILE779  LEU786  VAL792 
 PHE793  MET794  SER795  GLU796  ALA797  LYS798  CYS799  TRP800  GLU811  SER814 

> <Gold.Protein.RotatedAtoms>
  150.7409  134.5880  159.5972 H   0  0  0  0  0  0  0  0  0  0  0  0  # atno 6907 bound_to 6896
  152.3276  134.7298  160.0307 H   0  0  0  0  0  0  0  0  0  0  0  0  # atno 6908 bound_to 6896
  151.7792  133.3312  159.3503 H   0  0  0  0  0  0  0  0  0  0  0  0  # atno 6909 bound_to 6896
  145.0298  139.4056  143.5155 H   0  0  0  0  0  0  0  0  0  0  0  0  # atno 7974 bound_to 7965
  155.4464  140.0535  157.3005 H   0  0  0  0  0  0  0  0  0  0  0  0  # atno 8008 bound_to 7997
  154.4796  140.2075  155.9752 H   0  0  0  0  0  0  0  0  0  0  0  0  # atno 8009 bound_to 7997
  156.1185  140.3192  155.8178 H   0  0  0  0  0  0  0  0  0  0  0  0  # atno 8010 bound_to 7997
  139.5338  144.6660  151.4857 H   0  0  0  0  0  0  0  0  0  0  0  0  # atno 10167 bound_to 10162
  156.0858  130.4208  150.1130 H   0  0  0  0  0  0  0  0  0  0  0  0  # atno 10718 bound_to 10713
  154.8740  135.3790  154.4451 H   0  0  0  0  0  0  0  0  0  0  0  0  # atno 10763 bound_to 10752
  153.5132  135.7029  153.5775 H   0  0  0  0  0  0  0  0  0  0  0  0  # atno 10764 bound_to 10752
  153.4055  135.3938  155.1982 H   0  0  0  0  0  0  0  0  0  0  0  0  # atno 10765 bound_to 10752
  140.7846  133.8336  155.9323 H   0  0  0  0  0  0  0  0  0  0  0  0  # atno 11005 bound_to 11000
  146.3497  139.9841  142.8692 LP  0  0  0  0  0  0  0  0  0  0  0  0  # atno 17320 bound_to 7965
  145.1786  140.9756  143.4280 LP  0  0  0  0  0  0  0  0  0  0  0  0  # atno 17321 bound_to 7965
  140.6533  143.8652  150.6808 LP  0  0  0  0  0  0  0  0  0  0  0  0  # atno 17342 bound_to 10162
  140.2024  143.3949  152.1781 LP  0  0  0  0  0  0  0  0  0  0  0  0  # atno 17343 bound_to 10162
  156.9151  130.9664  151.3557 LP  0  0  0  0  0  0  0  0  0  0  0  0  # atno 17370 bound_to 10713
  157.5991  130.8499  149.8774 LP  0  0  0  0  0  0  0  0  0  0  0  0  # atno 17371 bound_to 10713
  140.9449  134.1853  157.4771 LP  0  0  0  0  0  0  0  0  0  0  0  0  # atno 17394 bound_to 11000
  139.8738  134.9886  156.5421 LP  0  0  0  0  0  0  0  0  0  0  0  0  # atno 17395 bound_to 11000

$$$$
