AV-unprocessed.smi:99|AV-procd|sdf|878|dock8
  -GOLD-   2262017353D 1   1.00000     0.00000
 Structure written by MMmdl.
 53 56  0  0  0  0  0  0  0  0  1 V2000
  152.9629  140.2093  158.4125 O   0  0  0  0  0  0  0  0  0  0  0  0
  153.3596  140.8253  159.4039 C   0  0  0  0  0  0  0  0  0  0  0  0
  154.2953  140.3521  160.2499 O   0  0  0  0  0  0  0  0  0  0  0  0
  154.5770  138.9632  160.2920 C   0  0  0  0  0  0  0  0  0  0  0  0
  156.0867  138.7623  160.4561 C   0  0  1  0  0  0  0  0  0  0  0  0
  156.4351  138.7563  161.8393 O   0  0  0  0  0  0  0  0  0  0  0  0
  157.5371  137.9215  162.0625 C   0  0  1  0  0  0  0  0  0  0  0  0
  157.1748  136.8883  163.1065 N   0  0  0  0  0  0  0  0  0  0  0  0
  157.0514  135.5404  162.7923 C   0  0  0  0  0  0  0  0  0  0  0  0
  156.7472  134.5933  163.7111 C   0  0  0  0  0  0  0  0  0  0  0  0
  156.5375  134.9569  165.1087 C   0  0  0  0  0  0  0  0  0  0  0  0
  156.2554  134.1714  166.0109 O   0  0  0  0  0  0  0  0  0  0  0  0
  156.6867  136.3196  165.3820 N   0  0  0  0  0  0  0  0  0  0  0  0
  157.0038  137.3041  164.4452 C   0  0  0  0  0  0  0  0  0  0  0  0
  157.1310  138.4750  164.8009 O   0  0  0  0  0  0  0  0  0  0  0  0
  157.8795  137.2297  160.7348 C   0  0  2  0  0  0  0  0  0  0  0  0
  158.9586  137.8918  160.1005 O   0  0  0  0  0  0  0  0  0  0  0  0
  156.5696  137.3982  159.9788 C   0  0  2  0  0  0  0  0  0  0  0  0
  156.7164  137.2931  158.5672 O   0  0  0  0  0  0  0  0  0  0  0  0
  157.4009  136.2636  158.0231 C   0  0  0  0  0  0  0  0  0  0  0  0
  157.8376  135.3135  158.6756 O   0  0  0  0  0  0  0  0  0  0  0  0
  157.5820  136.4008  156.5496 C   0  0  0  0  0  0  0  0  0  0  0  0
  156.9273  137.4524  155.8670 C   0  0  0  0  0  0  0  0  0  0  0  0
  157.0761  137.6062  154.4748 C   0  0  0  0  0  0  0  0  0  0  0  0
  157.8813  136.7100  153.7484 C   0  0  0  0  0  0  0  0  0  0  0  0
  158.5385  135.6601  154.4161 C   0  0  0  0  0  0  0  0  0  0  0  0
  158.3913  135.5048  155.8084 C   0  0  0  0  0  0  0  0  0  0  0  0
  152.8527  142.1730  159.7938 C   0  0  0  0  0  0  0  0  0  0  0  0
  152.1561  142.9541  158.8421 C   0  0  0  0  0  0  0  0  0  0  0  0
  151.6618  144.2282  159.1830 C   0  0  0  0  0  0  0  0  0  0  0  0
  151.8582  144.7369  160.4799 C   0  0  0  0  0  0  0  0  0  0  0  0
  152.5502  143.9705  161.4356 C   0  0  0  0  0  0  0  0  0  0  0  0
  153.0454  142.6961  161.0965 C   0  0  0  0  0  0  0  0  0  0  0  0
  156.5597  136.6156  166.3389 H   0  0  0  0  0  0  0  0  0  0  0  0
  154.0356  138.4852  161.1095 H   0  0  0  0  0  0  0  0  0  0  0  0
  154.2414  138.5044  159.3610 H   0  0  0  0  0  0  0  0  0  0  0  0
  156.6445  139.5520  159.9496 H   0  0  0  0  0  0  0  0  0  0  0  0
  158.3515  138.5123  162.4869 H   0  0  0  0  0  0  0  0  0  0  0  0
  157.2053  135.2099  161.7760 H   0  0  0  0  0  0  0  0  0  0  0  0
  156.6609  133.5589  163.4108 H   0  0  0  0  0  0  0  0  0  0  0  0
  158.1443  136.1819  160.8829 H   0  0  0  0  0  0  0  0  0  0  0  0
  159.7654  137.5938  160.4922 H   0  0  0  0  0  0  0  0  0  0  0  0
  155.8583  136.6505  160.3349 H   0  0  0  0  0  0  0  0  0  0  0  0
  156.3028  138.1525  156.4031 H   0  0  0  0  0  0  0  0  0  0  0  0
  156.5708  138.4129  153.9643 H   0  0  0  0  0  0  0  0  0  0  0  0
  157.9946  136.8279  152.6808 H   0  0  0  0  0  0  0  0  0  0  0  0
  159.1570  134.9717  153.8594 H   0  0  0  0  0  0  0  0  0  0  0  0
  158.9096  134.6882  156.2894 H   0  0  0  0  0  0  0  0  0  0  0  0
  151.9925  142.5844  157.8402 H   0  0  0  0  0  0  0  0  0  0  0  0
  151.1303  144.8149  158.4484 H   0  0  0  0  0  0  0  0  0  0  0  0
  151.4780  145.7134  160.7414 H   0  0  0  0  0  0  0  0  0  0  0  0
  152.7012  144.3596  162.4317 H   0  0  0  0  0  0  0  0  0  0  0  0
  153.5705  142.1338  161.8547 H   0  0  0  0  0  0  0  0  0  0  0  0
  1  2  2  0  0  0  0
  2  3  1  0  0  0  0
  2 28  1  0  0  0  0
  3  4  1  0  0  0  0
  4  5  1  0  0  0  0
  4 35  1  0  0  0  0
  4 36  1  0  0  0  0
  5 18  1  0  0  0  0
  5  6  1  0  0  0  0
  5 37  1  0  0  0  0
  6  7  1  0  0  0  0
  7  8  1  0  0  0  0
  7 16  1  0  0  0  0
  7 38  1  0  0  0  0
  8 14  1  0  0  0  0
  8  9  1  0  0  0  0
  9 10  2  0  0  0  0
  9 39  1  0  0  0  0
 10 11  1  0  0  0  0
 10 40  1  0  0  0  0
 11 12  2  0  0  0  0
 11 13  1  0  0  0  0
 13 34  1  0  0  0  0
 13 14  1  0  0  0  0
 14 15  2  0  0  0  0
 16 17  1  0  0  0  0
 16 18  1  0  0  0  0
 16 41  1  0  0  0  0
 17 42  1  0  0  0  0
 18 19  1  0  0  0  0
 18 43  1  0  0  0  0
 19 20  1  0  0  0  0
 20 21  2  0  0  0  0
 20 22  1  0  0  0  0
 22 27  1  0  0  0  0
 22 23  2  0  0  0  0
 23 24  1  0  0  0  0
 23 44  1  0  0  0  0
 24 25  2  0  0  0  0
 24 45  1  0  0  0  0
 25 26  1  0  0  0  0
 25 46  1  0  0  0  0
 26 27  2  0  0  0  0
 26 47  1  0  0  0  0
 27 48  1  0  0  0  0
 28 33  1  0  0  0  0
 28 29  2  0  0  0  0
 29 30  1  0  0  0  0
 29 49  1  0  0  0  0
 30 31  2  0  0  0  0
 30 50  1  0  0  0  0
 31 32  1  0  0  0  0
 31 51  1  0  0  0  0
 32 33  2  0  0  0  0
 32 52  1  0  0  0  0
 33 53  1  0  0  0  0
M  END
> <s_m_source_file>
AV-unprocessed.smi

> <i_m_source_file_index>
99

> <i_lp_mmshare_version>
43012

> <i_f3d_flags>
0

> <s_epik_input>
W2NIXTFbY0hdW2NIXVtjSF1bY0hdYzFDKD1PKU9bQ0gyXVtDQEBIXTJPW0NAQEhdKG4zW2NIXVtjSF1jKD1PKVtuSF1jMz1PKVtDQEBIXShbT0hdKVtDQEhdMk9DKD1PKWM0W2NIXVtjSF1bY0hdW2NIXVtjSF00

> <s_epik_cmdline>
J2VwaWtfcHl0aG9uJywgJy1waCcsICc3LjAnLCAnLXRuJywgJzgnLCAnLW1hJywgJzIwMCcsICctbWV0YWxfYmluZGluZycsICctaW1hZScsICc8aW5maWxlLm1hZT4nLCAnLW9tYWUnLCAnPG91dGZpbGUubWFlPic=

> <r_lp_tautomer_probability>
1

> <r_epik_Ionization_Penalty>
0.00454555

> <r_epik_Ionization_Penalty_Charging>
0.0045191

> <r_epik_Ionization_Penalty_Neutral>
2.64449e-05

> <r_epik_State_Penalty>
-0

> <r_epik_Charging_Adjusted_Penalty>
0.0045191

> <i_epik_Tot_Q>
0

> <i_epik_Tot_abs_Q>
0

> <r_epik_Metal_State_Penalty>
1.27877

> <b_epik_Metal_Only>
0

> <s_epik_Chemistry_Notes>
This compound has an ester and may undergo hydrolysis at high or low pH. This compound contains an acetal/aminal-like group ( X-CH(R)-Y where X, Y are N, S, or O) that may be acid/base labile, releasing an aldehyde.

> <s_lp_Force_Field>
OPLS_2005

> <r_lp_Energy>
38.7636

> <b_lp_Chiralities_Consistent>
1

> <s_lp_Variant>
AV-unprocessed.smi:99-14

> <Gold.Version>
5.8.1

> <Gold.Id.Protein>
6NUR|6NUR_protein|mol2

> <Gold.PLP.Fitness>
51.4960

> <Gold.PLP.PLP>
-51.1943

> <Gold.PLP.part.hbond>
-2.0000

> <Gold.PLP.part.metal>
0.0000

> <Gold.PLP.part.buried>
-7.5272

> <Gold.PLP.part.nonpolar>
-42.2207

> <Gold.PLP.part.repulsive>
0.2757

> <Gold.PLP.ligand.clash>
0.0000

> <Gold.PLP.ligand.torsion>
1.2489

> <Gold.PLP.Chemscore.Hbond>
0.8406

> <Gold.PLP.Chemscore.CHOScore>
0.0000

> <Gold.PLP.Chemscore.Metal>
0.0000

> <Gold.Chemscore.Hbonds>
donor molecule, donor type, donor heavy atom, donor atom, acceptor molecule, acceptor atom, score
      P1  H  7997  8008       L1     1  0.66

> <Gold.PLP.Chemscore.Internal.Correction>
0.2776

> <Gold.Rescore>
     Score         DG    S(hbond)    S(metal)    S(lipo)     H(rot)  DE(clash)    DE(int)     intcor
     12.37     -14.38       0.80        0.00     123.01       3.19       0.02       1.99       ----

> <Gold.Chemscore.Fitness>
12.3671

> <Gold.Chemscore.DG>
-14.3779

> <Gold.Chemscore.ZeroCoef>
-5.4800

> <Gold.Chemscore.Hbond>
0.8003

> <Gold.Chemscore.Metal>
0.0000

> <Gold.Chemscore.Lipo>
123.0072

> <Gold.Chemscore.Internal_Hbond>
0.0000

> <Gold.Chemscore.DEClash>
0.0174

> <Gold.Chemscore.DEInternal>
1.9934

> <Gold.Chemscore.Rot>
3.1903

> <Gold.Chemscore.Internal.Correction>
   9.000000E+99

> <Gold.Chemscore.Hbonds>
donor molecule, donor type, donor heavy atom, donor atom, acceptor molecule, acceptor atom, score
      P1  H  7997  8008       L1     1  0.51

> <Gold.Chemscore.Hbond.Weighted>
-2.6731

> <Gold.Chemscore.Metal.Weighted>
-0.0000

> <Gold.Chemscore.Lipo.Weighted>
-14.3918

> <Gold.Chemscore.Internal_Hbond.Weighted>
0.0000

> <Gold.Chemscore.DEClash.Weighted>
0.0174

> <Gold.Chemscore.DEInternal.Weighted>
1.9934

> <Gold.Chemscore.Rot.Weighted>
8.1671

> <Gold.Chemscore.Internal.Correction.Weighted>
   9.000000E+99

> <Gold.Protein.RotatedTorsions>
[ 6907 6896 6895 6894 ] final  -76.94 input  -60.11 | X-H torsion
[ 7974 7965 7964 7962 ] final  -63.71 input  175.53 | X-H torsion
[ 8008 7997 7996 7995 ] final  -76.75 input   59.86 | X-H torsion
[ 10167 10162 10161 10158 ] final   73.91 input  -65.29 | X-H torsion
[ 10718 10713 10712 10709 ] final -168.74 input   66.30 | X-H torsion
[ 10763 10752 10751 10750 ] final -174.68 input  -60.55 | X-H torsion
[ 11005 11000 10999 10996 ] final  -95.39 input  -57.11 | X-H torsion

> <Gold.Protein.ActiveResidues>
 VAL166  LYS551  ARG553  GLY616  TRP617  ASP618  TYR619  PRO620  LYS621  CYS622 
 ASP623  PHE694  ASN695  SER759  ASP760  ASP761  ALA762  ILE779  LEU786  VAL792 
 PHE793  MET794  SER795  GLU796  ALA797  LYS798  CYS799  TRP800  GLU811  SER814 

> <Gold.Protein.RotatedAtoms>
  150.7013  134.4497  159.5330 H   0  0  0  0  0  0  0  0  0  0  0  0  # atno 6907 bound_to 6896
  152.2192  134.8426  160.0497 H   0  0  0  0  0  0  0  0  0  0  0  0  # atno 6908 bound_to 6896
  151.9283  133.3569  159.3958 H   0  0  0  0  0  0  0  0  0  0  0  0  # atno 6909 bound_to 6896
  145.7757  140.8789  143.0357 H   0  0  0  0  0  0  0  0  0  0  0  0  # atno 7974 bound_to 7965
  154.5533  140.0722  156.8703 H   0  0  0  0  0  0  0  0  0  0  0  0  # atno 8008 bound_to 7997
  155.2950  140.3380  155.4232 H   0  0  0  0  0  0  0  0  0  0  0  0  # atno 8009 bound_to 7997
  156.1980  140.1711  156.7943 H   0  0  0  0  0  0  0  0  0  0  0  0  # atno 8010 bound_to 7997
  140.0194  144.5552  150.7594 H   0  0  0  0  0  0  0  0  0  0  0  0  # atno 10167 bound_to 10162
  156.7014  130.9198  151.3080 H   0  0  0  0  0  0  0  0  0  0  0  0  # atno 10718 bound_to 10713
  154.5934  135.2847  155.0612 H   0  0  0  0  0  0  0  0  0  0  0  0  # atno 10763 bound_to 10752
  154.1904  135.6441  153.5062 H   0  0  0  0  0  0  0  0  0  0  0  0  # atno 10764 bound_to 10752
  153.0129  135.5445  154.6627 H   0  0  0  0  0  0  0  0  0  0  0  0  # atno 10765 bound_to 10752
  141.1443  133.8023  157.0428 H   0  0  0  0  0  0  0  0  0  0  0  0  # atno 11005 bound_to 11000
  144.6805  139.9917  143.7484 LP  0  0  0  0  0  0  0  0  0  0  0  0  # atno 17320 bound_to 7965
  146.0125  139.3182  143.0861 LP  0  0  0  0  0  0  0  0  0  0  0  0  # atno 17321 bound_to 7965
  140.7348  143.2734  151.3818 LP  0  0  0  0  0  0  0  0  0  0  0  0  # atno 17342 bound_to 10162
  139.6150  144.1022  152.2336 LP  0  0  0  0  0  0  0  0  0  0  0  0  # atno 17343 bound_to 10162
  157.6971  130.9294  150.0677 LP  0  0  0  0  0  0  0  0  0  0  0  0  # atno 17370 bound_to 10713
  156.1726  130.3647  149.9144 LP  0  0  0  0  0  0  0  0  0  0  0  0  # atno 17371 bound_to 10713
  140.0681  134.9717  157.1421 LP  0  0  0  0  0  0  0  0  0  0  0  0  # atno 17394 bound_to 11000
  140.3750  134.2349  155.7175 LP  0  0  0  0  0  0  0  0  0  0  0  0  # atno 17395 bound_to 11000

$$$$
