AV-unprocessed.smi:3303|AV-procd|sdf|12677|dock5
  -GOLD-   2272019 13D 1   1.00000     0.00000
 Structure written by MMmdl.
 44 45  0  0  0  0  0  0  0  0  2 V2000
  150.0641  139.9410  154.4021 C   0  0  0  0  0  0  0  0  0  0  0  0
  148.8422  140.4287  155.1975 C   0  0  2  0  0  0  0  0  0  0  0  0
  147.9778  141.4151  154.3891 C   0  0  0  0  0  0  0  0  0  0  0  0
  146.7532  141.7631  155.1156 N   0  0  0  0  0  0  0  0  0  0  0  0
  145.9602  142.6213  154.2389 C   0  0  0  0  0  0  0  0  0  0  0  0
  147.0676  142.4230  156.3954 C   0  0  1  0  0  0  0  0  0  0  0  0
  145.7931  142.8152  157.1702 C   0  0  0  0  0  0  0  0  0  0  0  0
  147.9285  141.4824  157.2711 C   0  0  0  0  0  0  0  0  0  0  0  0
  149.2149  141.0283  156.5666 C   0  0  2  0  0  0  0  0  0  0  0  0
  150.1596  142.1627  156.4353 N   0  3  0  0  0  0  0  0  0  0  0  0
  150.8741  142.5244  157.6756 C   0  0  0  0  0  0  0  0  0  0  0  0
  151.2972  141.2703  158.4521 C   0  0  0  0  0  0  0  0  0  0  0  0
  152.1131  141.6075  159.6853 C   0  0  0  0  0  0  0  0  0  0  0  0
  153.3592  140.9873  159.9182 C   0  0  0  0  0  0  0  0  0  0  0  0
  154.0731  141.3332  161.0821 C   0  0  0  0  0  0  0  0  0  0  0  0
  153.5160  142.2798  161.9633 C   0  0  0  0  0  0  0  0  0  0  0  0
  152.2635  142.8400  161.6412 C   0  0  0  0  0  0  0  0  0  0  0  0
  151.5699  142.5138  160.5288 N   0  0  0  0  0  0  0  0  0  0  0  0
  150.7211  140.7650  154.1229 H   0  0  0  0  0  0  0  0  0  0  0  0
  149.7565  139.4419  153.4829 H   0  0  0  0  0  0  0  0  0  0  0  0
  150.6503  139.2275  154.9819 H   0  0  0  0  0  0  0  0  0  0  0  0
  148.2285  139.5460  155.3878 H   0  0  0  0  0  0  0  0  0  0  0  0
  148.5446  142.3165  154.1506 H   0  0  0  0  0  0  0  0  0  0  0  0
  147.7087  140.9510  153.4390 H   0  0  0  0  0  0  0  0  0  0  0  0
  144.9715  142.8122  154.6543 H   0  0  0  0  0  0  0  0  0  0  0  0
  145.8021  142.1429  153.2716 H   0  0  0  0  0  0  0  0  0  0  0  0
  146.4542  143.5787  154.0670 H   0  0  0  0  0  0  0  0  0  0  0  0
  147.6359  143.3316  156.1902 H   0  0  0  0  0  0  0  0  0  0  0  0
  146.0418  143.1776  158.1679 H   0  0  0  0  0  0  0  0  0  0  0  0
  145.1203  141.9649  157.2885 H   0  0  0  0  0  0  0  0  0  0  0  0
  145.2426  143.6178  156.6801 H   0  0  0  0  0  0  0  0  0  0  0  0
  148.1798  141.9701  158.2141 H   0  0  0  0  0  0  0  0  0  0  0  0
  147.3401  140.6025  157.5373 H   0  0  0  0  0  0  0  0  0  0  0  0
  149.6768  140.2480  157.1741 H   0  0  0  0  0  0  0  0  0  0  0  0
  150.8426  141.9223  155.7315 H   0  0  0  0  0  0  0  0  0  0  0  0
  151.7495  143.1236  157.4209 H   0  0  0  0  0  0  0  0  0  0  0  0
  150.2256  143.1432  158.2975 H   0  0  0  0  0  0  0  0  0  0  0  0
  150.4158  140.7008  158.7500 H   0  0  0  0  0  0  0  0  0  0  0  0
  151.8850  140.6126  157.8099 H   0  0  0  0  0  0  0  0  0  0  0  0
  153.7612  140.2638  159.2240 H   0  0  0  0  0  0  0  0  0  0  0  0
  155.0308  140.8813  161.2947 H   0  0  0  0  0  0  0  0  0  0  0  0
  154.0358  142.5704  162.8644 H   0  0  0  0  0  0  0  0  0  0  0  0
  151.8066  143.5686  162.2943 H   0  0  0  0  0  0  0  0  0  0  0  0
  149.6434  142.9704  156.1172 H   0  0  0  0  0  0  0  0  0  0  0  0
  1  2  1  0  0  0  0
  1 19  1  0  0  0  0
  1 20  1  0  0  0  0
  1 21  1  0  0  0  0
  2  9  1  0  0  0  0
  2  3  1  0  0  0  0
  2 22  1  0  0  0  0
  3  4  1  0  0  0  0
  3 23  1  0  0  0  0
  3 24  1  0  0  0  0
  4  5  1  0  0  0  0
  4  6  1  0  0  0  0
  5 25  1  0  0  0  0
  5 26  1  0  0  0  0
  5 27  1  0  0  0  0
  6  7  1  0  0  0  0
  6  8  1  0  0  0  0
  6 28  1  0  0  0  0
  7 29  1  0  0  0  0
  7 30  1  0  0  0  0
  7 31  1  0  0  0  0
  8  9  1  0  0  0  0
  8 32  1  0  0  0  0
  8 33  1  0  0  0  0
  9 10  1  0  0  0  0
  9 34  1  0  0  0  0
 10 11  1  0  0  0  0
 10 35  1  0  0  0  0
 10 44  1  0  0  0  0
 11 12  1  0  0  0  0
 11 36  1  0  0  0  0
 11 37  1  0  0  0  0
 12 13  1  0  0  0  0
 12 38  1  0  0  0  0
 12 39  1  0  0  0  0
 13 18  1  0  0  0  0
 13 14  2  0  0  0  0
 14 15  1  0  0  0  0
 14 40  1  0  0  0  0
 15 16  2  0  0  0  0
 15 41  1  0  0  0  0
 16 17  1  0  0  0  0
 16 42  1  0  0  0  0
 17 18  2  0  0  0  0
 17 43  1  0  0  0  0
M  CHG  1  10   1
M  END
> <s_m_source_file>
AV-unprocessed.smi

> <i_m_source_file_index>
3303

> <i_lp_mmshare_version>
43012

> <i_f3d_flags>
0

> <s_epik_input>
W0NIM11bQ0BASF0xW0NIMl1OKFtDSDNdKVtDQEBIXShbQ0gzXSlbQ0gyXVtDQEhdMVtOSF1bQ0gyXVtDSDJdYzJbY0hdW2NIXVtjSF1bY0hdbjI=

> <s_epik_cmdline>
J2VwaWtfcHl0aG9uJywgJy1waCcsICc3LjAnLCAnLXRuJywgJzgnLCAnLW1hJywgJzIwMCcsICctbWV0YWxfYmluZGluZycsICctaW1hZScsICc8aW5maWxlLm1hZT4nLCAnLW9tYWUnLCAnPG91dGZpbGUubWFlPic=

> <r_epik_Ionization_Penalty>
1.37325

> <r_epik_Ionization_Penalty_Charging>
0.000251572

> <r_epik_Ionization_Penalty_Neutral>
1.373

> <r_epik_State_Penalty>
1.46343

> <r_epik_Charging_Adjusted_Penalty>
1.46368

> <i_epik_Tot_Q>
1

> <i_epik_Tot_abs_Q>
1

> <r_epik_Metal_State_Penalty>
1.46331

> <b_epik_Metal_Only>
0

> <s_lp_Force_Field>
OPLS_2005

> <r_lp_Energy>
25.9316

> <b_lp_Chiralities_Consistent>
1

> <s_lp_Variant>
AV-unprocessed.smi:3303-21

> <Gold.Version>
5.8.1

> <Gold.Id.Protein>
6NUR|6NUR_protein|mol2

> <Gold.PLP.Fitness>
40.3787

> <Gold.PLP.PLP>
-34.9570

> <Gold.PLP.part.hbond>
-2.0000

> <Gold.PLP.part.metal>
0.0000

> <Gold.PLP.part.buried>
-2.5469

> <Gold.PLP.part.nonpolar>
-31.1210

> <Gold.PLP.part.repulsive>
0.2291

> <Gold.PLP.ligand.clash>
0.0000

> <Gold.PLP.ligand.torsion>
0.2978

> <Gold.PLP.Chemscore.Hbond>
2.0001

> <Gold.PLP.Chemscore.CHOScore>
0.0000

> <Gold.PLP.Chemscore.Metal>
0.0000

> <Gold.Chemscore.Hbonds>
donor molecule, donor type, donor heavy atom, donor atom, acceptor molecule, acceptor atom, score
      L1  H    10    44       P1  8028  2.00

> <Gold.PLP.Chemscore.Internal.Correction>
0.0169

> <Gold.Rescore>
     Score         DG    S(hbond)    S(metal)    S(lipo)     H(rot)  DE(clash)    DE(int)     intcor
     16.82     -17.40       0.99        0.00     102.69       1.33       0.41       0.17       ----

> <Gold.Chemscore.Fitness>
16.8203

> <Gold.Chemscore.DG>
-17.4002

> <Gold.Chemscore.ZeroCoef>
-5.4800

> <Gold.Chemscore.Hbond>
0.9908

> <Gold.Chemscore.Metal>
0.0000

> <Gold.Chemscore.Lipo>
102.6934

> <Gold.Chemscore.Internal_Hbond>
0.0000

> <Gold.Chemscore.DEClash>
0.4136

> <Gold.Chemscore.DEInternal>
0.1663

> <Gold.Chemscore.Rot>
1.3298

> <Gold.Chemscore.Internal.Correction>
   9.000000E+99

> <Gold.Chemscore.Hbonds>
donor molecule, donor type, donor heavy atom, donor atom, acceptor molecule, acceptor atom, score
      L1  H    10    44       P1  8028  0.99

> <Gold.Chemscore.Hbond.Weighted>
-3.3094

> <Gold.Chemscore.Metal.Weighted>
-0.0000

> <Gold.Chemscore.Lipo.Weighted>
-12.0151

> <Gold.Chemscore.Internal_Hbond.Weighted>
0.0000

> <Gold.Chemscore.DEClash.Weighted>
0.4136

> <Gold.Chemscore.DEInternal.Weighted>
0.1663

> <Gold.Chemscore.Rot.Weighted>
3.4043

> <Gold.Chemscore.Internal.Correction.Weighted>
   9.000000E+99

> <Gold.Protein.RotatedTorsions>
[ 6907 6896 6895 6894 ] final  -86.62 input  -60.11 | X-H torsion
[ 7974 7965 7964 7962 ] final  -24.94 input  175.53 | X-H torsion
[ 8008 7997 7996 7995 ] final   66.98 input   59.86 | X-H torsion
[ 10167 10162 10161 10158 ] final  -85.60 input  -65.29 | X-H torsion
[ 10718 10713 10712 10709 ] final -138.49 input   66.30 | X-H torsion
[ 10763 10752 10751 10750 ] final  -29.17 input  -60.55 | X-H torsion
[ 11005 11000 10999 10996 ] final  138.27 input  -57.11 | X-H torsion

> <Gold.Protein.ActiveResidues>
 VAL166  LYS551  ARG553  GLY616  TRP617  ASP618  TYR619  PRO620  LYS621  CYS622 
 ASP623  PHE694  ASN695  SER759  ASP760  ASP761  ALA762  ILE779  LEU786  VAL792 
 PHE793  MET794  SER795  GLU796  ALA797  LYS798  CYS799  TRP800  GLU811  SER814 

> <Gold.Protein.RotatedAtoms>
  150.6867  134.3023  159.4711 H   0  0  0  0  0  0  0  0  0  0  0  0  # atno 6907 bound_to 6896
  152.0917  134.9400  160.0581 H   0  0  0  0  0  0  0  0  0  0  0  0  # atno 6908 bound_to 6896
  152.0713  133.4073  159.4497 H   0  0  0  0  0  0  0  0  0  0  0  0  # atno 6909 bound_to 6896
  146.1522  140.4820  142.8606 H   0  0  0  0  0  0  0  0  0  0  0  0  # atno 7974 bound_to 7965
  155.6857  140.3496  155.4873 H   0  0  0  0  0  0  0  0  0  0  0  0  # atno 8008 bound_to 7997
  155.9568  140.1129  157.0953 H   0  0  0  0  0  0  0  0  0  0  0  0  # atno 8009 bound_to 7997
  154.4134  140.1183  156.5111 H   0  0  0  0  0  0  0  0  0  0  0  0  # atno 8010 bound_to 7997
  140.4022  143.2658  151.9127 H   0  0  0  0  0  0  0  0  0  0  0  0  # atno 10167 bound_to 10162
  156.2999  130.7423  151.1471 H   0  0  0  0  0  0  0  0  0  0  0  0  # atno 10718 bound_to 10713
  153.7603  135.6919  153.4927 H   0  0  0  0  0  0  0  0  0  0  0  0  # atno 10763 bound_to 10752
  153.1943  135.4460  155.0186 H   0  0  0  0  0  0  0  0  0  0  0  0  # atno 10764 bound_to 10752
  154.8155  135.3397  154.7119 H   0  0  0  0  0  0  0  0  0  0  0  0  # atno 10765 bound_to 10752
  140.0172  134.9413  157.0399 H   0  0  0  0  0  0  0  0  0  0  0  0  # atno 11005 bound_to 11000
  144.7919  140.6048  143.6536 LP  0  0  0  0  0  0  0  0  0  0  0  0  # atno 17320 bound_to 7965
  145.4794  139.1496  143.3770 LP  0  0  0  0  0  0  0  0  0  0  0  0  # atno 17321 bound_to 7965
  139.4784  144.5622  151.8221 LP  0  0  0  0  0  0  0  0  0  0  0  0  # atno 17342 bound_to 10162
  140.4728  144.1563  150.5920 LP  0  0  0  0  0  0  0  0  0  0  0  0  # atno 17343 bound_to 10162
  157.7365  131.0561  150.5409 LP  0  0  0  0  0  0  0  0  0  0  0  0  # atno 17370 bound_to 10713
  156.5536  130.4238  149.6096 LP  0  0  0  0  0  0  0  0  0  0  0  0  # atno 17371 bound_to 10713
  140.4451  134.1641  155.7177 LP  0  0  0  0  0  0  0  0  0  0  0  0  # atno 17394 bound_to 11000
  141.1750  133.8532  157.1450 LP  0  0  0  0  0  0  0  0  0  0  0  0  # atno 17395 bound_to 11000

$$$$
