AV-unprocessed.smi:794|AV-procd|sdf|3760|dock1
  -GOLD-   22720 1193D 1   1.00000     0.00000
 Structure written by MMmdl.
 41 43  0  0  0  0  0  0  0  0  1 V2000
  142.0687  133.8508  152.5181 C   0  0  0  0  0  0  0  0  0  0  0  0
  143.4814  134.1100  152.0920 C   0  0  0  0  0  0  0  0  0  0  0  0
  144.2190  135.1164  152.7227 N   0  0  0  0  0  0  0  0  0  0  0  0
  145.4566  135.2231  152.2283 C   0  0  0  0  0  0  0  0  0  0  0  0
  146.4237  136.1573  152.6837 N   0  0  0  0  0  0  0  0  0  0  0  0
  146.2688  137.1359  153.5926 C   0  0  0  0  0  0  0  0  0  0  0  0
  145.2187  137.4068  154.1756 O   0  0  0  0  0  0  0  0  0  0  0  0
  147.4203  137.7905  153.8016 N   0  0  0  0  0  0  0  0  0  0  0  0
  147.5997  138.9131  154.7240 C   0  0  2  0  0  0  0  0  0  0  0  0
  146.8047  140.1413  154.2303 C   0  0  1  0  0  0  0  0  0  0  0  0
  146.6803  141.1560  155.3813 C   0  0  0  0  0  0  0  0  0  0  0  0
  148.1138  141.7081  155.4963 C   0  0  0  0  0  0  0  0  0  0  0  0
  148.8682  140.9380  154.3938 C   0  0  2  0  0  0  0  0  0  0  0  0
  147.8013  140.8371  153.3114 C   0  0  0  0  0  0  0  0  0  0  0  0
  149.0551  139.4639  154.8305 C   0  0  2  0  0  0  0  0  0  0  0  0
  150.1329  138.7163  154.0123 C   0  0  0  0  0  0  0  0  0  0  0  0
  151.4230  139.1687  154.3660 O   0  0  0  0  0  0  0  0  0  0  0  0
  145.8009  134.0812  150.9409 S   0  0  0  0  0  0  0  0  0  0  0  0
  144.1821  133.4482  151.1100 C   0  0  0  0  0  0  0  0  0  0  0  0
  143.7048  132.3277  150.2472 C   0  0  0  0  0  0  0  0  0  0  0  0
  141.3868  133.9007  151.6688 H   0  0  0  0  0  0  0  0  0  0  0  0
  141.7279  134.5790  153.2547 H   0  0  0  0  0  0  0  0  0  0  0  0
  141.9694  132.8610  152.9640 H   0  0  0  0  0  0  0  0  0  0  0  0
  147.3444  136.0577  152.2826 H   0  0  0  0  0  0  0  0  0  0  0  0
  148.2341  137.5011  153.2791 H   0  0  0  0  0  0  0  0  0  0  0  0
  147.2347  138.6169  155.7094 H   0  0  0  0  0  0  0  0  0  0  0  0
  145.8465  139.8961  153.7703 H   0  0  0  0  0  0  0  0  0  0  0  0
  145.9830  141.9538  155.1225 H   0  0  0  0  0  0  0  0  0  0  0  0
  146.3336  140.6971  156.3079 H   0  0  0  0  0  0  0  0  0  0  0  0
  148.1268  142.7808  155.2983 H   0  0  0  0  0  0  0  0  0  0  0  0
  148.5445  141.5477  156.4852 H   0  0  0  0  0  0  0  0  0  0  0  0
  149.7886  141.4330  154.0832 H   0  0  0  0  0  0  0  0  0  0  0  0
  148.1009  140.2307  152.4556 H   0  0  0  0  0  0  0  0  0  0  0  0
  147.4549  141.8085  152.9541 H   0  0  0  0  0  0  0  0  0  0  0  0
  149.3658  139.4313  155.8762 H   0  0  0  0  0  0  0  0  0  0  0  0
  150.0944  137.6463  154.2166 H   0  0  0  0  0  0  0  0  0  0  0  0
  149.9886  138.8495  152.9401 H   0  0  0  0  0  0  0  0  0  0  0  0
  152.0437  138.4796  154.1837 H   0  0  0  0  0  0  0  0  0  0  0  0
  143.1594  131.5896  150.8357 H   0  0  0  0  0  0  0  0  0  0  0  0
  144.5389  131.8184  149.7639 H   0  0  0  0  0  0  0  0  0  0  0  0
  143.0385  132.6981  149.4681 H   0  0  0  0  0  0  0  0  0  0  0  0
  1  2  1  0  0  0  0
  1 21  1  0  0  0  0
  1 22  1  0  0  0  0
  1 23  1  0  0  0  0
  2 19  2  0  0  0  0
  2  3  1  0  0  0  0
  3  4  2  0  0  0  0
  4  5  1  0  0  0  0
  4 18  1  0  0  0  0
  5  6  1  0  0  0  0
  5 24  1  0  0  0  0
  6  7  2  0  0  0  0
  6  8  1  0  0  0  0
  8  9  1  0  0  0  0
  8 25  1  0  0  0  0
  9 15  1  0  0  0  0
  9 10  1  0  0  0  0
  9 26  1  0  0  0  0
 10 14  1  0  0  0  0
 10 11  1  0  0  0  0
 10 27  1  0  0  0  0
 11 12  1  0  0  0  0
 11 28  1  0  0  0  0
 11 29  1  0  0  0  0
 12 13  1  0  0  0  0
 12 30  1  0  0  0  0
 12 31  1  0  0  0  0
 13 14  1  0  0  0  0
 13 15  1  0  0  0  0
 13 32  1  0  0  0  0
 14 33  1  0  0  0  0
 14 34  1  0  0  0  0
 15 16  1  0  0  0  0
 15 35  1  0  0  0  0
 16 17  1  0  0  0  0
 16 36  1  0  0  0  0
 16 37  1  0  0  0  0
 17 38  1  0  0  0  0
 18 19  1  0  0  0  0
 19 20  1  0  0  0  0
 20 39  1  0  0  0  0
 20 40  1  0  0  0  0
 20 41  1  0  0  0  0
M  END
> <s_m_source_file>
AV-unprocessed.smi

> <i_m_source_file_index>
794

> <i_lp_mmshare_version>
43012

> <i_f3d_flags>
0

> <s_epik_input>
W0NIM11jMW5jKHNjMVtDSDNdKVtOSF1DKD1PKVtOSF1bQ0BIXShbQ0BASF0yMylbQ0BIXShbQ0gyXVtPSF0pW0NAQEhdKFtDSDJdMylbQ0gyXVtDSDJdMg==

> <s_epik_cmdline>
J2VwaWtfcHl0aG9uJywgJy1waCcsICc3LjAnLCAnLXRuJywgJzgnLCAnLW1hJywgJzIwMCcsICctbWV0YWxfYmluZGluZycsICctaW1hZScsICc8aW5maWxlLm1hZT4nLCAnLW9tYWUnLCAnPG91dGZpbGUubWFlPic=

> <r_lp_tautomer_probability>
0.999

> <r_epik_Ionization_Penalty>
0.000713029

> <r_epik_Ionization_Penalty_Charging>
0

> <r_epik_Ionization_Penalty_Neutral>
0.000713029

> <r_epik_State_Penalty>
0.000177984

> <r_epik_Charging_Adjusted_Penalty>
0.000177984

> <i_epik_Tot_Q>
0

> <i_epik_Tot_abs_Q>
0

> <r_epik_Metal_State_Penalty>
-0

> <b_epik_Metal_Only>
0

> <s_lp_Force_Field>
OPLS_2005

> <r_lp_Energy>
48.2777

> <b_lp_Chiralities_Consistent>
1

> <s_lp_Variant>
AV-unprocessed.smi:794-5

> <Gold.Version>
5.8.1

> <Gold.Id.Protein>
6NUR|6NUR_protein|mol2

> <Gold.PLP.Fitness>
37.6649

> <Gold.PLP.PLP>
-29.0477

> <Gold.PLP.part.hbond>
-3.0000

> <Gold.PLP.part.metal>
0.0000

> <Gold.PLP.part.buried>
0.5951

> <Gold.PLP.part.nonpolar>
-26.4981

> <Gold.PLP.part.repulsive>
0.2016

> <Gold.PLP.ligand.clash>
0.0000

> <Gold.PLP.ligand.torsion>
0.0907

> <Gold.PLP.Chemscore.Hbond>
2.9280

> <Gold.PLP.Chemscore.CHOScore>
0.0000

> <Gold.PLP.Chemscore.Metal>
0.0000

> <Gold.Chemscore.Hbonds>
donor molecule, donor type, donor heavy atom, donor atom, acceptor molecule, acceptor atom, score
      L1  H     5    24       P1  7948  1.00
      L1  H     8    25       P1  7948  0.93
      P1  H  7989  7998       L1    17  1.00

> <Gold.PLP.Chemscore.Internal.Correction>
0.0145

> <Gold.Rescore>
     Score         DG    S(hbond)    S(metal)    S(lipo)     H(rot)  DE(clash)    DE(int)     intcor
     17.16     -19.10       2.67        0.00      79.24       1.78       0.60       1.34       ----

> <Gold.Chemscore.Fitness>
17.1600

> <Gold.Chemscore.DG>
-19.0997

> <Gold.Chemscore.ZeroCoef>
-5.4800

> <Gold.Chemscore.Hbond>
2.6662

> <Gold.Chemscore.Metal>
0.0000

> <Gold.Chemscore.Lipo>
79.2386

> <Gold.Chemscore.Internal_Hbond>
0.0000

> <Gold.Chemscore.DEClash>
0.5976

> <Gold.Chemscore.DEInternal>
1.3421

> <Gold.Chemscore.Rot>
1.7798

> <Gold.Chemscore.Internal.Correction>
   9.000000E+99

> <Gold.Chemscore.Hbonds>
donor molecule, donor type, donor heavy atom, donor atom, acceptor molecule, acceptor atom, score
      L1  H     5    24       P1  7948  1.00
      L1  H     8    25       P1  7948  0.84
      P1  H  7989  7998       L1    17  0.52

> <Gold.Chemscore.Hbond.Weighted>
-8.9050

> <Gold.Chemscore.Metal.Weighted>
-0.0000

> <Gold.Chemscore.Lipo.Weighted>
-9.2709

> <Gold.Chemscore.Internal_Hbond.Weighted>
0.0000

> <Gold.Chemscore.DEClash.Weighted>
0.5976

> <Gold.Chemscore.DEInternal.Weighted>
1.3421

> <Gold.Chemscore.Rot.Weighted>
4.5562

> <Gold.Chemscore.Internal.Correction.Weighted>
   9.000000E+99

> <Gold.Protein.RotatedTorsions>
[ 6907 6896 6895 6894 ] final  -28.19 input  -60.11 | X-H torsion
[ 7974 7965 7964 7962 ] final   49.36 input  175.53 | X-H torsion
[ 8008 7997 7996 7995 ] final  -58.38 input   59.86 | X-H torsion
[ 10167 10162 10161 10158 ] final   24.71 input  -65.29 | X-H torsion
[ 10718 10713 10712 10709 ] final   36.21 input   66.30 | X-H torsion
[ 10763 10752 10751 10750 ] final  169.68 input  -60.55 | X-H torsion
[ 11005 11000 10999 10996 ] final -173.01 input  -57.11 | X-H torsion

> <Gold.Protein.ActiveResidues>
 VAL166  LYS551  ARG553  GLY616  TRP617  ASP618  TYR619  PRO620  LYS621  CYS622 
 ASP623  PHE694  ASN695  SER759  ASP760  ASP761  ALA762  ILE779  LEU786  VAL792 
 PHE793  MET794  SER795  GLU796  ALA797  LYS798  CYS799  TRP800  GLU811  SER814 

> <Gold.Protein.RotatedAtoms>
  151.1364  135.0157  159.8605 H   0  0  0  0  0  0  0  0  0  0  0  0  # atno 6907 bound_to 6896
  152.5452  134.1550  159.8544 H   0  0  0  0  0  0  0  0  0  0  0  0  # atno 6908 bound_to 6896
  151.1622  133.4792  159.2627 H   0  0  0  0  0  0  0  0  0  0  0  0  # atno 6909 bound_to 6896
  146.0116  139.4549  142.9952 H   0  0  0  0  0  0  0  0  0  0  0  0  # atno 7974 bound_to 7965
  154.4306  140.1085  156.5947 H   0  0  0  0  0  0  0  0  0  0  0  0  # atno 8008 bound_to 7997
  155.5974  140.3493  155.4565 H   0  0  0  0  0  0  0  0  0  0  0  0  # atno 8009 bound_to 7997
  156.0199  140.1237  157.0357 H   0  0  0  0  0  0  0  0  0  0  0  0  # atno 8010 bound_to 7997
  140.5166  144.0072  150.6397 H   0  0  0  0  0  0  0  0  0  0  0  0  # atno 10167 bound_to 10162
  157.3320  130.7503  149.6854 H   0  0  0  0  0  0  0  0  0  0  0  0  # atno 10718 bound_to 10713
  154.3866  135.2753  155.2180 H   0  0  0  0  0  0  0  0  0  0  0  0  # atno 10763 bound_to 10752
  154.4264  135.5988  153.6045 H   0  0  0  0  0  0  0  0  0  0  0  0  # atno 10764 bound_to 10752
  152.9833  135.5985  154.4115 H   0  0  0  0  0  0  0  0  0  0  0  0  # atno 10765 bound_to 10752
  140.4905  134.5989  157.4953 H   0  0  0  0  0  0  0  0  0  0  0  0  # atno 11005 bound_to 11000
  145.7333  141.0034  143.1340 LP  0  0  0  0  0  0  0  0  0  0  0  0  # atno 17320 bound_to 7965
  144.6955  139.9011  143.7458 LP  0  0  0  0  0  0  0  0  0  0  0  0  # atno 17321 bound_to 7965
  140.3410  143.3020  152.0589 LP  0  0  0  0  0  0  0  0  0  0  0  0  # atno 17342 bound_to 10162
  139.4911  144.6443  151.6812 LP  0  0  0  0  0  0  0  0  0  0  0  0  # atno 17343 bound_to 10162
  155.9697  130.4192  150.4365 LP  0  0  0  0  0  0  0  0  0  0  0  0  # atno 17370 bound_to 10713
  157.2399  131.0523  151.2443 LP  0  0  0  0  0  0  0  0  0  0  0  0  # atno 17371 bound_to 10713
  139.9772  134.7196  155.9928 LP  0  0  0  0  0  0  0  0  0  0  0  0  # atno 17394 bound_to 11000
  141.1486  133.6552  156.3944 LP  0  0  0  0  0  0  0  0  0  0  0  0  # atno 17395 bound_to 11000

$$$$
