AV-unprocessed.smi:49|AV-procd|sdf|487|dock2
  -GOLD-   2262016353D 1   1.00000     0.00000
 Structure written by MMmdl.
 26 27  0  0  0  0  0  0  0  0  2 V2000
  151.8579  142.3603  158.9747 C   0  0  0  0  0  0  0  0  0  0  0  0
  151.7679  140.8800  158.5912 C   0  0  0  0  0  0  0  0  0  0  0  0
  151.3650  140.6905  157.1452 C   0  0  0  0  0  0  0  0  0  0  0  0
  150.2052  141.0527  156.6069 N   0  0  0  0  0  0  0  0  0  0  0  0
  150.2872  140.7284  155.3072 C   0  0  0  0  0  0  0  0  0  0  0  0
  149.2086  140.9854  154.2704 C   0  0  2  0  0  0  0  0  0  0  0  0
  147.9372  141.5756  154.9072 C   0  0  0  0  0  0  0  0  0  0  0  0
  146.9163  140.4467  154.8085 C   0  0  1  0  0  0  0  0  0  0  0  0
  145.5848  140.9126  154.7488 O   0  0  0  0  0  0  0  0  0  0  0  0
  147.3432  139.7376  153.5301 C   0  0  0  0  0  0  0  0  0  0  0  0
  148.7984  139.7625  153.5696 N   0  0  0  0  0  0  0  0  0  0  0  0
  151.4880  140.1988  155.0276 N   0  0  0  0  0  0  0  0  0  0  0  0
  152.1402  140.1804  156.1720 N   0  5  0  0  0  0  0  0  0  0  0  0
  149.6055  141.7014  153.5498 H   0  0  0  0  0  0  0  0  0  0  0  0
  147.0274  139.7717  155.6587 H   0  0  0  0  0  0  0  0  0  0  0  0
  152.1494  142.4753  160.0186 H   0  0  0  0  0  0  0  0  0  0  0  0
  150.8983  142.8595  158.8378 H   0  0  0  0  0  0  0  0  0  0  0  0
  152.5959  142.8786  158.3620 H   0  0  0  0  0  0  0  0  0  0  0  0
  152.7291  140.3925  158.7559 H   0  0  0  0  0  0  0  0  0  0  0  0
  151.0436  140.3723  159.2289 H   0  0  0  0  0  0  0  0  0  0  0  0
  148.0817  141.9285  155.9293 H   0  0  0  0  0  0  0  0  0  0  0  0
  147.6058  142.4270  154.3106 H   0  0  0  0  0  0  0  0  0  0  0  0
  145.2169  140.6547  153.9176 H   0  0  0  0  0  0  0  0  0  0  0  0
  146.9536  138.7219  153.4602 H   0  0  0  0  0  0  0  0  0  0  0  0
  146.9909  140.2937  152.6603 H   0  0  0  0  0  0  0  0  0  0  0  0
  149.1579  139.7694  152.6211 H   0  0  0  0  0  0  0  0  0  0  0  0
  1  2  1  0  0  0  0
  1 16  1  0  0  0  0
  1 17  1  0  0  0  0
  1 18  1  0  0  0  0
  2  3  1  0  0  0  0
  2 19  1  0  0  0  0
  2 20  1  0  0  0  0
  3 13  1  0  0  0  0
  3  4  2  0  0  0  0
  4  5  1  0  0  0  0
  5  6  1  0  0  0  0
  5 12  2  0  0  0  0
  6 14  1  0  0  0  0
  6 11  1  0  0  0  0
  6  7  1  0  0  0  0
  7  8  1  0  0  0  0
  7 21  1  0  0  0  0
  7 22  1  0  0  0  0
  8 15  1  0  0  0  0
  8  9  1  0  0  0  0
  8 10  1  0  0  0  0
  9 23  1  0  0  0  0
 10 11  1  0  0  0  0
 10 24  1  0  0  0  0
 10 25  1  0  0  0  0
 11 26  1  0  0  0  0
 12 13  1  0  0  0  0
M  CHG  1  13  -1
M  END
> <s_m_source_file>
AV-unprocessed.smi

> <i_m_source_file_index>
49

> <i_lp_mmshare_version>
43012

> <i_f3d_flags>
0

> <s_epik_input>
W0NIM11bQ0gyXWMxbmMobltuSF0xKVtDQEBIXTJbQ0gyXVtDQEBIXShbT0hdKVtDSDJdW05IXTI=

> <s_epik_cmdline>
J2VwaWtfcHl0aG9uJywgJy1waCcsICc3LjAnLCAnLXRuJywgJzgnLCAnLW1hJywgJzIwMCcsICctbWV0YWxfYmluZGluZycsICctaW1hZScsICc8aW5maWxlLm1hZT4nLCAnLW9tYWUnLCAnPG91dGZpbGUubWFlPic=

> <r_lp_tautomer_probability>
0.948284

> <r_epik_Ionization_Penalty>
20.726

> <r_epik_Ionization_Penalty_Charging>
17.6814

> <r_epik_Ionization_Penalty_Neutral>
3.04463

> <r_epik_State_Penalty>
7.95092

> <r_epik_Charging_Adjusted_Penalty>
25.6323

> <i_epik_Tot_Q>
-1

> <i_epik_Tot_abs_Q>
1

> <r_epik_Metal_State_Penalty>
4.146

> <b_epik_Metal_Only>
1

> <s_lp_Force_Field>
OPLS_2005

> <r_lp_Energy>
17.7922

> <b_lp_Chiralities_Consistent>
1

> <s_lp_Variant>
AV-unprocessed.smi:49-25

> <Gold.Version>
5.8.1

> <Gold.Id.Protein>
6NUR|6NUR_protein|mol2

> <Gold.PLP.Fitness>
33.2387

> <Gold.PLP.PLP>
-21.5783

> <Gold.PLP.part.hbond>
-3.6217

> <Gold.PLP.part.metal>
0.0000

> <Gold.PLP.part.buried>
-1.2270

> <Gold.PLP.part.nonpolar>
-15.7902

> <Gold.PLP.part.repulsive>
0.0985

> <Gold.PLP.ligand.clash>
0.0000

> <Gold.PLP.ligand.torsion>
0.0508

> <Gold.PLP.Chemscore.Hbond>
3.9150

> <Gold.PLP.Chemscore.CHOScore>
0.0000

> <Gold.PLP.Chemscore.Metal>
0.0000

> <Gold.Chemscore.Hbonds>
donor molecule, donor type, donor heavy atom, donor atom, acceptor molecule, acceptor atom, score
      L1  H     9    23       P1 10175  0.81
      L1  H    11    26       P1  7957  1.00
      P1  H  7989  7998       L1    12  0.85
      P1  H  7997  8010       L1    13  1.17

> <Gold.PLP.Chemscore.Internal.Correction>
0.0170

> <Gold.Rescore>
     Score         DG    S(hbond)    S(metal)    S(lipo)     H(rot)  DE(clash)    DE(int)     intcor
     13.90     -14.07       2.54        0.00      40.74       1.82       0.13       0.03       ----

> <Gold.Chemscore.Fitness>
13.9042

> <Gold.Chemscore.DG>
-14.0690

> <Gold.Chemscore.ZeroCoef>
-5.4800

> <Gold.Chemscore.Hbond>
2.5415

> <Gold.Chemscore.Metal>
0.0000

> <Gold.Chemscore.Lipo>
40.7359

> <Gold.Chemscore.Internal_Hbond>
0.0000

> <Gold.Chemscore.DEClash>
0.1314

> <Gold.Chemscore.DEInternal>
0.0334

> <Gold.Chemscore.Rot>
1.8226

> <Gold.Chemscore.Internal.Correction>
   9.000000E+99

> <Gold.Chemscore.Hbonds>
donor molecule, donor type, donor heavy atom, donor atom, acceptor molecule, acceptor atom, score
      L1  H     9    23       P1 10175  0.77
      L1  H    11    26       P1  7957  0.95
      P1  H  7989  7998       L1    12  0.14
      P1  H  7997  8010       L1    13  0.57

> <Gold.Chemscore.Hbond.Weighted>
-8.4887

> <Gold.Chemscore.Metal.Weighted>
-0.0000

> <Gold.Chemscore.Lipo.Weighted>
-4.7661

> <Gold.Chemscore.Internal_Hbond.Weighted>
0.0000

> <Gold.Chemscore.DEClash.Weighted>
0.1314

> <Gold.Chemscore.DEInternal.Weighted>
0.0334

> <Gold.Chemscore.Rot.Weighted>
4.6658

> <Gold.Chemscore.Internal.Correction.Weighted>
   9.000000E+99

> <Gold.Protein.RotatedTorsions>
[ 6907 6896 6895 6894 ] final  124.36 input  -60.11 | X-H torsion
[ 7974 7965 7964 7962 ] final   31.40 input  175.53 | X-H torsion
[ 8008 7997 7996 7995 ] final   83.49 input   59.86 | X-H torsion
[ 10167 10162 10161 10158 ] final  -21.92 input  -65.29 | X-H torsion
[ 10718 10713 10712 10709 ] final  -66.12 input   66.30 | X-H torsion
[ 10763 10752 10751 10750 ] final   24.40 input  -60.55 | X-H torsion
[ 11005 11000 10999 10996 ] final -156.47 input  -57.11 | X-H torsion

> <Gold.Protein.ActiveResidues>
 VAL166  LYS551  ARG553  GLY616  TRP617  ASP618  TYR619  PRO620  LYS621  CYS622 
 ASP623  PHE694  ASN695  SER759  ASP760  ASP761  ALA762  ILE779  LEU786  VAL792 
 PHE793  MET794  SER795  GLU796  ALA797  LYS798  CYS799  TRP800  GLU811  SER814 

> <Gold.Protein.RotatedAtoms>
  152.4084  133.6925  159.6376 H   0  0  0  0  0  0  0  0  0  0  0  0  # atno 6907 bound_to 6896
  150.7967  133.8668  159.3256 H   0  0  0  0  0  0  0  0  0  0  0  0  # atno 6908 bound_to 6896
  151.6416  135.1014  160.0194 H   0  0  0  0  0  0  0  0  0  0  0  0  # atno 6909 bound_to 6896
  146.1552  139.6662  142.9071 H   0  0  0  0  0  0  0  0  0  0  0  0  # atno 7974 bound_to 7965
  155.9247  140.3419  155.6200 H   0  0  0  0  0  0  0  0  0  0  0  0  # atno 8008 bound_to 7997
  155.7231  140.0786  157.2340 H   0  0  0  0  0  0  0  0  0  0  0  0  # atno 8009 bound_to 7997
  154.4075  140.1602  156.2412 H   0  0  0  0  0  0  0  0  0  0  0  0  # atno 8010 bound_to 7997
  140.7284  143.4582  151.0417 H   0  0  0  0  0  0  0  0  0  0  0  0  # atno 10167 bound_to 10162
  156.0630  130.4257  150.1662 H   0  0  0  0  0  0  0  0  0  0  0  0  # atno 10718 bound_to 10713
  153.0766  135.6606  154.0132 H   0  0  0  0  0  0  0  0  0  0  0  0  # atno 10763 bound_to 10752
  153.9765  135.2959  155.3425 H   0  0  0  0  0  0  0  0  0  0  0  0  # atno 10764 bound_to 10752
  154.7156  135.5187  153.8803 H   0  0  0  0  0  0  0  0  0  0  0  0  # atno 10765 bound_to 10752
  140.6752  134.4204  157.5229 H   0  0  0  0  0  0  0  0  0  0  0  0  # atno 11005 bound_to 11000
  145.4725  141.0436  143.2690 LP  0  0  0  0  0  0  0  0  0  0  0  0  # atno 17320 bound_to 7965
  144.7954  139.6244  143.7095 LP  0  0  0  0  0  0  0  0  0  0  0  0  # atno 17321 bound_to 7965
  139.8265  143.7749  152.3179 LP  0  0  0  0  0  0  0  0  0  0  0  0  # atno 17342 bound_to 10162
  139.7850  144.7431  151.0035 LP  0  0  0  0  0  0  0  0  0  0  0  0  # atno 17343 bound_to 10162
  156.9727  130.9840  151.3455 LP  0  0  0  0  0  0  0  0  0  0  0  0  # atno 17370 bound_to 10713
  157.5653  130.8273  149.8319 LP  0  0  0  0  0  0  0  0  0  0  0  0  # atno 17371 bound_to 10713
  139.8969  134.8649  156.2068 LP  0  0  0  0  0  0  0  0  0  0  0  0  # atno 17394 bound_to 11000
  141.0361  133.6963  156.1514 LP  0  0  0  0  0  0  0  0  0  0  0  0  # atno 17395 bound_to 11000

$$$$
