AV-unprocessed.smi:2270|AV-procd|sdf|9156|dock7
  -GOLD-   2272012363D 1   1.00000     0.00000
 Structure written by MMmdl.
 53 54  0  0  0  0  0  0  0  0  2 V2000
  151.5966  144.3954  158.0857 C   0  0  0  0  0  0  0  0  0  0  0  0
  152.2666  143.1714  158.6739 C   0  0  0  0  0  0  0  0  0  0  0  0
  153.3420  143.2971  159.5751 C   0  0  0  0  0  0  0  0  0  0  0  0
  153.9171  142.1211  160.0889 C   0  0  0  0  0  0  0  0  0  0  0  0
  153.3958  140.8767  159.6850 C   0  0  0  0  0  0  0  0  0  0  0  0
  152.3134  140.8386  158.7775 C   0  0  0  0  0  0  0  0  0  0  0  0
  151.8606  139.5371  158.4346 N   0  0  0  0  0  0  0  0  0  0  0  0
  150.8591  139.1992  157.6035 C   0  0  0  0  0  0  0  0  0  0  0  0
  150.1460  139.9888  156.9842 O   0  0  0  0  0  0  0  0  0  0  0  0
  150.7333  137.8676  157.5112 N   0  0  0  0  0  0  0  0  0  0  0  0
  149.7305  137.1781  156.7045 C   0  0  0  0  0  0  0  0  0  0  0  0
  150.2633  136.6238  155.3484 C   0  0  2  0  0  0  0  0  0  0  0  0
  150.6504  137.7547  154.3517 C   0  0  0  0  0  0  0  0  0  0  0  0
  151.9570  138.4630  154.7631 C   0  0  0  0  0  0  0  0  0  0  0  0
  149.5441  138.8142  154.1848 C   0  0  0  0  0  0  0  0  0  0  0  0
  149.3381  135.6565  154.6779 N   0  3  0  0  0  0  0  0  0  0  0  0
  147.9424  135.6161  155.1829 C   0  0  0  0  0  0  0  0  0  0  0  0
  147.0581  134.7891  154.2267 C   0  0  0  0  0  0  0  0  0  0  0  0
  147.5749  133.4326  154.0293 N   0  0  0  0  0  0  0  0  0  0  0  0
  147.4144  132.5800  155.2026 C   0  0  0  0  0  0  0  0  0  0  0  0
  148.9552  133.4864  153.5424 C   0  0  0  0  0  0  0  0  0  0  0  0
  149.8744  134.2859  154.4888 C   0  0  0  0  0  0  0  0  0  0  0  0
  151.7669  141.9782  158.2857 N   0  0  0  0  0  0  0  0  0  0  0  0
  152.1862  145.2940  158.2693 H   0  0  0  0  0  0  0  0  0  0  0  0
  150.6117  144.5358  158.5315 H   0  0  0  0  0  0  0  0  0  0  0  0
  151.4741  144.2859  157.0077 H   0  0  0  0  0  0  0  0  0  0  0  0
  153.7171  144.2670  159.8671 H   0  0  0  0  0  0  0  0  0  0  0  0
  154.7437  142.1716  160.7823 H   0  0  0  0  0  0  0  0  0  0  0  0
  153.8258  139.9644  160.0722 H   0  0  0  0  0  0  0  0  0  0  0  0
  152.3591  138.7770  158.8728 H   0  0  0  0  0  0  0  0  0  0  0  0
  151.3574  137.2906  158.0563 H   0  0  0  0  0  0  0  0  0  0  0  0
  149.3085  136.3722  157.3052 H   0  0  0  0  0  0  0  0  0  0  0  0
  148.9130  137.8793  156.5377 H   0  0  0  0  0  0  0  0  0  0  0  0
  151.1894  136.0875  155.5608 H   0  0  0  0  0  0  0  0  0  0  0  0
  150.8170  137.3091  153.3705 H   0  0  0  0  0  0  0  0  0  0  0  0
  151.8740  138.8996  155.7591 H   0  0  0  0  0  0  0  0  0  0  0  0
  152.2022  139.2681  154.0697 H   0  0  0  0  0  0  0  0  0  0  0  0
  152.8091  137.7831  154.7665 H   0  0  0  0  0  0  0  0  0  0  0  0
  149.2485  139.2351  155.1465 H   0  0  0  0  0  0  0  0  0  0  0  0
  148.6546  138.4059  153.7064 H   0  0  0  0  0  0  0  0  0  0  0  0
  149.8807  139.6383  153.5550 H   0  0  0  0  0  0  0  0  0  0  0  0
  147.9028  135.2006  156.1894 H   0  0  0  0  0  0  0  0  0  0  0  0
  147.5463  136.6295  155.2472 H   0  0  0  0  0  0  0  0  0  0  0  0
  146.0347  134.7412  154.6002 H   0  0  0  0  0  0  0  0  0  0  0  0
  147.0093  135.2854  153.2564 H   0  0  0  0  0  0  0  0  0  0  0  0
  147.7511  131.5670  154.9805 H   0  0  0  0  0  0  0  0  0  0  0  0
  146.3632  132.5231  155.4862 H   0  0  0  0  0  0  0  0  0  0  0  0
  147.9764  132.9396  156.0637 H   0  0  0  0  0  0  0  0  0  0  0  0
  149.3369  132.4738  153.4056 H   0  0  0  0  0  0  0  0  0  0  0  0
  148.9558  133.9522  152.5560 H   0  0  0  0  0  0  0  0  0  0  0  0
  150.8713  134.3395  154.0502 H   0  0  0  0  0  0  0  0  0  0  0  0
  149.9794  133.7693  155.4406 H   0  0  0  0  0  0  0  0  0  0  0  0
  149.2625  136.0137  153.7363 H   0  0  0  0  0  0  0  0  0  0  0  0
  1  2  1  0  0  0  0
  1 24  1  0  0  0  0
  1 25  1  0  0  0  0
  1 26  1  0  0  0  0
  2 23  1  0  0  0  0
  2  3  2  0  0  0  0
  3  4  1  0  0  0  0
  3 27  1  0  0  0  0
  4  5  2  0  0  0  0
  4 28  1  0  0  0  0
  5  6  1  0  0  0  0
  5 29  1  0  0  0  0
  6  7  1  0  0  0  0
  6 23  2  0  0  0  0
  7  8  1  0  0  0  0
  7 30  1  0  0  0  0
  8  9  2  0  0  0  0
  8 10  1  0  0  0  0
 10 11  1  0  0  0  0
 10 31  1  0  0  0  0
 11 12  1  0  0  0  0
 11 32  1  0  0  0  0
 11 33  1  0  0  0  0
 12 13  1  0  0  0  0
 12 16  1  0  0  0  0
 12 34  1  0  0  0  0
 13 14  1  0  0  0  0
 13 15  1  0  0  0  0
 13 35  1  0  0  0  0
 14 36  1  0  0  0  0
 14 37  1  0  0  0  0
 14 38  1  0  0  0  0
 15 39  1  0  0  0  0
 15 40  1  0  0  0  0
 15 41  1  0  0  0  0
 16 22  1  0  0  0  0
 16 17  1  0  0  0  0
 16 53  1  0  0  0  0
 17 18  1  0  0  0  0
 17 42  1  0  0  0  0
 17 43  1  0  0  0  0
 18 19  1  0  0  0  0
 18 44  1  0  0  0  0
 18 45  1  0  0  0  0
 19 20  1  0  0  0  0
 19 21  1  0  0  0  0
 20 46  1  0  0  0  0
 20 47  1  0  0  0  0
 20 48  1  0  0  0  0
 21 22  1  0  0  0  0
 21 49  1  0  0  0  0
 21 50  1  0  0  0  0
 22 51  1  0  0  0  0
 22 52  1  0  0  0  0
M  CHG  1  16   1
M  END
> <s_m_source_file>
AV-unprocessed.smi

> <i_m_source_file_index>
2270

> <i_lp_mmshare_version>
43012

> <i_f3d_flags>
0

> <s_epik_input>
W0NIM11jMVtjSF1bY0hdW2NIXWMobjEpW05IXUMoPU8pW05IXVtDSDJdW0NASF0oW0NIXShbQ0gzXSlbQ0gzXSlOMltDSDJdW0NIMl1OKFtDSDNdKVtDSDJdW0NIMl0y

> <s_epik_cmdline>
J2VwaWtfcHl0aG9uJywgJy1waCcsICc3LjAnLCAnLXRuJywgJzgnLCAnLW1hJywgJzIwMCcsICctbWV0YWxfYmluZGluZycsICctaW1hZScsICc8aW5maWxlLm1hZT4nLCAnLW9tYWUnLCAnPG91dGZpbGUubWFlPic=

> <r_epik_Ionization_Penalty>
0.201855

> <r_epik_Ionization_Penalty_Charging>
0.20006

> <r_epik_Ionization_Penalty_Neutral>
0.00179462

> <r_epik_State_Penalty>
1.43207

> <r_epik_Charging_Adjusted_Penalty>
1.63213

> <i_epik_Tot_Q>
1

> <i_epik_Tot_abs_Q>
1

> <r_epik_Metal_State_Penalty>
1.43208

> <b_epik_Metal_Only>
0

> <s_lp_Force_Field>
OPLS_2005

> <r_lp_Energy>
33.4642

> <b_lp_Chiralities_Consistent>
1

> <s_lp_Variant>
AV-unprocessed.smi:2270-3

> <Gold.Version>
5.8.1

> <Gold.Id.Protein>
6NUR|6NUR_protein|mol2

> <Gold.PLP.Fitness>
42.6295

> <Gold.PLP.PLP>
-40.1564

> <Gold.PLP.part.hbond>
-1.0000

> <Gold.PLP.part.metal>
0.0000

> <Gold.PLP.part.buried>
-4.2041

> <Gold.PLP.part.nonpolar>
-35.0376

> <Gold.PLP.part.repulsive>
0.2502

> <Gold.PLP.ligand.clash>
0.0000

> <Gold.PLP.ligand.torsion>
1.8618

> <Gold.PLP.Chemscore.Hbond>
2.0000

> <Gold.PLP.Chemscore.CHOScore>
0.0000

> <Gold.PLP.Chemscore.Metal>
0.0000

> <Gold.Chemscore.Hbonds>
donor molecule, donor type, donor heavy atom, donor atom, acceptor molecule, acceptor atom, score
      L1  H    16    53       P1  7948  2.00

> <Gold.PLP.Chemscore.Internal.Correction>
0.1966

> <Gold.Rescore>
     Score         DG    S(hbond)    S(metal)    S(lipo)     H(rot)  DE(clash)    DE(int)     intcor
     12.47     -16.44       0.94        0.00     101.97       1.61       0.02       3.95       ----

> <Gold.Chemscore.Fitness>
12.4680

> <Gold.Chemscore.DG>
-16.4406

> <Gold.Chemscore.ZeroCoef>
-5.4800

> <Gold.Chemscore.Hbond>
0.9413

> <Gold.Chemscore.Metal>
0.0000

> <Gold.Chemscore.Lipo>
101.9720

> <Gold.Chemscore.Internal_Hbond>
0.0000

> <Gold.Chemscore.DEClash>
0.0215

> <Gold.Chemscore.DEInternal>
3.9511

> <Gold.Chemscore.Rot>
1.6070

> <Gold.Chemscore.Internal.Correction>
   9.000000E+99

> <Gold.Chemscore.Hbonds>
donor molecule, donor type, donor heavy atom, donor atom, acceptor molecule, acceptor atom, score
      L1  H    16    53       P1  7948  0.82

> <Gold.Chemscore.Hbond.Weighted>
-3.1438

> <Gold.Chemscore.Metal.Weighted>
-0.0000

> <Gold.Chemscore.Lipo.Weighted>
-11.9307

> <Gold.Chemscore.Internal_Hbond.Weighted>
0.0000

> <Gold.Chemscore.DEClash.Weighted>
0.0215

> <Gold.Chemscore.DEInternal.Weighted>
3.9511

> <Gold.Chemscore.Rot.Weighted>
4.1140

> <Gold.Chemscore.Internal.Correction.Weighted>
   9.000000E+99

> <Gold.Protein.RotatedTorsions>
[ 6907 6896 6895 6894 ] final  140.44 input  -60.11 | X-H torsion
[ 7974 7965 7964 7962 ] final  137.85 input  175.53 | X-H torsion
[ 8008 7997 7996 7995 ] final -170.83 input   59.86 | X-H torsion
[ 10167 10162 10161 10158 ] final   69.33 input  -65.29 | X-H torsion
[ 10718 10713 10712 10709 ] final  -72.09 input   66.30 | X-H torsion
[ 10763 10752 10751 10750 ] final  133.29 input  -60.55 | X-H torsion
[ 11005 11000 10999 10996 ] final -120.80 input  -57.11 | X-H torsion

> <Gold.Protein.ActiveResidues>
 VAL166  LYS551  ARG553  GLY616  TRP617  ASP618  TYR619  PRO620  LYS621  CYS622 
 ASP623  PHE694  ASN695  SER759  ASP760  ASP761  ALA762  ILE779  LEU786  VAL792 
 PHE793  MET794  SER795  GLU796  ALA797  LYS798  CYS799  TRP800  GLU811  SER814 

> <Gold.Protein.RotatedAtoms>
  152.2429  133.5151  159.5280 H   0  0  0  0  0  0  0  0  0  0  0  0  # atno 6907 bound_to 6896
  150.7070  134.1064  159.3993 H   0  0  0  0  0  0  0  0  0  0  0  0  # atno 6908 bound_to 6896
  151.8984  135.0388  160.0555 H   0  0  0  0  0  0  0  0  0  0  0  0  # atno 6909 bound_to 6896
  144.9428  139.4911  143.5564 H   0  0  0  0  0  0  0  0  0  0  0  0  # atno 7974 bound_to 7965
  155.9235  140.1078  157.1188 H   0  0  0  0  0  0  0  0  0  0  0  0  # atno 8008 bound_to 7997
  154.4058  140.1251  156.4776 H   0  0  0  0  0  0  0  0  0  0  0  0  # atno 8009 bound_to 7997
  155.7166  140.3470  155.5000 H   0  0  0  0  0  0  0  0  0  0  0  0  # atno 8010 bound_to 7997
  140.0690  144.5169  150.7241 H   0  0  0  0  0  0  0  0  0  0  0  0  # atno 10167 bound_to 10162
  156.0335  130.4365  150.2541 H   0  0  0  0  0  0  0  0  0  0  0  0  # atno 10718 bound_to 10713
  153.8047  135.3137  155.3394 H   0  0  0  0  0  0  0  0  0  0  0  0  # atno 10763 bound_to 10752
  154.8075  135.4688  154.0433 H   0  0  0  0  0  0  0  0  0  0  0  0  # atno 10764 bound_to 10752
  153.1792  135.6891  153.8589 H   0  0  0  0  0  0  0  0  0  0  0  0  # atno 10765 bound_to 10752
  141.0117  134.0255  157.3405 H   0  0  0  0  0  0  0  0  0  0  0  0  # atno 11005 bound_to 11000
  146.3292  139.8459  142.8882 LP  0  0  0  0  0  0  0  0  0  0  0  0  # atno 17320 bound_to 7965
  145.2965  141.0182  143.3633 LP  0  0  0  0  0  0  0  0  0  0  0  0  # atno 17321 bound_to 7965
  140.7135  143.2524  151.4508 LP  0  0  0  0  0  0  0  0  0  0  0  0  # atno 17342 bound_to 10162
  139.5847  144.1630  152.2014 LP  0  0  0  0  0  0  0  0  0  0  0  0  # atno 17343 bound_to 10162
  157.0642  131.0098  151.3212 LP  0  0  0  0  0  0  0  0  0  0  0  0  # atno 17370 bound_to 10713
  157.5047  130.7902  149.7642 LP  0  0  0  0  0  0  0  0  0  0  0  0  # atno 17371 bound_to 10713
  139.9093  135.0187  156.7624 LP  0  0  0  0  0  0  0  0  0  0  0  0  # atno 17394 bound_to 11000
  140.6723  133.9548  155.7863 LP  0  0  0  0  0  0  0  0  0  0  0  0  # atno 17395 bound_to 11000

$$$$
