AV-unprocessed.smi:2837|AV-procd|sdf|10920|dock6
  -GOLD-   2272015373D 1   1.00000     0.00000
 Structure written by MMmdl.
 32 34  0  0  0  0  0  0  0  0  1 V2000
  139.4804  140.2843  154.0743 F   0  0  0  0  0  0  0  0  0  0  0  0
  139.7249  138.9512  154.0448 C   0  0  0  0  0  0  0  0  0  0  0  0
  138.8690  138.3990  153.1516 F   0  0  0  0  0  0  0  0  0  0  0  0
  141.0069  138.7115  153.6608 O   0  0  0  0  0  0  0  0  0  0  0  0
  141.4230  137.4129  153.4716 C   0  0  0  0  0  0  0  0  0  0  0  0
  140.8732  136.3023  154.1543 C   0  0  0  0  0  0  0  0  0  0  0  0
  141.3862  135.0170  153.8947 C   0  0  0  0  0  0  0  0  0  0  0  0
  142.4392  134.8781  152.9676 C   0  0  0  0  0  0  0  0  0  0  0  0
  142.9463  133.5950  152.7165 N   0  0  0  0  0  0  0  0  0  0  0  0
  143.6671  133.2841  151.4868 C   0  0  2  0  0  0  0  0  0  0  0  0
  143.0929  132.0747  150.7374 C   0  0  0  0  0  0  0  0  0  0  0  0
  144.3197  131.1615  150.6221 C   0  0  1  0  0  0  0  0  0  0  0  0
  145.3824  131.7283  149.6702 C   0  0  0  0  0  0  0  0  0  0  0  0
  145.9614  132.8765  150.4960 C   0  0  0  0  0  0  0  0  0  0  0  0
  145.1046  132.8141  151.7675 C   0  0  2  0  0  0  0  0  0  0  0  0
  144.9306  131.4103  151.8754 O   0  0  0  0  0  0  0  0  0  0  0  0
  142.9778  135.9376  152.3195 N   0  0  0  0  0  0  0  0  0  0  0  0
  142.4796  137.1666  152.5716 C   0  0  0  0  0  0  0  0  0  0  0  0
  139.5095  138.5196  155.0226 H   0  0  0  0  0  0  0  0  0  0  0  0
  140.0752  136.4200  154.8721 H   0  0  0  0  0  0  0  0  0  0  0  0
  140.9781  134.1563  154.4043 H   0  0  0  0  0  0  0  0  0  0  0  0
  142.8007  132.8573  153.3906 H   0  0  0  0  0  0  0  0  0  0  0  0
  143.6872  134.1722  150.8534 H   0  0  0  0  0  0  0  0  0  0  0  0
  142.3090  131.5798  151.3126 H   0  0  0  0  0  0  0  0  0  0  0  0
  142.6792  132.3421  149.7648 H   0  0  0  0  0  0  0  0  0  0  0  0
  144.0754  130.1144  150.4414 H   0  0  0  0  0  0  0  0  0  0  0  0
  146.1520  130.9854  149.4578 H   0  0  0  0  0  0  0  0  0  0  0  0
  144.9549  132.0597  148.7231 H   0  0  0  0  0  0  0  0  0  0  0  0
  147.0104  132.6889  150.7283 H   0  0  0  0  0  0  0  0  0  0  0  0
  145.8911  133.8406  149.9912 H   0  0  0  0  0  0  0  0  0  0  0  0
  145.5747  133.2829  152.6331 H   0  0  0  0  0  0  0  0  0  0  0  0
  142.9383  137.9832  152.0339 H   0  0  0  0  0  0  0  0  0  0  0  0
  1  2  1  0  0  0  0
  2  3  1  0  0  0  0
  2  4  1  0  0  0  0
  2 19  1  0  0  0  0
  4  5  1  0  0  0  0
  5 18  1  0  0  0  0
  5  6  2  0  0  0  0
  6  7  1  0  0  0  0
  6 20  1  0  0  0  0
  7  8  2  0  0  0  0
  7 21  1  0  0  0  0
  8  9  1  0  0  0  0
  8 17  1  0  0  0  0
  9 10  1  0  0  0  0
  9 22  1  0  0  0  0
 10 15  1  0  0  0  0
 10 11  1  0  0  0  0
 10 23  1  0  0  0  0
 11 12  1  0  0  0  0
 11 24  1  0  0  0  0
 11 25  1  0  0  0  0
 12 16  1  0  0  0  0
 12 13  1  0  0  0  0
 12 26  1  0  0  0  0
 13 14  1  0  0  0  0
 13 27  1  0  0  0  0
 13 28  1  0  0  0  0
 14 15  1  0  0  0  0
 14 29  1  0  0  0  0
 14 30  1  0  0  0  0
 15 16  1  0  0  0  0
 15 31  1  0  0  0  0
 17 18  2  0  0  0  0
 18 32  1  0  0  0  0
M  END
> <s_m_source_file>
AV-unprocessed.smi

> <i_m_source_file_index>
2837

> <i_lp_mmshare_version>
43012

> <i_f3d_flags>
0

> <s_epik_input>
RltDSF0oRilPYzFbY0hdW2NIXWMobltjSF0xKVtOSF1bQ0BIXShbQ0gyXVtDQEBIXTIzKVtDQEBIXShPMylbQ0gyXVtDSDJdMg==

> <s_epik_cmdline>
J2VwaWtfcHl0aG9uJywgJy1waCcsICc3LjAnLCAnLXRuJywgJzgnLCAnLW1hJywgJzIwMCcsICctbWV0YWxfYmluZGluZycsICctaW1hZScsICc8aW5maWxlLm1hZT4nLCAnLW9tYWUnLCAnPG91dGZpbGUubWFlPic=

> <r_lp_tautomer_probability>
1

> <r_epik_Ionization_Penalty>
0.0124072

> <r_epik_Ionization_Penalty_Charging>
0

> <r_epik_Ionization_Penalty_Neutral>
0.0124072

> <r_epik_State_Penalty>
0.00959565

> <r_epik_Charging_Adjusted_Penalty>
0.00959565

> <i_epik_Tot_Q>
0

> <i_epik_Tot_abs_Q>
0

> <r_epik_Metal_State_Penalty>
9.67369e-06

> <b_epik_Metal_Only>
0

> <s_lp_Force_Field>
OPLS_2005

> <r_lp_Energy>
39.7079

> <b_lp_Chiralities_Consistent>
1

> <s_lp_Variant>
AV-unprocessed.smi:2837-1

> <Gold.Version>
5.8.1

> <Gold.Id.Protein>
6NUR|6NUR_protein|mol2

> <Gold.PLP.Fitness>
43.7593

> <Gold.PLP.PLP>
-35.8666

> <Gold.PLP.part.hbond>
-1.0000

> <Gold.PLP.part.metal>
0.0000

> <Gold.PLP.part.buried>
-5.9091

> <Gold.PLP.part.nonpolar>
-31.0731

> <Gold.PLP.part.repulsive>
0.5758

> <Gold.PLP.ligand.clash>
0.0000

> <Gold.PLP.ligand.torsion>
0.5041

> <Gold.PLP.Chemscore.Hbond>
1.0000

> <Gold.PLP.Chemscore.CHOScore>
1.9584

> <Gold.PLP.Chemscore.Metal>
0.0000

> <Gold.Chemscore.Hbonds>
donor molecule, donor type, donor heavy atom, donor atom, acceptor molecule, acceptor atom, score
      L1  H     9    22       P1 10957  1.00
      L1  C    18    32       P1 10171  1.00
      L1  C    18    32       P1 10175  0.90

> <Gold.PLP.Chemscore.Internal.Correction>
0.0256

> <Gold.Rescore>
     Score         DG    S(hbond)    S(metal)    S(lipo)     H(rot)  DE(clash)    DE(int)     intcor
     13.33     -13.96       0.94        0.00      74.44       1.32       0.16       0.47       ----

> <Gold.Chemscore.Fitness>
13.3332

> <Gold.Chemscore.DG>
-13.9585

> <Gold.Chemscore.ZeroCoef>
-5.4800

> <Gold.Chemscore.Hbond>
0.9436

> <Gold.Chemscore.Metal>
0.0000

> <Gold.Chemscore.Lipo>
74.4398

> <Gold.Chemscore.Internal_Hbond>
0.0000

> <Gold.Chemscore.DEClash>
0.1559

> <Gold.Chemscore.DEInternal>
0.4694

> <Gold.Chemscore.Rot>
1.3213

> <Gold.Chemscore.Internal.Correction>
   9.000000E+99

> <Gold.Chemscore.Hbonds>
donor molecule, donor type, donor heavy atom, donor atom, acceptor molecule, acceptor atom, score
      L1  H     9    22       P1 10957  0.70

> <Gold.Chemscore.Hbond.Weighted>
-3.1516

> <Gold.Chemscore.Metal.Weighted>
-0.0000

> <Gold.Chemscore.Lipo.Weighted>
-8.7095

> <Gold.Chemscore.Internal_Hbond.Weighted>
0.0000

> <Gold.Chemscore.DEClash.Weighted>
0.1559

> <Gold.Chemscore.DEInternal.Weighted>
0.4694

> <Gold.Chemscore.Rot.Weighted>
3.3825

> <Gold.Chemscore.Internal.Correction.Weighted>
   9.000000E+99

> <Gold.Protein.RotatedTorsions>
[ 6907 6896 6895 6894 ] final -131.53 input  -60.11 | X-H torsion
[ 7974 7965 7964 7962 ] final   19.96 input  175.53 | X-H torsion
[ 8008 7997 7996 7995 ] final  169.59 input   59.86 | X-H torsion
[ 10167 10162 10161 10158 ] final  100.70 input  -65.29 | X-H torsion
[ 10718 10713 10712 10709 ] final -133.37 input   66.30 | X-H torsion
[ 10763 10752 10751 10750 ] final   52.17 input  -60.55 | X-H torsion
[ 11005 11000 10999 10996 ] final   87.74 input  -57.11 | X-H torsion

> <Gold.Protein.ActiveResidues>
 VAL166  LYS551  ARG553  GLY616  TRP617  ASP618  TYR619  PRO620  LYS621  CYS622 
 ASP623  PHE694  ASN695  SER759  ASP760  ASP761  ALA762  ILE779  LEU786  VAL792 
 PHE793  MET794  SER795  GLU796  ALA797  LYS798  CYS799  TRP800  GLU811  SER814 

> <Gold.Protein.RotatedAtoms>
  150.9520  133.6538  159.2769 H   0  0  0  0  0  0  0  0  0  0  0  0  # atno 6907 bound_to 6896
  151.3891  135.0952  159.9530 H   0  0  0  0  0  0  0  0  0  0  0  0  # atno 6908 bound_to 6896
  152.5114  133.9039  159.7509 H   0  0  0  0  0  0  0  0  0  0  0  0  # atno 6909 bound_to 6896
  146.2130  139.8239  142.8674 H   0  0  0  0  0  0  0  0  0  0  0  0  # atno 7974 bound_to 7965
  156.1443  140.1560  156.8871 H   0  0  0  0  0  0  0  0  0  0  0  0  # atno 8008 bound_to 7997
  154.5015  140.0824  156.7845 H   0  0  0  0  0  0  0  0  0  0  0  0  # atno 8009 bound_to 7997
  155.4018  140.3415  155.4260 H   0  0  0  0  0  0  0  0  0  0  0  0  # atno 8010 bound_to 7997
  139.7503  144.6986  151.0442 H   0  0  0  0  0  0  0  0  0  0  0  0  # atno 10167 bound_to 10162
  156.2442  130.7114  151.0988 H   0  0  0  0  0  0  0  0  0  0  0  0  # atno 10718 bound_to 10713
  152.9788  135.5821  154.4535 H   0  0  0  0  0  0  0  0  0  0  0  0  # atno 10763 bound_to 10752
  154.4121  135.2770  155.2032 H   0  0  0  0  0  0  0  0  0  0  0  0  # atno 10764 bound_to 10752
  154.3817  135.6145  153.5849 H   0  0  0  0  0  0  0  0  0  0  0  0  # atno 10765 bound_to 10752
  139.8912  134.8442  156.2902 H   0  0  0  0  0  0  0  0  0  0  0  0  # atno 11005 bound_to 11000
  145.3068  141.0209  143.3577 LP  0  0  0  0  0  0  0  0  0  0  0  0  # atno 17320 bound_to 7965
  144.8965  139.4705  143.6653 LP  0  0  0  0  0  0  0  0  0  0  0  0  # atno 17321 bound_to 7965
  140.7797  143.4817  151.0010 LP  0  0  0  0  0  0  0  0  0  0  0  0  # atno 17342 bound_to 10162
  139.8504  143.7445  152.3178 LP  0  0  0  0  0  0  0  0  0  0  0  0  # atno 17343 bound_to 10162
  157.7188  131.0694  150.6220 LP  0  0  0  0  0  0  0  0  0  0  0  0  # atno 17370 bound_to 10713
  156.6295  130.4428  149.5792 LP  0  0  0  0  0  0  0  0  0  0  0  0  # atno 17371 bound_to 10713
  140.9981  133.7168  156.0917 LP  0  0  0  0  0  0  0  0  0  0  0  0  # atno 17394 bound_to 11000
  140.7535  134.4019  157.5537 LP  0  0  0  0  0  0  0  0  0  0  0  0  # atno 17395 bound_to 11000

$$$$
