AV-unprocessed.smi:2146|AV-procd|sdf|8739|dock1
  -GOLD-   2272011513D 1   1.00000     0.00000
 Structure written by MMmdl.
 44 45  0  0  0  0  0  0  0  0  1 V2000
  147.3605  129.7385  162.0990 C   0  0  0  0  0  0  0  0  0  0  0  0
  148.5952  129.9829  161.1931 C   0  0  1  0  0  0  0  0  0  0  0  0
  148.4725  131.3803  160.5198 C   0  0  0  0  0  0  0  0  0  0  0  0
  148.2487  132.4618  161.4765 N   0  0  0  0  0  0  0  0  0  0  0  0
  147.2498  133.3566  161.4248 C   0  0  0  0  0  0  0  0  0  0  0  0
  146.3754  133.3437  160.5575 O   0  0  0  0  0  0  0  0  0  0  0  0
  147.2517  134.4269  162.5251 C   0  0  0  0  0  0  0  0  0  0  0  0
  146.1511  135.3938  162.3826 N   0  0  0  0  0  0  0  0  0  0  0  0
  144.8486  134.9018  162.5958 C   0  0  0  0  0  0  0  0  0  0  0  0
  143.7489  135.6737  162.5089 C   0  0  0  0  0  0  0  0  0  0  0  0
  142.3644  135.1243  162.8143 C   0  0  0  0  0  0  0  0  0  0  0  0
  142.0235  134.1692  161.9489 F   0  0  0  0  0  0  0  0  0  0  0  0
  142.3445  134.6017  164.0396 F   0  0  0  0  0  0  0  0  0  0  0  0
  141.4435  136.0874  162.7597 F   0  0  0  0  0  0  0  0  0  0  0  0
  143.9674  137.0746  162.2057 C   0  0  0  0  0  0  0  0  0  0  0  0
  145.2079  137.5645  162.0128 C   0  0  0  0  0  0  0  0  0  0  0  0
  146.3933  136.7084  162.0980 C   0  0  0  0  0  0  0  0  0  0  0  0
  147.5309  137.1470  161.9276 O   0  0  0  0  0  0  0  0  0  0  0  0
  149.8779  129.7961  161.9125 N   0  0  0  0  0  0  0  0  0  0  0  0
  151.0464  130.0622  161.0647 C   0  0  0  0  0  0  0  0  0  0  0  0
  152.3802  129.8955  161.8133 C   0  0  0  0  0  0  0  0  0  0  0  0
  152.4001  130.7455  162.9513 O   0  0  0  0  0  0  0  0  0  0  0  0
  151.3297  130.4649  163.8421 C   0  0  0  0  0  0  0  0  0  0  0  0
  149.9872  130.6369  163.1104 C   0  0  0  0  0  0  0  0  0  0  0  0
  146.4205  129.8791  161.5672 H   0  0  0  0  0  0  0  0  0  0  0  0
  147.3588  130.4152  162.9540 H   0  0  0  0  0  0  0  0  0  0  0  0
  147.3131  128.7180  162.4755 H   0  0  0  0  0  0  0  0  0  0  0  0
  148.5493  129.2420  160.3931 H   0  0  0  0  0  0  0  0  0  0  0  0
  149.3464  131.5733  159.8954 H   0  0  0  0  0  0  0  0  0  0  0  0
  147.6097  131.4208  159.8573 H   0  0  0  0  0  0  0  0  0  0  0  0
  148.9182  132.5462  162.2278 H   0  0  0  0  0  0  0  0  0  0  0  0
  147.2236  133.9281  163.4951 H   0  0  0  0  0  0  0  0  0  0  0  0
  148.2050  134.9586  162.5068 H   0  0  0  0  0  0  0  0  0  0  0  0
  144.8036  133.8526  162.8510 H   0  0  0  0  0  0  0  0  0  0  0  0
  143.1227  137.7431  162.1298 H   0  0  0  0  0  0  0  0  0  0  0  0
  145.3333  138.6139  161.7892 H   0  0  0  0  0  0  0  0  0  0  0  0
  151.0729  129.3776  160.2191 H   0  0  0  0  0  0  0  0  0  0  0  0
  150.9848  131.0715  160.6551 H   0  0  0  0  0  0  0  0  0  0  0  0
  152.5238  128.8583  162.1204 H   0  0  0  0  0  0  0  0  0  0  0  0
  153.2151  130.1543  161.1619 H   0  0  0  0  0  0  0  0  0  0  0  0
  151.4289  129.4519  164.2354 H   0  0  0  0  0  0  0  0  0  0  0  0
  151.3872  131.1449  164.6921 H   0  0  0  0  0  0  0  0  0  0  0  0
  149.8536  131.6855  162.8403 H   0  0  0  0  0  0  0  0  0  0  0  0
  149.2057  130.3905  163.8265 H   0  0  0  0  0  0  0  0  0  0  0  0
  1  2  1  0  0  0  0
  1 25  1  0  0  0  0
  1 26  1  0  0  0  0
  1 27  1  0  0  0  0
  2  3  1  0  0  0  0
  2 19  1  0  0  0  0
  2 28  1  0  0  0  0
  3  4  1  0  0  0  0
  3 29  1  0  0  0  0
  3 30  1  0  0  0  0
  4  5  1  0  0  0  0
  4 31  1  0  0  0  0
  5  6  2  0  0  0  0
  5  7  1  0  0  0  0
  7  8  1  0  0  0  0
  7 32  1  0  0  0  0
  7 33  1  0  0  0  0
  8 17  1  0  0  0  0
  8  9  1  0  0  0  0
  9 10  2  0  0  0  0
  9 34  1  0  0  0  0
 10 11  1  0  0  0  0
 10 15  1  0  0  0  0
 11 12  1  0  0  0  0
 11 13  1  0  0  0  0
 11 14  1  0  0  0  0
 15 16  2  0  0  0  0
 15 35  1  0  0  0  0
 16 17  1  0  0  0  0
 16 36  1  0  0  0  0
 17 18  2  0  0  0  0
 19 24  1  0  0  0  0
 19 20  1  0  0  0  0
 20 21  1  0  0  0  0
 20 37  1  0  0  0  0
 20 38  1  0  0  0  0
 21 22  1  0  0  0  0
 21 39  1  0  0  0  0
 21 40  1  0  0  0  0
 22 23  1  0  0  0  0
 23 24  1  0  0  0  0
 23 41  1  0  0  0  0
 23 42  1  0  0  0  0
 24 43  1  0  0  0  0
 24 44  1  0  0  0  0
M  END
> <s_m_source_file>
AV-unprocessed.smi

> <i_m_source_file_index>
2146

> <i_lp_mmshare_version>
43012

> <i_f3d_flags>
0

> <s_epik_input>
W0NIMl0xW0NIMl1PW0NIMl1bQ0gyXU4xW0NASF0oW0NIM10pW0NIMl1bTkhdQyg9TylbQ0gyXW4yW2NIXWMoQyhGKShGKUYpW2NIXVtjSF1jMj1P

> <s_epik_cmdline>
J2VwaWtfcHl0aG9uJywgJy1waCcsICc3LjAnLCAnLXRuJywgJzgnLCAnLW1hJywgJzIwMCcsICctbWV0YWxfYmluZGluZycsICctaW1hZScsICc8aW5maWxlLm1hZT4nLCAnLW9tYWUnLCAnPG91dGZpbGUubWFlPic=

> <r_lp_tautomer_probability>
1

> <r_epik_Ionization_Penalty>
0.237382

> <r_epik_Ionization_Penalty_Charging>
1.80451e-08

> <r_epik_Ionization_Penalty_Neutral>
0.237382

> <r_epik_State_Penalty>
0.228245

> <r_epik_Charging_Adjusted_Penalty>
0.228245

> <i_epik_Tot_Q>
0

> <i_epik_Tot_abs_Q>
0

> <r_epik_Metal_State_Penalty>
0.22822

> <b_epik_Metal_Only>
0

> <s_lp_Force_Field>
OPLS_2005

> <r_lp_Energy>
40.9895

> <b_lp_Chiralities_Consistent>
1

> <s_lp_Variant>
AV-unprocessed.smi:2146-2

> <Gold.Version>
5.8.1

> <Gold.Id.Protein>
6NUR|6NUR_protein|mol2

> <Gold.PLP.Fitness>
43.8910

> <Gold.PLP.PLP>
-40.0240

> <Gold.PLP.part.hbond>
-2.0000

> <Gold.PLP.part.metal>
0.0000

> <Gold.PLP.part.buried>
-3.4726

> <Gold.PLP.part.nonpolar>
-33.8416

> <Gold.PLP.part.repulsive>
0.0747

> <Gold.PLP.ligand.clash>
0.0000

> <Gold.PLP.ligand.torsion>
0.1877

> <Gold.PLP.Chemscore.Hbond>
1.3808

> <Gold.PLP.Chemscore.CHOScore>
0.0000

> <Gold.PLP.Chemscore.Metal>
0.0000

> <Gold.Chemscore.Hbonds>
donor molecule, donor type, donor heavy atom, donor atom, acceptor molecule, acceptor atom, score
      P1  H  6931  6943       L1    18  0.98
      P1  H  6934  6947       L1    18  0.50

> <Gold.PLP.Chemscore.Internal.Correction>
0.1000

> <Gold.Rescore>
     Score         DG    S(hbond)    S(metal)    S(lipo)     H(rot)  DE(clash)    DE(int)     intcor
     11.36     -12.70       1.43        0.00      66.87       2.10       0.16       1.17       ----

> <Gold.Chemscore.Fitness>
11.3646

> <Gold.Chemscore.DG>
-12.6958

> <Gold.Chemscore.ZeroCoef>
-5.4800

> <Gold.Chemscore.Hbond>
1.4305

> <Gold.Chemscore.Metal>
0.0000

> <Gold.Chemscore.Lipo>
66.8723

> <Gold.Chemscore.Internal_Hbond>
0.0000

> <Gold.Chemscore.DEClash>
0.1646

> <Gold.Chemscore.DEInternal>
1.1666

> <Gold.Chemscore.Rot>
2.1039

> <Gold.Chemscore.Internal.Correction>
   9.000000E+99

> <Gold.Chemscore.Hbonds>
donor molecule, donor type, donor heavy atom, donor atom, acceptor molecule, acceptor atom, score
      P1  H  6931  6943       L1    18  0.93
      P1  H  6934  6947       L1    18  0.20

> <Gold.Chemscore.Hbond.Weighted>
-4.7777

> <Gold.Chemscore.Metal.Weighted>
-0.0000

> <Gold.Chemscore.Lipo.Weighted>
-7.8241

> <Gold.Chemscore.Internal_Hbond.Weighted>
0.0000

> <Gold.Chemscore.DEClash.Weighted>
0.1646

> <Gold.Chemscore.DEInternal.Weighted>
1.1666

> <Gold.Chemscore.Rot.Weighted>
5.3860

> <Gold.Chemscore.Internal.Correction.Weighted>
   9.000000E+99

> <Gold.Protein.RotatedTorsions>
[ 6907 6896 6895 6894 ] final   17.44 input  -60.11 | X-H torsion
[ 7974 7965 7964 7962 ] final   50.14 input  175.53 | X-H torsion
[ 8008 7997 7996 7995 ] final -141.61 input   59.86 | X-H torsion
[ 10167 10162 10161 10158 ] final -137.76 input  -65.29 | X-H torsion
[ 10718 10713 10712 10709 ] final  141.18 input   66.30 | X-H torsion
[ 10763 10752 10751 10750 ] final  -50.79 input  -60.55 | X-H torsion
[ 11005 11000 10999 10996 ] final   46.31 input  -57.11 | X-H torsion

> <Gold.Protein.ActiveResidues>
 VAL166  LYS551  ARG553  GLY616  TRP617  ASP618  TYR619  PRO620  LYS621  CYS622 
 ASP623  PHE694  ASN695  SER759  ASP760  ASP761  ALA762  ILE779  LEU786  VAL792 
 PHE793  MET794  SER795  GLU796  ALA797  LYS798  CYS799  TRP800  GLU811  SER814 

> <Gold.Protein.RotatedAtoms>
  151.8497  135.0562  160.0457 H   0  0  0  0  0  0  0  0  0  0  0  0  # atno 6907 bound_to 6896
  152.2746  133.5409  159.5468 H   0  0  0  0  0  0  0  0  0  0  0  0  # atno 6908 bound_to 6896
  150.7165  134.0566  159.3859 H   0  0  0  0  0  0  0  0  0  0  0  0  # atno 6909 bound_to 6896
  146.0041  139.4470  142.9997 H   0  0  0  0  0  0  0  0  0  0  0  0  # atno 7974 bound_to 7965
  155.4807  140.0560  157.2967 H   0  0  0  0  0  0  0  0  0  0  0  0  # atno 8008 bound_to 7997
  154.4662  140.2019  156.0066 H   0  0  0  0  0  0  0  0  0  0  0  0  # atno 8009 bound_to 7997
  156.0977  140.3224  155.7905 H   0  0  0  0  0  0  0  0  0  0  0  0  # atno 8010 bound_to 7997
  139.8545  143.7156  152.2655 H   0  0  0  0  0  0  0  0  0  0  0  0  # atno 10167 bound_to 10162
  157.3949  131.1009  151.0609 H   0  0  0  0  0  0  0  0  0  0  0  0  # atno 10718 bound_to 10713
  154.1161  135.6542  153.4894 H   0  0  0  0  0  0  0  0  0  0  0  0  # atno 10763 bound_to 10752
  153.0240  135.5259  154.7143 H   0  0  0  0  0  0  0  0  0  0  0  0  # atno 10764 bound_to 10752
  154.6337  135.2979  155.0156 H   0  0  0  0  0  0  0  0  0  0  0  0  # atno 10765 bound_to 10752
  140.1381  134.4619  155.8470 H   0  0  0  0  0  0  0  0  0  0  0  0  # atno 11005 bound_to 11000
  145.7443  140.9996  143.1284 LP  0  0  0  0  0  0  0  0  0  0  0  0  # atno 17320 bound_to 7965
  144.6929  139.9137  143.7464 LP  0  0  0  0  0  0  0  0  0  0  0  0  # atno 17321 bound_to 7965
  139.7433  144.7554  151.0619 LP  0  0  0  0  0  0  0  0  0  0  0  0  # atno 17342 bound_to 10162
  140.7783  143.4946  150.9848 LP  0  0  0  0  0  0  0  0  0  0  0  0  # atno 17343 bound_to 10162
  157.1629  130.6233  149.5616 LP  0  0  0  0  0  0  0  0  0  0  0  0  # atno 17370 bound_to 10713
  155.9808  130.4811  150.6792 LP  0  0  0  0  0  0  0  0  0  0  0  0  # atno 17371 bound_to 10713
  141.2181  133.6822  156.7195 LP  0  0  0  0  0  0  0  0  0  0  0  0  # atno 17394 bound_to 11000
  140.2757  134.8357  157.3888 LP  0  0  0  0  0  0  0  0  0  0  0  0  # atno 17395 bound_to 11000

$$$$
