AV-unprocessed.smi:1621|AV-procd|sdf|6493|dock3
  -GOLD-   22720 7153D 1   1.00000     0.00000
 Structure written by MMmdl.
 39 40  0  0  0  0  0  0  0  0  2 V2000
  143.9394  138.0573  154.6625 C   0  0  0  0  0  0  0  0  0  0  0  0
  145.0997  138.9032  154.3097 N   0  3  2  0  0  0  0  0  0  0  0  0
  146.2977  138.1006  153.9604 C   0  0  0  0  0  0  0  0  0  0  0  0
  147.4495  139.0016  153.4844 C   0  0  0  0  0  0  0  0  0  0  0  0
  147.8018  140.0679  154.5411 C   0  0  1  0  0  0  0  0  0  0  0  0
  148.9319  141.0140  154.0824 C   0  0  0  0  0  0  0  0  0  0  0  0
  149.3118  141.9787  155.1101 N   0  0  0  0  0  0  0  0  0  0  0  0
  150.2837  141.7973  156.0163 C   0  0  0  0  0  0  0  0  0  0  0  0
  150.9748  140.7805  156.0681 O   0  0  0  0  0  0  0  0  0  0  0  0
  150.3811  142.8563  156.8398 N   0  0  0  0  0  0  0  0  0  0  0  0
  151.2572  143.0674  157.9410 C   0  0  0  0  0  0  0  0  0  0  0  0
  151.8647  141.9300  158.5131 C   0  0  0  0  0  0  0  0  0  0  0  0
  152.7315  142.0996  159.6111 C   0  0  0  0  0  0  0  0  0  0  0  0
  153.0108  143.3019  160.1560 N   0  0  0  0  0  0  0  0  0  0  0  0
  152.4213  144.3888  159.6151 C   0  0  0  0  0  0  0  0  0  0  0  0
  151.5395  144.3301  158.5171 C   0  0  0  0  0  0  0  0  0  0  0  0
  146.5292  140.8559  154.8999 C   0  0  0  0  0  0  0  0  0  0  0  0
  145.3960  139.9186  155.3501 C   0  0  0  0  0  0  0  0  0  0  0  0
  144.1419  137.4689  155.5583 H   0  0  0  0  0  0  0  0  0  0  0  0
  143.7015  137.3716  153.8487 H   0  0  0  0  0  0  0  0  0  0  0  0
  143.0572  138.6710  154.8475 H   0  0  0  0  0  0  0  0  0  0  0  0
  146.6117  137.5156  154.8265 H   0  0  0  0  0  0  0  0  0  0  0  0
  146.0436  137.3901  153.1726 H   0  0  0  0  0  0  0  0  0  0  0  0
  148.3193  138.3825  153.2630 H   0  0  0  0  0  0  0  0  0  0  0  0
  147.1696  139.4871  152.5483 H   0  0  0  0  0  0  0  0  0  0  0  0
  148.1361  139.5527  155.4432 H   0  0  0  0  0  0  0  0  0  0  0  0
  149.8187  140.4363  153.8197 H   0  0  0  0  0  0  0  0  0  0  0  0
  148.6362  141.5460  153.1766 H   0  0  0  0  0  0  0  0  0  0  0  0
  148.7879  142.8412  155.1401 H   0  0  0  0  0  0  0  0  0  0  0  0
  149.7065  143.5914  156.6880 H   0  0  0  0  0  0  0  0  0  0  0  0
  151.6761  140.9420  158.1191 H   0  0  0  0  0  0  0  0  0  0  0  0
  153.2119  141.2453  160.0647 H   0  0  0  0  0  0  0  0  0  0  0  0
  152.6559  145.3372  160.0753 H   0  0  0  0  0  0  0  0  0  0  0  0
  151.1005  145.2461  158.1555 H   0  0  0  0  0  0  0  0  0  0  0  0
  146.7449  141.5732  155.6926 H   0  0  0  0  0  0  0  0  0  0  0  0
  146.1990  141.4391  154.0390 H   0  0  0  0  0  0  0  0  0  0  0  0
  144.4989  140.5051  155.5534 H   0  0  0  0  0  0  0  0  0  0  0  0
  145.6677  139.4204  156.2821 H   0  0  0  0  0  0  0  0  0  0  0  0
  144.8406  139.4122  153.4766 H   0  0  0  0  0  0  0  0  0  0  0  0
  1  2  1  0  0  0  0
  1 19  1  0  0  0  0
  1 20  1  0  0  0  0
  1 21  1  0  0  0  0
  2 18  1  0  0  0  0
  2  3  1  0  0  0  0
  2 39  1  0  0  0  0
  3  4  1  0  0  0  0
  3 22  1  0  0  0  0
  3 23  1  0  0  0  0
  4  5  1  0  0  0  0
  4 24  1  0  0  0  0
  4 25  1  0  0  0  0
  5  6  1  0  0  0  0
  5 17  1  0  0  0  0
  5 26  1  0  0  0  0
  6  7  1  0  0  0  0
  6 27  1  0  0  0  0
  6 28  1  0  0  0  0
  7  8  1  0  0  0  0
  7 29  1  0  0  0  0
  8  9  2  0  0  0  0
  8 10  1  0  0  0  0
 10 11  1  0  0  0  0
 10 30  1  0  0  0  0
 11 16  1  0  0  0  0
 11 12  2  0  0  0  0
 12 13  1  0  0  0  0
 12 31  1  0  0  0  0
 13 14  2  0  0  0  0
 13 32  1  0  0  0  0
 14 15  1  0  0  0  0
 15 16  2  0  0  0  0
 15 33  1  0  0  0  0
 16 34  1  0  0  0  0
 17 18  1  0  0  0  0
 17 35  1  0  0  0  0
 17 36  1  0  0  0  0
 18 37  1  0  0  0  0
 18 38  1  0  0  0  0
M  CHG  1   2   1
M  END
> <s_m_source_file>
AV-unprocessed.smi

> <i_m_source_file_index>
1621

> <i_lp_mmshare_version>
43012

> <i_f3d_flags>
0

> <s_epik_input>
W0NIM11OMVtDSDJdW0NIMl1bQ0hdKFtDSDJdW0NIMl0xKVtDSDJdW05IXUMoPU8pW05IXWMyW2NIXVtjSF1uW2NIXVtjSF0y

> <s_epik_cmdline>
J2VwaWtfcHl0aG9uJywgJy1waCcsICc3LjAnLCAnLXRuJywgJzgnLCAnLW1hJywgJzIwMCcsICctbWV0YWxfYmluZGluZycsICctaW1hZScsICc8aW5maWxlLm1hZT4nLCAnLW9tYWUnLCAnPG91dGZpbGUubWFlPic=

> <r_epik_Ionization_Penalty>
0.107254

> <r_epik_Ionization_Penalty_Charging>
0.00106265

> <r_epik_Ionization_Penalty_Neutral>
0.106191

> <r_epik_State_Penalty>
0.0960133

> <r_epik_Charging_Adjusted_Penalty>
0.0970759

> <i_epik_Tot_Q>
1

> <i_epik_Tot_abs_Q>
1

> <r_epik_Metal_State_Penalty>
0.0813061

> <b_epik_Metal_Only>
0

> <s_lp_Force_Field>
OPLS_2005

> <r_lp_Energy>
22.3351

> <b_lp_Chiralities_Consistent>
1

> <s_lp_Variant>
AV-unprocessed.smi:1621-1

> <Gold.Version>
5.8.1

> <Gold.Id.Protein>
6NUR|6NUR_protein|mol2

> <Gold.PLP.Fitness>
43.1219

> <Gold.PLP.PLP>
-31.9618

> <Gold.PLP.part.hbond>
-3.0000

> <Gold.PLP.part.metal>
0.0000

> <Gold.PLP.part.buried>
-4.7632

> <Gold.PLP.part.nonpolar>
-24.5805

> <Gold.PLP.part.repulsive>
0.2635

> <Gold.PLP.ligand.clash>
0.0000

> <Gold.PLP.ligand.torsion>
0.2658

> <Gold.PLP.Chemscore.Hbond>
3.8960

> <Gold.PLP.Chemscore.CHOScore>
0.0000

> <Gold.PLP.Chemscore.Metal>
0.0000

> <Gold.Chemscore.Hbonds>
donor molecule, donor type, donor heavy atom, donor atom, acceptor molecule, acceptor atom, score
      L1  H     2    39       P1 10175  2.00
      L1  H     7    29       P1  8028  0.90
      L1  H    10    30       P1  8028  1.00

> <Gold.PLP.Chemscore.Internal.Correction>
0.0036

> <Gold.Rescore>
     Score         DG    S(hbond)    S(metal)    S(lipo)     H(rot)  DE(clash)    DE(int)     intcor
     20.20     -21.81       2.96        0.00      82.39       1.25       0.00       1.61       ----

> <Gold.Chemscore.Fitness>
20.2024

> <Gold.Chemscore.DG>
-21.8096

> <Gold.Chemscore.ZeroCoef>
-5.4800

> <Gold.Chemscore.Hbond>
2.9598

> <Gold.Chemscore.Metal>
0.0000

> <Gold.Chemscore.Lipo>
82.3874

> <Gold.Chemscore.Internal_Hbond>
0.0000

> <Gold.Chemscore.DEClash>
0.0000

> <Gold.Chemscore.DEInternal>
1.6072

> <Gold.Chemscore.Rot>
1.2482

> <Gold.Chemscore.Internal.Correction>
   9.000000E+99

> <Gold.Chemscore.Hbonds>
donor molecule, donor type, donor heavy atom, donor atom, acceptor molecule, acceptor atom, score
      L1  H     2    39       P1 10175  0.96
      L1  H     7    29       P1  8028  0.87
      L1  H    10    30       P1  8028  0.96

> <Gold.Chemscore.Hbond.Weighted>
-9.8857

> <Gold.Chemscore.Metal.Weighted>
-0.0000

> <Gold.Chemscore.Lipo.Weighted>
-9.6393

> <Gold.Chemscore.Internal_Hbond.Weighted>
0.0000

> <Gold.Chemscore.DEClash.Weighted>
0.0000

> <Gold.Chemscore.DEInternal.Weighted>
1.6072

> <Gold.Chemscore.Rot.Weighted>
3.1954

> <Gold.Chemscore.Internal.Correction.Weighted>
   9.000000E+99

> <Gold.Protein.RotatedTorsions>
[ 6907 6896 6895 6894 ] final -154.57 input  -60.11 | X-H torsion
[ 7974 7965 7964 7962 ] final  140.62 input  175.53 | X-H torsion
[ 8008 7997 7996 7995 ] final -112.44 input   59.86 | X-H torsion
[ 10167 10162 10161 10158 ] final  -64.58 input  -65.29 | X-H torsion
[ 10718 10713 10712 10709 ] final  121.17 input   66.30 | X-H torsion
[ 10763 10752 10751 10750 ] final -141.61 input  -60.55 | X-H torsion
[ 11005 11000 10999 10996 ] final   10.07 input  -57.11 | X-H torsion

> <Gold.Protein.ActiveResidues>
 VAL166  LYS551  ARG553  GLY616  TRP617  ASP618  TYR619  PRO620  LYS621  CYS622 
 ASP623  PHE694  ASN695  SER759  ASP760  ASP761  ALA762  ILE779  LEU786  VAL792 
 PHE793  MET794  SER795  GLU796  ALA797  LYS798  CYS799  TRP800  GLU811  SER814 

> <Gold.Protein.RotatedAtoms>
  151.2595  133.4309  159.2615 H   0  0  0  0  0  0  0  0  0  0  0  0  # atno 6907 bound_to 6896
  151.0544  134.9695  159.8238 H   0  0  0  0  0  0  0  0  0  0  0  0  # atno 6908 bound_to 6896
  152.5388  134.2548  159.8965 H   0  0  0  0  0  0  0  0  0  0  0  0  # atno 6909 bound_to 6896
  144.9170  139.5217  143.5681 H   0  0  0  0  0  0  0  0  0  0  0  0  # atno 7974 bound_to 7965
  155.0053  140.0394  157.2377 H   0  0  0  0  0  0  0  0  0  0  0  0  # atno 8008 bound_to 7997
  154.7507  140.2766  155.6271 H   0  0  0  0  0  0  0  0  0  0  0  0  # atno 8009 bound_to 7997
  156.2884  140.2647  156.2260 H   0  0  0  0  0  0  0  0  0  0  0  0  # atno 8010 bound_to 7997
  140.5791  143.2325  151.6380 H   0  0  0  0  0  0  0  0  0  0  0  0  # atno 10167 bound_to 10162
  157.5837  131.1072  150.8136 H   0  0  0  0  0  0  0  0  0  0  0  0  # atno 10718 bound_to 10713
  154.8539  135.3519  154.5895 H   0  0  0  0  0  0  0  0  0  0  0  0  # atno 10763 bound_to 10752
  153.6505  135.6994  153.5215 H   0  0  0  0  0  0  0  0  0  0  0  0  # atno 10764 bound_to 10752
  153.2898  135.4238  155.1114 H   0  0  0  0  0  0  0  0  0  0  0  0  # atno 10765 bound_to 10752
  140.5187  134.0581  155.7838 H   0  0  0  0  0  0  0  0  0  0  0  0  # atno 11005 bound_to 11000
  146.3186  139.8020  142.8963 LP  0  0  0  0  0  0  0  0  0  0  0  0  # atno 17320 bound_to 7965
  145.3359  141.0277  143.3420 LP  0  0  0  0  0  0  0  0  0  0  0  0  # atno 17321 bound_to 7965
  139.5159  144.3363  152.0781 LP  0  0  0  0  0  0  0  0  0  0  0  0  # atno 17342 bound_to 10162
  140.2510  144.4169  150.6222 LP  0  0  0  0  0  0  0  0  0  0  0  0  # atno 17343 bound_to 10162
  156.8575  130.5102  149.5306 LP  0  0  0  0  0  0  0  0  0  0  0  0  # atno 17370 bound_to 10713
  156.0885  130.5877  150.9691 LP  0  0  0  0  0  0  0  0  0  0  0  0  # atno 17371 bound_to 10713
  141.1346  133.9243  157.2461 LP  0  0  0  0  0  0  0  0  0  0  0  0  # atno 17394 bound_to 11000
  139.9618  135.0152  156.9281 LP  0  0  0  0  0  0  0  0  0  0  0  0  # atno 17395 bound_to 11000

$$$$
