AV-unprocessed.smi:1506|AV-procd|sdf|6076|dock5
  -GOLD-   22720 6193D 1   1.00000     0.00000
 Structure written by MMmdl.
 39 41  0  0  0  0  0  0  0  0  1 V2000
  150.5964  144.7900  160.4760 C   0  0  0  0  0  0  0  0  0  0  0  0
  151.3403  143.4967  160.2136 C   0  0  0  0  0  0  0  0  0  0  0  0
  152.1969  142.9567  161.1933 C   0  0  0  0  0  0  0  0  0  0  0  0
  152.8835  141.7548  160.9400 C   0  0  0  0  0  0  0  0  0  0  0  0
  152.7192  141.0904  159.7092 C   0  0  0  0  0  0  0  0  0  0  0  0
  151.8638  141.6265  158.7136 C   0  0  0  0  0  0  0  0  0  0  0  0
  151.6489  141.0473  157.4816 O   0  0  0  0  0  0  0  0  0  0  0  0
  150.4219  141.3149  156.8132 C   0  0  0  0  0  0  0  0  0  0  0  0
  150.1071  140.1858  155.8177 C   0  0  2  0  0  0  0  0  0  0  0  0
  151.1742  140.0685  154.8970 O   0  0  0  0  0  0  0  0  0  0  0  0
  148.7534  140.3478  155.0979 C   0  0  0  0  0  0  0  0  0  0  0  0
  147.6284  140.0518  155.9667 N   0  0  0  0  0  0  0  0  0  0  0  0
  147.6357  139.2751  157.0671 C   0  0  0  0  0  0  0  0  0  0  0  0
  146.4856  139.1315  157.7193 N   0  0  0  0  0  0  0  0  0  0  0  0
  145.6311  139.9067  156.9537 C   0  0  0  0  0  0  0  0  0  0  0  0
  144.2520  140.1758  157.1057 C   0  0  0  0  0  0  0  0  0  0  0  0
  143.5804  141.0069  156.1848 C   0  0  0  0  0  0  0  0  0  0  0  0
  144.2752  141.5804  155.1001 C   0  0  0  0  0  0  0  0  0  0  0  0
  145.6495  141.3266  154.9277 C   0  0  0  0  0  0  0  0  0  0  0  0
  146.3160  140.4975  155.8491 C   0  0  0  0  0  0  0  0  0  0  0  0
  151.1801  142.8304  158.9815 C   0  0  0  0  0  0  0  0  0  0  0  0
  150.5966  145.0381  161.5379 H   0  0  0  0  0  0  0  0  0  0  0  0
  149.5597  144.7076  160.1485 H   0  0  0  0  0  0  0  0  0  0  0  0
  151.0648  145.6106  159.9321 H   0  0  0  0  0  0  0  0  0  0  0  0
  152.3305  143.4599  162.1398 H   0  0  0  0  0  0  0  0  0  0  0  0
  153.5391  141.3406  161.6917 H   0  0  0  0  0  0  0  0  0  0  0  0
  153.2621  140.1709  159.5533 H   0  0  0  0  0  0  0  0  0  0  0  0
  149.6006  141.4269  157.5233 H   0  0  0  0  0  0  0  0  0  0  0  0
  150.5172  142.2535  156.2651 H   0  0  0  0  0  0  0  0  0  0  0  0
  150.0893  139.2491  156.3764 H   0  0  0  0  0  0  0  0  0  0  0  0
  151.8318  139.5021  155.2712 H   0  0  0  0  0  0  0  0  0  0  0  0
  148.6442  141.3685  154.7290 H   0  0  0  0  0  0  0  0  0  0  0  0
  148.6959  139.6945  154.2264 H   0  0  0  0  0  0  0  0  0  0  0  0
  148.5364  138.7845  157.4062 H   0  0  0  0  0  0  0  0  0  0  0  0
  143.7091  139.7416  157.9322 H   0  0  0  0  0  0  0  0  0  0  0  0
  142.5261  141.2048  156.3107 H   0  0  0  0  0  0  0  0  0  0  0  0
  143.7522  142.2146  154.3993 H   0  0  0  0  0  0  0  0  0  0  0  0
  146.1844  141.7617  154.0964 H   0  0  0  0  0  0  0  0  0  0  0  0
  150.5258  143.2473  158.2298 H   0  0  0  0  0  0  0  0  0  0  0  0
  1  2  1  0  0  0  0
  1 22  1  0  0  0  0
  1 23  1  0  0  0  0
  1 24  1  0  0  0  0
  2 21  1  0  0  0  0
  2  3  2  0  0  0  0
  3  4  1  0  0  0  0
  3 25  1  0  0  0  0
  4  5  2  0  0  0  0
  4 26  1  0  0  0  0
  5  6  1  0  0  0  0
  5 27  1  0  0  0  0
  6  7  1  0  0  0  0
  6 21  2  0  0  0  0
  7  8  1  0  0  0  0
  8  9  1  0  0  0  0
  8 28  1  0  0  0  0
  8 29  1  0  0  0  0
  9 10  1  0  0  0  0
  9 11  1  0  0  0  0
  9 30  1  0  0  0  0
 10 31  1  0  0  0  0
 11 12  1  0  0  0  0
 11 32  1  0  0  0  0
 11 33  1  0  0  0  0
 12 20  1  0  0  0  0
 12 13  1  0  0  0  0
 13 14  2  0  0  0  0
 13 34  1  0  0  0  0
 14 15  1  0  0  0  0
 15 20  2  0  0  0  0
 15 16  1  0  0  0  0
 16 17  2  0  0  0  0
 16 35  1  0  0  0  0
 17 18  1  0  0  0  0
 17 36  1  0  0  0  0
 18 19  2  0  0  0  0
 18 37  1  0  0  0  0
 19 20  1  0  0  0  0
 19 38  1  0  0  0  0
 21 39  1  0  0  0  0
M  END
> <s_m_source_file>
AV-unprocessed.smi

> <i_m_source_file_index>
1506

> <i_lp_mmshare_version>
43012

> <i_f3d_flags>
0

> <s_epik_input>
W0NIM11jMVtjSF1bY0hdW2NIXWMoW2NIXTEpT1tDSDJdW0NASF0oW09IXSlbQ0gyXW4oW2NIXW4yKWMoYzIzKVtjSF1bY0hdW2NIXVtjSF0z

> <s_epik_cmdline>
J2VwaWtfcHl0aG9uJywgJy1waCcsICc3LjAnLCAnLXRuJywgJzgnLCAnLW1hJywgJzIwMCcsICctbWV0YWxfYmluZGluZycsICctaW1hZScsICc8aW5maWxlLm1hZT4nLCAnLW9tYWUnLCAnPG91dGZpbGUubWFlPic=

> <r_lp_tautomer_probability>
1

> <r_epik_Ionization_Penalty>
0.0608485

> <r_epik_Ionization_Penalty_Charging>
0

> <r_epik_Ionization_Penalty_Neutral>
0.0608485

> <r_epik_State_Penalty>
0.0527778

> <r_epik_Charging_Adjusted_Penalty>
0.0527778

> <i_epik_Tot_Q>
0

> <i_epik_Tot_abs_Q>
0

> <r_epik_Metal_State_Penalty>
5.51973e-05

> <b_epik_Metal_Only>
0

> <s_lp_Force_Field>
OPLS_2005

> <r_lp_Energy>
16.3702

> <b_lp_Chiralities_Consistent>
1

> <s_lp_Variant>
AV-unprocessed.smi:1506-1

> <Gold.Version>
5.8.1

> <Gold.Id.Protein>
6NUR|6NUR_protein|mol2

> <Gold.PLP.Fitness>
50.5116

> <Gold.PLP.PLP>
-49.3302

> <Gold.PLP.part.hbond>
-1.0000

> <Gold.PLP.part.metal>
0.0000

> <Gold.PLP.part.buried>
-5.4937

> <Gold.PLP.part.nonpolar>
-42.7414

> <Gold.PLP.part.repulsive>
0.0397

> <Gold.PLP.ligand.clash>
0.0000

> <Gold.PLP.ligand.torsion>
0.9546

> <Gold.PLP.Chemscore.Hbond>
1.0000

> <Gold.PLP.Chemscore.CHOScore>
0.0000

> <Gold.PLP.Chemscore.Metal>
0.0000

> <Gold.Chemscore.Hbonds>
donor molecule, donor type, donor heavy atom, donor atom, acceptor molecule, acceptor atom, score
      P1  H  7989  7998       L1    10  1.00

> <Gold.PLP.Chemscore.Internal.Correction>
0.0906

> <Gold.Rescore>
     Score         DG    S(hbond)    S(metal)    S(lipo)     H(rot)  DE(clash)    DE(int)     intcor
     17.48     -18.17       0.95        0.00     129.12       2.19       0.23       0.46       ----

> <Gold.Chemscore.Fitness>
17.4761

> <Gold.Chemscore.DG>
-18.1690

> <Gold.Chemscore.ZeroCoef>
-5.4800

> <Gold.Chemscore.Hbond>
0.9529

> <Gold.Chemscore.Metal>
0.0000

> <Gold.Chemscore.Lipo>
129.1196

> <Gold.Chemscore.Internal_Hbond>
0.0000

> <Gold.Chemscore.DEClash>
0.2305

> <Gold.Chemscore.DEInternal>
0.4625

> <Gold.Chemscore.Rot>
2.1877

> <Gold.Chemscore.Internal.Correction>
   9.000000E+99

> <Gold.Chemscore.Hbonds>
donor molecule, donor type, donor heavy atom, donor atom, acceptor molecule, acceptor atom, score
      P1  H  7989  7998       L1    10  0.90

> <Gold.Chemscore.Hbond.Weighted>
-3.1825

> <Gold.Chemscore.Metal.Weighted>
-0.0000

> <Gold.Chemscore.Lipo.Weighted>
-15.1070

> <Gold.Chemscore.Internal_Hbond.Weighted>
0.0000

> <Gold.Chemscore.DEClash.Weighted>
0.2305

> <Gold.Chemscore.DEInternal.Weighted>
0.4625

> <Gold.Chemscore.Rot.Weighted>
5.6005

> <Gold.Chemscore.Internal.Correction.Weighted>
   9.000000E+99

> <Gold.Protein.RotatedTorsions>
[ 6907 6896 6895 6894 ] final  110.45 input  -60.11 | X-H torsion
[ 7974 7965 7964 7962 ] final  120.76 input  175.53 | X-H torsion
[ 8008 7997 7996 7995 ] final  -52.85 input   59.86 | X-H torsion
[ 10167 10162 10161 10158 ] final  144.61 input  -65.29 | X-H torsion
[ 10718 10713 10712 10709 ] final -103.34 input   66.30 | X-H torsion
[ 10763 10752 10751 10750 ] final   78.40 input  -60.55 | X-H torsion
[ 11005 11000 10999 10996 ] final   95.42 input  -57.11 | X-H torsion

> <Gold.Protein.ActiveResidues>
 VAL166  LYS551  ARG553  GLY616  TRP617  ASP618  TYR619  PRO620  LYS621  CYS622 
 ASP623  PHE694  ASN695  SER759  ASP760  ASP761  ALA762  ILE779  LEU786  VAL792 
 PHE793  MET794  SER795  GLU796  ALA797  LYS798  CYS799  TRP800  GLU811  SER814 

> <Gold.Protein.RotatedAtoms>
  152.5019  133.8799  159.7340 H   0  0  0  0  0  0  0  0  0  0  0  0  # atno 6907 bound_to 6896
  150.9264  133.6810  159.2827 H   0  0  0  0  0  0  0  0  0  0  0  0  # atno 6908 bound_to 6896
  151.4169  135.0997  159.9654 H   0  0  0  0  0  0  0  0  0  0  0  0  # atno 6909 bound_to 6896
  145.1274  139.3350  143.4683 H   0  0  0  0  0  0  0  0  0  0  0  0  # atno 7974 bound_to 7965
  154.4117  140.1214  156.5059 H   0  0  0  0  0  0  0  0  0  0  0  0  # atno 8008 bound_to 7997
  155.6848  140.3496  155.4850 H   0  0  0  0  0  0  0  0  0  0  0  0  # atno 8009 bound_to 7997
  155.9520  140.1106  157.0958 H   0  0  0  0  0  0  0  0  0  0  0  0  # atno 8010 bound_to 7997
  139.4943  144.5960  151.6582 H   0  0  0  0  0  0  0  0  0  0  0  0  # atno 10167 bound_to 10162
  156.0262  130.5462  150.7238 H   0  0  0  0  0  0  0  0  0  0  0  0  # atno 10718 bound_to 10713
  153.0871  135.4878  154.8618 H   0  0  0  0  0  0  0  0  0  0  0  0  # atno 10763 bound_to 10752
  154.7224  135.3042  154.9028 H   0  0  0  0  0  0  0  0  0  0  0  0  # atno 10764 bound_to 10752
  153.9688  135.6803  153.4799 H   0  0  0  0  0  0  0  0  0  0  0  0  # atno 10765 bound_to 10752
  139.8789  134.8898  156.4008 H   0  0  0  0  0  0  0  0  0  0  0  0  # atno 11005 bound_to 11000
  146.3516  140.1258  142.8599 LP  0  0  0  0  0  0  0  0  0  0  0  0  # atno 17320 bound_to 7965
  145.0673  140.9131  143.4903 LP  0  0  0  0  0  0  0  0  0  0  0  0  # atno 17321 bound_to 7965
  140.5598  144.0287  150.6164 LP  0  0  0  0  0  0  0  0  0  0  0  0  # atno 17342 bound_to 10162
  140.3369  143.3043  152.0628 LP  0  0  0  0  0  0  0  0  0  0  0  0  # atno 17343 bound_to 10162
  157.4847  131.0905  151.0495 LP  0  0  0  0  0  0  0  0  0  0  0  0  # atno 17370 bound_to 10713
  157.0919  130.5946  149.5441 LP  0  0  0  0  0  0  0  0  0  0  0  0  # atno 17371 bound_to 10713
  140.9268  133.7607  155.9975 LP  0  0  0  0  0  0  0  0  0  0  0  0  # atno 17394 bound_to 11000
  140.8376  134.3104  157.5325 LP  0  0  0  0  0  0  0  0  0  0  0  0  # atno 17395 bound_to 11000

$$$$
