AV-unprocessed.smi:1892|AV-procd|sdf|7670|dock1
  -GOLD-   22720 9403D 1   1.00000     0.00000
 Structure written by MMmdl.
 43 44  0  0  0  0  0  0  0  0  2 V2000
  152.1201  136.5838  157.3777 C   0  0  0  0  0  0  0  0  0  0  0  0
  152.1421  137.6067  156.2397 C   0  0  0  0  0  0  0  0  0  0  0  0
  152.9446  138.5369  156.3135 O   0  0  0  0  0  0  0  0  0  0  0  0
  151.2863  137.4607  155.2001 N   0  0  0  0  0  0  0  0  0  0  0  0
  151.1951  138.4276  154.1030 C   0  0  0  0  0  0  0  0  0  0  0  0
  149.8275  139.1317  154.1660 C   0  0  0  0  0  0  0  0  0  0  0  0
  148.7050  138.1546  154.1516 N   0  3  0  0  0  0  0  0  0  0  0  0
  147.3831  138.8281  154.2079 C   0  0  0  0  0  0  0  0  0  0  0  0
  146.5989  138.7130  152.8861 C   0  0  0  0  0  0  0  0  0  0  0  0
  146.7493  137.3913  152.2881 N   0  0  0  0  0  0  0  0  0  0  0  0
  145.7427  136.5342  152.0637 C   0  0  0  0  0  0  0  0  0  0  0  0
  144.5714  136.7800  152.3539 O   0  0  0  0  0  0  0  0  0  0  0  0
  146.1842  135.3972  151.4975 N   0  0  0  0  0  0  0  0  0  0  0  0
  145.4267  134.2618  151.1041 C   0  0  0  0  0  0  0  0  0  0  0  0
  146.1775  133.2104  150.5314 C   0  0  0  0  0  0  0  0  0  0  0  0
  145.5186  132.0406  150.1060 C   0  0  0  0  0  0  0  0  0  0  0  0
  144.1242  131.9523  150.2644 C   0  0  0  0  0  0  0  0  0  0  0  0
  143.4523  133.0442  150.8439 C   0  0  0  0  0  0  0  0  0  0  0  0
  144.0816  134.1661  151.2527 N   0  0  0  0  0  0  0  0  0  0  0  0
  148.8677  137.0778  155.1684 C   0  0  0  0  0  0  0  0  0  0  0  0
  150.2585  136.4225  155.0810 C   0  0  0  0  0  0  0  0  0  0  0  0
  151.1396  136.5541  157.8536 H   0  0  0  0  0  0  0  0  0  0  0  0
  152.8523  136.8450  158.1427 H   0  0  0  0  0  0  0  0  0  0  0  0
  152.3669  135.5882  157.0082 H   0  0  0  0  0  0  0  0  0  0  0  0
  151.9928  139.1713  154.1248 H   0  0  0  0  0  0  0  0  0  0  0  0
  151.3048  137.9029  153.1526 H   0  0  0  0  0  0  0  0  0  0  0  0
  149.7661  139.7373  155.0719 H   0  0  0  0  0  0  0  0  0  0  0  0
  149.7312  139.8143  153.3208 H   0  0  0  0  0  0  0  0  0  0  0  0
  146.8001  138.4282  155.0389 H   0  0  0  0  0  0  0  0  0  0  0  0
  147.5416  139.8857  154.4241 H   0  0  0  0  0  0  0  0  0  0  0  0
  145.5416  138.9312  153.0470 H   0  0  0  0  0  0  0  0  0  0  0  0
  146.9584  139.4370  152.1559 H   0  0  0  0  0  0  0  0  0  0  0  0
  147.6821  137.1134  152.0189 H   0  0  0  0  0  0  0  0  0  0  0  0
  147.1766  135.3362  151.3249 H   0  0  0  0  0  0  0  0  0  0  0  0
  147.2484  133.2947  150.4166 H   0  0  0  0  0  0  0  0  0  0  0  0
  146.0745  131.2261  149.6654 H   0  0  0  0  0  0  0  0  0  0  0  0
  143.5834  131.0722  149.9498 H   0  0  0  0  0  0  0  0  0  0  0  0
  142.3818  133.0171  150.9824 H   0  0  0  0  0  0  0  0  0  0  0  0
  148.7201  137.4959  156.1655 H   0  0  0  0  0  0  0  0  0  0  0  0
  148.1081  136.3094  155.0309 H   0  0  0  0  0  0  0  0  0  0  0  0
  150.3729  135.9211  154.1190 H   0  0  0  0  0  0  0  0  0  0  0  0
  150.3413  135.6356  155.8293 H   0  0  0  0  0  0  0  0  0  0  0  0
  148.7539  137.7027  153.2495 H   0  0  0  0  0  0  0  0  0  0  0  0
  1  2  1  0  0  0  0
  1 22  1  0  0  0  0
  1 23  1  0  0  0  0
  1 24  1  0  0  0  0
  2  3  2  0  0  0  0
  2  4  1  0  0  0  0
  4 21  1  0  0  0  0
  4  5  1  0  0  0  0
  5  6  1  0  0  0  0
  5 25  1  0  0  0  0
  5 26  1  0  0  0  0
  6  7  1  0  0  0  0
  6 27  1  0  0  0  0
  6 28  1  0  0  0  0
  7  8  1  0  0  0  0
  7 20  1  0  0  0  0
  7 43  1  0  0  0  0
  8  9  1  0  0  0  0
  8 29  1  0  0  0  0
  8 30  1  0  0  0  0
  9 10  1  0  0  0  0
  9 31  1  0  0  0  0
  9 32  1  0  0  0  0
 10 11  1  0  0  0  0
 10 33  1  0  0  0  0
 11 12  2  0  0  0  0
 11 13  1  0  0  0  0
 13 14  1  0  0  0  0
 13 34  1  0  0  0  0
 14 19  1  0  0  0  0
 14 15  2  0  0  0  0
 15 16  1  0  0  0  0
 15 35  1  0  0  0  0
 16 17  2  0  0  0  0
 16 36  1  0  0  0  0
 17 18  1  0  0  0  0
 17 37  1  0  0  0  0
 18 19  2  0  0  0  0
 18 38  1  0  0  0  0
 20 21  1  0  0  0  0
 20 39  1  0  0  0  0
 20 40  1  0  0  0  0
 21 41  1  0  0  0  0
 21 42  1  0  0  0  0
M  CHG  1   7   1
M  END
> <s_m_source_file>
AV-unprocessed.smi

> <i_m_source_file_index>
1892

> <i_lp_mmshare_version>
43012

> <i_f3d_flags>
0

> <s_epik_input>
W0NIM11DKD1PKU4xW0NIMl1bQ0gyXU4oW0NIMl1bQ0gyXTEpW0NIMl1bQ0gyXVtOSF1DKD1PKVtOSF1jMltjSF1bY0hdW2NIXVtjSF1uMg==

> <s_epik_cmdline>
J2VwaWtfcHl0aG9uJywgJy1waCcsICc3LjAnLCAnLXRuJywgJzgnLCAnLW1hJywgJzIwMCcsICctbWV0YWxfYmluZGluZycsICctaW1hZScsICc8aW5maWxlLm1hZT4nLCAnLW9tYWUnLCAnPG91dGZpbGUubWFlPic=

> <r_epik_Ionization_Penalty>
0.630068

> <r_epik_Ionization_Penalty_Charging>
0.630034

> <r_epik_Ionization_Penalty_Neutral>
3.4348e-05

> <r_epik_State_Penalty>
0.646805

> <r_epik_Charging_Adjusted_Penalty>
1.27684

> <i_epik_Tot_Q>
1

> <i_epik_Tot_abs_Q>
1

> <r_epik_Metal_State_Penalty>
0.646808

> <b_epik_Metal_Only>
0

> <s_lp_Force_Field>
OPLS_2005

> <r_lp_Energy>
41.8075

> <b_lp_Chiralities_Consistent>
1

> <s_lp_Variant>
AV-unprocessed.smi:1892-2

> <Gold.Version>
5.8.1

> <Gold.Id.Protein>
6NUR|6NUR_protein|mol2

> <Gold.PLP.Fitness>
49.2565

> <Gold.PLP.PLP>
-33.9889

> <Gold.PLP.part.hbond>
-3.8819

> <Gold.PLP.part.metal>
0.0000

> <Gold.PLP.part.buried>
-5.1188

> <Gold.PLP.part.nonpolar>
-26.1290

> <Gold.PLP.part.repulsive>
0.4829

> <Gold.PLP.ligand.clash>
0.0000

> <Gold.PLP.ligand.torsion>
0.8295

> <Gold.PLP.Chemscore.Hbond>
4.8480

> <Gold.PLP.Chemscore.CHOScore>
0.7731

> <Gold.PLP.Chemscore.Metal>
0.0000

> <Gold.Chemscore.Hbonds>
donor molecule, donor type, donor heavy atom, donor atom, acceptor molecule, acceptor atom, score
      L1  H     7    43       P1  7948  2.00
      L1  H    10    33       P1  7948  1.00
      L1  H    13    34       P1  7948  0.85
      P1  H  7997  8009       L1     3  0.83
      L1  C    18    38       P1 10186  0.78

> <Gold.PLP.Chemscore.Internal.Correction>
0.0632

> <Gold.Rescore>
     Score         DG    S(hbond)    S(metal)    S(lipo)     H(rot)  DE(clash)    DE(int)     intcor
     19.87     -22.06       3.57        0.00      75.68       1.64       0.10       2.09       ----

> <Gold.Chemscore.Fitness>
19.8709

> <Gold.Chemscore.DG>
-22.0608

> <Gold.Chemscore.ZeroCoef>
-5.4800

> <Gold.Chemscore.Hbond>
3.5694

> <Gold.Chemscore.Metal>
0.0000

> <Gold.Chemscore.Lipo>
75.6765

> <Gold.Chemscore.Internal_Hbond>
0.0000

> <Gold.Chemscore.DEClash>
0.1032

> <Gold.Chemscore.DEInternal>
2.0867

> <Gold.Chemscore.Rot>
1.6388

> <Gold.Chemscore.Internal.Correction>
   9.000000E+99

> <Gold.Chemscore.Hbonds>
donor molecule, donor type, donor heavy atom, donor atom, acceptor molecule, acceptor atom, score
      L1  H     7    43       P1  7948  0.94
      L1  H    10    33       P1  7948  0.93
      L1  H    13    34       P1  7948  0.71
      P1  H  7997  8009       L1     3  0.80

> <Gold.Chemscore.Hbond.Weighted>
-11.9219

> <Gold.Chemscore.Metal.Weighted>
-0.0000

> <Gold.Chemscore.Lipo.Weighted>
-8.8541

> <Gold.Chemscore.Internal_Hbond.Weighted>
0.0000

> <Gold.Chemscore.DEClash.Weighted>
0.1032

> <Gold.Chemscore.DEInternal.Weighted>
2.0867

> <Gold.Chemscore.Rot.Weighted>
4.1952

> <Gold.Chemscore.Internal.Correction.Weighted>
   9.000000E+99

> <Gold.Protein.RotatedTorsions>
[ 6907 6896 6895 6894 ] final  -54.93 input  -60.11 | X-H torsion
[ 7974 7965 7964 7962 ] final    8.87 input  175.53 | X-H torsion
[ 8008 7997 7996 7995 ] final -162.69 input   59.86 | X-H torsion
[ 10167 10162 10161 10158 ] final  121.25 input  -65.29 | X-H torsion
[ 10718 10713 10712 10709 ] final  122.66 input   66.30 | X-H torsion
[ 10763 10752 10751 10750 ] final   95.34 input  -60.55 | X-H torsion
[ 11005 11000 10999 10996 ] final   69.07 input  -57.11 | X-H torsion

> <Gold.Protein.ActiveResidues>
 VAL166  LYS551  ARG553  GLY616  TRP617  ASP618  TYR619  PRO620  LYS621  CYS622 
 ASP623  PHE694  ASN695  SER759  ASP760  ASP761  ALA762  ILE779  LEU786  VAL792 
 PHE793  MET794  SER795  GLU796  ALA797  LYS798  CYS799  TRP800  GLU811  SER814 

> <Gold.Protein.RotatedAtoms>
  150.8295  134.7541  159.6841 H   0  0  0  0  0  0  0  0  0  0  0  0  # atno 6907 bound_to 6896
  152.4401  134.5604  159.9902 H   0  0  0  0  0  0  0  0  0  0  0  0  # atno 6908 bound_to 6896
  151.5768  133.3345  159.3036 H   0  0  0  0  0  0  0  0  0  0  0  0  # atno 6909 bound_to 6896
  146.2411  139.9868  142.8430 H   0  0  0  0  0  0  0  0  0  0  0  0  # atno 7974 bound_to 7965
  155.8104  140.0905  157.1907 H   0  0  0  0  0  0  0  0  0  0  0  0  # atno 8008 bound_to 7997
  154.3980  140.1455  156.3440 H   0  0  0  0  0  0  0  0  0  0  0  0  # atno 8009 bound_to 7997
  155.8371  140.3440  155.5611 H   0  0  0  0  0  0  0  0  0  0  0  0  # atno 8010 bound_to 7997
  139.5931  144.7032  151.3241 H   0  0  0  0  0  0  0  0  0  0  0  0  # atno 10167 bound_to 10162
  157.5725  131.1082  150.8340 H   0  0  0  0  0  0  0  0  0  0  0  0  # atno 10718 bound_to 10713
  153.2521  135.4257  155.0808 H   0  0  0  0  0  0  0  0  0  0  0  0  # atno 10763 bound_to 10752
  154.8386  135.3428  154.6498 H   0  0  0  0  0  0  0  0  0  0  0  0  # atno 10764 bound_to 10752
  153.6919  135.7033  153.5144 H   0  0  0  0  0  0  0  0  0  0  0  0  # atno 10765 bound_to 10752
  139.9675  134.6956  156.0516 H   0  0  0  0  0  0  0  0  0  0  0  0  # atno 11005 bound_to 11000
  145.1540  140.9638  143.4416 LP  0  0  0  0  0  0  0  0  0  0  0  0  # atno 17320 bound_to 7965
  145.0178  139.3451  143.6087 LP  0  0  0  0  0  0  0  0  0  0  0  0  # atno 17321 bound_to 7965
  140.7190  143.7189  150.7711 LP  0  0  0  0  0  0  0  0  0  0  0  0  # atno 17342 bound_to 10162
  140.0749  143.5025  152.2561 LP  0  0  0  0  0  0  0  0  0  0  0  0  # atno 17343 bound_to 10162
  156.8808  130.5178  149.5291 LP  0  0  0  0  0  0  0  0  0  0  0  0  # atno 17370 bound_to 10713
  156.0770  130.5790  150.9492 LP  0  0  0  0  0  0  0  0  0  0  0  0  # atno 17371 bound_to 10713
  141.1354  133.6576  156.3580 LP  0  0  0  0  0  0  0  0  0  0  0  0  # atno 17394 bound_to 11000
  140.5365  134.6161  157.5366 LP  0  0  0  0  0  0  0  0  0  0  0  0  # atno 17395 bound_to 11000

$$$$
