AV-unprocessed.smi:2822|AV-procd|sdf|10871|dock4
  -GOLD-   2272015313D 1   1.00000     0.00000
 Structure written by MMmdl.
 40 42  0  0  0  0  0  0  0  0  2 V2000
  146.5241  143.1563  154.0246 Cl  0  0  0  0  0  0  0  0  0  0  0  0
  147.3039  141.6142  153.9547 C   0  0  0  0  0  0  0  0  0  0  0  0
  146.9706  140.7065  152.9285 C   0  0  0  0  0  0  0  0  0  0  0  0
  147.5332  139.4862  152.8036 N   0  0  0  0  0  0  0  0  0  0  0  0
  148.4622  139.1261  153.7136 C   0  0  0  0  0  0  0  0  0  0  0  0
  148.8691  139.9563  154.7772 C   0  0  0  0  0  0  0  0  0  0  0  0
  148.2778  141.2348  154.9067 C   0  0  0  0  0  0  0  0  0  0  0  0
  148.6211  142.1263  155.9337 N   0  0  0  0  0  0  0  0  0  0  0  0
  149.0650  141.6549  157.2378 C   0  0  0  0  0  0  0  0  0  0  0  0
  150.5119  142.0757  157.5455 C   0  0  1  0  0  0  0  0  0  0  0  0
  150.6289  143.5053  158.1129 C   0  0  0  0  0  0  0  0  0  0  0  0
  152.0406  143.8215  158.4429 N   0  3  1  0  0  0  0  0  0  0  0  0
  152.2409  145.1987  158.9648 C   0  0  0  0  0  0  0  0  0  0  0  0
  151.7623  145.3457  160.4225 C   0  0  0  0  0  0  0  0  0  0  0  0
  152.4151  144.2925  161.3285 C   0  0  0  0  0  0  0  0  0  0  0  0
  152.1836  142.8826  160.7664 C   0  0  0  0  0  0  0  0  0  0  0  0
  152.6712  142.7832  159.3044 C   0  0  1  0  0  0  0  0  0  0  0  0
  152.4566  141.3826  158.6979 C   0  0  0  0  0  0  0  0  0  0  0  0
  151.0736  141.1457  158.4655 O   0  0  0  0  0  0  0  0  0  0  0  0
  146.2312  140.9678  152.1858 H   0  0  0  0  0  0  0  0  0  0  0  0
  148.8956  138.1447  153.5913 H   0  0  0  0  0  0  0  0  0  0  0  0
  149.6176  139.5996  155.4686 H   0  0  0  0  0  0  0  0  0  0  0  0
  148.5530  143.1210  155.7708 H   0  0  0  0  0  0  0  0  0  0  0  0
  148.3976  142.0481  158.0055 H   0  0  0  0  0  0  0  0  0  0  0  0
  148.9883  140.5676  157.2706 H   0  0  0  0  0  0  0  0  0  0  0  0
  151.0747  142.0198  156.6119 H   0  0  0  0  0  0  0  0  0  0  0  0
  150.2572  144.2246  157.3822 H   0  0  0  0  0  0  0  0  0  0  0  0
  150.0076  143.6112  159.0019 H   0  0  0  0  0  0  0  0  0  0  0  0
  153.3048  145.4332  158.9089 H   0  0  0  0  0  0  0  0  0  0  0  0
  151.7340  145.9186  158.3211 H   0  0  0  0  0  0  0  0  0  0  0  0
  151.9980  146.3453  160.7890 H   0  0  0  0  0  0  0  0  0  0  0  0
  150.6772  145.2541  160.4745 H   0  0  0  0  0  0  0  0  0  0  0  0
  153.4858  144.4867  161.4030 H   0  0  0  0  0  0  0  0  0  0  0  0
  152.0139  144.3650  162.3398 H   0  0  0  0  0  0  0  0  0  0  0  0
  152.7101  142.1539  161.3838 H   0  0  0  0  0  0  0  0  0  0  0  0
  151.1252  142.6283  160.8341 H   0  0  0  0  0  0  0  0  0  0  0  0
  153.7451  142.9767  159.3047 H   0  0  0  0  0  0  0  0  0  0  0  0
  153.0083  141.2817  157.7621 H   0  0  0  0  0  0  0  0  0  0  0  0
  152.8410  140.6143  159.3692 H   0  0  0  0  0  0  0  0  0  0  0  0
  152.5324  143.7853  157.5614 H   0  0  0  0  0  0  0  0  0  0  0  0
  1  2  1  0  0  0  0
  2  7  1  0  0  0  0
  2  3  2  0  0  0  0
  3  4  1  0  0  0  0
  3 20  1  0  0  0  0
  4  5  2  0  0  0  0
  5  6  1  0  0  0  0
  5 21  1  0  0  0  0
  6  7  2  0  0  0  0
  6 22  1  0  0  0  0
  7  8  1  0  0  0  0
  8  9  1  0  0  0  0
  8 23  1  0  0  0  0
  9 10  1  0  0  0  0
  9 24  1  0  0  0  0
  9 25  1  0  0  0  0
 10 19  1  0  0  0  0
 10 11  1  0  0  0  0
 10 26  1  0  0  0  0
 11 12  1  0  0  0  0
 11 27  1  0  0  0  0
 11 28  1  0  0  0  0
 12 17  1  0  0  0  0
 12 13  1  0  0  0  0
 12 40  1  0  0  0  0
 13 14  1  0  0  0  0
 13 29  1  0  0  0  0
 13 30  1  0  0  0  0
 14 15  1  0  0  0  0
 14 31  1  0  0  0  0
 14 32  1  0  0  0  0
 15 16  1  0  0  0  0
 15 33  1  0  0  0  0
 15 34  1  0  0  0  0
 16 17  1  0  0  0  0
 16 35  1  0  0  0  0
 16 36  1  0  0  0  0
 17 18  1  0  0  0  0
 17 37  1  0  0  0  0
 18 19  1  0  0  0  0
 18 38  1  0  0  0  0
 18 39  1  0  0  0  0
M  CHG  1  12   1
M  END
> <s_m_source_file>
AV-unprocessed.smi

> <i_m_source_file_index>
2822

> <i_lp_mmshare_version>
43012

> <i_f3d_flags>
0

> <s_epik_input>
Q2xjMVtjSF1uW2NIXVtjSF1jMVtOSF1bQ0gyXVtDQEhdKFtDSDJdMilPW0NIMl1bQ0BASF0oTjIzKVtDSDJdW0NIMl1bQ0gyXVtDSDJdMw==

> <s_epik_cmdline>
J2VwaWtfcHl0aG9uJywgJy1waCcsICc3LjAnLCAnLXRuJywgJzgnLCAnLW1hJywgJzIwMCcsICctbWV0YWxfYmluZGluZycsICctaW1hZScsICc8aW5maWxlLm1hZT4nLCAnLW9tYWUnLCAnPG91dGZpbGUubWFlPic=

> <r_lp_tautomer_probability>
0.999999

> <r_epik_Ionization_Penalty>
0.88937

> <r_epik_Ionization_Penalty_Charging>
0.0803403

> <r_epik_Ionization_Penalty_Neutral>
0.80903

> <r_epik_State_Penalty>
0.931884

> <r_epik_Charging_Adjusted_Penalty>
1.01222

> <i_epik_Tot_Q>
1

> <i_epik_Tot_abs_Q>
1

> <r_epik_Metal_State_Penalty>
0.0782275

> <b_epik_Metal_Only>
0

> <s_lp_Force_Field>
OPLS_2005

> <r_lp_Energy>
33.0779

> <b_lp_Chiralities_Consistent>
1

> <s_lp_Variant>
AV-unprocessed.smi:2822-12

> <Gold.Version>
5.8.1

> <Gold.Id.Protein>
6NUR|6NUR_protein|mol2

> <Gold.PLP.Fitness>
48.0034

> <Gold.PLP.PLP>
-40.0307

> <Gold.PLP.part.hbond>
-1.0000

> <Gold.PLP.part.metal>
0.0000

> <Gold.PLP.part.buried>
-6.7512

> <Gold.PLP.part.nonpolar>
-35.0760

> <Gold.PLP.part.repulsive>
2.0212

> <Gold.PLP.ligand.clash>
0.0000

> <Gold.PLP.ligand.torsion>
0.4639

> <Gold.PLP.Chemscore.Hbond>
1.0000

> <Gold.PLP.Chemscore.CHOScore>
1.9660

> <Gold.PLP.Chemscore.Metal>
0.0000

> <Gold.Chemscore.Hbonds>
donor molecule, donor type, donor heavy atom, donor atom, acceptor molecule, acceptor atom, score
      L1  H     8    23       P1  8028  1.00
      L1  C     3    20       P1 10175  0.47
      L1  C     5    21       P1  7948  0.93

> <Gold.PLP.Chemscore.Internal.Correction>
0.0024

> <Gold.Rescore>
     Score         DG    S(hbond)    S(metal)    S(lipo)     H(rot)  DE(clash)    DE(int)     intcor
     19.49     -20.01       0.97        0.00     122.14       1.17       0.26       0.25       ----

> <Gold.Chemscore.Fitness>
19.4907

> <Gold.Chemscore.DG>
-20.0057

> <Gold.Chemscore.ZeroCoef>
-5.4800

> <Gold.Chemscore.Hbond>
0.9666

> <Gold.Chemscore.Metal>
0.0000

> <Gold.Chemscore.Lipo>
122.1433

> <Gold.Chemscore.Internal_Hbond>
0.0000

> <Gold.Chemscore.DEClash>
0.2614

> <Gold.Chemscore.DEInternal>
0.2537

> <Gold.Chemscore.Rot>
1.1693

> <Gold.Chemscore.Internal.Correction>
   9.000000E+99

> <Gold.Chemscore.Hbonds>
donor molecule, donor type, donor heavy atom, donor atom, acceptor molecule, acceptor atom, score
      L1  H     8    23       P1  8028  0.99

> <Gold.Chemscore.Hbond.Weighted>
-3.2283

> <Gold.Chemscore.Metal.Weighted>
-0.0000

> <Gold.Chemscore.Lipo.Weighted>
-14.2908

> <Gold.Chemscore.Internal_Hbond.Weighted>
0.0000

> <Gold.Chemscore.DEClash.Weighted>
0.2614

> <Gold.Chemscore.DEInternal.Weighted>
0.2537

> <Gold.Chemscore.Rot.Weighted>
2.9934

> <Gold.Chemscore.Internal.Correction.Weighted>
   9.000000E+99

> <Gold.Protein.RotatedTorsions>
[ 6907 6896 6895 6894 ] final  -54.82 input  -60.11 | X-H torsion
[ 7974 7965 7964 7962 ] final -101.81 input  175.53 | X-H torsion
[ 8008 7997 7996 7995 ] final   56.28 input   59.86 | X-H torsion
[ 10167 10162 10161 10158 ] final  168.13 input  -65.29 | X-H torsion
[ 10718 10713 10712 10709 ] final  170.09 input   66.30 | X-H torsion
[ 10763 10752 10751 10750 ] final  101.01 input  -60.55 | X-H torsion
[ 11005 11000 10999 10996 ] final   81.61 input  -57.11 | X-H torsion

> <Gold.Protein.ActiveResidues>
 VAL166  LYS551  ARG553  GLY616  TRP617  ASP618  TYR619  PRO620  LYS621  CYS622 
 ASP623  PHE694  ASN695  SER759  ASP760  ASP761  ALA762  ILE779  LEU786  VAL792 
 PHE793  MET794  SER795  GLU796  ALA797  LYS798  CYS799  TRP800  GLU811  SER814 

> <Gold.Protein.RotatedAtoms>
  150.8304  134.7555  159.6848 H   0  0  0  0  0  0  0  0  0  0  0  0  # atno 6907 bound_to 6896
  152.4410  134.5588  159.9898 H   0  0  0  0  0  0  0  0  0  0  0  0  # atno 6908 bound_to 6896
  151.5750  133.3347  159.3033 H   0  0  0  0  0  0  0  0  0  0  0  0  # atno 6909 bound_to 6896
  145.2768  140.9315  143.2955 H   0  0  0  0  0  0  0  0  0  0  0  0  # atno 7974 bound_to 7965
  155.5148  140.3478  155.4395 H   0  0  0  0  0  0  0  0  0  0  0  0  # atno 8008 bound_to 7997
  156.0824  140.1390  156.9722 H   0  0  0  0  0  0  0  0  0  0  0  0  # atno 8009 bound_to 7997
  154.4587  140.0943  156.6809 H   0  0  0  0  0  0  0  0  0  0  0  0  # atno 8010 bound_to 7997
  139.4961  144.3848  151.9583 H   0  0  0  0  0  0  0  0  0  0  0  0  # atno 10167 bound_to 10162
  157.0132  131.0210  151.2797 H   0  0  0  0  0  0  0  0  0  0  0  0  # atno 10718 bound_to 10713
  153.3212  135.4059  155.1418 H   0  0  0  0  0  0  0  0  0  0  0  0  # atno 10763 bound_to 10752
  154.8601  135.3588  154.5593 H   0  0  0  0  0  0  0  0  0  0  0  0  # atno 10764 bound_to 10752
  153.6027  135.7070  153.5437 H   0  0  0  0  0  0  0  0  0  0  0  0  # atno 10765 bound_to 10752
  139.9092  134.8010  156.2065 H   0  0  0  0  0  0  0  0  0  0  0  0  # atno 11005 bound_to 11000
  144.9288  139.4324  143.6505 LP  0  0  0  0  0  0  0  0  0  0  0  0  # atno 17320 bound_to 7965
  146.3229  139.8187  142.8931 LP  0  0  0  0  0  0  0  0  0  0  0  0  # atno 17321 bound_to 7965
  140.3285  144.3345  150.5993 LP  0  0  0  0  0  0  0  0  0  0  0  0  # atno 17342 bound_to 10162
  140.5665  143.2185  151.7675 LP  0  0  0  0  0  0  0  0  0  0  0  0  # atno 17343 bound_to 10162
  157.5305  130.8055  149.7911 LP  0  0  0  0  0  0  0  0  0  0  0  0  # atno 17370 bound_to 10713
  156.0128  130.3826  150.2206 LP  0  0  0  0  0  0  0  0  0  0  0  0  # atno 17371 bound_to 10713
  141.0492  133.6897  156.1741 LP  0  0  0  0  0  0  0  0  0  0  0  0  # atno 17394 bound_to 11000
  140.6836  134.4741  157.5589 LP  0  0  0  0  0  0  0  0  0  0  0  0  # atno 17395 bound_to 11000

$$$$
