AV-unprocessed.smi:1644|AV-procd|sdf|6588|dock4
  -GOLD-   22720 7283D 1   1.00000     0.00000
 Structure written by MMmdl.
 50 52  0  0  0  0  0  0  0  0  2 V2000
  150.5115  131.8673  155.7364 C   0  0  0  0  0  0  0  0  0  0  0  0
  150.6099  133.2220  156.4460 C   0  0  0  0  0  0  0  0  0  0  0  0
  149.4239  134.1441  156.1211 C   0  0  0  0  0  0  0  0  0  0  0  0
  149.6793  135.6166  156.4978 C   0  0  2  0  0  0  0  0  0  0  0  0
  148.7493  136.5276  155.8603 N   0  0  0  0  0  0  0  0  0  0  0  0
  149.3620  137.4285  155.0818 C   0  0  0  0  0  0  0  0  0  0  0  0
  148.7956  138.3031  154.4283 O   0  0  0  0  0  0  0  0  0  0  0  0
  150.6874  137.2027  155.1348 N   0  0  0  0  0  0  0  0  0  0  0  0
  151.6891  137.9747  154.3925 C   0  0  0  0  0  0  0  0  0  0  0  0
  152.2232  139.1647  155.2160 C   0  0  2  0  0  0  0  0  0  0  0  0
  153.5551  138.8846  155.6016 O   0  0  0  0  0  0  0  0  0  0  0  0
  151.3808  139.4007  156.4852 C   0  0  0  0  0  0  0  0  0  0  0  0
  151.0928  140.8226  156.7216 N   0  0  0  0  0  0  0  0  0  0  0  0
  150.3660  141.6951  155.9723 C   0  0  0  0  0  0  0  0  0  0  0  0
  150.3911  142.9005  156.6049 N   0  3  0  0  0  0  0  0  0  0  0  0
  151.1474  142.7971  157.7743 C   0  0  0  0  0  0  0  0  0  0  0  0
  151.4623  143.7451  158.7404 C   0  0  0  0  0  0  0  0  0  0  0  0
  152.2667  143.3213  159.8224 C   0  0  0  0  0  0  0  0  0  0  0  0
  152.6333  144.3341  160.8939 C   0  0  0  0  0  0  0  0  0  0  0  0
  152.7259  141.9814  159.9095 C   0  0  0  0  0  0  0  0  0  0  0  0
  153.5920  141.5364  161.0758 C   0  0  0  0  0  0  0  0  0  0  0  0
  152.3931  141.0319  158.9171 C   0  0  0  0  0  0  0  0  0  0  0  0
  151.6005  141.4659  157.8567 C   0  0  0  0  0  0  0  0  0  0  0  0
  150.9742  136.1563  155.9198 C   0  0  0  0  0  0  0  0  0  0  0  0
  152.0849  135.6781  156.1494 O   0  0  0  0  0  0  0  0  0  0  0  0
  151.3684  131.2386  155.9792 H   0  0  0  0  0  0  0  0  0  0  0  0
  150.4860  131.9911  154.6534 H   0  0  0  0  0  0  0  0  0  0  0  0
  149.6102  131.3311  156.0346 H   0  0  0  0  0  0  0  0  0  0  0  0
  150.6684  133.0555  157.5221 H   0  0  0  0  0  0  0  0  0  0  0  0
  151.5412  133.7108  156.1580 H   0  0  0  0  0  0  0  0  0  0  0  0
  149.2118  134.0812  155.0526 H   0  0  0  0  0  0  0  0  0  0  0  0
  148.5302  133.7786  156.6299 H   0  0  0  0  0  0  0  0  0  0  0  0
  149.6656  135.7604  157.5790 H   0  0  0  0  0  0  0  0  0  0  0  0
  147.7500  136.4747  155.9949 H   0  0  0  0  0  0  0  0  0  0  0  0
  152.5133  137.3033  154.1445 H   0  0  0  0  0  0  0  0  0  0  0  0
  151.2981  138.3105  153.4298 H   0  0  0  0  0  0  0  0  0  0  0  0
  152.2153  140.0753  154.6151 H   0  0  0  0  0  0  0  0  0  0  0  0
  153.6837  137.9484  155.5817 H   0  0  0  0  0  0  0  0  0  0  0  0
  150.4184  138.8963  156.3882 H   0  0  0  0  0  0  0  0  0  0  0  0
  151.8597  138.9749  157.3673 H   0  0  0  0  0  0  0  0  0  0  0  0
  149.8614  141.4718  155.0431 H   0  0  0  0  0  0  0  0  0  0  0  0
  151.1098  144.7635  158.6663 H   0  0  0  0  0  0  0  0  0  0  0  0
  152.2442  144.0231  161.8637 H   0  0  0  0  0  0  0  0  0  0  0  0
  152.2216  145.3190  160.6702 H   0  0  0  0  0  0  0  0  0  0  0  0
  153.7162  144.4363  160.9708 H   0  0  0  0  0  0  0  0  0  0  0  0
  153.8346  140.4753  161.0105 H   0  0  0  0  0  0  0  0  0  0  0  0
  153.0759  141.7006  162.0219 H   0  0  0  0  0  0  0  0  0  0  0  0
  154.5295  142.0925  161.0903 H   0  0  0  0  0  0  0  0  0  0  0  0
  152.7501  140.0147  158.9800 H   0  0  0  0  0  0  0  0  0  0  0  0
  149.9276  143.7314  156.2602 H   0  0  0  0  0  0  0  0  0  0  0  0
  1  2  1  0  0  0  0
  1 26  1  0  0  0  0
  1 27  1  0  0  0  0
  1 28  1  0  0  0  0
  2  3  1  0  0  0  0
  2 29  1  0  0  0  0
  2 30  1  0  0  0  0
  3  4  1  0  0  0  0
  3 31  1  0  0  0  0
  3 32  1  0  0  0  0
  4 24  1  0  0  0  0
  4  5  1  0  0  0  0
  4 33  1  0  0  0  0
  5  6  1  0  0  0  0
  5 34  1  0  0  0  0
  6  7  2  0  0  0  0
  6  8  1  0  0  0  0
  8  9  1  0  0  0  0
  8 24  1  0  0  0  0
  9 10  1  0  0  0  0
  9 35  1  0  0  0  0
  9 36  1  0  0  0  0
 10 11  1  0  0  0  0
 10 12  1  0  0  0  0
 10 37  1  0  0  0  0
 11 38  1  0  0  0  0
 12 13  1  0  0  0  0
 12 39  1  0  0  0  0
 12 40  1  0  0  0  0
 13 23  1  0  0  0  0
 13 14  1  0  0  0  0
 14 15  2  0  0  0  0
 14 41  1  0  0  0  0
 15 16  1  0  0  0  0
 15 50  1  0  0  0  0
 16 23  2  0  0  0  0
 16 17  1  0  0  0  0
 17 18  2  0  0  0  0
 17 42  1  0  0  0  0
 18 19  1  0  0  0  0
 18 20  1  0  0  0  0
 19 43  1  0  0  0  0
 19 44  1  0  0  0  0
 19 45  1  0  0  0  0
 20 21  1  0  0  0  0
 20 22  2  0  0  0  0
 21 46  1  0  0  0  0
 21 47  1  0  0  0  0
 21 48  1  0  0  0  0
 22 23  1  0  0  0  0
 22 49  1  0  0  0  0
 24 25  2  0  0  0  0
M  CHG  1  15   1
M  END
> <s_m_source_file>
AV-unprocessed.smi

> <i_m_source_file_index>
1644

> <i_lp_mmshare_version>
43012

> <i_f3d_flags>
0

> <s_epik_input>
W0NIM11bQ0gyXVtDSDJdW0NAQEhdMVtOSF1DKD1PKU4oQzE9TylbQ0gyXVtDQEhdKFtPSF0pW0NIMl1uKFtjSF1uMiljKGMyMylbY0hdYyhbQ0gzXSljKFtjSF0zKVtDSDNd

> <s_epik_cmdline>
J2VwaWtfcHl0aG9uJywgJy1waCcsICc3LjAnLCAnLXRuJywgJzgnLCAnLW1hJywgJzIwMCcsICctbWV0YWxfYmluZGluZycsICctaW1hZScsICc8aW5maWxlLm1hZT4nLCAnLW9tYWUnLCAnPG91dGZpbGUubWFlPic=

> <r_lp_tautomer_probability>
1

> <r_epik_Ionization_Penalty>
1.06742

> <r_epik_Ionization_Penalty_Charging>
1.06736

> <r_epik_Ionization_Penalty_Neutral>
5.56132e-05

> <r_epik_State_Penalty>
1.12163

> <r_epik_Charging_Adjusted_Penalty>
2.18899

> <i_epik_Tot_Q>
1

> <i_epik_Tot_abs_Q>
1

> <r_epik_Metal_State_Penalty>
1.26636

> <b_epik_Metal_Only>
0

> <s_lp_Force_Field>
OPLS_2005

> <r_lp_Energy>
29.1926

> <b_lp_Chiralities_Consistent>
1

> <s_lp_Variant>
AV-unprocessed.smi:1644-5

> <Gold.Version>
5.8.1

> <Gold.Id.Protein>
6NUR|6NUR_protein|mol2

> <Gold.PLP.Fitness>
55.5226

> <Gold.PLP.PLP>
-47.4526

> <Gold.PLP.part.hbond>
-2.6180

> <Gold.PLP.part.metal>
0.0000

> <Gold.PLP.part.buried>
-7.8590

> <Gold.PLP.part.nonpolar>
-39.0892

> <Gold.PLP.part.repulsive>
0.2755

> <Gold.PLP.ligand.clash>
0.0000

> <Gold.PLP.ligand.torsion>
1.8393

> <Gold.PLP.Chemscore.Hbond>
3.8800

> <Gold.PLP.Chemscore.CHOScore>
0.0000

> <Gold.PLP.Chemscore.Metal>
0.0000

> <Gold.Chemscore.Hbonds>
donor molecule, donor type, donor heavy atom, donor atom, acceptor molecule, acceptor atom, score
      L1  H    15    50       P1  8028  2.00
      P1  H  7997  8009       L1    11  0.88
      P1  H 10752 10763       L1    25  1.00

> <Gold.PLP.Chemscore.Internal.Correction>
0.1087

> <Gold.Rescore>
     Score         DG    S(hbond)    S(metal)    S(lipo)     H(rot)  DE(clash)    DE(int)     intcor
     17.33     -21.14       2.82        0.00     114.57       2.80       0.02       3.79       ----

> <Gold.Chemscore.Fitness>
17.3343

> <Gold.Chemscore.DG>
-21.1377

> <Gold.Chemscore.ZeroCoef>
-5.4800

> <Gold.Chemscore.Hbond>
2.8177

> <Gold.Chemscore.Metal>
0.0000

> <Gold.Chemscore.Lipo>
114.5699

> <Gold.Chemscore.Internal_Hbond>
0.0000

> <Gold.Chemscore.DEClash>
0.0163

> <Gold.Chemscore.DEInternal>
3.7870

> <Gold.Chemscore.Rot>
2.7961

> <Gold.Chemscore.Internal.Correction>
   9.000000E+99

> <Gold.Chemscore.Hbonds>
donor molecule, donor type, donor heavy atom, donor atom, acceptor molecule, acceptor atom, score
      L1  H    15    50       P1  8028  0.95
      P1  H  7997  8009       L1    11  0.79
      P1  H 10752 10763       L1    25  0.96

> <Gold.Chemscore.Hbond.Weighted>
-9.4110

> <Gold.Chemscore.Metal.Weighted>
-0.0000

> <Gold.Chemscore.Lipo.Weighted>
-13.4047

> <Gold.Chemscore.Internal_Hbond.Weighted>
0.0000

> <Gold.Chemscore.DEClash.Weighted>
0.0163

> <Gold.Chemscore.DEInternal.Weighted>
3.7870

> <Gold.Chemscore.Rot.Weighted>
7.1580

> <Gold.Chemscore.Internal.Correction.Weighted>
   9.000000E+99

> <Gold.Protein.RotatedTorsions>
[ 6907 6896 6895 6894 ] final  135.94 input  -60.11 | X-H torsion
[ 7974 7965 7964 7962 ] final  163.54 input  175.53 | X-H torsion
[ 8008 7997 7996 7995 ] final -156.71 input   59.86 | X-H torsion
[ 10167 10162 10161 10158 ] final  -88.65 input  -65.29 | X-H torsion
[ 10718 10713 10712 10709 ] final -166.67 input   66.30 | X-H torsion
[ 10763 10752 10751 10750 ] final  102.64 input  -60.55 | X-H torsion
[ 11005 11000 10999 10996 ] final -164.04 input  -57.11 | X-H torsion

> <Gold.Protein.ActiveResidues>
 VAL166  LYS551  ARG553  GLY616  TRP617  ASP618  TYR619  PRO620  LYS621  CYS622 
 ASP623  PHE694  ASN695  SER759  ASP760  ASP761  ALA762  ILE779  LEU786  VAL792 
 PHE793  MET794  SER795  GLU796  ALA797  LYS798  CYS799  TRP800  GLU811  SER814 

> <Gold.Protein.RotatedAtoms>
  152.2949  133.5597  159.5580 H   0  0  0  0  0  0  0  0  0  0  0  0  # atno 6907 bound_to 6896
  150.7251  134.0375  159.3763 H   0  0  0  0  0  0  0  0  0  0  0  0  # atno 6908 bound_to 6896
  151.8279  135.0631  160.0484 H   0  0  0  0  0  0  0  0  0  0  0  0  # atno 6909 bound_to 6896
  144.7585  139.8198  143.6341 H   0  0  0  0  0  0  0  0  0  0  0  0  # atno 7974 bound_to 7965
  155.7213  140.0790  157.2329 H   0  0  0  0  0  0  0  0  0  0  0  0  # atno 8008 bound_to 7997
  154.4045  140.1612  156.2459 H   0  0  0  0  0  0  0  0  0  0  0  0  # atno 8009 bound_to 7997
  155.9194  140.3399  155.6163 H   0  0  0  0  0  0  0  0  0  0  0  0  # atno 8010 bound_to 7997
  140.3725  143.2787  151.9482 H   0  0  0  0  0  0  0  0  0  0  0  0  # atno 10167 bound_to 10162
  156.6713  130.9085  151.3044 H   0  0  0  0  0  0  0  0  0  0  0  0  # atno 10718 bound_to 10713
  153.3422  135.4004  155.1581 H   0  0  0  0  0  0  0  0  0  0  0  0  # atno 10763 bound_to 10752
  154.8646  135.3636  154.5331 H   0  0  0  0  0  0  0  0  0  0  0  0  # atno 10764 bound_to 10752
  153.5776  135.7077  153.5537 H   0  0  0  0  0  0  0  0  0  0  0  0  # atno 10765 bound_to 10752
  140.5914  134.5041  157.5193 H   0  0  0  0  0  0  0  0  0  0  0  0  # atno 11005 bound_to 11000
  146.1622  139.4741  142.9981 LP  0  0  0  0  0  0  0  0  0  0  0  0  # atno 17320 bound_to 7965
  145.6698  141.0219  143.1664 LP  0  0  0  0  0  0  0  0  0  0  0  0  # atno 17321 bound_to 7965
  139.4802  144.5893  151.7799 LP  0  0  0  0  0  0  0  0  0  0  0  0  # atno 17342 bound_to 10162
  140.5018  144.1157  150.5973 LP  0  0  0  0  0  0  0  0  0  0  0  0  # atno 17343 bound_to 10162
  157.7076  130.9403  150.0982 LP  0  0  0  0  0  0  0  0  0  0  0  0  # atno 17370 bound_to 10713
  156.1936  130.3656  149.8877 LP  0  0  0  0  0  0  0  0  0  0  0  0  # atno 17371 bound_to 10713
  139.9273  134.8032  156.1033 LP  0  0  0  0  0  0  0  0  0  0  0  0  # atno 17394 bound_to 11000
  141.0933  133.6706  156.2588 LP  0  0  0  0  0  0  0  0  0  0  0  0  # atno 17395 bound_to 11000

$$$$
