AV-unprocessed.smi:2797|AV-procd|sdf|10784|dock7
  -GOLD-   2272015223D 1   1.00000     0.00000
 Structure written by MMmdl.
 38 39  0  0  0  0  0  0  0  0  2 V2000
  143.7987  133.2088  150.9726 C   0  0  0  0  0  0  0  0  0  0  0  0
  144.5347  133.5804  152.1320 O   0  0  0  0  0  0  0  0  0  0  0  0
  145.7226  134.3555  151.9339 C   0  0  0  0  0  0  0  0  0  0  0  0
  145.3912  135.8011  151.5395 C   0  0  0  0  0  0  0  0  0  0  0  0
  146.4644  136.7113  151.9275 N   0  0  0  0  0  0  0  0  0  0  0  0
  146.3019  137.8980  152.5283 C   0  0  0  0  0  0  0  0  0  0  0  0
  145.2031  138.3927  152.7771 O   0  0  0  0  0  0  0  0  0  0  0  0
  147.4872  138.4689  152.8013 N   0  0  0  0  0  0  0  0  0  0  0  0
  147.7477  139.7107  153.4464 C   0  0  0  0  0  0  0  0  0  0  0  0
  146.8453  140.8041  153.4142 C   0  0  0  0  0  0  0  0  0  0  0  0
  147.1720  141.9924  154.0955 C   0  0  0  0  0  0  0  0  0  0  0  0
  148.3306  142.0783  154.7811 N   0  3  0  0  0  0  0  0  0  0  0  0
  149.2179  141.0620  154.8577 C   0  0  0  0  0  0  0  0  0  0  0  0
  150.4787  141.2871  155.6696 C   0  0  0  0  0  0  0  0  0  0  0  0
  148.9456  139.8431  154.1925 C   0  0  0  0  0  0  0  0  0  0  0  0
  150.0726  138.5317  154.2888 Cl  0  0  0  0  0  0  0  0  0  0  0  0
  146.6030  134.1335  153.1791 C   0  0  0  0  0  0  0  0  0  0  0  0
  147.2671  132.9549  152.4651 C   0  0  0  0  0  0  0  0  0  0  0  0
  146.8061  133.5828  151.1490 C   0  0  0  0  0  0  0  0  0  0  0  0
  142.8961  132.6834  151.2841 H   0  0  0  0  0  0  0  0  0  0  0  0
  144.3569  132.5314  150.3286 H   0  0  0  0  0  0  0  0  0  0  0  0
  143.4831  134.0671  150.3822 H   0  0  0  0  0  0  0  0  0  0  0  0
  145.2898  135.8730  150.4564 H   0  0  0  0  0  0  0  0  0  0  0  0
  144.4276  136.1209  151.9362 H   0  0  0  0  0  0  0  0  0  0  0  0
  147.4064  136.3921  151.7547 H   0  0  0  0  0  0  0  0  0  0  0  0
  148.3016  137.9842  152.4532 H   0  0  0  0  0  0  0  0  0  0  0  0
  145.9025  140.7512  152.8918 H   0  0  0  0  0  0  0  0  0  0  0  0
  146.5408  142.8690  154.1179 H   0  0  0  0  0  0  0  0  0  0  0  0
  151.3613  141.1684  155.0406 H   0  0  0  0  0  0  0  0  0  0  0  0
  150.5374  140.5668  156.4861 H   0  0  0  0  0  0  0  0  0  0  0  0
  150.5030  142.2889  156.1003 H   0  0  0  0  0  0  0  0  0  0  0  0
  147.2983  134.9555  153.3578 H   0  0  0  0  0  0  0  0  0  0  0  0
  146.0603  133.8697  154.0878 H   0  0  0  0  0  0  0  0  0  0  0  0
  148.3486  132.8938  152.5891 H   0  0  0  0  0  0  0  0  0  0  0  0
  146.7777  132.0024  152.6745 H   0  0  0  0  0  0  0  0  0  0  0  0
  146.4603  132.8654  150.4068 H   0  0  0  0  0  0  0  0  0  0  0  0
  147.5629  134.2436  150.7227 H   0  0  0  0  0  0  0  0  0  0  0  0
  148.5441  142.9488  155.2689 H   0  0  0  0  0  0  0  0  0  0  0  0
  1  2  1  0  0  0  0
  1 20  1  0  0  0  0
  1 21  1  0  0  0  0
  1 22  1  0  0  0  0
  2  3  1  0  0  0  0
  3 19  1  0  0  0  0
  3  4  1  0  0  0  0
  3 17  1  0  0  0  0
  4  5  1  0  0  0  0
  4 23  1  0  0  0  0
  4 24  1  0  0  0  0
  5  6  1  0  0  0  0
  5 25  1  0  0  0  0
  6  7  2  0  0  0  0
  6  8  1  0  0  0  0
  8  9  1  0  0  0  0
  8 26  1  0  0  0  0
  9 15  1  0  0  0  0
  9 10  2  0  0  0  0
 10 11  1  0  0  0  0
 10 27  1  0  0  0  0
 11 12  2  0  0  0  0
 11 28  1  0  0  0  0
 12 13  1  0  0  0  0
 12 38  1  0  0  0  0
 13 14  1  0  0  0  0
 13 15  2  0  0  0  0
 14 29  1  0  0  0  0
 14 30  1  0  0  0  0
 14 31  1  0  0  0  0
 15 16  1  0  0  0  0
 17 18  1  0  0  0  0
 17 32  1  0  0  0  0
 17 33  1  0  0  0  0
 18 19  1  0  0  0  0
 18 34  1  0  0  0  0
 18 35  1  0  0  0  0
 19 36  1  0  0  0  0
 19 37  1  0  0  0  0
M  CHG  1  12   1
M  END
> <s_m_source_file>
AV-unprocessed.smi

> <i_m_source_file_index>
2797

> <i_lp_mmshare_version>
43012

> <i_f3d_flags>
0

> <s_epik_input>
W0NIMl0xW0NIMl1bQ0gyXUMxKE9bQ0gzXSlbQ0gyXVtOSF1DKD1PKVtOSF1jMltjSF1bY0hdbmMoW0NIM10pYzJDbA==

> <s_epik_cmdline>
J2VwaWtfcHl0aG9uJywgJy1waCcsICc3LjAnLCAnLXRuJywgJzgnLCAnLW1hJywgJzIwMCcsICctbWV0YWxfYmluZGluZycsICctaW1hZScsICc8aW5maWxlLm1hZT4nLCAnLW9tYWUnLCAnPG91dGZpbGUubWFlPic=

> <r_epik_Ionization_Penalty>
2.42651

> <r_epik_Ionization_Penalty_Charging>
2.42649

> <r_epik_Ionization_Penalty_Neutral>
1.93283e-05

> <r_epik_State_Penalty>
2.58622

> <r_epik_Charging_Adjusted_Penalty>
5.01271

> <i_epik_Tot_Q>
1

> <i_epik_Tot_abs_Q>
1

> <r_epik_Metal_State_Penalty>
2.59605

> <b_epik_Metal_Only>
0

> <s_lp_Force_Field>
OPLS_2005

> <r_lp_Energy>
25.6694

> <b_lp_Chiralities_Consistent>
1

> <s_lp_Variant>
AV-unprocessed.smi:2797-2

> <Gold.Version>
5.8.1

> <Gold.Id.Protein>
6NUR|6NUR_protein|mol2

> <Gold.PLP.Fitness>
43.6209

> <Gold.PLP.PLP>
-33.2607

> <Gold.PLP.part.hbond>
-3.7550

> <Gold.PLP.part.metal>
0.0000

> <Gold.PLP.part.buried>
-3.3727

> <Gold.PLP.part.nonpolar>
-31.1318

> <Gold.PLP.part.repulsive>
4.0103

> <Gold.PLP.ligand.clash>
0.0000

> <Gold.PLP.ligand.torsion>
0.8048

> <Gold.PLP.Chemscore.Hbond>
3.8960

> <Gold.PLP.Chemscore.CHOScore>
0.0000

> <Gold.PLP.Chemscore.Metal>
0.0000

> <Gold.Chemscore.Hbonds>
donor molecule, donor type, donor heavy atom, donor atom, acceptor molecule, acceptor atom, score
      L1  H     5    25       P1  7948  1.00
      L1  H     8    26       P1  7948  0.90
      L1  H    12    38       P1  8028  2.00

> <Gold.PLP.Chemscore.Internal.Correction>
0.2818

> <Gold.Rescore>
     Score         DG    S(hbond)    S(metal)    S(lipo)     H(rot)  DE(clash)    DE(int)     intcor
     17.42     -21.01       2.90        0.00      81.50       1.44       1.63       1.96       ----

> <Gold.Chemscore.Fitness>
17.4205

> <Gold.Chemscore.DG>
-21.0093

> <Gold.Chemscore.ZeroCoef>
-5.4800

> <Gold.Chemscore.Hbond>
2.8962

> <Gold.Chemscore.Metal>
0.0000

> <Gold.Chemscore.Lipo>
81.5050

> <Gold.Chemscore.Internal_Hbond>
0.0000

> <Gold.Chemscore.DEClash>
1.6285

> <Gold.Chemscore.DEInternal>
1.9603

> <Gold.Chemscore.Rot>
1.4375

> <Gold.Chemscore.Internal.Correction>
   9.000000E+99

> <Gold.Chemscore.Hbonds>
donor molecule, donor type, donor heavy atom, donor atom, acceptor molecule, acceptor atom, score
      L1  H     5    25       P1  7948  0.93
      L1  H     8    26       P1  7948  0.86
      L1  H    12    38       P1  8028  1.00

> <Gold.Chemscore.Hbond.Weighted>
-9.6732

> <Gold.Chemscore.Metal.Weighted>
-0.0000

> <Gold.Chemscore.Lipo.Weighted>
-9.5361

> <Gold.Chemscore.Internal_Hbond.Weighted>
0.0000

> <Gold.Chemscore.DEClash.Weighted>
1.6285

> <Gold.Chemscore.DEInternal.Weighted>
1.9603

> <Gold.Chemscore.Rot.Weighted>
3.6800

> <Gold.Chemscore.Internal.Correction.Weighted>
   9.000000E+99

> <Gold.Protein.RotatedTorsions>
[ 6907 6896 6895 6894 ] final  -18.48 input  -60.11 | X-H torsion
[ 7974 7965 7964 7962 ] final   81.34 input  175.53 | X-H torsion
[ 8008 7997 7996 7995 ] final   11.66 input   59.86 | X-H torsion
[ 10167 10162 10161 10158 ] final  -40.32 input  -65.29 | X-H torsion
[ 10718 10713 10712 10709 ] final   95.30 input   66.30 | X-H torsion
[ 10763 10752 10751 10750 ] final -172.49 input  -60.55 | X-H torsion
[ 11005 11000 10999 10996 ] final -167.62 input  -57.11 | X-H torsion

> <Gold.Protein.ActiveResidues>
 VAL166  LYS551  ARG553  GLY616  TRP617  ASP618  TYR619  PRO620  LYS621  CYS622 
 ASP623  PHE694  ASN695  SER759  ASP760  ASP761  ALA762  ILE779  LEU786  VAL792 
 PHE793  MET794  SER795  GLU796  ALA797  LYS798  CYS799  TRP800  GLU811  SER814 

> <Gold.Protein.RotatedAtoms>
  151.2775  135.0703  159.9156 H   0  0  0  0  0  0  0  0  0  0  0  0  # atno 6907 bound_to 6896
  152.5340  134.0066  159.7929 H   0  0  0  0  0  0  0  0  0  0  0  0  # atno 6908 bound_to 6896
  151.0314  133.5736  159.2691 H   0  0  0  0  0  0  0  0  0  0  0  0  # atno 6909 bound_to 6896
  145.6394  139.2422  143.2039 H   0  0  0  0  0  0  0  0  0  0  0  0  # atno 7974 bound_to 7965
  154.8099  140.2866  155.5861 H   0  0  0  0  0  0  0  0  0  0  0  0  # atno 8008 bound_to 7997
  156.2987  140.2570  156.2915 H   0  0  0  0  0  0  0  0  0  0  0  0  # atno 8009 bound_to 7997
  154.9460  140.0380  157.2110 H   0  0  0  0  0  0  0  0  0  0  0  0  # atno 8010 bound_to 7997
  140.7038  143.3161  151.2907 H   0  0  0  0  0  0  0  0  0  0  0  0  # atno 10167 bound_to 10162
  157.6940  131.0541  150.4319 H   0  0  0  0  0  0  0  0  0  0  0  0  # atno 10718 bound_to 10713
  154.6187  135.2873  155.0350 H   0  0  0  0  0  0  0  0  0  0  0  0  # atno 10763 bound_to 10752
  154.1553  135.6497  153.4977 H   0  0  0  0  0  0  0  0  0  0  0  0  # atno 10764 bound_to 10752
  153.0226  135.5365  154.6969 H   0  0  0  0  0  0  0  0  0  0  0  0  # atno 10765 bound_to 10752
  140.5512  134.5426  157.5123 H   0  0  0  0  0  0  0  0  0  0  0  0  # atno 11005 bound_to 11000
  146.1293  140.7207  142.9420 LP  0  0  0  0  0  0  0  0  0  0  0  0  # atno 17320 bound_to 7965
  144.7163  140.4221  143.7042 LP  0  0  0  0  0  0  0  0  0  0  0  0  # atno 17321 bound_to 7965
  139.6599  144.0207  152.2685 LP  0  0  0  0  0  0  0  0  0  0  0  0  # atno 17342 bound_to 10162
  139.9771  144.6454  150.7935 LP  0  0  0  0  0  0  0  0  0  0  0  0  # atno 17343 bound_to 10162
  156.4684  130.4047  149.6533 LP  0  0  0  0  0  0  0  0  0  0  0  0  # atno 17370 bound_to 10713
  156.3622  130.7487  151.2461 LP  0  0  0  0  0  0  0  0  0  0  0  0  # atno 17371 bound_to 10713
  139.9454  134.7711  156.0575 LP  0  0  0  0  0  0  0  0  0  0  0  0  # atno 17394 bound_to 11000
  141.1170  133.6624  156.3119 LP  0  0  0  0  0  0  0  0  0  0  0  0  # atno 17395 bound_to 11000

$$$$
