AV-unprocessed.smi:9|AV-procd|sdf|50|dock5
  -GOLD-   2262015163D 1   1.00000     0.00000
 Structure written by MMmdl.
 34 36  0  0  0  0  0  0  0  0  2 V2000
  151.1447  133.0441  157.5687 O   0  0  0  0  0  0  0  0  0  0  0  0
  150.6985  132.4090  156.6153 C   0  0  0  0  0  0  0  0  0  0  0  0
  150.8114  131.0540  156.4452 N   0  5  0  0  0  0  0  0  0  0  0  0
  150.2615  130.4247  155.3223 C   0  0  0  0  0  0  0  0  0  0  0  0
  150.4503  128.9138  155.2284 C   0  0  0  0  0  0  0  0  0  0  0  0
  149.9128  128.2932  156.2810 F   0  0  0  0  0  0  0  0  0  0  0  0
  149.8643  128.4449  154.1268 F   0  0  0  0  0  0  0  0  0  0  0  0
  151.7438  128.5875  155.1852 F   0  0  0  0  0  0  0  0  0  0  0  0
  149.6266  131.0203  154.3644 N   0  0  0  0  0  0  0  0  0  0  0  0
  149.4989  132.3849  154.5033 C   0  0  0  0  0  0  0  0  0  0  0  0
  149.9720  133.1367  155.5414 C   0  0  0  0  0  0  0  0  0  0  0  0
  149.6603  134.4811  155.3730 N   0  0  0  0  0  0  0  0  0  0  0  0
  149.0015  134.4717  154.2140 C   0  0  0  0  0  0  0  0  0  0  0  0
  148.8740  133.2639  153.6281 N   0  0  0  0  0  0  0  0  0  0  0  0
  148.2117  132.9583  152.3684 C   0  0  0  0  0  0  0  0  0  0  0  0
  146.6643  133.0401  152.4246 C   0  0  2  0  0  0  0  0  0  0  0  0
  146.2509  132.3817  153.6074 O   0  0  0  0  0  0  0  0  0  0  0  0
  145.9988  132.3631  151.2057 C   0  0  0  0  0  0  0  0  0  0  0  0
  144.5013  132.6766  151.1275 C   0  0  0  0  0  0  0  0  0  0  0  0
  144.2736  134.1895  151.2126 C   0  0  0  0  0  0  0  0  0  0  0  0
  144.8111  134.6717  152.4361 O   0  0  0  0  0  0  0  0  0  0  0  0
  146.2241  134.5185  152.5456 C   0  0  0  0  0  0  0  0  0  0  0  0
  148.6045  135.3738  153.7723 H   0  0  0  0  0  0  0  0  0  0  0  0
  148.6007  133.6314  151.6030 H   0  0  0  0  0  0  0  0  0  0  0  0
  148.5183  131.9551  152.0695 H   0  0  0  0  0  0  0  0  0  0  0  0
  145.3151  132.2570  153.5687 H   0  0  0  0  0  0  0  0  0  0  0  0
  146.4758  132.7217  150.2925 H   0  0  0  0  0  0  0  0  0  0  0  0
  146.1478  131.2827  151.2273 H   0  0  0  0  0  0  0  0  0  0  0  0
  144.0849  132.2844  150.1992 H   0  0  0  0  0  0  0  0  0  0  0  0
  143.9729  132.1792  151.9417 H   0  0  0  0  0  0  0  0  0  0  0  0
  144.7306  134.7061  150.3671 H   0  0  0  0  0  0  0  0  0  0  0  0
  143.2064  134.4103  151.1848 H   0  0  0  0  0  0  0  0  0  0  0  0
  146.5539  134.9433  153.4945 H   0  0  0  0  0  0  0  0  0  0  0  0
  146.6944  135.1156  151.7626 H   0  0  0  0  0  0  0  0  0  0  0  0
  1  2  2  0  0  0  0
  2 11  1  0  0  0  0
  2  3  1  0  0  0  0
  3  4  1  0  0  0  0
  4  5  1  0  0  0  0
  4  9  2  0  0  0  0
  5  6  1  0  0  0  0
  5  7  1  0  0  0  0
  5  8  1  0  0  0  0
  9 10  1  0  0  0  0
 10 14  1  0  0  0  0
 10 11  2  0  0  0  0
 11 12  1  0  0  0  0
 12 13  2  0  0  0  0
 13 14  1  0  0  0  0
 13 23  1  0  0  0  0
 14 15  1  0  0  0  0
 15 16  1  0  0  0  0
 15 24  1  0  0  0  0
 15 25  1  0  0  0  0
 16 22  1  0  0  0  0
 16 17  1  0  0  0  0
 16 18  1  0  0  0  0
 17 26  1  0  0  0  0
 18 19  1  0  0  0  0
 18 27  1  0  0  0  0
 18 28  1  0  0  0  0
 19 20  1  0  0  0  0
 19 29  1  0  0  0  0
 19 30  1  0  0  0  0
 20 21  1  0  0  0  0
 20 31  1  0  0  0  0
 20 32  1  0  0  0  0
 21 22  1  0  0  0  0
 22 33  1  0  0  0  0
 22 34  1  0  0  0  0
M  CHG  1   3  -1
M  END
> <s_m_source_file>
AV-unprocessed.smi

> <i_m_source_file_index>
9

> <i_lp_mmshare_version>
43012

> <i_f3d_flags>
0

> <s_epik_input>
RkMoRikoRiljKG4xKVtuSF1jKD1PKWMoYzEyKW5bY0hdbjJbQ0gyXVtDQEBdMyhbT0hdKVtDSDJdW0NIMl1bQ0gyXU9bQ0gyXTM=

> <s_epik_cmdline>
J2VwaWtfcHl0aG9uJywgJy1waCcsICc3LjAnLCAnLXRuJywgJzgnLCAnLW1hJywgJzIwMCcsICctbWV0YWxfYmluZGluZycsICctaW1hZScsICc8aW5maWxlLm1hZT4nLCAnLW9tYWUnLCAnPG91dGZpbGUubWFlPic=

> <r_lp_tautomer_probability>
1

> <r_epik_Ionization_Penalty>
0.188582

> <r_epik_Ionization_Penalty_Charging>
1.37005e-11

> <r_epik_Ionization_Penalty_Neutral>
0.188582

> <r_epik_State_Penalty>
0.012336

> <r_epik_Charging_Adjusted_Penalty>
0.012336

> <i_epik_Tot_Q>
-1

> <i_epik_Tot_abs_Q>
1

> <r_epik_Metal_State_Penalty>
0.0089237

> <b_epik_Metal_Only>
0

> <s_lp_Force_Field>
OPLS_2005

> <r_lp_Energy>
37.4202

> <b_lp_Chiralities_Consistent>
1

> <s_lp_Variant>
AV-unprocessed.smi:9-2

> <Gold.Version>
5.8.1

> <Gold.Id.Protein>
6NUR|6NUR_protein|mol2

> <Gold.PLP.Fitness>
36.1608

> <Gold.PLP.PLP>
-30.9540

> <Gold.PLP.part.hbond>
-1.0000

> <Gold.PLP.part.metal>
0.0000

> <Gold.PLP.part.buried>
-0.8568

> <Gold.PLP.part.nonpolar>
-29.2573

> <Gold.PLP.part.repulsive>
0.2078

> <Gold.PLP.ligand.clash>
0.0000

> <Gold.PLP.ligand.torsion>
0.2903

> <Gold.PLP.Chemscore.Hbond>
1.0000

> <Gold.PLP.Chemscore.CHOScore>
0.9269

> <Gold.PLP.Chemscore.Metal>
0.0000

> <Gold.Chemscore.Hbonds>
donor molecule, donor type, donor heavy atom, donor atom, acceptor molecule, acceptor atom, score
      P1  H  6896  6907       L1     1  0.93
      L1  C    13    23       P1  7948  0.98

> <Gold.PLP.Chemscore.Internal.Correction>
0.0066

> <Gold.Rescore>
     Score         DG    S(hbond)    S(metal)    S(lipo)     H(rot)  DE(clash)    DE(int)     intcor
      8.13      -8.57       0.98        0.00      45.00       2.12       0.05       0.40       ----

> <Gold.Chemscore.Fitness>
8.1299

> <Gold.Chemscore.DG>
-8.5726

> <Gold.Chemscore.ZeroCoef>
-5.4800

> <Gold.Chemscore.Hbond>
0.9775

> <Gold.Chemscore.Metal>
0.0000

> <Gold.Chemscore.Lipo>
44.9992

> <Gold.Chemscore.Internal_Hbond>
0.0000

> <Gold.Chemscore.DEClash>
0.0458

> <Gold.Chemscore.DEInternal>
0.3969

> <Gold.Chemscore.Rot>
2.1239

> <Gold.Chemscore.Internal.Correction>
   9.000000E+99

> <Gold.Chemscore.Hbonds>
donor molecule, donor type, donor heavy atom, donor atom, acceptor molecule, acceptor atom, score
      P1  H  6896  6907       L1     1  0.91

> <Gold.Chemscore.Hbond.Weighted>
-3.2650

> <Gold.Chemscore.Metal.Weighted>
-0.0000

> <Gold.Chemscore.Lipo.Weighted>
-5.2649

> <Gold.Chemscore.Internal_Hbond.Weighted>
0.0000

> <Gold.Chemscore.DEClash.Weighted>
0.0458

> <Gold.Chemscore.DEInternal.Weighted>
0.3969

> <Gold.Chemscore.Rot.Weighted>
5.4373

> <Gold.Chemscore.Internal.Correction.Weighted>
   9.000000E+99

> <Gold.Protein.RotatedTorsions>
[ 6907 6896 6895 6894 ] final -148.86 input  -60.11 | X-H torsion
[ 7974 7965 7964 7962 ] final  -29.63 input  175.53 | X-H torsion
[ 8008 7997 7996 7995 ] final  121.12 input   59.86 | X-H torsion
[ 10167 10162 10161 10158 ] final   79.03 input  -65.29 | X-H torsion
[ 10718 10713 10712 10709 ] final    5.01 input   66.30 | X-H torsion
[ 10763 10752 10751 10750 ] final  -65.12 input  -60.55 | X-H torsion
[ 11005 11000 10999 10996 ] final -155.45 input  -57.11 | X-H torsion

> <Gold.Protein.ActiveResidues>
 VAL166  LYS551  ARG553  GLY616  TRP617  ASP618  TYR619  PRO620  LYS621  CYS622 
 ASP623  PHE694  ASN695  SER759  ASP760  ASP761  ALA762  ILE779  LEU786  VAL792 
 PHE793  MET794  SER795  GLU796  ALA797  LYS798  CYS799  TRP800  GLU811  SER814 

> <Gold.Protein.RotatedAtoms>
  151.1758  133.4756  159.2593 H   0  0  0  0  0  0  0  0  0  0  0  0  # atno 6907 bound_to 6896
  151.1309  135.0129  159.8592 H   0  0  0  0  0  0  0  0  0  0  0  0  # atno 6908 bound_to 6896
  152.5460  134.1661  159.8630 H   0  0  0  0  0  0  0  0  0  0  0  0  # atno 6909 bound_to 6896
  146.1202  140.5437  142.8738 H   0  0  0  0  0  0  0  0  0  0  0  0  # atno 7974 bound_to 7965
  156.2673  140.2815  156.1258 H   0  0  0  0  0  0  0  0  0  0  0  0  # atno 8008 bound_to 7997
  155.1107  140.0391  157.2740 H   0  0  0  0  0  0  0  0  0  0  0  0  # atno 8009 bound_to 7997
  154.6745  140.2595  155.6978 H   0  0  0  0  0  0  0  0  0  0  0  0  # atno 8010 bound_to 7997
  139.9646  144.5937  150.8040 H   0  0  0  0  0  0  0  0  0  0  0  0  # atno 10167 bound_to 10162
  156.9010  130.5722  149.5648 H   0  0  0  0  0  0  0  0  0  0  0  0  # atno 10718 bound_to 10713
  154.3402  135.6158  153.5593 H   0  0  0  0  0  0  0  0  0  0  0  0  # atno 10763 bound_to 10752
  152.9805  135.5768  154.4861 H   0  0  0  0  0  0  0  0  0  0  0  0  # atno 10764 bound_to 10752
  154.4564  135.2854  155.1722 H   0  0  0  0  0  0  0  0  0  0  0  0  # atno 10765 bound_to 10752
  140.6864  134.4089  157.5223 H   0  0  0  0  0  0  0  0  0  0  0  0  # atno 11005 bound_to 11000
  144.7590  140.5377  143.6748 LP  0  0  0  0  0  0  0  0  0  0  0  0  # atno 17320 bound_to 7965
  145.5481  139.1476  143.3409 LP  0  0  0  0  0  0  0  0  0  0  0  0  # atno 17321 bound_to 7965
  140.7542  143.3022  151.3051 LP  0  0  0  0  0  0  0  0  0  0  0  0  # atno 17342 bound_to 10162
  139.6527  144.0332  152.2638 LP  0  0  0  0  0  0  0  0  0  0  0  0  # atno 17343 bound_to 10162
  156.0582  130.5639  150.9136 LP  0  0  0  0  0  0  0  0  0  0  0  0  # atno 17370 bound_to 10713
  157.6026  131.0940  150.8934 LP  0  0  0  0  0  0  0  0  0  0  0  0  # atno 17371 bound_to 10713
  139.8936  134.8726  156.2214 LP  0  0  0  0  0  0  0  0  0  0  0  0  # atno 17394 bound_to 11000
  141.0277  133.7006  156.1375 LP  0  0  0  0  0  0  0  0  0  0  0  0  # atno 17395 bound_to 11000

$$$$
