#       Name:                AV-unprocessed.smi:1228
#       Creating user name   scv26
#       Creation time:       Fri Mar 27 04:22:00 2020


#       File generated by GOLD software.
#

@<TRIPOS>MOLECULE
AV-unprocessed.smi:1228
    47    49     1
SMALL
NO_CHARGES


@<TRIPOS>ATOM
      1 ****        -7.1443   0.5756  -0.1182 C.3            1 S1                 0.0000
      2 ****        -5.7468   1.1129  -0.0233 C.2            1 S1                 0.0000
      3 ****        -4.5216   0.4121  -0.2216 C.2            1 S1                 0.0000
      4 ****        -3.5814   1.3839  -0.0124 C.2            1 S1                 0.0000
      5 ****        -2.2263   1.2902  -0.0717 N.am           1 S1                 0.0000
      6 ****        -1.4689   0.2127  -0.3424 C.2            1 S1                 0.0000
      7 ****        -1.8940  -0.9161  -0.5895 O.2            1 S1                 0.0000
      8 ****        -0.1640   0.5193  -0.3090 N.am           1 S1                 0.0000
      9 ****         0.9276  -0.4175  -0.5584 C.3            1 S1                 0.0000
     10 ****         1.2549  -1.2308   0.7066 C.3            1 S1                 0.0000
     11 ****         2.5045  -2.1036   0.4957 C.3            1 S1                 0.0000
     12 ****         3.6497  -1.2695   0.1293 N.3            1 S1                 0.0000
     13 ****         4.8199  -2.1192  -0.0198 C.3            1 S1                 0.0000
     14 ****         5.6172  -2.4349   1.2250 C.3            1 S1                 0.0000
     15 ****         6.1763  -1.4864   0.1922 C.3            1 S1                 0.0000
     16 ****         3.3878  -0.5974  -1.1435 C.3            1 S1                 0.0000
     17 ****         2.1825   0.3492  -1.0041 C.3            1 S1                 0.0000
     18 ****        -4.2222   2.5654   0.2878 N.pl3          1 S1                 0.0000
     19 ****        -3.6603   3.8691   0.5833 C.3            1 S1                 0.0000
     20 ****        -5.5617   2.3931   0.2791 N.2            1 S1                 0.0000
     21 ****        -7.1433  -0.4763  -0.4044 H              1 S1                 0.0000
     22 ****        -7.7255   1.1205  -0.8625 H              1 S1                 0.0000
     23 ****        -7.6626   0.6587   0.8372 H              1 S1                 0.0000
     24 ****        -4.3802  -0.6277  -0.4753 H              1 S1                 0.0000
     25 ****        -1.7281   2.1481   0.1141 H              1 S1                 0.0000
     26 ****         0.0960   1.4712  -0.0960 H              1 S1                 0.0000
     27 ****         0.6421  -1.1023  -1.3596 H              1 S1                 0.0000
     28 ****         1.4210  -0.5595   1.5506 H              1 S1                 0.0000
     29 ****         0.4090  -1.8638   0.9769 H              1 S1                 0.0000
     30 ****         2.7278  -2.6444   1.4162 H              1 S1                 0.0000
     31 ****         2.3192  -2.8506  -0.2780 H              1 S1                 0.0000
     32 ****         4.7917  -2.9133  -0.7644 H              1 S1                 0.0000
     33 ****         5.2818  -2.0076   2.1682 H              1 S1                 0.0000
     34 ****         6.0651  -3.4240   1.2951 H              1 S1                 0.0000
     35 ****         6.9979  -1.8433  -0.4256 H              1 S1                 0.0000
     36 ****         6.2123  -0.4295   0.4501 H              1 S1                 0.0000
     37 ****         4.2670  -0.0245  -1.4407 H              1 S1                 0.0000
     38 ****         3.2043  -1.3326  -1.9286 H              1 S1                 0.0000
     39 ****         1.9962   0.8507  -1.9544 H              1 S1                 0.0000
     40 ****         2.4202   1.1320  -0.2818 H              1 S1                 0.0000
     41 ****        -2.9177   3.7780   1.3766 H              1 S1                 0.0000
     42 ****        -4.4404   4.5586   0.9091 H              1 S1                 0.0000
     43 ****        -3.1817   4.2714  -0.3098 H              1 S1                 0.0000
     44 ****        -2.8790  -1.0883  -0.5996 LP             1 S1                 0.0000
     45 ****        -1.2543  -1.6606  -0.7800 LP             1 S1                 0.0000
     46 ****         3.8041  -0.5843   0.8412 LP             1 S1                 0.0000
     47 ****        -6.2637   3.0817   0.4613 LP             1 S1                 0.0000
@<TRIPOS>BOND
    1    1    2 1     
    2    1   21 1     
    3    1   22 1     
    4    1   23 1     
    5    2   20 2     
    6    2    3 1     
    7    3    4 2     
    8    3   24 1     
    9    4    5 1     
   10    4   18 1     
   11    5    6 am    
   12    5   25 1     
   13    6    7 2     
   14    6    8 am    
   15    8    9 1     
   16    8   26 1     
   17    9   17 1     
   18    9   10 1     
   19    9   27 1     
   20   10   11 1     
   21   10   28 1     
   22   10   29 1     
   23   11   12 1     
   24   11   30 1     
   25   11   31 1     
   26   12   13 1     
   27   12   16 1     
   28   13   15 1     
   29   13   14 1     
   30   13   32 1     
   31   14   15 1     
   32   14   33 1     
   33   14   34 1     
   34   15   35 1     
   35   15   36 1     
   36   16   17 1     
   37   16   37 1     
   38   16   38 1     
   39   17   39 1     
   40   17   40 1     
   41   18   19 1     
   42   18   20 1     
   43   19   41 1     
   44   19   42 1     
   45   19   43 1     
   46    7   44 1     
   47    7   45 1     
   48   12   46 1     
   49   20   47 1     
@<TRIPOS>SUBSTRUCTURE
      1 S1             1
@<TRIPOS>SET
LONE_PAIRS      STATIC     ATOMS    <user>   **** ""
4 44 45 46 47
DONOR_HYDROGENS      STATIC     ATOMS    <user>   **** ""
2 25 26
ATOM$BLUE        STATIC     ATOMS    COLORGROUP SYSTEM
4 44 45 46 47
ATOM$RED        STATIC     ATOMS    COLORGROUP SYSTEM
2 25 26
