AV-unprocessed.smi:1783|AV-procd|sdf|7194|dock8
  -GOLD-   22720 8433D 1   1.00000     0.00000
 Structure written by MMmdl.
 29 30  0  0  0  0  0  0  0  0  2 V2000
  150.6189  139.9177  154.1745 O   0  0  0  0  0  0  0  0  0  0  0  0
  149.6010  140.1428  154.8294 C   0  0  0  0  0  0  0  0  0  0  0  0
  149.5738  140.5909  156.0999 N   0  0  0  0  0  0  0  0  0  0  0  0
  150.6346  140.9299  156.9580 C   0  0  0  0  0  0  0  0  0  0  0  0
  150.7044  142.0690  157.7017 C   0  0  0  0  0  0  0  0  0  0  0  0
  151.8290  142.3586  158.5825 C   0  0  0  0  0  0  0  0  0  0  0  0
  151.9017  143.5802  159.4816 C   0  0  0  0  0  0  0  0  0  0  0  0
  150.7355  144.2254  159.5115 F   0  0  0  0  0  0  0  0  0  0  0  0
  152.2037  143.2104  160.7254 F   0  0  0  0  0  0  0  0  0  0  0  0
  152.8403  144.4280  159.0608 F   0  0  0  0  0  0  0  0  0  0  0  0
  152.7664  141.3439  158.5866 C   0  0  0  0  0  0  0  0  0  0  0  0
  152.7780  140.1936  157.8784 N   0  5  0  0  0  0  0  0  0  0  0  0
  151.7253  139.9369  157.0515 C   0  0  0  0  0  0  0  0  0  0  0  0
  151.6669  138.9022  156.3860 O   0  0  0  0  0  0  0  0  0  0  0  0
  148.2273  139.9021  154.1923 C   0  0  2  0  0  0  0  0  0  0  0  0
  147.4715  141.1934  153.8254 C   0  0  0  0  0  0  0  0  0  0  0  0
  146.3003  141.2142  154.7889 C   0  0  0  0  0  0  0  0  0  0  0  0
  146.0830  139.7311  155.0517 C   0  0  0  0  0  0  0  0  0  0  0  0
  147.4063  139.2298  155.1456 O   0  0  0  0  0  0  0  0  0  0  0  0
  148.6600  140.6732  156.5218 H   0  0  0  0  0  0  0  0  0  0  0  0
  149.9131  142.7992  157.6751 H   0  0  0  0  0  0  0  0  0  0  0  0
  153.6368  141.4742  159.2647 H   0  0  0  0  0  0  0  0  0  0  0  0
  148.3250  139.2732  153.3054 H   0  0  0  0  0  0  0  0  0  0  0  0
  148.0741  142.1001  153.8972 H   0  0  0  0  0  0  0  0  0  0  0  0
  147.1092  141.1260  152.7988 H   0  0  0  0  0  0  0  0  0  0  0  0
  146.5845  141.7186  155.7134 H   0  0  0  0  0  0  0  0  0  0  0  0
  145.4190  141.7108  154.3827 H   0  0  0  0  0  0  0  0  0  0  0  0
  145.5150  139.5411  155.9625 H   0  0  0  0  0  0  0  0  0  0  0  0
  145.5691  139.2560  154.2147 H   0  0  0  0  0  0  0  0  0  0  0  0
  1  2  2  0  0  0  0
  2  3  1  0  0  0  0
  2 15  1  0  0  0  0
  3  4  1  0  0  0  0
  3 20  1  0  0  0  0
  4 13  1  0  0  0  0
  4  5  2  0  0  0  0
  5  6  1  0  0  0  0
  5 21  1  0  0  0  0
  6  7  1  0  0  0  0
  6 11  2  0  0  0  0
  7  8  1  0  0  0  0
  7  9  1  0  0  0  0
  7 10  1  0  0  0  0
 11 12  1  0  0  0  0
 11 22  1  0  0  0  0
 12 13  1  0  0  0  0
 13 14  2  0  0  0  0
 15 19  1  0  0  0  0
 15 16  1  0  0  0  0
 15 23  1  0  0  0  0
 16 17  1  0  0  0  0
 16 24  1  0  0  0  0
 16 25  1  0  0  0  0
 17 18  1  0  0  0  0
 17 26  1  0  0  0  0
 17 27  1  0  0  0  0
 18 19  1  0  0  0  0
 18 28  1  0  0  0  0
 18 29  1  0  0  0  0
M  CHG  1  12  -1
M  END
> <s_m_source_file>
AV-unprocessed.smi

> <i_m_source_file_index>
1783

> <i_lp_mmshare_version>
43012

> <i_f3d_flags>
0

> <s_epik_input>
TzFbQ0gyXVtDSDJdW0NIMl1bQ0BIXTFDKD1PKVtOSF1jMltjSF1jKEMoRikoRilGKVtjSF1bbkhdYzI9Tw==

> <s_epik_cmdline>
J2VwaWtfcHl0aG9uJywgJy1waCcsICc3LjAnLCAnLXRuJywgJzgnLCAnLW1hJywgJzIwMCcsICctbWV0YWxfYmluZGluZycsICctaW1hZScsICc8aW5maWxlLm1hZT4nLCAnLW9tYWUnLCAnPG91dGZpbGUubWFlPic=

> <r_epik_Ionization_Penalty>
2.55264

> <r_epik_Ionization_Penalty_Charging>
0.0580859

> <r_epik_Ionization_Penalty_Neutral>
2.49455

> <r_epik_State_Penalty>
2.65913

> <r_epik_Charging_Adjusted_Penalty>
2.71721

> <i_epik_Tot_Q>
-1

> <i_epik_Tot_abs_Q>
1

> <r_epik_Metal_State_Penalty>
0.516671

> <b_epik_Metal_Only>
0

> <s_lp_Force_Field>
OPLS_2005

> <r_lp_Energy>
34.3394

> <b_lp_Chiralities_Consistent>
1

> <s_lp_Variant>
AV-unprocessed.smi:1783-3

> <Gold.Version>
5.8.1

> <Gold.Id.Protein>
6NUR|6NUR_protein|mol2

> <Gold.PLP.Fitness>
39.2749

> <Gold.PLP.PLP>
-32.5424

> <Gold.PLP.part.hbond>
-1.9466

> <Gold.PLP.part.metal>
0.0000

> <Gold.PLP.part.buried>
-4.5928

> <Gold.PLP.part.nonpolar>
-26.1306

> <Gold.PLP.part.repulsive>
0.2443

> <Gold.PLP.ligand.clash>
0.0000

> <Gold.PLP.ligand.torsion>
1.1618

> <Gold.PLP.Chemscore.Hbond>
3.0000

> <Gold.PLP.Chemscore.CHOScore>
0.0000

> <Gold.PLP.Chemscore.Metal>
0.0000

> <Gold.Chemscore.Hbonds>
donor molecule, donor type, donor heavy atom, donor atom, acceptor molecule, acceptor atom, score
      P1  H  7989  7998       L1     1  1.00
      P1  H  7997  8010       L1    12  1.98

> <Gold.PLP.Chemscore.Internal.Correction>
0.0560

> <Gold.Rescore>
     Score         DG    S(hbond)    S(metal)    S(lipo)     H(rot)  DE(clash)    DE(int)     intcor
     10.81     -14.44       1.57        0.00      53.71       1.00       0.10       3.53       ----

> <Gold.Chemscore.Fitness>
10.8130

> <Gold.Chemscore.DG>
-14.4436

> <Gold.Chemscore.ZeroCoef>
-5.4800

> <Gold.Chemscore.Hbond>
1.5688

> <Gold.Chemscore.Metal>
0.0000

> <Gold.Chemscore.Lipo>
53.7082

> <Gold.Chemscore.Internal_Hbond>
0.0000

> <Gold.Chemscore.DEClash>
0.1006

> <Gold.Chemscore.DEInternal>
3.5299

> <Gold.Chemscore.Rot>
1.0000

> <Gold.Chemscore.Internal.Correction>
   9.000000E+99

> <Gold.Chemscore.Hbonds>
donor molecule, donor type, donor heavy atom, donor atom, acceptor molecule, acceptor atom, score
      P1  H  7989  7998       L1     1  0.94
      P1  H  7997  8010       L1    12  0.48

> <Gold.Chemscore.Hbond.Weighted>
-5.2397

> <Gold.Chemscore.Metal.Weighted>
-0.0000

> <Gold.Chemscore.Lipo.Weighted>
-6.2839

> <Gold.Chemscore.Internal_Hbond.Weighted>
0.0000

> <Gold.Chemscore.DEClash.Weighted>
0.1006

> <Gold.Chemscore.DEInternal.Weighted>
3.5299

> <Gold.Chemscore.Rot.Weighted>
2.5600

> <Gold.Chemscore.Internal.Correction.Weighted>
   9.000000E+99

> <Gold.Protein.RotatedTorsions>
[ 6907 6896 6895 6894 ] final -137.43 input  -60.11 | X-H torsion
[ 7974 7965 7964 7962 ] final -125.43 input  175.53 | X-H torsion
[ 8008 7997 7996 7995 ] final   46.61 input   59.86 | X-H torsion
[ 10167 10162 10161 10158 ] final    2.46 input  -65.29 | X-H torsion
[ 10718 10713 10712 10709 ] final  -87.24 input   66.30 | X-H torsion
[ 10763 10752 10751 10750 ] final   17.59 input  -60.55 | X-H torsion
[ 11005 11000 10999 10996 ] final   10.47 input  -57.11 | X-H torsion

> <Gold.Protein.ActiveResidues>
 VAL166  LYS551  ARG553  GLY616  TRP617  ASP618  TYR619  PRO620  LYS621  CYS622 
 ASP623  PHE694  ASN695  SER759  ASP760  ASP761  ALA762  ILE779  LEU786  VAL792 
 PHE793  MET794  SER795  GLU796  ALA797  LYS798  CYS799  TRP800  GLU811  SER814 

> <Gold.Protein.RotatedAtoms>
  151.0224  133.5865  159.2669 H   0  0  0  0  0  0  0  0  0  0  0  0  # atno 6907 bound_to 6896
  151.2977  135.0759  159.9237 H   0  0  0  0  0  0  0  0  0  0  0  0  # atno 6908 bound_to 6896
  152.5326  133.9911  159.7905 H   0  0  0  0  0  0  0  0  0  0  0  0  # atno 6909 bound_to 6896
  144.9977  140.7791  143.4515 H   0  0  0  0  0  0  0  0  0  0  0  0  # atno 7974 bound_to 7965
  155.3554  140.3416  155.4240 H   0  0  0  0  0  0  0  0  0  0  0  0  # atno 8008 bound_to 7997
  156.1742  140.1642  156.8428 H   0  0  0  0  0  0  0  0  0  0  0  0  # atno 8009 bound_to 7997
  154.5264  140.0755  156.8249 H   0  0  0  0  0  0  0  0  0  0  0  0  # atno 8010 bound_to 7997
  140.6634  143.7244  150.7781 H   0  0  0  0  0  0  0  0  0  0  0  0  # atno 10167 bound_to 10162
  155.9986  130.4793  150.4837 H   0  0  0  0  0  0  0  0  0  0  0  0  # atno 10718 bound_to 10713
  153.1325  135.6743  153.9156 H   0  0  0  0  0  0  0  0  0  0  0  0  # atno 10763 bound_to 10752
  153.8638  135.3078  155.3440 H   0  0  0  0  0  0  0  0  0  0  0  0  # atno 10764 bound_to 10752
  154.7719  135.4934  153.9748 H   0  0  0  0  0  0  0  0  0  0  0  0  # atno 10765 bound_to 10752
  140.5141  134.0623  155.7826 H   0  0  0  0  0  0  0  0  0  0  0  0  # atno 11005 bound_to 11000
  145.2196  139.2165  143.5100 LP  0  0  0  0  0  0  0  0  0  0  0  0  # atno 17320 bound_to 7965
  146.3445  140.2051  142.8589 LP  0  0  0  0  0  0  0  0  0  0  0  0  # atno 17321 bound_to 7965
  140.0917  143.4871  152.2475 LP  0  0  0  0  0  0  0  0  0  0  0  0  # atno 17342 bound_to 10162
  139.5875  144.7537  151.3484 LP  0  0  0  0  0  0  0  0  0  0  0  0  # atno 17343 bound_to 10162
  157.2839  131.0612  151.2179 LP  0  0  0  0  0  0  0  0  0  0  0  0  # atno 17370 bound_to 10713
  157.3215  130.6940  149.6272 LP  0  0  0  0  0  0  0  0  0  0  0  0  # atno 17371 bound_to 10713
  141.1370  133.9205  157.2412 LP  0  0  0  0  0  0  0  0  0  0  0  0  # atno 17394 bound_to 11000
  139.9642  135.0146  156.9344 LP  0  0  0  0  0  0  0  0  0  0  0  0  # atno 17395 bound_to 11000

$$$$
