AV-unprocessed.smi:937|AV-procd|sdf|4214|dock6
  -GOLD-   22720 2123D 1   1.00000     0.00000
 Structure written by MMmdl.
 46 47  0  0  0  0  0  0  0  0  2 V2000
  151.6701  144.9035  158.7795 C   0  0  0  0  0  0  0  0  0  0  0  0
  151.7206  143.4884  158.2434 C   0  0  0  0  0  0  0  0  0  0  0  0
  152.5170  142.4869  158.8396 C   0  0  0  0  0  0  0  0  0  0  0  0
  152.5138  141.1871  158.2919 C   0  0  0  0  0  0  0  0  0  0  0  0
  151.7137  140.9150  157.1607 C   0  0  0  0  0  0  0  0  0  0  0  0
  151.6856  139.5300  156.5457 C   0  0  0  0  0  0  0  0  0  0  0  0
  150.9153  139.5012  155.2157 C   0  0  0  0  0  0  0  0  0  0  0  0
  150.1581  138.2646  155.0675 N   0  0  0  0  0  0  0  0  0  0  0  0
  150.7003  137.0562  154.8389 C   0  0  0  0  0  0  0  0  0  0  0  0
  151.9119  136.8669  154.7457 O   0  0  0  0  0  0  0  0  0  0  0  0
  149.8137  136.0526  154.7114 N   0  0  0  0  0  0  0  0  0  0  0  0
  150.0734  134.6337  154.4605 C   0  0  1  0  0  0  0  0  0  0  0  0
  150.7309  133.9729  155.6897 C   0  0  0  0  0  0  0  0  0  0  0  0
  150.9284  132.4654  155.4742 C   0  0  0  0  0  0  0  0  0  0  0  0
  149.6029  131.7735  155.1208 C   0  0  0  0  0  0  0  0  0  0  0  0
  148.9395  132.4141  153.8833 C   0  0  1  0  0  0  0  0  0  0  0  0
  147.6164  131.7145  153.5089 C   0  0  0  0  0  0  0  0  0  0  0  0
  147.0516  132.3008  152.4529 F   0  0  0  0  0  0  0  0  0  0  0  0
  147.8433  130.4330  153.2200 F   0  0  0  0  0  0  0  0  0  0  0  0
  146.7670  131.7645  154.5352 F   0  0  0  0  0  0  0  0  0  0  0  0
  148.7485  133.9292  154.1109 C   0  0  0  0  0  0  0  0  0  0  0  0
  150.9385  141.9561  156.6063 C   0  0  0  0  0  0  0  0  0  0  0  0
  150.9690  143.1877  157.1605 N   0  3  0  0  0  0  0  0  0  0  0  0
  152.5842  145.1449  159.3225 H   0  0  0  0  0  0  0  0  0  0  0  0
  150.8264  145.0185  159.4601 H   0  0  0  0  0  0  0  0  0  0  0  0
  151.5587  145.6235  157.9679 H   0  0  0  0  0  0  0  0  0  0  0  0
  153.1224  142.7094  159.7063 H   0  0  0  0  0  0  0  0  0  0  0  0
  153.1187  140.4100  158.7360 H   0  0  0  0  0  0  0  0  0  0  0  0
  152.7092  139.1845  156.3927 H   0  0  0  0  0  0  0  0  0  0  0  0
  151.2335  138.8411  157.2607 H   0  0  0  0  0  0  0  0  0  0  0  0
  150.2426  140.3577  155.1434 H   0  0  0  0  0  0  0  0  0  0  0  0
  151.6101  139.5808  154.3792 H   0  0  0  0  0  0  0  0  0  0  0  0
  149.1527  138.3301  155.1334 H   0  0  0  0  0  0  0  0  0  0  0  0
  148.8404  136.3045  154.8077 H   0  0  0  0  0  0  0  0  0  0  0  0
  150.7383  134.5323  153.6008 H   0  0  0  0  0  0  0  0  0  0  0  0
  151.6939  134.4376  155.9037 H   0  0  0  0  0  0  0  0  0  0  0  0
  150.1094  134.1330  156.5718 H   0  0  0  0  0  0  0  0  0  0  0  0
  151.6511  132.3017  154.6739 H   0  0  0  0  0  0  0  0  0  0  0  0
  151.3538  132.0153  156.3716 H   0  0  0  0  0  0  0  0  0  0  0  0
  149.7859  130.7134  154.9429 H   0  0  0  0  0  0  0  0  0  0  0  0
  148.9259  131.8299  155.9740 H   0  0  0  0  0  0  0  0  0  0  0  0
  149.6216  132.2898  153.0406 H   0  0  0  0  0  0  0  0  0  0  0  0
  148.0257  134.0884  154.9126 H   0  0  0  0  0  0  0  0  0  0  0  0
  148.3205  134.3855  153.2175 H   0  0  0  0  0  0  0  0  0  0  0  0
  150.3000  141.8421  155.7420 H   0  0  0  0  0  0  0  0  0  0  0  0
  150.3988  143.9234  156.7427 H   0  0  0  0  0  0  0  0  0  0  0  0
  1  2  1  0  0  0  0
  1 24  1  0  0  0  0
  1 25  1  0  0  0  0
  1 26  1  0  0  0  0
  2 23  1  0  0  0  0
  2  3  2  0  0  0  0
  3  4  1  0  0  0  0
  3 27  1  0  0  0  0
  4  5  2  0  0  0  0
  4 28  1  0  0  0  0
  5  6  1  0  0  0  0
  5 22  1  0  0  0  0
  6  7  1  0  0  0  0
  6 29  1  0  0  0  0
  6 30  1  0  0  0  0
  7  8  1  0  0  0  0
  7 31  1  0  0  0  0
  7 32  1  0  0  0  0
  8  9  1  0  0  0  0
  8 33  1  0  0  0  0
  9 10  2  0  0  0  0
  9 11  1  0  0  0  0
 11 12  1  0  0  0  0
 11 34  1  0  0  0  0
 12 21  1  0  0  0  0
 12 13  1  0  0  0  0
 12 35  1  0  0  0  0
 13 14  1  0  0  0  0
 13 36  1  0  0  0  0
 13 37  1  0  0  0  0
 14 15  1  0  0  0  0
 14 38  1  0  0  0  0
 14 39  1  0  0  0  0
 15 16  1  0  0  0  0
 15 40  1  0  0  0  0
 15 41  1  0  0  0  0
 16 17  1  0  0  0  0
 16 21  1  0  0  0  0
 16 42  1  0  0  0  0
 17 18  1  0  0  0  0
 17 19  1  0  0  0  0
 17 20  1  0  0  0  0
 21 43  1  0  0  0  0
 21 44  1  0  0  0  0
 22 23  2  0  0  0  0
 22 45  1  0  0  0  0
 23 46  1  0  0  0  0
M  CHG  1  23   1
M  END
> <s_m_source_file>
AV-unprocessed.smi

> <i_m_source_file_index>
937

> <i_lp_mmshare_version>
43012

> <i_f3d_flags>
0

> <s_epik_input>
W0NIM11jMVtjSF1bY0hdYyhbY0hdbjEpW0NIMl1bQ0gyXVtOSF1DKD1PKVtOSF1bQ0BASF0yW0NIMl1bQ0gyXVtDSDJdW0NAQEhdKEMoRikoRilGKVtDSDJdMg==

> <s_epik_cmdline>
J2VwaWtfcHl0aG9uJywgJy1waCcsICc3LjAnLCAnLXRuJywgJzgnLCAnLW1hJywgJzIwMCcsICctbWV0YWxfYmluZGluZycsICctaW1hZScsICc8aW5maWxlLm1hZT4nLCAnLW9tYWUnLCAnPG91dGZpbGUubWFlPic=

> <r_epik_Ionization_Penalty>
1.4226

> <r_epik_Ionization_Penalty_Charging>
1.42255

> <r_epik_Ionization_Penalty_Neutral>
5.16456e-05

> <r_epik_State_Penalty>
1.50646

> <r_epik_Charging_Adjusted_Penalty>
2.92901

> <i_epik_Tot_Q>
1

> <i_epik_Tot_abs_Q>
1

> <r_epik_Metal_State_Penalty>
1.55846

> <b_epik_Metal_Only>
0

> <s_lp_Force_Field>
OPLS_2005

> <r_lp_Energy>
24.5693

> <b_lp_Chiralities_Consistent>
1

> <s_lp_Variant>
AV-unprocessed.smi:937-6

> <Gold.Version>
5.8.1

> <Gold.Id.Protein>
6NUR|6NUR_protein|mol2

> <Gold.PLP.Fitness>
52.6956

> <Gold.PLP.PLP>
-44.6716

> <Gold.PLP.part.hbond>
-3.0000

> <Gold.PLP.part.metal>
0.0000

> <Gold.PLP.part.buried>
-3.3192

> <Gold.PLP.part.nonpolar>
-37.4680

> <Gold.PLP.part.repulsive>
0.2194

> <Gold.PLP.ligand.clash>
0.0000

> <Gold.PLP.ligand.torsion>
0.5020

> <Gold.PLP.Chemscore.Hbond>
3.0000

> <Gold.PLP.Chemscore.CHOScore>
0.0000

> <Gold.PLP.Chemscore.Metal>
0.0000

> <Gold.Chemscore.Hbonds>
donor molecule, donor type, donor heavy atom, donor atom, acceptor molecule, acceptor atom, score
      L1  H    23    46       P1  8028  2.00
      P1  H 10752 10763       L1    10  1.00

> <Gold.PLP.Chemscore.Internal.Correction>
0.0280

> <Gold.Rescore>
     Score         DG    S(hbond)    S(metal)    S(lipo)     H(rot)  DE(clash)    DE(int)     intcor
     19.89     -20.43       1.98        0.00     107.68       1.66       0.02       0.52       ----

> <Gold.Chemscore.Fitness>
19.8944

> <Gold.Chemscore.DG>
-20.4331

> <Gold.Chemscore.ZeroCoef>
-5.4800

> <Gold.Chemscore.Hbond>
1.9762

> <Gold.Chemscore.Metal>
0.0000

> <Gold.Chemscore.Lipo>
107.6794

> <Gold.Chemscore.Internal_Hbond>
0.0000

> <Gold.Chemscore.DEClash>
0.0185

> <Gold.Chemscore.DEInternal>
0.5203

> <Gold.Chemscore.Rot>
1.6585

> <Gold.Chemscore.Internal.Correction>
   9.000000E+99

> <Gold.Chemscore.Hbonds>
donor molecule, donor type, donor heavy atom, donor atom, acceptor molecule, acceptor atom, score
      L1  H    23    46       P1  8028  0.94
      P1  H 10752 10763       L1    10  0.94

> <Gold.Chemscore.Hbond.Weighted>
-6.6004

> <Gold.Chemscore.Metal.Weighted>
-0.0000

> <Gold.Chemscore.Lipo.Weighted>
-12.5985

> <Gold.Chemscore.Internal_Hbond.Weighted>
0.0000

> <Gold.Chemscore.DEClash.Weighted>
0.0185

> <Gold.Chemscore.DEInternal.Weighted>
0.5203

> <Gold.Chemscore.Rot.Weighted>
4.2457

> <Gold.Chemscore.Internal.Correction.Weighted>
   9.000000E+99

> <Gold.Protein.RotatedTorsions>
[ 6907 6896 6895 6894 ] final   86.20 input  -60.11 | X-H torsion
[ 7974 7965 7964 7962 ] final -125.49 input  175.53 | X-H torsion
[ 8008 7997 7996 7995 ] final  144.66 input   59.86 | X-H torsion
[ 10167 10162 10161 10158 ] final   64.46 input  -65.29 | X-H torsion
[ 10718 10713 10712 10709 ] final  -72.81 input   66.30 | X-H torsion
[ 10763 10752 10751 10750 ] final   63.08 input  -60.55 | X-H torsion
[ 11005 11000 10999 10996 ] final   72.13 input  -57.11 | X-H torsion

> <Gold.Protein.ActiveResidues>
 VAL166  LYS551  ARG553  GLY616  TRP617  ASP618  TYR619  PRO620  LYS621  CYS622 
 ASP623  PHE694  ASN695  SER759  ASP760  ASP761  ALA762  ILE779  LEU786  VAL792 
 PHE793  MET794  SER795  GLU796  ALA797  LYS798  CYS799  TRP800  GLU811  SER814 

> <Gold.Protein.RotatedAtoms>
  152.5390  134.2468  159.8883 H   0  0  0  0  0  0  0  0  0  0  0  0  # atno 6907 bound_to 6896
  151.2433  133.4381  159.2616 H   0  0  0  0  0  0  0  0  0  0  0  0  # atno 6908 bound_to 6896
  151.0606  134.9748  159.8315 H   0  0  0  0  0  0  0  0  0  0  0  0  # atno 6909 bound_to 6896
  144.9971  140.7786  143.4519 H   0  0  0  0  0  0  0  0  0  0  0  0  # atno 7974 bound_to 7965
  156.2902  140.2230  156.5089 H   0  0  0  0  0  0  0  0  0  0  0  0  # atno 8008 bound_to 7997
  154.7626  140.0472  157.1007 H   0  0  0  0  0  0  0  0  0  0  0  0  # atno 8009 bound_to 7997
  154.9973  140.3097  155.4885 H   0  0  0  0  0  0  0  0  0  0  0  0  # atno 8010 bound_to 7997
  140.1219  144.4723  150.6915 H   0  0  0  0  0  0  0  0  0  0  0  0  # atno 10167 bound_to 10162
  156.0305  130.4380  150.2648 H   0  0  0  0  0  0  0  0  0  0  0  0  # atno 10718 bound_to 10713
  153.0005  135.5442  154.6294 H   0  0  0  0  0  0  0  0  0  0  0  0  # atno 10763 bound_to 10752
  154.5575  135.2831  155.0952 H   0  0  0  0  0  0  0  0  0  0  0  0  # atno 10764 bound_to 10752
  154.2168  135.6457  153.5185 H   0  0  0  0  0  0  0  0  0  0  0  0  # atno 10765 bound_to 10752
  139.9507  134.7232  156.0869 H   0  0  0  0  0  0  0  0  0  0  0  0  # atno 11005 bound_to 11000
  145.2205  139.2161  143.5095 LP  0  0  0  0  0  0  0  0  0  0  0  0  # atno 17320 bound_to 7965
  146.3444  140.2062  142.8589 LP  0  0  0  0  0  0  0  0  0  0  0  0  # atno 17321 bound_to 7965
  140.6867  143.2354  151.5241 LP  0  0  0  0  0  0  0  0  0  0  0  0  # atno 17342 bound_to 10162
  139.5564  144.2265  152.1619 LP  0  0  0  0  0  0  0  0  0  0  0  0  # atno 17343 bound_to 10162
  157.0750  131.0127  151.3176 LP  0  0  0  0  0  0  0  0  0  0  0  0  # atno 17370 bound_to 10713
  157.4970  130.7857  149.7566 LP  0  0  0  0  0  0  0  0  0  0  0  0  # atno 17371 bound_to 10713
  141.1169  133.6625  156.3116 LP  0  0  0  0  0  0  0  0  0  0  0  0  # atno 17394 bound_to 11000
  140.5726  134.5825  157.5461 LP  0  0  0  0  0  0  0  0  0  0  0  0  # atno 17395 bound_to 11000

$$$$
