AV-unprocessed.smi:2260|AV-procd|sdf|9135|dock3
  -GOLD-   2272012343D 1   1.00000     0.00000
 Structure written by MMmdl.
 42 43  0  0  0  0  0  0  0  0  1 V2000
  146.7285  142.5594  154.0696 C   0  0  0  0  0  0  0  0  0  0  0  0
  147.5284  141.2694  154.0155 C   0  0  0  0  0  0  0  0  0  0  0  0
  147.1070  140.1112  153.4964 C   0  0  0  0  0  0  0  0  0  0  0  0
  148.3172  138.8534  153.5798 S   0  0  0  0  0  0  0  0  0  0  0  0
  149.4649  139.9953  154.3675 C   0  0  0  0  0  0  0  0  0  0  0  0
  150.6050  139.6737  154.6988 O   0  0  0  0  0  0  0  0  0  0  0  0
  148.8364  141.2306  154.5151 N   0  0  0  0  0  0  0  0  0  0  0  0
  149.5080  142.3693  155.1469 C   0  0  0  0  0  0  0  0  0  0  0  0
  149.7822  142.0961  156.6329 C   0  0  0  0  0  0  0  0  0  0  0  0
  150.5382  143.2031  157.1975 N   0  0  0  0  0  0  0  0  0  0  0  0
  151.1906  142.8257  158.4479 C   0  0  1  0  0  0  0  0  0  0  0  0
  152.0259  141.5565  158.1807 C   0  0  0  0  0  0  0  0  0  0  0  0
  152.7510  141.0881  159.4489 C   0  0  0  0  0  0  0  0  0  0  0  0
  153.6206  142.2089  160.0319 C   0  0  0  0  0  0  0  0  0  0  0  0
  152.7907  143.4788  160.2907 C   0  0  0  0  0  0  0  0  0  0  0  0
  152.0384  143.9979  159.0373 C   0  0  0  0  0  0  0  0  0  0  0  0
  153.0525  144.5697  158.0166 C   0  0  0  0  0  0  0  0  0  0  0  0
  151.1115  145.1459  159.4904 C   0  0  0  0  0  0  0  0  0  0  0  0
  145.9027  142.5220  153.3588 H   0  0  0  0  0  0  0  0  0  0  0  0
  147.3390  143.4252  153.8147 H   0  0  0  0  0  0  0  0  0  0  0  0
  146.3114  142.7050  155.0662 H   0  0  0  0  0  0  0  0  0  0  0  0
  146.1409  139.9221  153.0523 H   0  0  0  0  0  0  0  0  0  0  0  0
  150.4333  142.6085  154.6224 H   0  0  0  0  0  0  0  0  0  0  0  0
  148.8843  143.2597  155.0467 H   0  0  0  0  0  0  0  0  0  0  0  0
  148.8421  141.9751  157.1720 H   0  0  0  0  0  0  0  0  0  0  0  0
  150.3480  141.1713  156.7515 H   0  0  0  0  0  0  0  0  0  0  0  0
  151.2347  143.5068  156.5321 H   0  0  0  0  0  0  0  0  0  0  0  0
  150.4337  142.5532  159.1862 H   0  0  0  0  0  0  0  0  0  0  0  0
  151.3789  140.7547  157.8220 H   0  0  0  0  0  0  0  0  0  0  0  0
  152.7536  141.7341  157.3883 H   0  0  0  0  0  0  0  0  0  0  0  0
  152.0183  140.7699  160.1917 H   0  0  0  0  0  0  0  0  0  0  0  0
  153.3660  140.2158  159.2265 H   0  0  0  0  0  0  0  0  0  0  0  0
  154.0768  141.8725  160.9633 H   0  0  0  0  0  0  0  0  0  0  0  0
  154.4458  142.4283  159.3542 H   0  0  0  0  0  0  0  0  0  0  0  0
  152.0689  143.2588  161.0788 H   0  0  0  0  0  0  0  0  0  0  0  0
  153.4384  144.2596  160.6921 H   0  0  0  0  0  0  0  0  0  0  0  0
  153.6660  145.3495  158.4694 H   0  0  0  0  0  0  0  0  0  0  0  0
  152.5513  145.0184  157.1589 H   0  0  0  0  0  0  0  0  0  0  0  0
  153.7316  143.8107  157.6314 H   0  0  0  0  0  0  0  0  0  0  0  0
  151.6739  145.9364  159.9888 H   0  0  0  0  0  0  0  0  0  0  0  0
  150.3523  144.7941  160.1896 H   0  0  0  0  0  0  0  0  0  0  0  0
  150.5935  145.6038  158.6471 H   0  0  0  0  0  0  0  0  0  0  0  0
  1  2  1  0  0  0  0
  1 19  1  0  0  0  0
  1 20  1  0  0  0  0
  1 21  1  0  0  0  0
  2  7  1  0  0  0  0
  2  3  2  0  0  0  0
  3  4  1  0  0  0  0
  3 22  1  0  0  0  0
  4  5  1  0  0  0  0
  5  6  2  0  0  0  0
  5  7  1  0  0  0  0
  7  8  1  0  0  0  0
  8  9  1  0  0  0  0
  8 23  1  0  0  0  0
  8 24  1  0  0  0  0
  9 10  1  0  0  0  0
  9 25  1  0  0  0  0
  9 26  1  0  0  0  0
 10 11  1  0  0  0  0
 10 27  1  0  0  0  0
 11 16  1  0  0  0  0
 11 12  1  0  0  0  0
 11 28  1  0  0  0  0
 12 13  1  0  0  0  0
 12 29  1  0  0  0  0
 12 30  1  0  0  0  0
 13 14  1  0  0  0  0
 13 31  1  0  0  0  0
 13 32  1  0  0  0  0
 14 15  1  0  0  0  0
 14 33  1  0  0  0  0
 14 34  1  0  0  0  0
 15 16  1  0  0  0  0
 15 35  1  0  0  0  0
 15 36  1  0  0  0  0
 16 17  1  0  0  0  0
 16 18  1  0  0  0  0
 17 37  1  0  0  0  0
 17 38  1  0  0  0  0
 17 39  1  0  0  0  0
 18 40  1  0  0  0  0
 18 41  1  0  0  0  0
 18 42  1  0  0  0  0
M  END
> <s_m_source_file>
AV-unprocessed.smi

> <i_m_source_file_index>
2260

> <i_lp_mmshare_version>
43012

> <i_f3d_flags>
0

> <s_epik_input>
W0NIM11jMVtjSF1zYyg9TyluMVtDSDJdW0NIMl1bTkhdW0NAQEhdKEMyKFtDSDNdKVtDSDNdKVtDSDJdW0NIMl1bQ0gyXVtDSDJdMg==

> <s_epik_cmdline>
J2VwaWtfcHl0aG9uJywgJy1waCcsICc3LjAnLCAnLXRuJywgJzgnLCAnLW1hJywgJzIwMCcsICctbWV0YWxfYmluZGluZycsICctaW1hZScsICc8aW5maWxlLm1hZT4nLCAnLW9tYWUnLCAnPG91dGZpbGUubWFlPic=

> <r_epik_Ionization_Penalty>
2.34504

> <r_epik_Ionization_Penalty_Charging>
4.7617e-06

> <r_epik_Ionization_Penalty_Neutral>
2.34504

> <r_epik_State_Penalty>
2.49894

> <r_epik_Charging_Adjusted_Penalty>
2.49895

> <i_epik_Tot_Q>
0

> <i_epik_Tot_abs_Q>
0

> <r_epik_Metal_State_Penalty>
2.49894

> <b_epik_Metal_Only>
0

> <s_lp_Force_Field>
OPLS_2005

> <r_lp_Energy>
26.7026

> <b_lp_Chiralities_Consistent>
1

> <s_lp_Variant>
AV-unprocessed.smi:2260-4

> <Gold.Version>
5.8.1

> <Gold.Id.Protein>
6NUR|6NUR_protein|mol2

> <Gold.PLP.Fitness>
47.3770

> <Gold.PLP.PLP>
-41.6370

> <Gold.PLP.part.hbond>
-2.0000

> <Gold.PLP.part.metal>
0.0000

> <Gold.PLP.part.buried>
2.7086

> <Gold.PLP.part.nonpolar>
-41.7337

> <Gold.PLP.part.repulsive>
0.0802

> <Gold.PLP.ligand.clash>
0.0000

> <Gold.PLP.ligand.torsion>
0.1289

> <Gold.PLP.Chemscore.Hbond>
1.0000

> <Gold.PLP.Chemscore.CHOScore>
0.9940

> <Gold.PLP.Chemscore.Metal>
0.0000

> <Gold.Chemscore.Hbonds>
donor molecule, donor type, donor heavy atom, donor atom, acceptor molecule, acceptor atom, score
      P1  H  7989  7998       L1     6  0.95
      L1  C     3    22       P1 10175  0.87

> <Gold.PLP.Chemscore.Internal.Correction>
0.0157

> <Gold.Rescore>
     Score         DG    S(hbond)    S(metal)    S(lipo)     H(rot)  DE(clash)    DE(int)     intcor
     15.68     -18.60       0.99        0.00     115.02       1.43       1.64       1.29       ----

> <Gold.Chemscore.Fitness>
15.6756

> <Gold.Chemscore.DG>
-18.5980

> <Gold.Chemscore.ZeroCoef>
-5.4800

> <Gold.Chemscore.Hbond>
0.9932

> <Gold.Chemscore.Metal>
0.0000

> <Gold.Chemscore.Lipo>
115.0221

> <Gold.Chemscore.Internal_Hbond>
0.0000

> <Gold.Chemscore.DEClash>
1.6354

> <Gold.Chemscore.DEInternal>
1.2870

> <Gold.Chemscore.Rot>
1.4285

> <Gold.Chemscore.Internal.Correction>
   9.000000E+99

> <Gold.Chemscore.Hbonds>
donor molecule, donor type, donor heavy atom, donor atom, acceptor molecule, acceptor atom, score
      P1  H  7989  7998       L1     6  0.21

> <Gold.Chemscore.Hbond.Weighted>
-3.3173

> <Gold.Chemscore.Metal.Weighted>
-0.0000

> <Gold.Chemscore.Lipo.Weighted>
-13.4576

> <Gold.Chemscore.Internal_Hbond.Weighted>
0.0000

> <Gold.Chemscore.DEClash.Weighted>
1.6354

> <Gold.Chemscore.DEInternal.Weighted>
1.2870

> <Gold.Chemscore.Rot.Weighted>
3.6569

> <Gold.Chemscore.Internal.Correction.Weighted>
   9.000000E+99

> <Gold.Protein.RotatedTorsions>
[ 6907 6896 6895 6894 ] final  -54.92 input  -60.11 | X-H torsion
[ 7974 7965 7964 7962 ] final  174.57 input  175.53 | X-H torsion
[ 8008 7997 7996 7995 ] final   52.51 input   59.86 | X-H torsion
[ 10167 10162 10161 10158 ] final -142.35 input  -65.29 | X-H torsion
[ 10718 10713 10712 10709 ] final   58.48 input   66.30 | X-H torsion
[ 10763 10752 10751 10750 ] final  161.86 input  -60.55 | X-H torsion
[ 11005 11000 10999 10996 ] final    6.70 input  -57.11 | X-H torsion

> <Gold.Protein.ActiveResidues>
 VAL166  LYS551  ARG553  GLY616  TRP617  ASP618  TYR619  PRO620  LYS621  CYS622 
 ASP623  PHE694  ASN695  SER759  ASP760  ASP761  ALA762  ILE779  LEU786  VAL792 
 PHE793  MET794  SER795  GLU796  ALA797  LYS798  CYS799  TRP800  GLU811  SER814 

> <Gold.Protein.RotatedAtoms>
  150.8296  134.7543  159.6842 H   0  0  0  0  0  0  0  0  0  0  0  0  # atno 6907 bound_to 6896
  152.4402  134.5602  159.9902 H   0  0  0  0  0  0  0  0  0  0  0  0  # atno 6908 bound_to 6896
  151.5766  133.3345  159.3036 H   0  0  0  0  0  0  0  0  0  0  0  0  # atno 6909 bound_to 6896
  144.7219  139.9817  143.6439 H   0  0  0  0  0  0  0  0  0  0  0  0  # atno 7974 bound_to 7965
  155.4530  140.3459  155.4303 H   0  0  0  0  0  0  0  0  0  0  0  0  # atno 8008 bound_to 7997
  156.1208  140.1486  156.9236 H   0  0  0  0  0  0  0  0  0  0  0  0  # atno 8009 bound_to 7997
  154.4822  140.0866  156.7383 H   0  0  0  0  0  0  0  0  0  0  0  0  # atno 8010 bound_to 7997
  139.8097  143.7719  152.2663 H   0  0  0  0  0  0  0  0  0  0  0  0  # atno 10167 bound_to 10162
  157.5600  130.8828  149.9096 H   0  0  0  0  0  0  0  0  0  0  0  0  # atno 10718 bound_to 10713
  154.2695  135.2766  155.2744 H   0  0  0  0  0  0  0  0  0  0  0  0  # atno 10763 bound_to 10752
  154.5313  135.5729  153.6765 H   0  0  0  0  0  0  0  0  0  0  0  0  # atno 10764 bound_to 10752
  152.9947  135.6228  154.2849 H   0  0  0  0  0  0  0  0  0  0  0  0  # atno 10765 bound_to 10752
  140.5565  134.0233  155.7956 H   0  0  0  0  0  0  0  0  0  0  0  0  # atno 11005 bound_to 11000
  146.0482  139.3485  143.0656 LP  0  0  0  0  0  0  0  0  0  0  0  0  # atno 17320 bound_to 7965
  145.8249  140.9660  143.0879 LP  0  0  0  0  0  0  0  0  0  0  0  0  # atno 17321 bound_to 7965
  139.7864  144.7426  151.0015 LP  0  0  0  0  0  0  0  0  0  0  0  0  # atno 17342 bound_to 10162
  140.7818  143.4487  151.0444 LP  0  0  0  0  0  0  0  0  0  0  0  0  # atno 17343 bound_to 10162
  156.0653  130.3693  150.0891 LP  0  0  0  0  0  0  0  0  0  0  0  0  # atno 17370 bound_to 10713
  156.9056  130.9635  151.3570 LP  0  0  0  0  0  0  0  0  0  0  0  0  # atno 17371 bound_to 10713
  141.1140  133.9570  157.2856 LP  0  0  0  0  0  0  0  0  0  0  0  0  # atno 17394 bound_to 11000
  139.9429  135.0188  156.8764 LP  0  0  0  0  0  0  0  0  0  0  0  0  # atno 17395 bound_to 11000

$$$$
