AV-unprocessed.smi:2024|AV-procd|sdf|8193|dock2
  -GOLD-   2272010443D 1   1.00000     0.00000
 Structure written by MMmdl.
 43 44  0  0  0  0  0  0  0  0  1 V2000
  153.3983  140.7647  159.2828 C   0  0  0  0  0  0  0  0  0  0  0  0
  152.8292  140.2119  158.0635 N   0  0  0  0  0  0  0  0  0  0  0  0
  151.9742  141.1794  157.3832 C   0  0  0  0  0  0  0  0  0  0  0  0
  151.3889  140.5969  156.0840 C   0  0  0  0  0  0  0  0  0  0  0  0
  150.5992  139.3806  156.3377 N   0  0  0  0  0  0  0  0  0  0  0  0
  149.8892  138.8357  155.1465 C   0  0  0  0  0  0  0  0  0  0  0  0
  149.1857  139.9299  154.3075 C   0  0  0  0  0  0  0  0  0  0  0  0
  150.8737  138.1002  154.2022 C   0  0  0  0  0  0  0  0  0  0  0  0
  148.7998  137.7979  155.5497 C   0  0  0  0  0  0  0  0  0  0  0  0
  148.2149  137.1090  154.3994 N   0  0  0  0  0  0  0  0  0  0  0  0
  146.9430  136.6992  154.2937 C   0  0  0  0  0  0  0  0  0  0  0  0
  146.1020  136.8506  155.1798 O   0  0  0  0  0  0  0  0  0  0  0  0
  146.7208  136.1165  153.1047 N   0  0  0  0  0  0  0  0  0  0  0  0
  145.5094  135.5625  152.6226 C   0  0  0  0  0  0  0  0  0  0  0  0
  144.6707  134.9926  153.4899 N   0  0  0  0  0  0  0  0  0  0  0  0
  143.5247  134.4952  152.8627 C   0  0  0  0  0  0  0  0  0  0  0  0
  143.5071  134.6969  151.5048 C   0  0  0  0  0  0  0  0  0  0  0  0
  144.9382  135.5248  150.9524 S   0  0  0  0  0  0  0  0  0  0  0  0
  151.4625  138.4152  157.0380 C   0  0  0  0  0  0  0  0  0  0  0  0
  152.0504  139.0069  158.3324 C   0  0  0  0  0  0  0  0  0  0  0  0
  153.9940  141.6513  159.0628 H   0  0  0  0  0  0  0  0  0  0  0  0
  154.0512  140.0383  159.7676 H   0  0  0  0  0  0  0  0  0  0  0  0
  152.6176  141.0464  159.9906 H   0  0  0  0  0  0  0  0  0  0  0  0
  151.1623  141.4916  158.0426 H   0  0  0  0  0  0  0  0  0  0  0  0
  152.5480  142.0766  157.1486 H   0  0  0  0  0  0  0  0  0  0  0  0
  150.7746  141.3700  155.6263 H   0  0  0  0  0  0  0  0  0  0  0  0
  152.2020  140.3859  155.3892 H   0  0  0  0  0  0  0  0  0  0  0  0
  148.6850  139.4955  153.4414 H   0  0  0  0  0  0  0  0  0  0  0  0
  149.8866  140.6712  153.9244 H   0  0  0  0  0  0  0  0  0  0  0  0
  148.4226  140.4590  154.8780 H   0  0  0  0  0  0  0  0  0  0  0  0
  150.3443  137.5413  153.4296 H   0  0  0  0  0  0  0  0  0  0  0  0
  151.4992  137.3905  154.7447 H   0  0  0  0  0  0  0  0  0  0  0  0
  151.5367  138.7884  153.6781 H   0  0  0  0  0  0  0  0  0  0  0  0
  149.2121  137.0388  156.2139 H   0  0  0  0  0  0  0  0  0  0  0  0
  148.0209  138.2793  156.1440 H   0  0  0  0  0  0  0  0  0  0  0  0
  148.8287  136.9506  153.6138 H   0  0  0  0  0  0  0  0  0  0  0  0
  147.5056  136.0633  152.4722 H   0  0  0  0  0  0  0  0  0  0  0  0
  142.7683  134.0096  153.4611 H   0  0  0  0  0  0  0  0  0  0  0  0
  142.7420  134.4095  150.7990 H   0  0  0  0  0  0  0  0  0  0  0  0
  150.9040  137.5216  157.3100 H   0  0  0  0  0  0  0  0  0  0  0  0
  152.2787  138.0939  156.3904 H   0  0  0  0  0  0  0  0  0  0  0  0
  152.6829  138.2607  158.8143 H   0  0  0  0  0  0  0  0  0  0  0  0
  151.2435  139.2303  159.0324 H   0  0  0  0  0  0  0  0  0  0  0  0
  1  2  1  0  0  0  0
  1 21  1  0  0  0  0
  1 22  1  0  0  0  0
  1 23  1  0  0  0  0
  2 20  1  0  0  0  0
  2  3  1  0  0  0  0
  3  4  1  0  0  0  0
  3 24  1  0  0  0  0
  3 25  1  0  0  0  0
  4  5  1  0  0  0  0
  4 26  1  0  0  0  0
  4 27  1  0  0  0  0
  5  6  1  0  0  0  0
  5 19  1  0  0  0  0
  6  7  1  0  0  0  0
  6  8  1  0  0  0  0
  6  9  1  0  0  0  0
  7 28  1  0  0  0  0
  7 29  1  0  0  0  0
  7 30  1  0  0  0  0
  8 31  1  0  0  0  0
  8 32  1  0  0  0  0
  8 33  1  0  0  0  0
  9 10  1  0  0  0  0
  9 34  1  0  0  0  0
  9 35  1  0  0  0  0
 10 11  1  0  0  0  0
 10 36  1  0  0  0  0
 11 12  2  0  0  0  0
 11 13  1  0  0  0  0
 13 14  1  0  0  0  0
 13 37  1  0  0  0  0
 14 18  1  0  0  0  0
 14 15  2  0  0  0  0
 15 16  1  0  0  0  0
 16 17  2  0  0  0  0
 16 38  1  0  0  0  0
 17 18  1  0  0  0  0
 17 39  1  0  0  0  0
 19 20  1  0  0  0  0
 19 40  1  0  0  0  0
 19 41  1  0  0  0  0
 20 42  1  0  0  0  0
 20 43  1  0  0  0  0
M  END
> <s_m_source_file>
AV-unprocessed.smi

> <i_m_source_file_index>
2024

> <i_lp_mmshare_version>
43012

> <i_f3d_flags>
0

> <s_epik_input>
W0NIM11OMVtDSDJdW0NIMl1OKFtDSDJdW0NIMl0xKUMoW0NIM10pKFtDSDNdKVtDSDJdW05IXUMoPU8pW05IXWMybltjSF1bY0hdczI=

> <s_epik_cmdline>
J2VwaWtfcHl0aG9uJywgJy1waCcsICc3LjAnLCAnLXRuJywgJzgnLCAnLW1hJywgJzIwMCcsICctbWV0YWxfYmluZGluZycsICctaW1hZScsICc8aW5maWxlLm1hZT4nLCAnLW9tYWUnLCAnPG91dGZpbGUubWFlPic=

> <r_lp_tautomer_probability>
0.999

> <r_epik_Ionization_Penalty>
3.01774

> <r_epik_Ionization_Penalty_Charging>
0

> <r_epik_Ionization_Penalty_Neutral>
3.01774

> <r_epik_State_Penalty>
2.1369

> <r_epik_Charging_Adjusted_Penalty>
2.1369

> <i_epik_Tot_Q>
0

> <i_epik_Tot_abs_Q>
0

> <r_epik_Metal_State_Penalty>
2.1694

> <b_epik_Metal_Only>
0

> <s_lp_Force_Field>
OPLS_2005

> <r_lp_Energy>
47.9803

> <b_lp_Chiralities_Consistent>
1

> <s_lp_Variant>
AV-unprocessed.smi:2024-3

> <Gold.Version>
5.8.1

> <Gold.Id.Protein>
6NUR|6NUR_protein|mol2

> <Gold.PLP.Fitness>
38.2183

> <Gold.PLP.PLP>
-24.8715

> <Gold.PLP.part.hbond>
-3.0000

> <Gold.PLP.part.metal>
0.0000

> <Gold.PLP.part.buried>
-3.0017

> <Gold.PLP.part.nonpolar>
-19.1860

> <Gold.PLP.part.repulsive>
0.0949

> <Gold.PLP.ligand.clash>
0.0000

> <Gold.PLP.ligand.torsion>
0.6847

> <Gold.PLP.Chemscore.Hbond>
2.8880

> <Gold.PLP.Chemscore.CHOScore>
2.0000

> <Gold.PLP.Chemscore.Metal>
0.0000

> <Gold.Chemscore.Hbonds>
donor molecule, donor type, donor heavy atom, donor atom, acceptor molecule, acceptor atom, score
      L1  H    10    36       P1  7948  0.93
      L1  H    13    37       P1  7948  1.00
      P1  H  7997  8009       L1     2  0.98
      L1  C    16    38       P1 10957  0.82
      L1  C    17    39       P1 10186  1.00

> <Gold.PLP.Chemscore.Internal.Correction>
0.0522

> <Gold.Rescore>
     Score         DG    S(hbond)    S(metal)    S(lipo)     H(rot)  DE(clash)    DE(int)     intcor
     14.14     -16.01       1.96        0.00      68.14       1.56       0.10       1.78       ----

> <Gold.Chemscore.Fitness>
14.1391

> <Gold.Chemscore.DG>
-16.0107

> <Gold.Chemscore.ZeroCoef>
-5.4800

> <Gold.Chemscore.Hbond>
1.9634

> <Gold.Chemscore.Metal>
0.0000

> <Gold.Chemscore.Lipo>
68.1440

> <Gold.Chemscore.Internal_Hbond>
0.0000

> <Gold.Chemscore.DEClash>
0.0951

> <Gold.Chemscore.DEInternal>
1.7765

> <Gold.Chemscore.Rot>
1.5624

> <Gold.Chemscore.Internal.Correction>
   9.000000E+99

> <Gold.Chemscore.Hbonds>
donor molecule, donor type, donor heavy atom, donor atom, acceptor molecule, acceptor atom, score
      L1  H    10    36       P1  7948  0.89
      L1  H    13    37       P1  7948  0.97
      P1  H  7997  8009       L1     2  0.12

> <Gold.Chemscore.Hbond.Weighted>
-6.5577

> <Gold.Chemscore.Metal.Weighted>
-0.0000

> <Gold.Chemscore.Lipo.Weighted>
-7.9728

> <Gold.Chemscore.Internal_Hbond.Weighted>
0.0000

> <Gold.Chemscore.DEClash.Weighted>
0.0951

> <Gold.Chemscore.DEInternal.Weighted>
1.7765

> <Gold.Chemscore.Rot.Weighted>
3.9998

> <Gold.Chemscore.Internal.Correction.Weighted>
   9.000000E+99

> <Gold.Protein.RotatedTorsions>
[ 6907 6896 6895 6894 ] final -105.03 input  -60.11 | X-H torsion
[ 7974 7965 7964 7962 ] final    3.60 input  175.53 | X-H torsion
[ 8008 7997 7996 7995 ] final  161.64 input   59.86 | X-H torsion
[ 10167 10162 10161 10158 ] final -149.19 input  -65.29 | X-H torsion
[ 10718 10713 10712 10709 ] final   88.68 input   66.30 | X-H torsion
[ 10763 10752 10751 10750 ] final -149.88 input  -60.55 | X-H torsion
[ 11005 11000 10999 10996 ] final -134.01 input  -57.11 | X-H torsion

> <Gold.Protein.ActiveResidues>
 VAL166  LYS551  ARG553  GLY616  TRP617  ASP618  TYR619  PRO620  LYS621  CYS622 
 ASP623  PHE694  ASN695  SER759  ASP760  ASP761  ALA762  ILE779  LEU786  VAL792 
 PHE793  MET794  SER795  GLU796  ALA797  LYS798  CYS799  TRP800  GLU811  SER814 

> <Gold.Protein.RotatedAtoms>
  150.7316  134.0188  159.3694 H   0  0  0  0  0  0  0  0  0  0  0  0  # atno 6907 bound_to 6896
  151.8152  135.0666  160.0427 H   0  0  0  0  0  0  0  0  0  0  0  0  # atno 6908 bound_to 6896
  152.3044  133.5652  159.5676 H   0  0  0  0  0  0  0  0  0  0  0  0  # atno 6909 bound_to 6896
  146.2445  140.0661  142.8365 H   0  0  0  0  0  0  0  0  0  0  0  0  # atno 7974 bound_to 7965
  156.2089  140.1772  156.7739 H   0  0  0  0  0  0  0  0  0  0  0  0  # atno 8008 bound_to 7997
  154.5694  140.0685  156.8971 H   0  0  0  0  0  0  0  0  0  0  0  0  # atno 8009 bound_to 7997
  155.2701  140.3342  155.4268 H   0  0  0  0  0  0  0  0  0  0  0  0  # atno 8010 bound_to 7997
  139.7464  143.8584  152.2575 H   0  0  0  0  0  0  0  0  0  0  0  0  # atno 10167 bound_to 10162
  157.6950  131.0304  150.3310 H   0  0  0  0  0  0  0  0  0  0  0  0  # atno 10718 bound_to 10713
  154.8151  135.3298  154.7197 H   0  0  0  0  0  0  0  0  0  0  0  0  # atno 10763 bound_to 10752
  153.7839  135.6916  153.4888 H   0  0  0  0  0  0  0  0  0  0  0  0  # atno 10764 bound_to 10752
  153.1961  135.4533  155.0157 H   0  0  0  0  0  0  0  0  0  0  0  0  # atno 10765 bound_to 10752
  140.9029  134.1667  157.4447 H   0  0  0  0  0  0  0  0  0  0  0  0  # atno 11005 bound_to 11000
  145.0857  140.9251  143.4799 LP  0  0  0  0  0  0  0  0  0  0  0  0  # atno 17320 bound_to 7965
  145.0823  139.2951  143.5777 LP  0  0  0  0  0  0  0  0  0  0  0  0  # atno 17321 bound_to 7965
  139.8550  144.7146  150.9168 LP  0  0  0  0  0  0  0  0  0  0  0  0  # atno 17342 bound_to 10162
  140.7792  143.3867  151.1382 LP  0  0  0  0  0  0  0  0  0  0  0  0  # atno 17343 bound_to 10162
  156.3784  130.3876  149.7121 LP  0  0  0  0  0  0  0  0  0  0  0  0  # atno 17370 bound_to 10713
  156.4511  130.7907  151.2928 LP  0  0  0  0  0  0  0  0  0  0  0  0  # atno 17371 bound_to 10713
  139.8745  134.9905  156.5506 LP  0  0  0  0  0  0  0  0  0  0  0  0  # atno 17394 bound_to 11000
  140.8207  133.8356  155.8893 LP  0  0  0  0  0  0  0  0  0  0  0  0  # atno 17395 bound_to 11000

$$$$
