#       Name:                AV-unprocessed.smi:1225
#       Creating user name   scv26
#       Creation time:       Fri Mar 27 04:20:24 2020


#       File generated by GOLD software.
#

@<TRIPOS>MOLECULE
AV-unprocessed.smi:1225
    53    55     1
SMALL
NO_CHARGES


@<TRIPOS>ATOM
      1 ****        -4.6970   5.4731   2.3504 C.3            1 S1                 0.0000
      2 ****        -4.7020   4.2545   1.4925 C.2            1 S1                 0.0000
      3 ****        -5.6312   4.0059   0.5669 N.2            1 S1                 0.0000
      4 ****        -5.4101   2.7984  -0.0994 C.2            1 S1                 0.0000
      5 ****        -4.2923   2.1249   0.3275 C.2            1 S1                 0.0000
      6 ****        -3.7752   0.8127  -0.1709 C.3            1 S1                 0.0000
      7 ****        -2.4210   0.8801  -0.7228 N.3            1 S1                 0.0000
      8 ****        -2.3886   1.7047  -1.9303 C.3            1 S1                 0.0000
      9 ****        -1.9044  -0.4699  -0.9726 C.3            1 S1                 0.0000
     10 ****        -0.3941  -0.5971  -1.2748 C.3            1 S1                 0.0000
     11 ****        -0.1336  -0.3707  -2.6462 O.3            1 S1                 0.0000
     12 ****         0.5099   0.2749  -0.3771 C.3            1 S1                 0.0000
     13 ****         1.9399   0.0742  -0.6455 N.pl3          1 S1                 0.0000
     14 ****         2.8078   0.8280  -1.3735 C.2            1 S1                 0.0000
     15 ****         4.0238   0.2168  -1.3222 N.pl3          1 S1                 1.0000
     16 ****         3.9310  -0.9415  -0.5471 C.ar           1 S1                 0.0000
     17 ****         4.8883  -1.8899  -0.2068 C.ar           1 S1                 0.0000
     18 ****         4.4691  -2.9659   0.6082 C.ar           1 S1                 0.0000
     19 ****         5.4896  -4.0229   0.9947 C.3            1 S1                 0.0000
     20 ****         3.1257  -3.0630   1.0558 C.ar           1 S1                 0.0000
     21 ****         2.6863  -4.2235   1.9326 C.3            1 S1                 0.0000
     22 ****         2.1671  -2.0879   0.6987 C.ar           1 S1                 0.0000
     23 ****         2.5969  -1.0364  -0.1066 C.ar           1 S1                 0.0000
     24 ****        -3.4793   2.9947   1.6042 S.3            1 S1                 0.0000
     25 ****        -5.4496   6.1855   2.0110 H              1 S1                 0.0000
     26 ****        -3.7191   5.9532   2.3103 H              1 S1                 0.0000
     27 ****        -4.9128   5.2014   3.3836 H              1 S1                 0.0000
     28 ****        -6.1009   2.4934  -0.8716 H              1 S1                 0.0000
     29 ****        -3.7927   0.1107   0.6637 H              1 S1                 0.0000
     30 ****        -4.4590   0.4064  -0.9176 H              1 S1                 0.0000
     31 ****        -1.3711   1.8308  -2.2969 H              1 S1                 0.0000
     32 ****        -2.7740   2.7059  -1.7368 H              1 S1                 0.0000
     33 ****        -2.9868   1.2606  -2.7268 H              1 S1                 0.0000
     34 ****        -2.0806  -1.0657  -0.0760 H              1 S1                 0.0000
     35 ****        -2.4847  -0.9557  -1.7586 H              1 S1                 0.0000
     36 ****        -0.1307  -1.6419  -1.1085 H              1 S1                 0.0000
     37 ****         0.7766  -0.5609  -2.8128 H              1 S1                 0.0000
     38 ****         0.3005   1.3340  -0.5314 H              1 S1                 0.0000
     39 ****         0.3237   0.0731   0.6785 H              1 S1                 0.0000
     40 ****         2.5731   1.7424  -1.8998 H              1 S1                 0.0000
     41 ****         5.9090  -1.8094  -0.5512 H              1 S1                 0.0000
     42 ****         5.1932  -4.9989   0.6092 H              1 S1                 0.0000
     43 ****         5.5808  -4.0912   2.0791 H              1 S1                 0.0000
     44 ****         6.4763  -3.7911   0.5920 H              1 S1                 0.0000
     45 ****         1.6250  -4.1610   2.1753 H              1 S1                 0.0000
     46 ****         3.2424  -4.2266   2.8704 H              1 S1                 0.0000
     47 ****         2.8558  -5.1733   1.4251 H              1 S1                 0.0000
     48 ****         1.1444  -2.1612   1.0380 H              1 S1                 0.0000
     49 ****         4.8541   0.5673  -1.7825 H              1 S1                 0.0000
     50 ****        -6.3994   4.6158   0.3723 LP             1 S1                 0.0000
     51 ****        -1.8231   1.3171  -0.0509 LP             1 S1                 0.0000
     52 ****        -0.3260   0.5839  -2.8733 LP             1 S1                 0.0000
     53 ****        -0.7107  -0.9685  -3.2026 LP             1 S1                 0.0000
@<TRIPOS>BOND
    1    1    2 1     
    2    1   25 1     
    3    1   26 1     
    4    1   27 1     
    5    2   24 1     
    6    2    3 2     
    7    3    4 1     
    8    4    5 2     
    9    4   28 1     
   10    5    6 1     
   11    5   24 1     
   12    6    7 1     
   13    6   29 1     
   14    6   30 1     
   15    7    8 1     
   16    7    9 1     
   17    8   31 1     
   18    8   32 1     
   19    8   33 1     
   20    9   10 1     
   21    9   34 1     
   22    9   35 1     
   23   10   11 1     
   24   10   12 1     
   25   10   36 1     
   26   11   37 1     
   27   12   13 1     
   28   12   38 1     
   29   12   39 1     
   30   13   23 1     
   31   13   14 1     
   32   14   15 2     
   33   14   40 1     
   34   15   16 1     
   35   15   49 1     
   36   16   23 ar    
   37   16   17 ar    
   38   17   18 ar    
   39   17   41 1     
   40   18   19 1     
   41   18   20 ar    
   42   19   42 1     
   43   19   43 1     
   44   19   44 1     
   45   20   21 1     
   46   20   22 ar    
   47   21   45 1     
   48   21   46 1     
   49   21   47 1     
   50   22   23 ar    
   51   22   48 1     
   52    3   50 1     
   53    7   51 1     
   54   11   52 1     
   55   11   53 1     
@<TRIPOS>SUBSTRUCTURE
      1 S1             1
@<TRIPOS>SET
LONE_PAIRS      STATIC     ATOMS    <user>   **** ""
4 50 51 52 53
DONOR_HYDROGENS      STATIC     ATOMS    <user>   **** ""
2 37 49
ATOM$BLUE        STATIC     ATOMS    COLORGROUP SYSTEM
4 50 51 52 53
ATOM$RED        STATIC     ATOMS    COLORGROUP SYSTEM
2 37 49
