AV-unprocessed.smi:592|AV-procd|sdf|3012|dock3
  -GOLD-   2262023523D 1   1.00000     0.00000
 Structure written by MMmdl.
 27 28  0  0  0  0  0  0  0  0  1 V2000
  150.7076  141.4064  158.0900 O   0  0  0  0  0  0  0  0  0  0  0  0
  151.8967  141.0871  158.0092 C   0  0  0  0  0  0  0  0  0  0  0  0
  152.8730  141.6345  159.0574 C   0  0  0  0  0  0  0  0  0  0  0  0
  152.4515  142.9557  159.5489 N   0  0  0  0  0  0  0  0  0  0  0  0
  152.3826  143.9932  158.5976 C   0  0  0  0  0  0  0  0  0  0  0  0
  152.0211  145.2419  158.9319 C   0  0  0  0  0  0  0  0  0  0  0  0
  151.6963  145.5114  160.3123 C   0  0  0  0  0  0  0  0  0  0  0  0
  151.7577  144.5267  161.2306 C   0  0  0  0  0  0  0  0  0  0  0  0
  152.1512  143.1597  160.8692 C   0  0  0  0  0  0  0  0  0  0  0  0
  152.2085  142.2570  161.7042 O   0  0  0  0  0  0  0  0  0  0  0  0
  152.5296  140.2771  157.0725 N   0  0  0  0  0  0  0  0  0  0  0  0
  151.8759  139.7461  156.0838 C   0  0  0  0  0  0  0  0  0  0  0  0
  150.5244  139.8581  155.7714 N   0  0  0  0  0  0  0  0  0  0  0  0
  150.1125  139.4690  154.4353 C   0  0  0  0  0  0  0  0  0  0  0  0
  151.0522  138.3583  153.9745 C   0  0  0  0  0  0  0  0  0  0  0  0
  152.6134  138.6856  154.8119 S   0  0  0  0  0  0  0  0  0  0  0  0
  152.9263  140.9307  159.8898 H   0  0  0  0  0  0  0  0  0  0  0  0
  153.8849  141.6579  158.6477 H   0  0  0  0  0  0  0  0  0  0  0  0
  152.6467  143.7084  157.5893 H   0  0  0  0  0  0  0  0  0  0  0  0
  151.9773  146.0244  158.1887 H   0  0  0  0  0  0  0  0  0  0  0  0
  151.4041  146.5076  160.6106 H   0  0  0  0  0  0  0  0  0  0  0  0
  151.5127  144.7474  162.2592 H   0  0  0  0  0  0  0  0  0  0  0  0
  149.0725  139.1422  154.4275 H   0  0  0  0  0  0  0  0  0  0  0  0
  150.1950  140.3370  153.7802 H   0  0  0  0  0  0  0  0  0  0  0  0
  150.6829  137.3871  154.3048 H   0  0  0  0  0  0  0  0  0  0  0  0
  151.1702  138.3314  152.8912 H   0  0  0  0  0  0  0  0  0  0  0  0
  149.8731  140.4124  156.3089 H   0  0  0  0  0  0  0  0  0  0  0  0
  1  2  2  0  0  0  0
  2  3  1  0  0  0  0
  2 11  1  0  0  0  0
  3  4  1  0  0  0  0
  3 17  1  0  0  0  0
  3 18  1  0  0  0  0
  4  9  1  0  0  0  0
  4  5  1  0  0  0  0
  5  6  2  0  0  0  0
  5 19  1  0  0  0  0
  6  7  1  0  0  0  0
  6 20  1  0  0  0  0
  7  8  2  0  0  0  0
  7 21  1  0  0  0  0
  8  9  1  0  0  0  0
  8 22  1  0  0  0  0
  9 10  2  0  0  0  0
 11 12  2  0  0  0  0
 12 16  1  0  0  0  0
 12 13  1  0  0  0  0
 13 14  1  0  0  0  0
 13 27  1  0  0  0  0
 14 15  1  0  0  0  0
 14 23  1  0  0  0  0
 14 24  1  0  0  0  0
 15 16  1  0  0  0  0
 15 25  1  0  0  0  0
 15 26  1  0  0  0  0
M  END
> <s_m_source_file>
AV-unprocessed.smi

> <i_m_source_file_index>
592

> <i_lp_mmshare_version>
43012

> <i_f3d_flags>
0

> <s_epik_input>
UzFbQ0gyXVtDSDJdTj1DMVtOSF1DKD1PKVtDSDJdbjJbY0hdW2NIXVtjSF1bY0hdYzI9Tw==

> <s_epik_cmdline>
J2VwaWtfcHl0aG9uJywgJy1waCcsICc3LjAnLCAnLXRuJywgJzgnLCAnLW1hJywgJzIwMCcsICctbWV0YWxfYmluZGluZycsICctaW1hZScsICc8aW5maWxlLm1hZT4nLCAnLW9tYWUnLCAnPG91dGZpbGUubWFlPic=

> <r_lp_tautomer_probability>
1

> <r_epik_Ionization_Penalty>
2.71369

> <r_epik_Ionization_Penalty_Charging>
3.63323e-07

> <r_epik_Ionization_Penalty_Neutral>
2.71369

> <r_epik_State_Penalty>
1.599

> <r_epik_Charging_Adjusted_Penalty>
1.599

> <i_epik_Tot_Q>
0

> <i_epik_Tot_abs_Q>
0

> <r_epik_Metal_State_Penalty>
1.59596

> <b_epik_Metal_Only>
1

> <s_epik_Chemistry_Notes>
This compound has an imine and may undergo hydrolysis.

> <s_lp_Force_Field>
OPLS_2005

> <r_lp_Energy>
29.0057

> <b_lp_Chiralities_Consistent>
1

> <s_lp_Variant>
AV-unprocessed.smi:592-3

> <Gold.Version>
5.8.1

> <Gold.Id.Protein>
6NUR|6NUR_protein|mol2

> <Gold.PLP.Fitness>
46.3715

> <Gold.PLP.PLP>
-43.4101

> <Gold.PLP.part.hbond>
-1.6532

> <Gold.PLP.part.metal>
0.0000

> <Gold.PLP.part.buried>
-4.0700

> <Gold.PLP.part.nonpolar>
-36.8610

> <Gold.PLP.part.repulsive>
0.1881

> <Gold.PLP.ligand.clash>
0.0000

> <Gold.PLP.ligand.torsion>
0.3776

> <Gold.PLP.Chemscore.Hbond>
1.2371

> <Gold.PLP.Chemscore.CHOScore>
0.0000

> <Gold.PLP.Chemscore.Metal>
0.0000

> <Gold.Chemscore.Hbonds>
donor molecule, donor type, donor heavy atom, donor atom, acceptor molecule, acceptor atom, score
      P1  H  6933  6945       L1    10  0.29
      P1  H  7997  8008       L1    11  1.00

> <Gold.PLP.Chemscore.Internal.Correction>
0.0052

> <Gold.Rescore>
     Score         DG    S(hbond)    S(metal)    S(lipo)     H(rot)  DE(clash)    DE(int)     intcor
     16.08     -16.78       1.34        0.00      87.46       1.33       0.14       0.56       ----

> <Gold.Chemscore.Fitness>
16.0798

> <Gold.Chemscore.DG>
-16.7829

> <Gold.Chemscore.ZeroCoef>
-5.4800

> <Gold.Chemscore.Hbond>
1.3405

> <Gold.Chemscore.Metal>
0.0000

> <Gold.Chemscore.Lipo>
87.4588

> <Gold.Chemscore.Internal_Hbond>
0.0000

> <Gold.Chemscore.DEClash>
0.1397

> <Gold.Chemscore.DEInternal>
0.5633

> <Gold.Chemscore.Rot>
1.3309

> <Gold.Chemscore.Internal.Correction>
   9.000000E+99

> <Gold.Chemscore.Hbonds>
donor molecule, donor type, donor heavy atom, donor atom, acceptor molecule, acceptor atom, score
      P1  H  6933  6945       L1    10  0.16
      P1  H  7997  8008       L1    11  0.48

> <Gold.Chemscore.Hbond.Weighted>
-4.4773

> <Gold.Chemscore.Metal.Weighted>
-0.0000

> <Gold.Chemscore.Lipo.Weighted>
-10.2327

> <Gold.Chemscore.Internal_Hbond.Weighted>
0.0000

> <Gold.Chemscore.DEClash.Weighted>
0.1397

> <Gold.Chemscore.DEInternal.Weighted>
0.5633

> <Gold.Chemscore.Rot.Weighted>
3.4071

> <Gold.Chemscore.Internal.Correction.Weighted>
   9.000000E+99

> <Gold.Protein.RotatedTorsions>
[ 6907 6896 6895 6894 ] final  -17.16 input  -60.11 | X-H torsion
[ 7974 7965 7964 7962 ] final  -29.07 input  175.53 | X-H torsion
[ 8008 7997 7996 7995 ] final  -57.05 input   59.86 | X-H torsion
[ 10167 10162 10161 10158 ] final -166.03 input  -65.29 | X-H torsion
[ 10718 10713 10712 10709 ] final   81.87 input   66.30 | X-H torsion
[ 10763 10752 10751 10750 ] final  148.24 input  -60.55 | X-H torsion
[ 11005 11000 10999 10996 ] final -176.05 input  -57.11 | X-H torsion

> <Gold.Protein.ActiveResidues>
 VAL166  LYS551  ARG553  GLY616  TRP617  ASP618  TYR619  PRO620  LYS621  CYS622 
 ASP623  PHE694  ASN695  SER759  ASP760  ASP761  ALA762  ILE779  LEU786  VAL792 
 PHE793  MET794  SER795  GLU796  ALA797  LYS798  CYS799  TRP800  GLU811  SER814 

> <Gold.Protein.RotatedAtoms>
  151.2976  135.0759  159.9226 H   0  0  0  0  0  0  0  0  0  0  0  0  # atno 6907 bound_to 6896
  152.5304  133.9866  159.7842 H   0  0  0  0  0  0  0  0  0  0  0  0  # atno 6908 bound_to 6896
  151.0147  133.5880  159.2709 H   0  0  0  0  0  0  0  0  0  0  0  0  # atno 6909 bound_to 6896
  146.1243  140.5365  142.8721 H   0  0  0  0  0  0  0  0  0  0  0  0  # atno 7974 bound_to 7965
  154.4253  140.1116  156.5735 H   0  0  0  0  0  0  0  0  0  0  0  0  # atno 8008 bound_to 7997
  155.6187  140.3495  155.4626 H   0  0  0  0  0  0  0  0  0  0  0  0  # atno 8009 bound_to 7997
  156.0041  140.1205  157.0508 H   0  0  0  0  0  0  0  0  0  0  0  0  # atno 8010 bound_to 7997
  139.6142  144.0753  152.1872 H   0  0  0  0  0  0  0  0  0  0  0  0  # atno 10167 bound_to 10162
  157.6843  131.0023  150.2290 H   0  0  0  0  0  0  0  0  0  0  0  0  # atno 10718 bound_to 10713
  154.0515  135.2881  155.3339 H   0  0  0  0  0  0  0  0  0  0  0  0  # atno 10763 bound_to 10752
  154.6866  135.5243  153.8338 H   0  0  0  0  0  0  0  0  0  0  0  0  # atno 10764 bound_to 10752
  153.0559  135.6595  154.0711 H   0  0  0  0  0  0  0  0  0  0  0  0  # atno 10765 bound_to 10752
  140.4564  134.6295  157.4824 H   0  0  0  0  0  0  0  0  0  0  0  0  # atno 11005 bound_to 11000
  144.7627  140.5459  143.6724 LP  0  0  0  0  0  0  0  0  0  0  0  0  # atno 17320 bound_to 7965
  145.5400  139.1475  143.3452 LP  0  0  0  0  0  0  0  0  0  0  0  0  # atno 17321 bound_to 7965
  140.0379  144.6030  150.7435 LP  0  0  0  0  0  0  0  0  0  0  0  0  # atno 17342 bound_to 10162
  140.7340  143.2723  151.3848 LP  0  0  0  0  0  0  0  0  0  0  0  0  # atno 17343 bound_to 10162
  156.2926  130.3747  149.7827 LP  0  0  0  0  0  0  0  0  0  0  0  0  # atno 17370 bound_to 10713
  156.5481  130.8330  151.3291 LP  0  0  0  0  0  0  0  0  0  0  0  0  # atno 17371 bound_to 10713
  139.9973  134.6891  155.9588 LP  0  0  0  0  0  0  0  0  0  0  0  0  # atno 17394 bound_to 11000
  141.1641  133.6537  156.4418 LP  0  0  0  0  0  0  0  0  0  0  0  0  # atno 17395 bound_to 11000

$$$$
