#       Name:                AV-unprocessed.smi:1410
#       Creating user name   scv26
#       Creation time:       Fri Mar 27 05:37:18 2020


#       File generated by GOLD software.
#

@<TRIPOS>MOLECULE
AV-unprocessed.smi:1410
    45    46     1
SMALL
NO_CHARGES


@<TRIPOS>ATOM
      1 ****        -3.2393   3.5498  -3.8398 N.pl3          1 S1                -1.0000
      2 ****        -3.6171   3.2902  -2.5718 C.2            1 S1                 0.0000
      3 ****        -4.2437   4.0185  -1.8056 O.2            1 S1                 0.0000
      4 ****        -3.1696   1.9022  -2.1015 C.3            1 S1                 0.0000
      5 ****        -1.6886   1.8266  -2.0137 N.4            1 S1                 1.0000
      6 ****        -1.1887   0.4328  -2.1205 C.3            1 S1                 0.0000
      7 ****         0.3484   0.3965  -2.1824 C.3            1 S1                 0.0000
      8 ****         0.9930   1.1147  -0.9798 C.3            1 S1                 0.0000
      9 ****         0.8084   0.3684   0.2649 N.am           1 S1                 0.0000
     10 ****         1.5031  -0.7205   0.6261 C.2            1 S1                 0.0000
     11 ****         2.3835  -1.2248  -0.0703 O.2            1 S1                 0.0000
     12 ****         1.0948  -1.1870   1.8190 N.am           1 S1                 0.0000
     13 ****         1.5734  -2.3177   2.5357 C.ar           1 S1                 0.0000
     14 ****         0.7134  -2.8962   3.4956 C.ar           1 S1                 0.0000
     15 ****         1.1514  -4.0099   4.2408 C.ar           1 S1                 0.0000
     16 ****         2.3901  -4.5083   4.0399 N.pl3          1 S1                 1.0000
     17 ****         3.2530  -3.9807   3.1453 C.ar           1 S1                 0.0000
     18 ****         2.8710  -2.8663   2.3708 C.ar           1 S1                 0.0000
     19 ****         0.4076   2.5316  -0.8506 C.3            1 S1                 0.0000
     20 ****        -1.1319   2.5219  -0.8220 C.3            1 S1                 0.0000
     21 ****        -2.7312   2.8295  -4.3665 H              1 S1                 0.0000
     22 ****        -3.6207   1.6579  -1.1383 H              1 S1                 0.0000
     23 ****        -3.5465   1.1676  -2.8155 H              1 S1                 0.0000
     24 ****        -1.5507  -0.1521  -1.2735 H              1 S1                 0.0000
     25 ****        -1.5910  -0.0330  -3.0210 H              1 S1                 0.0000
     26 ****         0.6958  -0.6350  -2.2491 H              1 S1                 0.0000
     27 ****         0.6756   0.8817  -3.1030 H              1 S1                 0.0000
     28 ****         2.0659   1.2076  -1.1588 H              1 S1                 0.0000
     29 ****         0.1055   0.7154   0.9012 H              1 S1                 0.0000
     30 ****         0.3049  -0.7143   2.2334 H              1 S1                 0.0000
     31 ****        -0.2774  -2.4974   3.6588 H              1 S1                 0.0000
     32 ****         0.5531  -4.5116   4.9872 H              1 S1                 0.0000
     33 ****         4.2199  -4.4581   3.0802 H              1 S1                 0.0000
     34 ****         3.5841  -2.4485   1.6766 H              1 S1                 0.0000
     35 ****         0.7967   3.0235   0.0419 H              1 S1                 0.0000
     36 ****         0.7413   3.1341  -1.6967 H              1 S1                 0.0000
     37 ****        -1.4893   3.5513  -0.7852 H              1 S1                 0.0000
     38 ****        -1.4909   2.0347   0.0858 H              1 S1                 0.0000
     39 ****        -1.3468   2.3172  -2.8285 H              1 S1                 0.0000
     40 ****         2.6888  -5.3140   4.5904 H              1 S1                 0.0000
     41 ****        -3.4509   4.4316  -4.2614 LP             1 S1                 0.0000
     42 ****        -4.5354   4.9268  -2.1055 LP             1 S1                 0.0000
     43 ****        -4.4619   3.7029  -0.8821 LP             1 S1                 0.0000
     44 ****         2.6127  -0.8214  -0.9562 LP             1 S1                 0.0000
     45 ****         2.8698  -2.0379   0.2497 LP             1 S1                 0.0000
@<TRIPOS>BOND
    1    1    2 1     
    2    1   21 1     
    3    2    3 2     
    4    2    4 1     
    5    4    5 1     
    6    4   22 1     
    7    4   23 1     
    8    5   20 1     
    9    5    6 1     
   10    5   39 1     
   11    6    7 1     
   12    6   24 1     
   13    6   25 1     
   14    7    8 1     
   15    7   26 1     
   16    7   27 1     
   17    8    9 1     
   18    8   19 1     
   19    8   28 1     
   20    9   10 am    
   21    9   29 1     
   22   10   11 2     
   23   10   12 am    
   24   12   13 1     
   25   12   30 1     
   26   13   18 ar    
   27   13   14 ar    
   28   14   15 ar    
   29   14   31 1     
   30   15   16 ar    
   31   15   32 1     
   32   16   17 ar    
   33   16   40 1     
   34   17   18 ar    
   35   17   33 1     
   36   18   34 1     
   37   19   20 1     
   38   19   35 1     
   39   19   36 1     
   40   20   37 1     
   41   20   38 1     
   42    1   41 1     
   43    3   42 1     
   44    3   43 1     
   45   11   44 1     
   46   11   45 1     
@<TRIPOS>SUBSTRUCTURE
      1 S1             1
@<TRIPOS>SET
LONE_PAIRS      STATIC     ATOMS    <user>   **** ""
5 41 42 43 44 45
DONOR_HYDROGENS      STATIC     ATOMS    <user>   **** ""
5 21 39 29 30 40
ATOM$BLUE        STATIC     ATOMS    COLORGROUP SYSTEM
5 41 42 43 44 45
ATOM$RED        STATIC     ATOMS    COLORGROUP SYSTEM
5 21 39 29 30 40
