AV-unprocessed.smi:36|AV-procd|sdf|294|dock8
  -GOLD-   2262016 83D 1   1.00000     0.00000
 Structure written by MMmdl.
 64 67  0  0  0  0  0  0  0  0  1 V2000
  153.8904  127.5151  163.1220 C   0  0  0  0  0  0  0  0  0  0  0  0
  154.6950  128.1954  164.2419 C   0  0  0  0  0  0  0  0  0  0  0  0
  155.1319  127.1500  165.2816 C   0  0  0  0  0  0  0  0  0  0  0  0
  155.9359  128.8877  163.6512 C   0  0  0  0  0  0  0  0  0  0  0  0
  153.6059  129.5116  165.0973 Si  0  0  0  0  0  0  0  0  0  0  0  0
  152.0271  128.7155  165.7998 C   0  0  0  0  0  0  0  0  0  0  0  0
  154.5498  130.3827  166.4963 C   0  0  0  0  0  0  0  0  0  0  0  0
  153.2140  130.6777  163.9314 O   0  0  0  0  0  0  0  0  0  0  0  0
  152.6867  131.9594  164.2096 C   0  0  0  0  0  0  0  0  0  0  0  0
  153.6616  133.0124  163.6683 C   0  0  1  0  0  0  0  0  0  0  0  0
  153.4528  134.2563  164.3327 O   0  0  0  0  0  0  0  0  0  0  0  0
  154.6631  134.9294  164.4973 C   0  0  2  0  0  0  0  0  0  0  0  0
  154.5452  136.2861  163.8807 N   0  0  0  0  0  0  0  0  0  0  0  0
  154.6423  137.4615  164.5288 C   0  0  0  0  0  0  0  0  0  0  0  0
  154.4881  138.5454  163.7733 N   0  0  0  0  0  0  0  0  0  0  0  0
  154.2660  138.0063  162.5105 C   0  0  0  0  0  0  0  0  0  0  0  0
  154.0153  138.6783  161.2169 C   0  0  0  0  0  0  0  0  0  0  0  0
  153.9975  139.9765  161.2061 N   0  0  0  0  0  0  0  0  0  0  0  0
  153.7791  140.6624  160.0181 C   0  0  0  0  0  0  0  0  0  0  0  0
  153.9410  140.2700  158.8591 O   0  0  0  0  0  0  0  0  0  0  0  0
  153.2102  142.0300  160.2207 C   0  0  0  0  0  0  0  0  0  0  0  0
  152.8467  142.4638  161.5138 C   0  0  0  0  0  0  0  0  0  0  0  0
  152.3069  143.7513  161.7017 C   0  0  0  0  0  0  0  0  0  0  0  0
  152.1301  144.6094  160.5992 C   0  0  0  0  0  0  0  0  0  0  0  0
  152.4920  144.1799  159.3079 C   0  0  0  0  0  0  0  0  0  0  0  0
  153.0297  142.8918  159.1179 C   0  0  0  0  0  0  0  0  0  0  0  0
  153.8401  137.7211  160.2093 N   0  0  0  0  0  0  0  0  0  0  0  0
  153.8956  136.3294  160.3782 C   0  0  0  0  0  0  0  0  0  0  0  0
  154.1226  135.7244  161.5130 N   0  0  0  0  0  0  0  0  0  0  0  0
  154.2986  136.6287  162.5515 C   0  0  0  0  0  0  0  0  0  0  0  0
  155.7415  134.0962  163.8077 C   0  0  0  0  0  0  0  0  0  0  0  0
  155.1403  132.7104  163.9203 C   0  0  2  0  0  0  0  0  0  0  0  0
  155.6878  131.8417  162.9505 O   0  0  0  0  0  0  0  0  0  0  0  0
  154.4852  126.7567  162.6119 H   0  0  0  0  0  0  0  0  0  0  0  0
  153.5658  128.2362  162.3714 H   0  0  0  0  0  0  0  0  0  0  0  0
  152.9993  127.0248  163.5150 H   0  0  0  0  0  0  0  0  0  0  0  0
  154.2734  126.6338  165.7120 H   0  0  0  0  0  0  0  0  0  0  0  0
  155.6822  127.6130  166.1012 H   0  0  0  0  0  0  0  0  0  0  0  0
  155.7790  126.3939  164.8359 H   0  0  0  0  0  0  0  0  0  0  0  0
  156.5975  128.1705  163.1643 H   0  0  0  0  0  0  0  0  0  0  0  0
  156.5127  129.3939  164.4260 H   0  0  0  0  0  0  0  0  0  0  0  0
  155.6612  129.6364  162.9078 H   0  0  0  0  0  0  0  0  0  0  0  0
  152.2579  128.0280  166.6129 H   0  0  0  0  0  0  0  0  0  0  0  0
  151.4901  128.1449  165.0429 H   0  0  0  0  0  0  0  0  0  0  0  0
  151.3389  129.4617  166.1958 H   0  0  0  0  0  0  0  0  0  0  0  0
  154.8657  129.6789  167.2658 H   0  0  0  0  0  0  0  0  0  0  0  0
  153.9334  131.1393  166.9813 H   0  0  0  0  0  0  0  0  0  0  0  0
  155.4437  130.8836  166.1256 H   0  0  0  0  0  0  0  0  0  0  0  0
  151.6873  132.0837  163.7917 H   0  0  0  0  0  0  0  0  0  0  0  0
  152.5968  132.0524  165.2921 H   0  0  0  0  0  0  0  0  0  0  0  0
  153.5005  133.1559  162.5986 H   0  0  0  0  0  0  0  0  0  0  0  0
  154.8550  135.1009  165.5574 H   0  0  0  0  0  0  0  0  0  0  0  0
  154.8306  137.5245  165.5904 H   0  0  0  0  0  0  0  0  0  0  0  0
  152.9782  141.8112  162.3650 H   0  0  0  0  0  0  0  0  0  0  0  0
  152.0284  144.0806  162.6917 H   0  0  0  0  0  0  0  0  0  0  0  0
  151.7170  145.5966  160.7445 H   0  0  0  0  0  0  0  0  0  0  0  0
  152.3559  144.8378  158.4623 H   0  0  0  0  0  0  0  0  0  0  0  0
  153.3035  142.5696  158.1236 H   0  0  0  0  0  0  0  0  0  0  0  0
  153.7292  135.7636  159.4603 H   0  0  0  0  0  0  0  0  0  0  0  0
  155.8352  134.4004  162.7634 H   0  0  0  0  0  0  0  0  0  0  0  0
  156.7068  134.2051  164.3028 H   0  0  0  0  0  0  0  0  0  0  0  0
  155.2921  132.3084  164.9232 H   0  0  0  0  0  0  0  0  0  0  0  0
  154.9871  131.3278  162.5787 H   0  0  0  0  0  0  0  0  0  0  0  0
  153.6575  138.0655  159.2775 H   0  0  0  0  0  0  0  0  0  0  0  0
  1  2  1  0  0  0  0
  1 34  1  0  0  0  0
  1 35  1  0  0  0  0
  1 36  1  0  0  0  0
  2  3  1  0  0  0  0
  2  4  1  0  0  0  0
  2  5  1  0  0  0  0
  3 37  1  0  0  0  0
  3 38  1  0  0  0  0
  3 39  1  0  0  0  0
  4 40  1  0  0  0  0
  4 41  1  0  0  0  0
  4 42  1  0  0  0  0
  5  6  1  0  0  0  0
  5  7  1  0  0  0  0
  5  8  1  0  0  0  0
  6 43  1  0  0  0  0
  6 44  1  0  0  0  0
  6 45  1  0  0  0  0
  7 46  1  0  0  0  0
  7 47  1  0  0  0  0
  7 48  1  0  0  0  0
  8  9  1  0  0  0  0
  9 10  1  0  0  0  0
  9 49  1  0  0  0  0
  9 50  1  0  0  0  0
 10 32  1  0  0  0  0
 10 11  1  0  0  0  0
 10 51  1  0  0  0  0
 11 12  1  0  0  0  0
 12 13  1  0  0  0  0
 12 31  1  0  0  0  0
 12 52  1  0  0  0  0
 13 30  1  0  0  0  0
 13 14  1  0  0  0  0
 14 15  2  0  0  0  0
 14 53  1  0  0  0  0
 15 16  1  0  0  0  0
 16 30  2  0  0  0  0
 16 17  1  0  0  0  0
 17 18  2  0  0  0  0
 17 27  1  0  0  0  0
 18 19  1  0  0  0  0
 19 20  2  0  0  0  0
 19 21  1  0  0  0  0
 21 26  1  0  0  0  0
 21 22  2  0  0  0  0
 22 23  1  0  0  0  0
 22 54  1  0  0  0  0
 23 24  2  0  0  0  0
 23 55  1  0  0  0  0
 24 25  1  0  0  0  0
 24 56  1  0  0  0  0
 25 26  2  0  0  0  0
 25 57  1  0  0  0  0
 26 58  1  0  0  0  0
 27 28  1  0  0  0  0
 27 64  1  0  0  0  0
 28 29  2  0  0  0  0
 28 59  1  0  0  0  0
 29 30  1  0  0  0  0
 31 32  1  0  0  0  0
 31 60  1  0  0  0  0
 31 61  1  0  0  0  0
 32 33  1  0  0  0  0
 32 62  1  0  0  0  0
 33 63  1  0  0  0  0
M  END
> <s_m_source_file>
AV-unprocessed.smi

> <i_m_source_file_index>
36

> <i_lp_mmshare_version>
43012

> <i_f3d_flags>
0

> <s_epik_input>
W0NIM11DKFtDSDNdKShbQ0gzXSlbU2ldKFtDSDNdKShbQ0gzXSlPW0NIMl1bQ0BASF0xT1tDQEhdKFtDSDJdW0NASF0xW09IXSluKFtjSF1uMiljKGMyMyluW2NIXW5jM1tOSF1DKD1PKWM0W2NIXVtjSF1bY0hdW2NIXVtjSF00

> <s_epik_cmdline>
J2VwaWtfcHl0aG9uJywgJy1waCcsICc3LjAnLCAnLXRuJywgJzgnLCAnLW1hJywgJzIwMCcsICctbWV0YWxfYmluZGluZycsICctaW1hZScsICc8aW5maWxlLm1hZT4nLCAnLW9tYWUnLCAnPG91dGZpbGUubWFlPic=

> <r_epik_Ionization_Penalty>
0.0850405

> <r_epik_Ionization_Penalty_Charging>
0.0850403

> <r_epik_Ionization_Penalty_Neutral>
1.47497e-07

> <r_epik_State_Penalty>
2.6133

> <r_epik_Charging_Adjusted_Penalty>
2.69834

> <i_epik_Tot_Q>
0

> <i_epik_Tot_abs_Q>
0

> <r_epik_Metal_State_Penalty>
2.92945

> <b_epik_Metal_Only>
0

> <s_epik_Chemistry_Notes>
This compound contains an acetal/aminal-like group ( X-CH(R)-Y where X, Y are N, S, or O) that may be acid/base labile, releasing an aldehyde.

> <s_lp_Force_Field>
OPLS_2005

> <r_lp_Energy>
45.0835

> <b_lp_Chiralities_Consistent>
1

> <s_lp_Variant>
AV-unprocessed.smi:36-16

> <Gold.Version>
5.8.1

> <Gold.Id.Protein>
6NUR|6NUR_protein|mol2

> <Gold.PLP.Fitness>
53.2183

> <Gold.PLP.PLP>
-52.0958

> <Gold.PLP.part.hbond>
-1.0000

> <Gold.PLP.part.metal>
0.0000

> <Gold.PLP.part.buried>
-6.0093

> <Gold.PLP.part.nonpolar>
-43.6108

> <Gold.PLP.part.repulsive>
0.1283

> <Gold.PLP.ligand.clash>
0.0000

> <Gold.PLP.ligand.torsion>
0.8949

> <Gold.PLP.Chemscore.Hbond>
0.8960

> <Gold.PLP.Chemscore.CHOScore>
0.0000

> <Gold.PLP.Chemscore.Metal>
0.0000

> <Gold.Chemscore.Hbonds>
donor molecule, donor type, donor heavy atom, donor atom, acceptor molecule, acceptor atom, score
      P1  H  7997  8009       L1    20  0.90

> <Gold.PLP.Chemscore.Internal.Correction>
0.2243

> <Gold.Rescore>
     Score         DG    S(hbond)    S(metal)    S(lipo)     H(rot)  DE(clash)    DE(int)     intcor
     13.38     -15.79       0.88        0.00     122.11       2.70       0.26       2.15       ----

> <Gold.Chemscore.Fitness>
13.3761

> <Gold.Chemscore.DG>
-15.7856

> <Gold.Chemscore.ZeroCoef>
-5.4800

> <Gold.Chemscore.Hbond>
0.8807

> <Gold.Chemscore.Metal>
0.0000

> <Gold.Chemscore.Lipo>
122.1081

> <Gold.Chemscore.Internal_Hbond>
0.0000

> <Gold.Chemscore.DEClash>
0.2572

> <Gold.Chemscore.DEInternal>
2.1523

> <Gold.Chemscore.Rot>
2.7041

> <Gold.Chemscore.Internal.Correction>
   9.000000E+99

> <Gold.Chemscore.Hbonds>
donor molecule, donor type, donor heavy atom, donor atom, acceptor molecule, acceptor atom, score
      P1  H  7997  8009       L1    20  0.86

> <Gold.Chemscore.Hbond.Weighted>
-2.9414

> <Gold.Chemscore.Metal.Weighted>
-0.0000

> <Gold.Chemscore.Lipo.Weighted>
-14.2866

> <Gold.Chemscore.Internal_Hbond.Weighted>
0.0000

> <Gold.Chemscore.DEClash.Weighted>
0.2572

> <Gold.Chemscore.DEInternal.Weighted>
2.1523

> <Gold.Chemscore.Rot.Weighted>
6.9225

> <Gold.Chemscore.Internal.Correction.Weighted>
   9.000000E+99

> <Gold.Protein.RotatedTorsions>
[ 6907 6896 6895 6894 ] final   -1.88 input  -60.11 | X-H torsion
[ 7974 7965 7964 7962 ] final  -35.09 input  175.53 | X-H torsion
[ 8008 7997 7996 7995 ] final  134.08 input   59.86 | X-H torsion
[ 10167 10162 10161 10158 ] final  -38.75 input  -65.29 | X-H torsion
[ 10718 10713 10712 10709 ] final -166.26 input   66.30 | X-H torsion
[ 10763 10752 10751 10750 ] final  118.07 input  -60.55 | X-H torsion
[ 11005 11000 10999 10996 ] final   73.54 input  -57.11 | X-H torsion

> <Gold.Protein.ActiveResidues>
 VAL166  LYS551  ARG553  GLY616  TRP617  ASP618  TYR619  PRO620  LYS621  CYS622 
 ASP623  PHE694  ASN695  SER759  ASP760  ASP761  ALA762  ILE779  LEU786  VAL792 
 PHE793  MET794  SER795  GLU796  ALA797  LYS798  CYS799  TRP800  GLU811  SER814 

> <Gold.Protein.RotatedAtoms>
  151.5389  135.1068  159.9921 H   0  0  0  0  0  0  0  0  0  0  0  0  # atno 6907 bound_to 6896
  152.4544  133.7690  159.6799 H   0  0  0  0  0  0  0  0  0  0  0  0  # atno 6908 bound_to 6896
  150.8483  133.7761  159.3059 H   0  0  0  0  0  0  0  0  0  0  0  0  # atno 6909 bound_to 6896
  146.0776  140.6117  142.8923 H   0  0  0  0  0  0  0  0  0  0  0  0  # atno 7974 bound_to 7965
  156.2997  140.2505  156.3359 H   0  0  0  0  0  0  0  0  0  0  0  0  # atno 8008 bound_to 7997
  154.9101  140.0403  157.1960 H   0  0  0  0  0  0  0  0  0  0  0  0  # atno 8009 bound_to 7997
  154.8414  140.2891  155.5661 H   0  0  0  0  0  0  0  0  0  0  0  0  # atno 8010 bound_to 7997
  140.7083  143.3257  151.2686 H   0  0  0  0  0  0  0  0  0  0  0  0  # atno 10167 bound_to 10162
  156.6653  130.9062  151.3035 H   0  0  0  0  0  0  0  0  0  0  0  0  # atno 10718 bound_to 10713
  153.5620  135.3519  155.2803 H   0  0  0  0  0  0  0  0  0  0  0  0  # atno 10763 bound_to 10752
  154.8694  135.4139  154.2821 H   0  0  0  0  0  0  0  0  0  0  0  0  # atno 10764 bound_to 10752
  153.3568  135.7058  153.6813 H   0  0  0  0  0  0  0  0  0  0  0  0  # atno 10765 bound_to 10752
  139.9435  134.7356  156.1039 H   0  0  0  0  0  0  0  0  0  0  0  0  # atno 11005 bound_to 11000
  144.7271  140.4559  143.6965 LP  0  0  0  0  0  0  0  0  0  0  0  0  # atno 17320 bound_to 7965
  145.6278  139.1532  143.2986 LP  0  0  0  0  0  0  0  0  0  0  0  0  # atno 17321 bound_to 7965
  139.6725  143.9996  152.2761 LP  0  0  0  0  0  0  0  0  0  0  0  0  # atno 17342 bound_to 10162
  139.9599  144.6565  150.8090 LP  0  0  0  0  0  0  0  0  0  0  0  0  # atno 17343 bound_to 10162
  157.7096  130.9424  150.1043 LP  0  0  0  0  0  0  0  0  0  0  0  0  # atno 17370 bound_to 10713
  156.1980  130.3658  149.8825 LP  0  0  0  0  0  0  0  0  0  0  0  0  # atno 17371 bound_to 10713
  141.1078  133.6654  156.2905 LP  0  0  0  0  0  0  0  0  0  0  0  0  # atno 17394 bound_to 11000
  140.5893  134.5667  157.5496 LP  0  0  0  0  0  0  0  0  0  0  0  0  # atno 17395 bound_to 11000

$$$$
