AV-unprocessed.smi:3132|AV-procd|sdf|11934|dock10
  -GOLD-   2272017323D 1   1.00000     0.00000
 Structure written by MMmdl.
 33 34  0  0  0  0  0  0  0  0  1 V2000
  151.1749  140.7927  158.1995 C   0  0  0  0  0  0  0  0  0  0  0  0
  150.3755  142.0316  157.7744 C   0  0  1  0  0  0  0  0  0  0  0  0
  151.3086  143.2192  157.4550 C   0  0  0  0  0  0  0  0  0  0  0  0
  151.5243  144.0870  158.5986 N   0  0  0  0  0  0  0  0  0  0  0  0
  152.3113  143.8259  159.7127 C   0  0  0  0  0  0  0  0  0  0  0  0
  152.2211  144.9331  160.5256 C   0  0  0  0  0  0  0  0  0  0  0  0
  151.3844  145.8790  159.9385 N   0  0  0  0  0  0  0  0  0  0  0  0
  151.0089  145.3072  158.8017 C   0  0  0  0  0  0  0  0  0  0  0  0
  149.5522  141.6899  156.6148 N   0  0  0  0  0  0  0  0  0  0  0  0
  149.9759  141.0513  155.5124 C   0  0  0  0  0  0  0  0  0  0  0  0
  151.1443  140.7011  155.3415 O   0  0  0  0  0  0  0  0  0  0  0  0
  148.9100  140.7599  154.4455 C   0  0  2  0  0  0  0  0  0  0  0  0
  148.0716  141.9963  154.0644 C   0  0  0  0  0  0  0  0  0  0  0  0
  146.6428  141.5995  154.3946 C   0  0  0  0  0  0  0  0  0  0  0  0
  146.8250  140.5012  155.4319 C   0  0  0  0  0  0  0  0  0  0  0  0
  147.9771  139.8139  154.9660 O   0  0  0  0  0  0  0  0  0  0  0  0
  151.7796  141.0003  159.0825 H   0  0  0  0  0  0  0  0  0  0  0  0
  151.8464  140.4607  157.4069 H   0  0  0  0  0  0  0  0  0  0  0  0
  150.5115  139.9625  158.4446 H   0  0  0  0  0  0  0  0  0  0  0  0
  149.7362  142.3046  158.6160 H   0  0  0  0  0  0  0  0  0  0  0  0
  152.2825  142.8533  157.1270 H   0  0  0  0  0  0  0  0  0  0  0  0
  150.9066  143.8139  156.6332 H   0  0  0  0  0  0  0  0  0  0  0  0
  152.8605  142.9033  159.8283 H   0  0  0  0  0  0  0  0  0  0  0  0
  152.6898  145.1200  161.4803 H   0  0  0  0  0  0  0  0  0  0  0  0
  150.3485  145.7901  158.0964 H   0  0  0  0  0  0  0  0  0  0  0  0
  148.5764  141.9449  156.6621 H   0  0  0  0  0  0  0  0  0  0  0  0
  149.3773  140.3277  153.5595 H   0  0  0  0  0  0  0  0  0  0  0  0
  148.3578  142.8809  154.6359 H   0  0  0  0  0  0  0  0  0  0  0  0
  148.1780  142.2482  153.0090 H   0  0  0  0  0  0  0  0  0  0  0  0
  146.0400  142.4320  154.7587 H   0  0  0  0  0  0  0  0  0  0  0  0
  146.1575  141.1908  153.5074 H   0  0  0  0  0  0  0  0  0  0  0  0
  147.0155  140.9233  156.4195 H   0  0  0  0  0  0  0  0  0  0  0  0
  145.9621  139.8390  155.5017 H   0  0  0  0  0  0  0  0  0  0  0  0
  1  2  1  0  0  0  0
  1 17  1  0  0  0  0
  1 18  1  0  0  0  0
  1 19  1  0  0  0  0
  2  3  1  0  0  0  0
  2  9  1  0  0  0  0
  2 20  1  0  0  0  0
  3  4  1  0  0  0  0
  3 21  1  0  0  0  0
  3 22  1  0  0  0  0
  4  8  1  0  0  0  0
  4  5  1  0  0  0  0
  5  6  2  0  0  0  0
  5 23  1  0  0  0  0
  6  7  1  0  0  0  0
  6 24  1  0  0  0  0
  7  8  2  0  0  0  0
  8 25  1  0  0  0  0
  9 10  1  0  0  0  0
  9 26  1  0  0  0  0
 10 11  2  0  0  0  0
 10 12  1  0  0  0  0
 12 16  1  0  0  0  0
 12 13  1  0  0  0  0
 12 27  1  0  0  0  0
 13 14  1  0  0  0  0
 13 28  1  0  0  0  0
 13 29  1  0  0  0  0
 14 15  1  0  0  0  0
 14 30  1  0  0  0  0
 14 31  1  0  0  0  0
 15 16  1  0  0  0  0
 15 32  1  0  0  0  0
 15 33  1  0  0  0  0
M  END
> <s_m_source_file>
AV-unprocessed.smi

> <i_m_source_file_index>
3132

> <i_lp_mmshare_version>
43012

> <i_f3d_flags>
0

> <s_epik_input>
W2NIXTFuW2NIXVtjSF1uMVtDSDJdW0NAQEhdKFtDSDNdKVtOSF1DKD1PKVtDQEBIXTJbQ0gyXVtDSDJdW0NIMl1PMg==

> <s_epik_cmdline>
J2VwaWtfcHl0aG9uJywgJy1waCcsICc3LjAnLCAnLXRuJywgJzgnLCAnLW1hJywgJzIwMCcsICctbWV0YWxfYmluZGluZycsICctaW1hZScsICc8aW5maWxlLm1hZT4nLCAnLW9tYWUnLCAnPG91dGZpbGUubWFlPic=

> <r_lp_tautomer_probability>
1

> <r_epik_Ionization_Penalty>
0.630322

> <r_epik_Ionization_Penalty_Charging>
0.630322

> <r_epik_Ionization_Penalty_Neutral>
3.82652e-08

> <r_epik_State_Penalty>
0.647117

> <r_epik_Charging_Adjusted_Penalty>
1.27744

> <i_epik_Tot_Q>
0

> <i_epik_Tot_abs_Q>
0

> <r_epik_Metal_State_Penalty>
0.309095

> <b_epik_Metal_Only>
0

> <s_lp_Force_Field>
OPLS_2005

> <r_lp_Energy>
20.2845

> <b_lp_Chiralities_Consistent>
1

> <s_lp_Variant>
AV-unprocessed.smi:3132-6

> <Gold.Version>
5.8.1

> <Gold.Id.Protein>
6NUR|6NUR_protein|mol2

> <Gold.PLP.Fitness>
38.4974

> <Gold.PLP.PLP>
-34.8394

> <Gold.PLP.part.hbond>
-2.8976

> <Gold.PLP.part.metal>
0.0000

> <Gold.PLP.part.buried>
-3.4656

> <Gold.PLP.part.nonpolar>
-28.0755

> <Gold.PLP.part.repulsive>
0.3346

> <Gold.PLP.ligand.clash>
0.0000

> <Gold.PLP.ligand.torsion>
0.9108

> <Gold.PLP.Chemscore.Hbond>
0.8320

> <Gold.PLP.Chemscore.CHOScore>
0.9889

> <Gold.PLP.Chemscore.Metal>
0.0000

> <Gold.Chemscore.Hbonds>
donor molecule, donor type, donor heavy atom, donor atom, acceptor molecule, acceptor atom, score
      P1  H  7989  7998       L1    11  0.83
      L1  C     8    25       P1  8029  0.88

> <Gold.PLP.Chemscore.Internal.Correction>
0.0168

> <Gold.Rescore>
     Score         DG    S(hbond)    S(metal)    S(lipo)     H(rot)  DE(clash)    DE(int)     intcor
      9.61     -11.62       0.89        0.00      67.68       1.86       0.01       1.99       ----

> <Gold.Chemscore.Fitness>
9.6116

> <Gold.Chemscore.DG>
-11.6167

> <Gold.Chemscore.ZeroCoef>
-5.4800

> <Gold.Chemscore.Hbond>
0.8948

> <Gold.Chemscore.Metal>
0.0000

> <Gold.Chemscore.Lipo>
67.6833

> <Gold.Chemscore.Internal_Hbond>
0.0000

> <Gold.Chemscore.DEClash>
0.0108

> <Gold.Chemscore.DEInternal>
1.9943

> <Gold.Chemscore.Rot>
1.8636

> <Gold.Chemscore.Internal.Correction>
   9.000000E+99

> <Gold.Chemscore.Hbonds>
donor molecule, donor type, donor heavy atom, donor atom, acceptor molecule, acceptor atom, score
      P1  H  7989  7998       L1    11  0.64

> <Gold.Chemscore.Hbond.Weighted>
-2.9887

> <Gold.Chemscore.Metal.Weighted>
-0.0000

> <Gold.Chemscore.Lipo.Weighted>
-7.9189

> <Gold.Chemscore.Internal_Hbond.Weighted>
0.0000

> <Gold.Chemscore.DEClash.Weighted>
0.0108

> <Gold.Chemscore.DEInternal.Weighted>
1.9943

> <Gold.Chemscore.Rot.Weighted>
4.7709

> <Gold.Chemscore.Internal.Correction.Weighted>
   9.000000E+99

> <Gold.Protein.RotatedTorsions>
[ 6907 6896 6895 6894 ] final   19.91 input  -60.11 | X-H torsion
[ 7974 7965 7964 7962 ] final   46.13 input  175.53 | X-H torsion
[ 8008 7997 7996 7995 ] final  -62.79 input   59.86 | X-H torsion
[ 10167 10162 10161 10158 ] final -170.47 input  -65.29 | X-H torsion
[ 10718 10713 10712 10709 ] final  -70.04 input   66.30 | X-H torsion
[ 10763 10752 10751 10750 ] final   74.90 input  -60.55 | X-H torsion
[ 11005 11000 10999 10996 ] final   76.33 input  -57.11 | X-H torsion

> <Gold.Protein.ActiveResidues>
 VAL166  LYS551  ARG553  GLY616  TRP617  ASP618  TYR619  PRO620  LYS621  CYS622 
 ASP623  PHE694  ASN695  SER759  ASP760  ASP761  ALA762  ILE779  LEU786  VAL792 
 PHE793  MET794  SER795  GLU796  ALA797  LYS798  CYS799  TRP800  GLU811  SER814 

> <Gold.Protein.RotatedAtoms>
  151.8881  135.0427  160.0494 H   0  0  0  0  0  0  0  0  0  0  0  0  # atno 6907 bound_to 6896
  152.2458  133.5169  159.5305 H   0  0  0  0  0  0  0  0  0  0  0  0  # atno 6908 bound_to 6896
  150.7068  134.0944  159.3986 H   0  0  0  0  0  0  0  0  0  0  0  0  # atno 6909 bound_to 6896
  146.0417  139.4889  142.9774 H   0  0  0  0  0  0  0  0  0  0  0  0  # atno 7974 bound_to 7965
  154.4519  140.0988  156.6642 H   0  0  0  0  0  0  0  0  0  0  0  0  # atno 8008 bound_to 7997
  155.5260  140.3480  155.4398 H   0  0  0  0  0  0  0  0  0  0  0  0  # atno 8009 bound_to 7997
  156.0698  140.1346  156.9832 H   0  0  0  0  0  0  0  0  0  0  0  0  # atno 8010 bound_to 7997
  139.5860  144.1318  152.1575 H   0  0  0  0  0  0  0  0  0  0  0  0  # atno 10167 bound_to 10162
  156.0427  130.4324  150.2236 H   0  0  0  0  0  0  0  0  0  0  0  0  # atno 10718 bound_to 10713
  153.0618  135.5008  154.8111 H   0  0  0  0  0  0  0  0  0  0  0  0  # atno 10763 bound_to 10752
  154.6894  135.2982  154.9503 H   0  0  0  0  0  0  0  0  0  0  0  0  # atno 10764 bound_to 10752
  154.0263  135.6735  153.4829 H   0  0  0  0  0  0  0  0  0  0  0  0  # atno 10765 bound_to 10752
  139.9303  134.7592  156.1382 H   0  0  0  0  0  0  0  0  0  0  0  0  # atno 11005 bound_to 11000
  145.6873  141.0174  143.1574 LP  0  0  0  0  0  0  0  0  0  0  0  0  # atno 17320 bound_to 7965
  144.7078  139.8491  143.7424 LP  0  0  0  0  0  0  0  0  0  0  0  0  # atno 17321 bound_to 7965
  140.0881  144.5643  150.7074 LP  0  0  0  0  0  0  0  0  0  0  0  0  # atno 17342 bound_to 10162
  140.7131  143.2522  151.4518 LP  0  0  0  0  0  0  0  0  0  0  0  0  # atno 17343 bound_to 10162
  157.0329  131.0013  151.3307 LP  0  0  0  0  0  0  0  0  0  0  0  0  # atno 17370 bound_to 10713
  157.5264  130.8031  149.7867 LP  0  0  0  0  0  0  0  0  0  0  0  0  # atno 17371 bound_to 10713
  141.0887  133.6723  156.2493 LP  0  0  0  0  0  0  0  0  0  0  0  0  # atno 17394 bound_to 11000
  140.6221  134.5351  157.5549 LP  0  0  0  0  0  0  0  0  0  0  0  0  # atno 17395 bound_to 11000

$$$$
