AV-unprocessed.smi:1677|AV-procd|sdf|6723|dock8
  -GOLD-   22720 7463D 1   1.00000     0.00000
 Structure written by MMmdl.
 37 38  0  0  0  0  0  0  0  0  2 V2000
  151.7476  139.0086  155.0433 C   0  0  0  0  0  0  0  0  0  0  0  0
  150.6395  140.0722  154.9812 C   0  0  1  0  0  0  0  0  0  0  0  0
  149.2210  139.4819  155.1349 C   0  0  0  0  0  0  0  0  0  0  0  0
  148.1828  140.3356  154.5494 N   0  0  0  0  0  0  0  0  0  0  0  0
  148.0387  141.6900  154.7080 C   0  0  0  0  0  0  0  0  0  0  0  0
  146.9342  142.0534  153.9811 C   0  0  0  0  0  0  0  0  0  0  0  0
  146.4493  140.9057  153.4130 N   0  3  0  0  0  0  0  0  0  0  0  0
  147.2078  139.8616  153.7625 C   0  0  0  0  0  0  0  0  0  0  0  0
  150.8824  141.0749  156.0139 N   0  0  0  0  0  0  0  0  0  0  0  0
  150.9762  140.8284  157.3303 C   0  0  0  0  0  0  0  0  0  0  0  0
  150.8860  139.6991  157.8129 O   0  0  0  0  0  0  0  0  0  0  0  0
  151.2094  142.0435  158.2376 C   0  0  1  0  0  0  0  0  0  0  0  0
  152.4763  141.8552  159.1029 C   0  0  0  0  0  0  0  0  0  0  0  0
  152.8676  143.1303  159.8284 C   0  0  0  0  0  0  0  0  0  0  0  0
  152.3961  144.3441  159.4952 C   0  0  0  0  0  0  0  0  0  0  0  0
  151.4240  144.5784  158.3520 C   0  0  0  0  0  0  0  0  0  0  0  0
  151.3030  143.3520  157.4270 C   0  0  0  0  0  0  0  0  0  0  0  0
  151.6548  138.2839  154.2343 H   0  0  0  0  0  0  0  0  0  0  0  0
  151.7200  138.4619  155.9867 H   0  0  0  0  0  0  0  0  0  0  0  0
  152.7336  139.4665  154.9535 H   0  0  0  0  0  0  0  0  0  0  0  0
  150.7103  140.5572  154.0057 H   0  0  0  0  0  0  0  0  0  0  0  0
  149.1613  138.4969  154.6691 H   0  0  0  0  0  0  0  0  0  0  0  0
  148.9711  139.3478  156.1883 H   0  0  0  0  0  0  0  0  0  0  0  0
  148.7166  142.2790  155.3093 H   0  0  0  0  0  0  0  0  0  0  0  0
  146.4689  143.0167  153.8304 H   0  0  0  0  0  0  0  0  0  0  0  0
  147.0634  138.8386  153.4631 H   0  0  0  0  0  0  0  0  0  0  0  0
  150.9707  142.0333  155.7075 H   0  0  0  0  0  0  0  0  0  0  0  0
  150.3527  142.1351  158.9084 H   0  0  0  0  0  0  0  0  0  0  0  0
  152.3044  141.0730  159.8431 H   0  0  0  0  0  0  0  0  0  0  0  0
  153.3270  141.5380  158.4976 H   0  0  0  0  0  0  0  0  0  0  0  0
  153.5703  143.0317  160.6427 H   0  0  0  0  0  0  0  0  0  0  0  0
  152.7020  145.2123  160.0603 H   0  0  0  0  0  0  0  0  0  0  0  0
  150.4522  144.8243  158.7808 H   0  0  0  0  0  0  0  0  0  0  0  0
  151.7468  145.4467  157.7772 H   0  0  0  0  0  0  0  0  0  0  0  0
  152.1758  143.3135  156.7729 H   0  0  0  0  0  0  0  0  0  0  0  0
  150.4361  143.4683  156.7748 H   0  0  0  0  0  0  0  0  0  0  0  0
  145.6340  140.8522  152.8150 H   0  0  0  0  0  0  0  0  0  0  0  0
  1  2  1  0  0  0  0
  1 18  1  0  0  0  0
  1 19  1  0  0  0  0
  1 20  1  0  0  0  0
  2  3  1  0  0  0  0
  2  9  1  0  0  0  0
  2 21  1  0  0  0  0
  3  4  1  0  0  0  0
  3 22  1  0  0  0  0
  3 23  1  0  0  0  0
  4  8  1  0  0  0  0
  4  5  1  0  0  0  0
  5  6  2  0  0  0  0
  5 24  1  0  0  0  0
  6  7  1  0  0  0  0
  6 25  1  0  0  0  0
  7  8  2  0  0  0  0
  7 37  1  0  0  0  0
  8 26  1  0  0  0  0
  9 10  1  0  0  0  0
  9 27  1  0  0  0  0
 10 11  2  0  0  0  0
 10 12  1  0  0  0  0
 12 17  1  0  0  0  0
 12 13  1  0  0  0  0
 12 28  1  0  0  0  0
 13 14  1  0  0  0  0
 13 29  1  0  0  0  0
 13 30  1  0  0  0  0
 14 15  2  0  0  0  0
 14 31  1  0  0  0  0
 15 16  1  0  0  0  0
 15 32  1  0  0  0  0
 16 17  1  0  0  0  0
 16 33  1  0  0  0  0
 16 34  1  0  0  0  0
 17 35  1  0  0  0  0
 17 36  1  0  0  0  0
M  CHG  1   7   1
M  END
> <s_m_source_file>
AV-unprocessed.smi

> <i_m_source_file_index>
1677

> <i_lp_mmshare_version>
43012

> <i_f3d_flags>
0

> <s_epik_input>
W2NIXTFuW2NIXVtjSF1uMVtDSDJdW0NAQEhdKFtDSDNdKVtOSF1DKD1PKVtDQEBIXTJbQ0gyXVtDSF09W0NIXVtDSDJdW0NIMl0y

> <s_epik_cmdline>
J2VwaWtfcHl0aG9uJywgJy1waCcsICc3LjAnLCAnLXRuJywgJzgnLCAnLW1hJywgJzIwMCcsICctbWV0YWxfYmluZGluZycsICctaW1hZScsICc8aW5maWxlLm1hZT4nLCAnLW9tYWUnLCAnPG91dGZpbGUubWFlPic=

> <r_lp_tautomer_probability>
1

> <r_epik_Ionization_Penalty>
0.245541

> <r_epik_Ionization_Penalty_Charging>
0

> <r_epik_Ionization_Penalty_Neutral>
0.245541

> <r_epik_State_Penalty>
0.236686

> <r_epik_Charging_Adjusted_Penalty>
0.236686

> <i_epik_Tot_Q>
1

> <i_epik_Tot_abs_Q>
1

> <r_epik_Metal_State_Penalty>
0.529594

> <b_epik_Metal_Only>
0

> <s_lp_Force_Field>
OPLS_2005

> <r_lp_Energy>
11.602

> <b_lp_Chiralities_Consistent>
1

> <s_lp_Variant>
AV-unprocessed.smi:1677-4

> <Gold.Version>
5.8.1

> <Gold.Id.Protein>
6NUR|6NUR_protein|mol2

> <Gold.PLP.Fitness>
46.0709

> <Gold.PLP.PLP>
-39.2312

> <Gold.PLP.part.hbond>
-1.0000

> <Gold.PLP.part.metal>
0.0000

> <Gold.PLP.part.buried>
-3.8268

> <Gold.PLP.part.nonpolar>
-35.5927

> <Gold.PLP.part.repulsive>
0.1597

> <Gold.PLP.ligand.clash>
1.3456

> <Gold.PLP.ligand.torsion>
0.4262

> <Gold.PLP.Chemscore.Hbond>
2.0000

> <Gold.PLP.Chemscore.CHOScore>
1.0000

> <Gold.PLP.Chemscore.Metal>
0.0000

> <Gold.Chemscore.Hbonds>
donor molecule, donor type, donor heavy atom, donor atom, acceptor molecule, acceptor atom, score
      L1  H     7    37       P1 10175  2.00
      L1  C     5    24       P1  8028  1.00

> <Gold.PLP.Chemscore.Internal.Correction>
0.0376

> <Gold.Rescore>
     Score         DG    S(hbond)    S(metal)    S(lipo)     H(rot)  DE(clash)    DE(int)     intcor
     14.45     -15.94       0.99        0.00     100.76       1.81       0.17       1.33       ----

> <Gold.Chemscore.Fitness>
14.4462

> <Gold.Chemscore.DG>
-15.9424

> <Gold.Chemscore.ZeroCoef>
-5.4800

> <Gold.Chemscore.Hbond>
0.9936

> <Gold.Chemscore.Metal>
0.0000

> <Gold.Chemscore.Lipo>
100.7637

> <Gold.Chemscore.Internal_Hbond>
0.0000

> <Gold.Chemscore.DEClash>
0.1673

> <Gold.Chemscore.DEInternal>
1.3290

> <Gold.Chemscore.Rot>
1.8147

> <Gold.Chemscore.Internal.Correction>
   9.000000E+99

> <Gold.Chemscore.Hbonds>
donor molecule, donor type, donor heavy atom, donor atom, acceptor molecule, acceptor atom, score
      L1  H     7    37       P1 10175  0.33

> <Gold.Chemscore.Hbond.Weighted>
-3.3186

> <Gold.Chemscore.Metal.Weighted>
-0.0000

> <Gold.Chemscore.Lipo.Weighted>
-11.7894

> <Gold.Chemscore.Internal_Hbond.Weighted>
0.0000

> <Gold.Chemscore.DEClash.Weighted>
0.1673

> <Gold.Chemscore.DEInternal.Weighted>
1.3290

> <Gold.Chemscore.Rot.Weighted>
4.6456

> <Gold.Chemscore.Internal.Correction.Weighted>
   9.000000E+99

> <Gold.Protein.RotatedTorsions>
[ 6907 6896 6895 6894 ] final  -53.96 input  -60.11 | X-H torsion
[ 7974 7965 7964 7962 ] final   93.57 input  175.53 | X-H torsion
[ 8008 7997 7996 7995 ] final  -29.29 input   59.86 | X-H torsion
[ 10167 10162 10161 10158 ] final  122.11 input  -65.29 | X-H torsion
[ 10718 10713 10712 10709 ] final -105.55 input   66.30 | X-H torsion
[ 10763 10752 10751 10750 ] final   75.43 input  -60.55 | X-H torsion
[ 11005 11000 10999 10996 ] final   35.56 input  -57.11 | X-H torsion

> <Gold.Protein.ActiveResidues>
 VAL166  LYS551  ARG553  GLY616  TRP617  ASP618  TYR619  PRO620  LYS621  CYS622 
 ASP623  PHE694  ASN695  SER759  ASP760  ASP761  ALA762  ILE779  LEU786  VAL792 
 PHE793  MET794  SER795  GLU796  ALA797  LYS798  CYS799  TRP800  GLU811  SER814 

> <Gold.Protein.RotatedAtoms>
  150.8380  134.7661  159.6908 H   0  0  0  0  0  0  0  0  0  0  0  0  # atno 6907 bound_to 6896
  152.4473  134.5464  159.9864 H   0  0  0  0  0  0  0  0  0  0  0  0  # atno 6908 bound_to 6896
  151.5610  133.3365  159.3007 H   0  0  0  0  0  0  0  0  0  0  0  0  # atno 6909 bound_to 6896
  145.4772  139.2279  143.2902 H   0  0  0  0  0  0  0  0  0  0  0  0  # atno 7974 bound_to 7965
  154.4296  140.1822  156.1224 H   0  0  0  0  0  0  0  0  0  0  0  0  # atno 8008 bound_to 7997
  156.0133  140.3348  155.6937 H   0  0  0  0  0  0  0  0  0  0  0  0  # atno 8009 bound_to 7997
  155.6080  140.0647  157.2705 H   0  0  0  0  0  0  0  0  0  0  0  0  # atno 8010 bound_to 7997
  139.5879  144.7013  151.3364 H   0  0  0  0  0  0  0  0  0  0  0  0  # atno 10167 bound_to 10162
  156.0351  130.5569  150.7555 H   0  0  0  0  0  0  0  0  0  0  0  0  # atno 10718 bound_to 10713
  153.0654  135.4989  154.8188 H   0  0  0  0  0  0  0  0  0  0  0  0  # atno 10763 bound_to 10752
  154.6946  135.2990  154.9433 H   0  0  0  0  0  0  0  0  0  0  0  0  # atno 10764 bound_to 10752
  154.0177  135.6746  153.4823 H   0  0  0  0  0  0  0  0  0  0  0  0  # atno 10765 bound_to 10752
  140.2414  134.3410  155.7924 H   0  0  0  0  0  0  0  0  0  0  0  0  # atno 11005 bound_to 11000
  146.2362  140.5555  142.8954 LP  0  0  0  0  0  0  0  0  0  0  0  0  # atno 17320 bound_to 7965
  144.7910  140.6031  143.6541 LP  0  0  0  0  0  0  0  0  0  0  0  0  # atno 17321 bound_to 7965
  140.7147  143.7297  150.7633 LP  0  0  0  0  0  0  0  0  0  0  0  0  # atno 17342 bound_to 10162
  140.0846  143.4936  152.2512 LP  0  0  0  0  0  0  0  0  0  0  0  0  # atno 17343 bound_to 10162
  157.5088  131.0924  151.0224 LP  0  0  0  0  0  0  0  0  0  0  0  0  # atno 17370 bound_to 10713
  157.0585  130.5816  149.5382 LP  0  0  0  0  0  0  0  0  0  0  0  0  # atno 17371 bound_to 10713
  141.2210  133.7301  156.8891 LP  0  0  0  0  0  0  0  0  0  0  0  0  # atno 17394 bound_to 11000
  140.1649  134.9140  157.2761 LP  0  0  0  0  0  0  0  0  0  0  0  0  # atno 17395 bound_to 11000

$$$$
