AV-unprocessed.smi:164|AV-procd|sdf|1383|dock4
  -GOLD-   2262019113D 1   1.00000     0.00000
 Structure written by MMmdl.
 53 55  0  0  0  0  0  0  0  0  1 V2000
  151.7494  145.5727  159.9248 C   0  0  0  0  0  0  0  0  0  0  0  0
  152.3388  144.2308  160.3243 C   0  0  0  0  0  0  0  0  0  0  0  0
  152.6636  144.0036  161.6773 C   0  0  0  0  0  0  0  0  0  0  0  0
  153.2155  142.7752  162.0810 C   0  0  0  0  0  0  0  0  0  0  0  0
  153.4404  141.7556  161.1360 C   0  0  0  0  0  0  0  0  0  0  0  0
  154.0412  140.4357  161.5835 C   0  0  0  0  0  0  0  0  0  0  0  0
  153.1035  141.9678  159.7793 C   0  0  0  0  0  0  0  0  0  0  0  0
  153.3222  140.9640  158.8711 O   0  0  0  0  0  0  0  0  0  0  0  0
  152.3463  139.9328  158.9165 C   0  0  0  0  0  0  0  0  0  0  0  0
  152.9231  138.6737  158.2501 C   0  0  1  0  0  0  0  0  0  0  0  0
  153.0298  138.9486  156.8672 O   0  0  0  0  0  0  0  0  0  0  0  0
  154.3328  138.3366  158.7868 C   0  0  0  0  0  0  0  0  0  0  0  0
  154.8357  137.0544  158.3198 N   0  0  0  0  0  0  0  0  0  0  0  0
  154.3778  135.8898  158.9843 C   0  0  0  0  0  0  0  0  0  0  0  0
  153.6006  135.9442  159.9395 O   0  0  0  0  0  0  0  0  0  0  0  0
  154.8866  134.6385  158.4340 C   0  0  0  0  0  0  0  0  0  0  0  0
  154.5073  133.4699  158.9784 F   0  0  0  0  0  0  0  0  0  0  0  0
  155.7291  134.6331  157.3786 C   0  0  0  0  0  0  0  0  0  0  0  0
  156.1735  135.7866  156.7585 N   0  0  0  0  0  0  0  0  0  0  0  0
  157.0719  135.6735  155.5486 C   0  0  2  0  0  0  0  0  0  0  0  0
  158.2781  136.6311  155.5830 C   0  0  0  0  0  0  0  0  0  0  0  0
  158.0998  137.4485  154.3141 C   0  0  0  0  0  0  0  0  0  0  0  0
  157.2001  136.5606  153.4613 C   0  0  0  0  0  0  0  0  0  0  0  0
  156.3242  135.9733  154.4106 O   0  0  0  0  0  0  0  0  0  0  0  0
  155.7042  137.0453  157.2020 C   0  0  0  0  0  0  0  0  0  0  0  0
  156.0339  138.0852  156.6286 O   0  0  0  0  0  0  0  0  0  0  0  0
  152.5681  143.2133  159.3643 C   0  0  0  0  0  0  0  0  0  0  0  0
  152.2405  143.4564  157.8970 C   0  0  0  0  0  0  0  0  0  0  0  0
  151.5074  146.1766  160.7999 H   0  0  0  0  0  0  0  0  0  0  0  0
  150.8320  145.4367  159.3516 H   0  0  0  0  0  0  0  0  0  0  0  0
  152.4600  146.1332  159.3170 H   0  0  0  0  0  0  0  0  0  0  0  0
  152.4949  144.7753  162.4143 H   0  0  0  0  0  0  0  0  0  0  0  0
  153.4656  142.6198  163.1201 H   0  0  0  0  0  0  0  0  0  0  0  0
  154.8419  140.1296  160.9098 H   0  0  0  0  0  0  0  0  0  0  0  0
  153.2796  139.6559  161.5888 H   0  0  0  0  0  0  0  0  0  0  0  0
  154.4589  140.5102  162.5877 H   0  0  0  0  0  0  0  0  0  0  0  0
  152.0150  139.7244  159.9358 H   0  0  0  0  0  0  0  0  0  0  0  0
  151.4706  140.2764  158.3644 H   0  0  0  0  0  0  0  0  0  0  0  0
  152.2434  137.8358  158.4104 H   0  0  0  0  0  0  0  0  0  0  0  0
  153.1504  138.1323  156.4067 H   0  0  0  0  0  0  0  0  0  0  0  0
  155.0653  139.1129  158.5590 H   0  0  0  0  0  0  0  0  0  0  0  0
  154.3374  138.2805  159.8768 H   0  0  0  0  0  0  0  0  0  0  0  0
  156.0683  133.6767  157.0082 H   0  0  0  0  0  0  0  0  0  0  0  0
  157.3879  134.6302  155.5042 H   0  0  0  0  0  0  0  0  0  0  0  0
  158.3026  137.2435  156.4850 H   0  0  0  0  0  0  0  0  0  0  0  0
  159.1927  136.0386  155.5431 H   0  0  0  0  0  0  0  0  0  0  0  0
  157.5906  138.3859  154.5391 H   0  0  0  0  0  0  0  0  0  0  0  0
  159.0446  137.6878  153.8256 H   0  0  0  0  0  0  0  0  0  0  0  0
  156.6537  137.1194  152.7015 H   0  0  0  0  0  0  0  0  0  0  0  0
  157.7795  135.7792  152.9669 H   0  0  0  0  0  0  0  0  0  0  0  0
  152.7019  142.7166  157.2430 H   0  0  0  0  0  0  0  0  0  0  0  0
  152.6008  144.4330  157.5743 H   0  0  0  0  0  0  0  0  0  0  0  0
  151.1621  143.4184  157.7424 H   0  0  0  0  0  0  0  0  0  0  0  0
  1  2  1  0  0  0  0
  1 29  1  0  0  0  0
  1 30  1  0  0  0  0
  1 31  1  0  0  0  0
  2 27  1  0  0  0  0
  2  3  2  0  0  0  0
  3  4  1  0  0  0  0
  3 32  1  0  0  0  0
  4  5  2  0  0  0  0
  4 33  1  0  0  0  0
  5  6  1  0  0  0  0
  5  7  1  0  0  0  0
  6 34  1  0  0  0  0
  6 35  1  0  0  0  0
  6 36  1  0  0  0  0
  7  8  1  0  0  0  0
  7 27  2  0  0  0  0
  8  9  1  0  0  0  0
  9 10  1  0  0  0  0
  9 37  1  0  0  0  0
  9 38  1  0  0  0  0
 10 11  1  0  0  0  0
 10 12  1  0  0  0  0
 10 39  1  0  0  0  0
 11 40  1  0  0  0  0
 12 13  1  0  0  0  0
 12 41  1  0  0  0  0
 12 42  1  0  0  0  0
 13 25  1  0  0  0  0
 13 14  1  0  0  0  0
 14 15  2  0  0  0  0
 14 16  1  0  0  0  0
 16 17  1  0  0  0  0
 16 18  2  0  0  0  0
 18 19  1  0  0  0  0
 18 43  1  0  0  0  0
 19 20  1  0  0  0  0
 19 25  1  0  0  0  0
 20 24  1  0  0  0  0
 20 21  1  0  0  0  0
 20 44  1  0  0  0  0
 21 22  1  0  0  0  0
 21 45  1  0  0  0  0
 21 46  1  0  0  0  0
 22 23  1  0  0  0  0
 22 47  1  0  0  0  0
 22 48  1  0  0  0  0
 23 24  1  0  0  0  0
 23 49  1  0  0  0  0
 23 50  1  0  0  0  0
 25 26  2  0  0  0  0
 27 28  1  0  0  0  0
 28 51  1  0  0  0  0
 28 52  1  0  0  0  0
 28 53  1  0  0  0  0
M  END
> <s_m_source_file>
AV-unprocessed.smi

> <i_m_source_file_index>
164

> <i_lp_mmshare_version>
43012

> <i_f3d_flags>
0

> <s_epik_input>
W0NIM11jMVtjSF1bY0hdYyhbQ0gzXSljKGMxW0NIM10pT1tDSDJdW0NASF0oW09IXSlbQ0gyXW4yYyg9TyljKEYpW2NIXW4oYzI9TylbQ0BASF0zW0NIMl1bQ0gyXVtDSDJdTzM=

> <s_epik_cmdline>
J2VwaWtfcHl0aG9uJywgJy1waCcsICc3LjAnLCAnLXRuJywgJzgnLCAnLW1hJywgJzIwMCcsICctbWV0YWxfYmluZGluZycsICctaW1hZScsICc8aW5maWxlLm1hZT4nLCAnLW9tYWUnLCAnPG91dGZpbGUubWFlPic=

> <r_lp_tautomer_probability>
1

> <r_epik_Ionization_Penalty>
1.45842e-07

> <r_epik_Ionization_Penalty_Charging>
2.86622e-08

> <r_epik_Ionization_Penalty_Neutral>
1.1718e-07

> <r_epik_State_Penalty>
-0

> <r_epik_Charging_Adjusted_Penalty>
2.86622e-08

> <i_epik_Tot_Q>
0

> <i_epik_Tot_abs_Q>
0

> <r_epik_Metal_State_Penalty>
-0

> <b_epik_Metal_Only>
0

> <s_epik_Chemistry_Notes>
This compound contains an acetal/aminal-like group ( X-CH(R)-Y where X, Y are N, S, or O) that may be acid/base labile, releasing an aldehyde.

> <s_lp_Force_Field>
OPLS_2005

> <r_lp_Energy>
41.2459

> <b_lp_Chiralities_Consistent>
1

> <s_lp_Variant>
AV-unprocessed.smi:164-2

> <Gold.Version>
5.8.1

> <Gold.Id.Protein>
6NUR|6NUR_protein|mol2

> <Gold.PLP.Fitness>
59.0296

> <Gold.PLP.PLP>
-51.4344

> <Gold.PLP.part.hbond>
-3.8914

> <Gold.PLP.part.metal>
0.0000

> <Gold.PLP.part.buried>
-5.3443

> <Gold.PLP.part.nonpolar>
-41.2252

> <Gold.PLP.part.repulsive>
0.0446

> <Gold.PLP.ligand.clash>
0.0000

> <Gold.PLP.ligand.torsion>
1.0054

> <Gold.PLP.Chemscore.Hbond>
3.0960

> <Gold.PLP.Chemscore.CHOScore>
0.0000

> <Gold.PLP.Chemscore.Metal>
0.0000

> <Gold.Chemscore.Hbonds>
donor molecule, donor type, donor heavy atom, donor atom, acceptor molecule, acceptor atom, score
      P1  H  6896  6908       L1    15  1.00
      P1  H  7997  8008       L1    26  0.11
      P1  H  7997  8009       L1    11  1.00
      P1  H 10752 10764       L1    24  1.00

> <Gold.PLP.Chemscore.Internal.Correction>
0.3180

> <Gold.Rescore>
     Score         DG    S(hbond)    S(metal)    S(lipo)     H(rot)  DE(clash)    DE(int)     intcor
     21.64     -24.57       2.86        0.00     141.32       2.73       0.01       2.92       ----

> <Gold.Chemscore.Fitness>
21.6381

> <Gold.Chemscore.DG>
-24.5696

> <Gold.Chemscore.ZeroCoef>
-5.4800

> <Gold.Chemscore.Hbond>
2.8587

> <Gold.Chemscore.Metal>
0.0000

> <Gold.Chemscore.Lipo>
141.3154

> <Gold.Chemscore.Internal_Hbond>
0.0000

> <Gold.Chemscore.DEClash>
0.0088

> <Gold.Chemscore.DEInternal>
2.9227

> <Gold.Chemscore.Rot>
2.7315

> <Gold.Chemscore.Internal.Correction>
   9.000000E+99

> <Gold.Chemscore.Hbonds>
donor molecule, donor type, donor heavy atom, donor atom, acceptor molecule, acceptor atom, score
      P1  H  6896  6908       L1    15  0.97
      P1  H  7997  8008       L1    26  0.11
      P1  H  7997  8009       L1    11  0.35
      P1  H 10752 10764       L1    24  0.92

> <Gold.Chemscore.Hbond.Weighted>
-9.5482

> <Gold.Chemscore.Metal.Weighted>
-0.0000

> <Gold.Chemscore.Lipo.Weighted>
-16.5339

> <Gold.Chemscore.Internal_Hbond.Weighted>
0.0000

> <Gold.Chemscore.DEClash.Weighted>
0.0088

> <Gold.Chemscore.DEInternal.Weighted>
2.9227

> <Gold.Chemscore.Rot.Weighted>
6.9925

> <Gold.Chemscore.Internal.Correction.Weighted>
   9.000000E+99

> <Gold.Protein.RotatedTorsions>
[ 6907 6896 6895 6894 ] final  -71.52 input  -60.11 | X-H torsion
[ 7974 7965 7964 7962 ] final   -7.07 input  175.53 | X-H torsion
[ 8008 7997 7996 7995 ] final  169.55 input   59.86 | X-H torsion
[ 10167 10162 10161 10158 ] final   98.49 input  -65.29 | X-H torsion
[ 10718 10713 10712 10709 ] final   94.22 input   66.30 | X-H torsion
[ 10763 10752 10751 10750 ] final  127.48 input  -60.55 | X-H torsion
[ 11005 11000 10999 10996 ] final    3.89 input  -57.11 | X-H torsion

> <Gold.Protein.ActiveResidues>
 VAL166  LYS551  ARG553  GLY616  TRP617  ASP618  TYR619  PRO620  LYS621  CYS622 
 ASP623  PHE694  ASN695  SER759  ASP760  ASP761  ALA762  ILE779  LEU786  VAL792 
 PHE793  MET794  SER795  GLU796  ALA797  LYS798  CYS799  TRP800  GLU811  SER814 

> <Gold.Protein.RotatedAtoms>
  150.7209  134.5297  159.5693 H   0  0  0  0  0  0  0  0  0  0  0  0  # atno 6907 bound_to 6896
  152.2833  134.7801  160.0401 H   0  0  0  0  0  0  0  0  0  0  0  0  # atno 6908 bound_to 6896
  151.8441  133.3393  159.3689 H   0  0  0  0  0  0  0  0  0  0  0  0  # atno 6909 bound_to 6896
  146.2316  140.2264  142.8339 H   0  0  0  0  0  0  0  0  0  0  0  0  # atno 7974 bound_to 7965
  156.1447  140.1561  156.8866 H   0  0  0  0  0  0  0  0  0  0  0  0  # atno 8008 bound_to 7997
  154.5017  140.0823  156.7850 H   0  0  0  0  0  0  0  0  0  0  0  0  # atno 8009 bound_to 7997
  155.4012  140.3414  155.4259 H   0  0  0  0  0  0  0  0  0  0  0  0  # atno 8010 bound_to 7997
  139.7703  144.6924  151.0165 H   0  0  0  0  0  0  0  0  0  0  0  0  # atno 10167 bound_to 10162
  157.6949  131.0505  150.4153 H   0  0  0  0  0  0  0  0  0  0  0  0  # atno 10718 bound_to 10713
  153.7101  135.3269  155.3244 H   0  0  0  0  0  0  0  0  0  0  0  0  # atno 10763 bound_to 10752
  154.8387  135.4475  154.1322 H   0  0  0  0  0  0  0  0  0  0  0  0  # atno 10764 bound_to 10752
  153.2414  135.6971  153.7858 H   0  0  0  0  0  0  0  0  0  0  0  0  # atno 10765 bound_to 10752
  140.5881  133.9950  155.8076 H   0  0  0  0  0  0  0  0  0  0  0  0  # atno 11005 bound_to 11000
  144.9592  140.8257  143.5524 LP  0  0  0  0  0  0  0  0  0  0  0  0  # atno 17320 bound_to 7965
  145.2233  139.2149  143.5081 LP  0  0  0  0  0  0  0  0  0  0  0  0  # atno 17321 bound_to 7965
  140.7813  143.4596  151.0297 LP  0  0  0  0  0  0  0  0  0  0  0  0  # atno 17342 bound_to 10162
  139.8279  143.7730  152.3179 LP  0  0  0  0  0  0  0  0  0  0  0  0  # atno 17343 bound_to 10162
  156.4533  130.4016  149.6622 LP  0  0  0  0  0  0  0  0  0  0  0  0  # atno 17370 bound_to 10713
  156.3763  130.7556  151.2545 LP  0  0  0  0  0  0  0  0  0  0  0  0  # atno 17371 bound_to 10713
  141.0953  133.9853  157.3170 LP  0  0  0  0  0  0  0  0  0  0  0  0  # atno 17394 bound_to 11000
  139.9287  135.0201  156.8324 LP  0  0  0  0  0  0  0  0  0  0  0  0  # atno 17395 bound_to 11000

$$$$
