#       Name:                AV-unprocessed.smi:2349
#       Creating user name   scv26
#       Creation time:       Fri Mar 27 12:59:47 2020


#       File generated by GOLD software.
#

@<TRIPOS>MOLECULE
AV-unprocessed.smi:2349
    57    58     1
SMALL
NO_CHARGES


@<TRIPOS>ATOM
      1 ****        -3.9197  -2.7691   4.7425 C.3            1 S1                 0.0000
      2 ****        -3.8529  -2.7526   3.2298 C.ar           1 S1                 0.0000
      3 ****        -5.0066  -2.5035   2.4568 C.ar           1 S1                 0.0000
      4 ****        -4.8859  -2.5005   1.0538 C.ar           1 S1                 0.0000
      5 ****        -3.6224  -2.7474   0.4794 C.ar           1 S1                 0.0000
      6 ****        -3.4387  -2.7397  -1.0287 C.3            1 S1                 0.0000
      7 ****        -3.3415  -1.3240  -1.6222 C.3            1 S1                 0.0000
      8 ****        -2.3387  -0.5271  -0.9276 N.am           1 S1                 0.0000
      9 ****        -1.9065   0.6834  -1.3123 C.2            1 S1                 0.0000
     10 ****        -2.3243   1.2317  -2.3332 O.2            1 S1                 0.0000
     11 ****        -0.9870   1.2436  -0.4856 N.am           1 S1                 0.0000
     12 ****        -0.3742   0.6131   0.6958 C.3            1 S1                 0.0000
     13 ****         1.0844   0.2551   0.3616 C.3            1 S1                 0.0000
     14 ****         1.8835   1.5020  -0.0807 C.3            1 S1                 0.0000
     15 ****         3.3207   1.1122  -0.5016 C.3            1 S1                 0.0000
     16 ****         4.2872   2.2966  -0.7077 C.2            1 S1                 0.0000
     17 ****         4.0076   3.3938  -0.2211 O.2            1 S1                 0.0000
     18 ****         5.4241   2.0958  -1.4145 N.am           1 S1                 0.0000
     19 ****         6.3481   3.2010  -1.6796 C.3            1 S1                 0.0000
     20 ****         5.8321   0.7867  -1.9308 C.3            1 S1                 0.0000
     21 ****         1.1190   2.2700  -1.1885 C.3            1 S1                 0.0000
     22 ****        -0.3454   2.5279  -0.7885 C.3            1 S1                 0.0000
     23 ****        -2.5325  -2.9902   1.3428 C.ar           1 S1                 0.0000
     24 ****        -2.6378  -2.9914   2.6887 N.ar           1 S1                 0.0000
     25 ****        -4.8903  -2.4230   5.0989 H              1 S1                 0.0000
     26 ****        -3.1525  -2.1206   5.1664 H              1 S1                 0.0000
     27 ****        -3.7601  -3.7809   5.1158 H              1 S1                 0.0000
     28 ****        -5.9621  -2.3176   2.9249 H              1 S1                 0.0000
     29 ****        -5.7473  -2.3083   0.4311 H              1 S1                 0.0000
     30 ****        -2.5379  -3.3027  -1.2771 H              1 S1                 0.0000
     31 ****        -4.2682  -3.2768  -1.4902 H              1 S1                 0.0000
     32 ****        -3.1087  -1.3821  -2.6865 H              1 S1                 0.0000
     33 ****        -4.3044  -0.8190  -1.5325 H              1 S1                 0.0000
     34 ****        -1.9561  -0.9168  -0.0785 H              1 S1                 0.0000
     35 ****        -0.4020   1.3149   1.5307 H              1 S1                 0.0000
     36 ****        -0.9008  -0.2722   1.0521 H              1 S1                 0.0000
     37 ****         1.5576  -0.2018   1.2315 H              1 S1                 0.0000
     38 ****         1.0997  -0.4967  -0.4291 H              1 S1                 0.0000
     39 ****         1.9449   2.1552   0.7914 H              1 S1                 0.0000
     40 ****         3.7583   0.4685   0.2621 H              1 S1                 0.0000
     41 ****         3.2605   0.5170  -1.4131 H              1 S1                 0.0000
     42 ****         5.8133   4.1025  -1.9828 H              1 S1                 0.0000
     43 ****         7.0508   2.9691  -2.4806 H              1 S1                 0.0000
     44 ****         6.9248   3.4327  -0.7832 H              1 S1                 0.0000
     45 ****         5.7164   0.0067  -1.1772 H              1 S1                 0.0000
     46 ****         6.8794   0.7721  -2.2336 H              1 S1                 0.0000
     47 ****         5.2325   0.5185  -2.8014 H              1 S1                 0.0000
     48 ****         1.6043   3.2219  -1.4032 H              1 S1                 0.0000
     49 ****         1.1428   1.6977  -2.1170 H              1 S1                 0.0000
     50 ****        -0.8545   3.0780  -1.5811 H              1 S1                 0.0000
     51 ****        -0.3870   3.1723   0.0908 H              1 S1                 0.0000
     52 ****        -1.5460  -3.1773   0.9446 H              1 S1                 0.0000
     53 ****        -3.0064   0.7738  -2.9033 LP             1 S1                 0.0000
     54 ****        -1.9813   2.1348  -2.5919 LP             1 S1                 0.0000
     55 ****         3.1622   3.5087   0.3004 LP             1 S1                 0.0000
     56 ****         4.6262   4.1693  -0.3479 LP             1 S1                 0.0000
     57 ****        -1.8409  -3.1637   3.2676 LP             1 S1                 0.0000
@<TRIPOS>BOND
    1    1    2 1     
    2    1   25 1     
    3    1   26 1     
    4    1   27 1     
    5    2   24 ar    
    6    2    3 ar    
    7    3    4 ar    
    8    3   28 1     
    9    4    5 ar    
   10    4   29 1     
   11    5    6 1     
   12    5   23 ar    
   13    6    7 1     
   14    6   30 1     
   15    6   31 1     
   16    7    8 1     
   17    7   32 1     
   18    7   33 1     
   19    8    9 am    
   20    8   34 1     
   21    9   10 2     
   22    9   11 am    
   23   11   22 1     
   24   11   12 1     
   25   12   13 1     
   26   12   35 1     
   27   12   36 1     
   28   13   14 1     
   29   13   37 1     
   30   13   38 1     
   31   14   15 1     
   32   14   21 1     
   33   14   39 1     
   34   15   16 1     
   35   15   40 1     
   36   15   41 1     
   37   16   17 2     
   38   16   18 am    
   39   18   19 1     
   40   18   20 1     
   41   19   42 1     
   42   19   43 1     
   43   19   44 1     
   44   20   45 1     
   45   20   46 1     
   46   20   47 1     
   47   21   22 1     
   48   21   48 1     
   49   21   49 1     
   50   22   50 1     
   51   22   51 1     
   52   23   24 ar    
   53   23   52 1     
   54   10   53 1     
   55   10   54 1     
   56   17   55 1     
   57   17   56 1     
   58   24   57 1     
@<TRIPOS>SUBSTRUCTURE
      1 S1             1
@<TRIPOS>SET
LONE_PAIRS      STATIC     ATOMS    <user>   **** ""
5 53 54 55 56 57
DONOR_HYDROGENS      STATIC     ATOMS    <user>   **** ""
1 34
ATOM$BLUE        STATIC     ATOMS    COLORGROUP SYSTEM
5 53 54 55 56 57
ATOM$RED        STATIC     ATOMS    COLORGROUP SYSTEM
1 34
