AV-unprocessed.smi:104|AV-procd|sdf|1001|dock10
  -GOLD-   2262017593D 1   1.00000     0.00000
 Structure written by MMmdl.
 47 49  0  0  0  0  0  0  0  0  1 V2000
  152.4084  140.4859  157.2795 C   0  0  0  0  0  0  0  0  0  0  0  0
  151.9132  139.5339  156.1992 C   0  0  0  0  0  0  0  0  0  0  0  0
  152.6939  138.9734  155.4301 O   0  0  0  0  0  0  0  0  0  0  0  0
  150.5745  139.4072  156.2038 O   0  0  0  0  0  0  0  0  0  0  0  0
  149.9404  138.3315  155.5201 C   0  0  0  0  0  0  0  0  0  0  0  0
  148.9339  137.5610  156.4019 C   0  0  2  0  0  0  0  0  0  0  0  0
  147.8641  138.3976  156.8177 O   0  0  0  0  0  0  0  0  0  0  0  0
  147.3165  137.9131  157.9999 C   0  0  1  0  0  0  0  0  0  0  0  0
  146.1075  137.0680  157.6625 N   0  0  0  0  0  0  0  0  0  0  0  0
  144.7899  137.3480  157.9603 C   0  0  0  0  0  0  0  0  0  0  0  0
  144.2588  138.9083  158.9163 Br  0  0  0  0  0  0  0  0  0  0  0  0
  143.8865  136.4988  157.5627 N   0  0  0  0  0  0  0  0  0  0  0  0
  144.6393  135.5394  156.9040 C   0  0  0  0  0  0  0  0  0  0  0  0
  144.3126  134.3385  156.2250 C   0  0  0  0  0  0  0  0  0  0  0  0
  143.0567  133.8862  156.1025 N   0  0  0  0  0  0  0  0  0  0  0  0
  145.3119  133.6134  155.6731 N   0  0  0  0  0  0  0  0  0  0  0  0
  146.5713  134.0447  155.7794 C   0  0  0  0  0  0  0  0  0  0  0  0
  147.0276  135.1450  156.3819 N   0  0  0  0  0  0  0  0  0  0  0  0
  146.0243  135.8819  156.9449 C   0  0  0  0  0  0  0  0  0  0  0  0
  148.4457  137.1863  158.7569 C   0  0  1  0  0  0  0  0  0  0  0  0
  148.0143  136.0149  159.4401 O   0  0  0  0  0  0  0  0  0  0  0  0
  147.4629  136.1068  160.6612 C   0  0  0  0  0  0  0  0  0  0  0  0
  147.0546  134.7487  161.2145 C   0  0  0  0  0  0  0  0  0  0  0  0
  147.2733  137.1453  161.2943 O   0  0  0  0  0  0  0  0  0  0  0  0
  149.4698  136.8573  157.6686 C   0  0  2  0  0  0  0  0  0  0  0  0
  150.7568  137.3194  158.0644 O   0  0  0  0  0  0  0  0  0  0  0  0
  151.2523  137.0097  159.2753 C   0  0  0  0  0  0  0  0  0  0  0  0
  152.6505  137.5735  159.4898 C   0  0  0  0  0  0  0  0  0  0  0  0
  150.6814  136.3553  160.1477 O   0  0  0  0  0  0  0  0  0  0  0  0
  151.8230  140.3692  158.1920 H   0  0  0  0  0  0  0  0  0  0  0  0
  152.3189  141.5178  156.9397 H   0  0  0  0  0  0  0  0  0  0  0  0
  153.4546  140.2877  157.5133 H   0  0  0  0  0  0  0  0  0  0  0  0
  149.4506  138.6907  154.6138 H   0  0  0  0  0  0  0  0  0  0  0  0
  150.7200  137.6451  155.1893 H   0  0  0  0  0  0  0  0  0  0  0  0
  148.4904  136.7998  155.7623 H   0  0  0  0  0  0  0  0  0  0  0  0
  146.9151  138.7362  158.5878 H   0  0  0  0  0  0  0  0  0  0  0  0
  142.2919  134.4090  156.5048 H   0  0  0  0  0  0  0  0  0  0  0  0
  142.8773  133.0234  155.6097 H   0  0  0  0  0  0  0  0  0  0  0  0
  147.3207  133.4197  155.3164 H   0  0  0  0  0  0  0  0  0  0  0  0
  148.8861  137.9020  159.4534 H   0  0  0  0  0  0  0  0  0  0  0  0
  147.9009  134.0613  161.1968 H   0  0  0  0  0  0  0  0  0  0  0  0
  146.2504  134.3240  160.6131 H   0  0  0  0  0  0  0  0  0  0  0  0
  146.7056  134.8423  162.2431 H   0  0  0  0  0  0  0  0  0  0  0  0
  149.5096  135.7840  157.4759 H   0  0  0  0  0  0  0  0  0  0  0  0
  153.2723  137.3956  158.6122 H   0  0  0  0  0  0  0  0  0  0  0  0
  153.1254  137.1013  160.3503 H   0  0  0  0  0  0  0  0  0  0  0  0
  152.6008  138.6478  159.6677 H   0  0  0  0  0  0  0  0  0  0  0  0
  1  2  1  0  0  0  0
  1 30  1  0  0  0  0
  1 31  1  0  0  0  0
  1 32  1  0  0  0  0
  2  3  2  0  0  0  0
  2  4  1  0  0  0  0
  4  5  1  0  0  0  0
  5  6  1  0  0  0  0
  5 33  1  0  0  0  0
  5 34  1  0  0  0  0
  6 25  1  0  0  0  0
  6  7  1  0  0  0  0
  6 35  1  0  0  0  0
  7  8  1  0  0  0  0
  8  9  1  0  0  0  0
  8 20  1  0  0  0  0
  8 36  1  0  0  0  0
  9 19  1  0  0  0  0
  9 10  1  0  0  0  0
 10 11  1  0  0  0  0
 10 12  2  0  0  0  0
 12 13  1  0  0  0  0
 13 19  2  0  0  0  0
 13 14  1  0  0  0  0
 14 15  1  0  0  0  0
 14 16  2  0  0  0  0
 15 37  1  0  0  0  0
 15 38  1  0  0  0  0
 16 17  1  0  0  0  0
 17 18  2  0  0  0  0
 17 39  1  0  0  0  0
 18 19  1  0  0  0  0
 20 21  1  0  0  0  0
 20 25  1  0  0  0  0
 20 40  1  0  0  0  0
 21 22  1  0  0  0  0
 22 23  1  0  0  0  0
 22 24  2  0  0  0  0
 23 41  1  0  0  0  0
 23 42  1  0  0  0  0
 23 43  1  0  0  0  0
 25 26  1  0  0  0  0
 25 44  1  0  0  0  0
 26 27  1  0  0  0  0
 27 28  1  0  0  0  0
 27 29  2  0  0  0  0
 28 45  1  0  0  0  0
 28 46  1  0  0  0  0
 28 47  1  0  0  0  0
M  END
> <s_m_source_file>
AV-unprocessed.smi

> <i_m_source_file_index>
104

> <i_lp_mmshare_version>
43012

> <i_f3d_flags>
0

> <s_epik_input>
W0NIM11DKD1PKU9bQ0gyXVtDQEBIXTFPW0NASF0oW0NAQEhdKE9DKD1PKVtDSDNdKVtDQEhdMU9DKD1PKVtDSDNdKW4oYyhCciluMiljKGMyMyluW2NIXW5jM1tOSDJd

> <s_epik_cmdline>
J2VwaWtfcHl0aG9uJywgJy1waCcsICc3LjAnLCAnLXRuJywgJzgnLCAnLW1hJywgJzIwMCcsICctbWV0YWxfYmluZGluZycsICctaW1hZScsICc8aW5maWxlLm1hZT4nLCAnLW9tYWUnLCAnPG91dGZpbGUubWFlPic=

> <r_lp_tautomer_probability>
1

> <r_epik_Ionization_Penalty>
7.36622e-05

> <r_epik_Ionization_Penalty_Charging>
0

> <r_epik_Ionization_Penalty_Neutral>
7.36622e-05

> <r_epik_State_Penalty>
-0

> <r_epik_Charging_Adjusted_Penalty>
0

> <i_epik_Tot_Q>
0

> <i_epik_Tot_abs_Q>
0

> <r_epik_Metal_State_Penalty>
-0

> <b_epik_Metal_Only>
0

> <s_epik_Chemistry_Notes>
This compound has an ester and may undergo hydrolysis at high or low pH. This compound contains an acetal/aminal-like group ( X-CH(R)-Y where X, Y are N, S, or O) that may be acid/base labile, releasing an aldehyde.

> <s_lp_Force_Field>
OPLS_2005

> <r_lp_Energy>
20.7491

> <b_lp_Chiralities_Consistent>
1

> <s_lp_Variant>
AV-unprocessed.smi:104-9

> <Gold.Version>
5.8.1

> <Gold.Id.Protein>
6NUR|6NUR_protein|mol2

> <Gold.PLP.Fitness>
38.8140

> <Gold.PLP.PLP>
-24.3162

> <Gold.PLP.part.hbond>
-6.1942

> <Gold.PLP.part.metal>
0.0000

> <Gold.PLP.part.buried>
-5.6529

> <Gold.PLP.part.nonpolar>
-12.3392

> <Gold.PLP.part.repulsive>
0.1684

> <Gold.PLP.ligand.clash>
0.0000

> <Gold.PLP.ligand.torsion>
0.9194

> <Gold.PLP.Chemscore.Hbond>
5.4168

> <Gold.PLP.Chemscore.CHOScore>
0.0000

> <Gold.PLP.Chemscore.Metal>
0.0000

> <Gold.Chemscore.Hbonds>
donor molecule, donor type, donor heavy atom, donor atom, acceptor molecule, acceptor atom, score
      L1  H    15    37       P1 11000  0.70
      L1  H    15    38       P1 10957  0.91
      P1  H  6896  6909       L1    29  0.59
      P1  H  6931  6943       L1    24  0.59
      P1  H  6934  6947       L1    24  1.00
      P1  H  7997  8010       L1     3  0.53

> <Gold.PLP.Chemscore.Internal.Correction>
0.0862

> <Gold.Rescore>
     Score         DG    S(hbond)    S(metal)    S(lipo)     H(rot)  DE(clash)    DE(int)     intcor
     11.77     -14.40       5.10        0.00      24.95       4.31       0.00       2.63       ----

> <Gold.Chemscore.Fitness>
11.7749

> <Gold.Chemscore.DG>
-14.4031

> <Gold.Chemscore.ZeroCoef>
-5.4800

> <Gold.Chemscore.Hbond>
5.0988

> <Gold.Chemscore.Metal>
0.0000

> <Gold.Chemscore.Lipo>
24.9502

> <Gold.Chemscore.Internal_Hbond>
0.0000

> <Gold.Chemscore.DEClash>
0.0000

> <Gold.Chemscore.DEInternal>
2.6282

> <Gold.Chemscore.Rot>
4.3070

> <Gold.Chemscore.Internal.Correction>
   9.000000E+99

> <Gold.Chemscore.Hbonds>
donor molecule, donor type, donor heavy atom, donor atom, acceptor molecule, acceptor atom, score
      L1  H    15    37       P1 11000  0.42
      L1  H    15    38       P1 10957  0.89
      P1  H  6896  6909       L1    29  0.15
      P1  H  6931  6943       L1    24  0.54
      P1  H  6934  6947       L1    24  0.96
      P1  H  7997  8010       L1     3  0.08

> <Gold.Chemscore.Hbond.Weighted>
-17.0298

> <Gold.Chemscore.Metal.Weighted>
-0.0000

> <Gold.Chemscore.Lipo.Weighted>
-2.9192

> <Gold.Chemscore.Internal_Hbond.Weighted>
0.0000

> <Gold.Chemscore.DEClash.Weighted>
0.0000

> <Gold.Chemscore.DEInternal.Weighted>
2.6282

> <Gold.Chemscore.Rot.Weighted>
11.0259

> <Gold.Chemscore.Internal.Correction.Weighted>
   9.000000E+99

> <Gold.Protein.RotatedTorsions>
[ 6907 6896 6895 6894 ] final  100.95 input  -60.11 | X-H torsion
[ 7974 7965 7964 7962 ] final  120.43 input  175.53 | X-H torsion
[ 8008 7997 7996 7995 ] final   99.66 input   59.86 | X-H torsion
[ 10167 10162 10161 10158 ] final   -0.48 input  -65.29 | X-H torsion
[ 10718 10713 10712 10709 ] final  107.73 input   66.30 | X-H torsion
[ 10763 10752 10751 10750 ] final  -78.02 input  -60.55 | X-H torsion
[ 11005 11000 10999 10996 ] final  108.94 input  -57.11 | X-H torsion

> <Gold.Protein.ActiveResidues>
 VAL166  LYS551  ARG553  GLY616  TRP617  ASP618  TYR619  PRO620  LYS621  CYS622 
 ASP623  PHE694  ASN695  SER759  ASP760  ASP761  ALA762  ILE779  LEU786  VAL792 
 PHE793  MET794  SER795  GLU796  ALA797  LYS798  CYS799  TRP800  GLU811  SER814 

> <Gold.Protein.RotatedAtoms>
  152.5360  134.0199  159.7976 H   0  0  0  0  0  0  0  0  0  0  0  0  # atno 6907 bound_to 6896
  151.0387  133.5718  159.2660 H   0  0  0  0  0  0  0  0  0  0  0  0  # atno 6908 bound_to 6896
  151.2695  135.0687  159.9182 H   0  0  0  0  0  0  0  0  0  0  0  0  # atno 6909 bound_to 6896
  145.1313  139.3325  143.4663 H   0  0  0  0  0  0  0  0  0  0  0  0  # atno 7974 bound_to 7965
  156.1126  140.3225  155.8094 H   0  0  0  0  0  0  0  0  0  0  0  0  # atno 8008 bound_to 7997
  155.4645  140.0542  157.3004 H   0  0  0  0  0  0  0  0  0  0  0  0  # atno 8009 bound_to 7997
  154.4771  140.2037  155.9867 H   0  0  0  0  0  0  0  0  0  0  0  0  # atno 8010 bound_to 7997
  140.6769  143.6889  150.8044 H   0  0  0  0  0  0  0  0  0  0  0  0  # atno 10167 bound_to 10162
  157.6616  131.0879  150.6200 H   0  0  0  0  0  0  0  0  0  0  0  0  # atno 10718 bound_to 10713
  154.5205  135.5744  153.6677 H   0  0  0  0  0  0  0  0  0  0  0  0  # atno 10763 bound_to 10752
  152.9916  135.6180  154.2760 H   0  0  0  0  0  0  0  0  0  0  0  0  # atno 10764 bound_to 10752
  154.2681  135.2854  155.2729 H   0  0  0  0  0  0  0  0  0  0  0  0  # atno 10765 bound_to 10752
  139.8853  134.9444  156.6049 H   0  0  0  0  0  0  0  0  0  0  0  0  # atno 11005 bound_to 11000
  146.3513  140.1313  142.8597 LP  0  0  0  0  0  0  0  0  0  0  0  0  # atno 17320 bound_to 7965
  145.0632  140.9103  143.4926 LP  0  0  0  0  0  0  0  0  0  0  0  0  # atno 17321 bound_to 7965
  140.0583  143.5180  152.2640 LP  0  0  0  0  0  0  0  0  0  0  0  0  # atno 17342 bound_to 10162
  139.6067  144.7598  151.3045 LP  0  0  0  0  0  0  0  0  0  0  0  0  # atno 17343 bound_to 10162
  156.6503  130.4483  149.5722 LP  0  0  0  0  0  0  0  0  0  0  0  0  # atno 17370 bound_to 10713
  156.2143  130.6698  151.1302 LP  0  0  0  0  0  0  0  0  0  0  0  0  # atno 17371 bound_to 10713
  140.7856  133.8624  155.8603 LP  0  0  0  0  0  0  0  0  0  0  0  0  # atno 17394 bound_to 11000
  140.9722  134.1515  157.4566 LP  0  0  0  0  0  0  0  0  0  0  0  0  # atno 17395 bound_to 11000

$$$$
