AV-unprocessed.smi:907|AV-procd|sdf|4107|dock3
  -GOLD-   22720 2 03D 1   1.00000     0.00000
 Structure written by MMmdl.
 53 56  0  0  0  0  0  0  0  0  2 V2000
  148.6706  141.7296  154.9160 O   0  0  0  0  0  0  0  0  0  0  0  0
  149.5318  140.8613  155.0617 C   0  0  0  0  0  0  0  0  0  0  0  0
  150.5328  140.9906  155.9470 N   0  0  0  0  0  0  0  0  0  0  0  0
  150.7155  142.1324  156.8326 C   0  0  0  0  0  0  0  0  0  0  0  0
  151.8583  141.8694  157.8235 C   0  0  0  0  0  0  0  0  0  0  0  0
  152.0065  142.9846  158.8413 C   0  0  0  0  0  0  0  0  0  0  0  0
  152.0516  142.6978  160.2224 C   0  0  0  0  0  0  0  0  0  0  0  0
  152.1959  143.7686  161.1256 C   0  0  0  0  0  0  0  0  0  0  0  0
  152.2908  145.0777  160.6159 C   0  0  0  0  0  0  0  0  0  0  0  0
  152.2366  145.2586  159.2193 C   0  0  0  0  0  0  0  0  0  0  0  0
  152.0972  144.2390  158.3445 N   0  0  0  0  0  0  0  0  0  0  0  0
  149.5683  139.7222  154.3252 N   0  0  0  0  0  0  0  0  0  0  0  0
  150.6432  138.7233  154.3146 C   0  0  0  0  0  0  0  0  0  0  0  0
  150.1770  137.4689  155.0779 C   0  0  0  0  0  0  0  0  0  0  0  0
  148.8935  136.9236  154.5429 N   0  3  0  0  0  0  0  0  0  0  0  0
  148.3631  135.7451  155.2962 C   0  0  1  0  0  0  0  0  0  0  0  0
  147.0370  135.2167  154.6865 C   0  0  0  0  0  0  0  0  0  0  0  0
  147.3133  133.7224  154.4529 C   0  0  2  0  0  0  0  0  0  0  0  0
  147.4087  132.9978  155.8057 C   0  0  0  0  0  0  0  0  0  0  0  0
  148.7575  133.4944  156.3538 C   0  0  0  0  0  0  0  0  0  0  0  0
  149.2432  134.4628  155.2566 C   0  0  1  0  0  0  0  0  0  0  0  0
  148.7655  133.7515  153.9958 C   0  0  0  0  0  0  0  0  0  0  0  0
  147.8557  137.9865  154.3828 C   0  0  0  0  0  0  0  0  0  0  0  0
  148.3923  139.2104  153.6211 C   0  0  0  0  0  0  0  0  0  0  0  0
  151.2167  140.2504  156.0066 H   0  0  0  0  0  0  0  0  0  0  0  0
  150.9339  143.0178  156.2334 H   0  0  0  0  0  0  0  0  0  0  0  0
  149.7888  142.3284  157.3748 H   0  0  0  0  0  0  0  0  0  0  0  0
  151.6867  140.9302  158.3518 H   0  0  0  0  0  0  0  0  0  0  0  0
  152.7994  141.7501  157.2849 H   0  0  0  0  0  0  0  0  0  0  0  0
  151.9791  141.6823  160.5830 H   0  0  0  0  0  0  0  0  0  0  0  0
  152.2334  143.5886  162.1899 H   0  0  0  0  0  0  0  0  0  0  0  0
  152.4027  145.9229  161.2788 H   0  0  0  0  0  0  0  0  0  0  0  0
  152.3073  146.2484  158.7933 H   0  0  0  0  0  0  0  0  0  0  0  0
  150.8740  138.4626  153.2806 H   0  0  0  0  0  0  0  0  0  0  0  0
  151.5836  139.0795  154.7356 H   0  0  0  0  0  0  0  0  0  0  0  0
  150.9728  136.7320  154.9937 H   0  0  0  0  0  0  0  0  0  0  0  0
  150.0582  137.7013  156.1375 H   0  0  0  0  0  0  0  0  0  0  0  0
  148.2146  136.0510  156.3334 H   0  0  0  0  0  0  0  0  0  0  0  0
  146.1825  135.3834  155.3434 H   0  0  0  0  0  0  0  0  0  0  0  0
  146.8125  135.6862  153.7280 H   0  0  0  0  0  0  0  0  0  0  0  0
  146.6196  133.2541  153.7539 H   0  0  0  0  0  0  0  0  0  0  0  0
  146.5743  133.2407  156.4650 H   0  0  0  0  0  0  0  0  0  0  0  0
  147.4251  131.9157  155.6696 H   0  0  0  0  0  0  0  0  0  0  0  0
  148.6606  133.9776  157.3265 H   0  0  0  0  0  0  0  0  0  0  0  0
  149.4513  132.6602  156.4672 H   0  0  0  0  0  0  0  0  0  0  0  0
  150.3187  134.6106  155.3195 H   0  0  0  0  0  0  0  0  0  0  0  0
  149.1984  132.7576  153.8688 H   0  0  0  0  0  0  0  0  0  0  0  0
  148.9238  134.3305  153.0844 H   0  0  0  0  0  0  0  0  0  0  0  0
  146.9845  137.6003  153.8551 H   0  0  0  0  0  0  0  0  0  0  0  0
  147.5074  138.2993  155.3687 H   0  0  0  0  0  0  0  0  0  0  0  0
  147.6057  139.9591  153.5160 H   0  0  0  0  0  0  0  0  0  0  0  0
  148.6689  138.9299  152.6037 H   0  0  0  0  0  0  0  0  0  0  0  0
  149.1048  136.5940  153.6117 H   0  0  0  0  0  0  0  0  0  0  0  0
  1  2  2  0  0  0  0
  2  3  1  0  0  0  0
  2 12  1  0  0  0  0
  3  4  1  0  0  0  0
  3 25  1  0  0  0  0
  4  5  1  0  0  0  0
  4 26  1  0  0  0  0
  4 27  1  0  0  0  0
  5  6  1  0  0  0  0
  5 28  1  0  0  0  0
  5 29  1  0  0  0  0
  6 11  1  0  0  0  0
  6  7  2  0  0  0  0
  7  8  1  0  0  0  0
  7 30  1  0  0  0  0
  8  9  2  0  0  0  0
  8 31  1  0  0  0  0
  9 10  1  0  0  0  0
  9 32  1  0  0  0  0
 10 11  2  0  0  0  0
 10 33  1  0  0  0  0
 12 24  1  0  0  0  0
 12 13  1  0  0  0  0
 13 14  1  0  0  0  0
 13 34  1  0  0  0  0
 13 35  1  0  0  0  0
 14 15  1  0  0  0  0
 14 36  1  0  0  0  0
 14 37  1  0  0  0  0
 15 16  1  0  0  0  0
 15 23  1  0  0  0  0
 15 53  1  0  0  0  0
 16 21  1  0  0  0  0
 16 17  1  0  0  0  0
 16 38  1  0  0  0  0
 17 18  1  0  0  0  0
 17 39  1  0  0  0  0
 17 40  1  0  0  0  0
 18 22  1  0  0  0  0
 18 19  1  0  0  0  0
 18 41  1  0  0  0  0
 19 20  1  0  0  0  0
 19 42  1  0  0  0  0
 19 43  1  0  0  0  0
 20 21  1  0  0  0  0
 20 44  1  0  0  0  0
 20 45  1  0  0  0  0
 21 22  1  0  0  0  0
 21 46  1  0  0  0  0
 22 47  1  0  0  0  0
 22 48  1  0  0  0  0
 23 24  1  0  0  0  0
 23 49  1  0  0  0  0
 23 50  1  0  0  0  0
 24 51  1  0  0  0  0
 24 52  1  0  0  0  0
M  CHG  1  15   1
M  END
> <s_m_source_file>
AV-unprocessed.smi

> <i_m_source_file_index>
907

> <i_lp_mmshare_version>
43012

> <i_f3d_flags>
0

> <s_epik_input>
W0NIMl0xW0NIMl1bQ0BASF0oW0NIMl0yKVtDQEBIXShbQ0gyXVtDQEhdMTIpTihbQ0gyXVtDSDJdMylbQ0gyXVtDSDJdTjNDKD1PKVtOSF1bQ0gyXVtDSDJdYzRbY0hdW2NIXVtjSF1bY0hdbjQ=

> <s_epik_cmdline>
J2VwaWtfcHl0aG9uJywgJy1waCcsICc3LjAnLCAnLXRuJywgJzgnLCAnLW1hJywgJzIwMCcsICctbWV0YWxfYmluZGluZycsICctaW1hZScsICc8aW5maWxlLm1hZT4nLCAnLW9tYWUnLCAnPG91dGZpbGUubWFlPic=

> <r_epik_Ionization_Penalty>
0.0419258

> <r_epik_Ionization_Penalty_Charging>
0.00262064

> <r_epik_Ionization_Penalty_Neutral>
0.0393052

> <r_epik_State_Penalty>
0.0329887

> <r_epik_Charging_Adjusted_Penalty>
0.0356093

> <i_epik_Tot_Q>
1

> <i_epik_Tot_abs_Q>
1

> <r_epik_Metal_State_Penalty>
0.0309172

> <b_epik_Metal_Only>
0

> <s_lp_Force_Field>
OPLS_2005

> <r_lp_Energy>
96.5641

> <b_lp_Chiralities_Consistent>
1

> <s_lp_Variant>
AV-unprocessed.smi:907-2

> <Gold.Version>
5.8.1

> <Gold.Id.Protein>
6NUR|6NUR_protein|mol2

> <Gold.PLP.Fitness>
49.9189

> <Gold.PLP.PLP>
-44.3372

> <Gold.PLP.part.hbond>
-1.0000

> <Gold.PLP.part.metal>
0.0000

> <Gold.PLP.part.buried>
-5.9267

> <Gold.PLP.part.nonpolar>
-37.1999

> <Gold.PLP.part.repulsive>
0.2970

> <Gold.PLP.ligand.clash>
0.0000

> <Gold.PLP.ligand.torsion>
0.2561

> <Gold.PLP.Chemscore.Hbond>
2.0000

> <Gold.PLP.Chemscore.CHOScore>
0.0000

> <Gold.PLP.Chemscore.Metal>
0.0000

> <Gold.Chemscore.Hbonds>
donor molecule, donor type, donor heavy atom, donor atom, acceptor molecule, acceptor atom, score
      L1  H    15    53       P1  7948  2.00

> <Gold.PLP.Chemscore.Internal.Correction>
0.0940

> <Gold.Rescore>
     Score         DG    S(hbond)    S(metal)    S(lipo)     H(rot)  DE(clash)    DE(int)     intcor
     19.66     -19.85       0.97        0.00     125.07       1.37       0.03       0.16       ----

> <Gold.Chemscore.Fitness>
19.6593

> <Gold.Chemscore.DG>
-19.8496

> <Gold.Chemscore.ZeroCoef>
-5.4800

> <Gold.Chemscore.Hbond>
0.9736

> <Gold.Chemscore.Metal>
0.0000

> <Gold.Chemscore.Lipo>
125.0677

> <Gold.Chemscore.Internal_Hbond>
0.0000

> <Gold.Chemscore.DEClash>
0.0259

> <Gold.Chemscore.DEInternal>
0.1643

> <Gold.Chemscore.Rot>
1.3731

> <Gold.Chemscore.Internal.Correction>
   9.000000E+99

> <Gold.Chemscore.Hbonds>
donor molecule, donor type, donor heavy atom, donor atom, acceptor molecule, acceptor atom, score
      L1  H    15    53       P1  7948  0.99

> <Gold.Chemscore.Hbond.Weighted>
-3.2518

> <Gold.Chemscore.Metal.Weighted>
-0.0000

> <Gold.Chemscore.Lipo.Weighted>
-14.6329

> <Gold.Chemscore.Internal_Hbond.Weighted>
0.0000

> <Gold.Chemscore.DEClash.Weighted>
0.0259

> <Gold.Chemscore.DEInternal.Weighted>
0.1643

> <Gold.Chemscore.Rot.Weighted>
3.5152

> <Gold.Chemscore.Internal.Correction.Weighted>
   9.000000E+99

> <Gold.Protein.RotatedTorsions>
[ 6907 6896 6895 6894 ] final   56.72 input  -60.11 | X-H torsion
[ 7974 7965 7964 7962 ] final  116.43 input  175.53 | X-H torsion
[ 8008 7997 7996 7995 ] final   71.11 input   59.86 | X-H torsion
[ 10167 10162 10161 10158 ] final -102.82 input  -65.29 | X-H torsion
[ 10718 10713 10712 10709 ] final  160.44 input   66.30 | X-H torsion
[ 10763 10752 10751 10750 ] final   67.46 input  -60.55 | X-H torsion
[ 11005 11000 10999 10996 ] final   69.48 input  -57.11 | X-H torsion

> <Gold.Protein.ActiveResidues>
 VAL166  LYS551  ARG553  GLY616  TRP617  ASP618  TYR619  PRO620  LYS621  CYS622 
 ASP623  PHE694  ASN695  SER759  ASP760  ASP761  ALA762  ILE779  LEU786  VAL792 
 PHE793  MET794  SER795  GLU796  ALA797  LYS798  CYS799  TRP800  GLU811  SER814 

> <Gold.Protein.RotatedAtoms>
  152.3663  134.6799  160.0190 H   0  0  0  0  0  0  0  0  0  0  0  0  # atno 6907 bound_to 6896
  151.7106  133.3307  159.3298 H   0  0  0  0  0  0  0  0  0  0  0  0  # atno 6908 bound_to 6896
  150.7641  134.6470  159.6312 H   0  0  0  0  0  0  0  0  0  0  0  0  # atno 6909 bound_to 6896
  145.1797  139.3057  143.4424 H   0  0  0  0  0  0  0  0  0  0  0  0  # atno 7974 bound_to 7965
  155.7490  140.3489  155.5141 H   0  0  0  0  0  0  0  0  0  0  0  0  # atno 8008 bound_to 7997
  155.9023  140.1036  157.1362 H   0  0  0  0  0  0  0  0  0  0  0  0  # atno 8009 bound_to 7997
  154.4045  140.1284  156.4438 H   0  0  0  0  0  0  0  0  0  0  0  0  # atno 8010 bound_to 7997
  140.2266  143.3637  152.0923 H   0  0  0  0  0  0  0  0  0  0  0  0  # atno 10167 bound_to 10162
  157.1503  131.0562  151.2283 H   0  0  0  0  0  0  0  0  0  0  0  0  # atno 10718 bound_to 10713
  153.0187  135.5283  154.6982 H   0  0  0  0  0  0  0  0  0  0  0  0  # atno 10763 bound_to 10752
  154.6098  135.2877  155.0446 H   0  0  0  0  0  0  0  0  0  0  0  0  # atno 10764 bound_to 10752
  154.1472  135.6568  153.5008 H   0  0  0  0  0  0  0  0  0  0  0  0  # atno 10765 bound_to 10752
  139.9651  134.6994  156.0562 H   0  0  0  0  0  0  0  0  0  0  0  0  # atno 11005 bound_to 11000
  146.3455  140.1972  142.8589 LP  0  0  0  0  0  0  0  0  0  0  0  0  # atno 17320 bound_to 7965
  145.0149  140.8745  143.5202 LP  0  0  0  0  0  0  0  0  0  0  0  0  # atno 17321 bound_to 7965
  139.5125  144.6917  151.5740 LP  0  0  0  0  0  0  0  0  0  0  0  0  # atno 17342 bound_to 10162
  140.6216  143.9247  150.6531 LP  0  0  0  0  0  0  0  0  0  0  0  0  # atno 17343 bound_to 10162
  157.4226  130.7446  149.6926 LP  0  0  0  0  0  0  0  0  0  0  0  0  # atno 17370 bound_to 10713
  155.9772  130.4066  150.3730 LP  0  0  0  0  0  0  0  0  0  0  0  0  # atno 17371 bound_to 10713
  141.1331  133.6581  156.3518 LP  0  0  0  0  0  0  0  0  0  0  0  0  # atno 17394 bound_to 11000
  140.5413  134.6117  157.5380 LP  0  0  0  0  0  0  0  0  0  0  0  0  # atno 17395 bound_to 11000

$$$$
