AV-unprocessed.smi:1244|AV-procd|sdf|5226|dock9
  -GOLD-   22720 4323D 1   1.00000     0.00000
 Structure written by MMmdl.
 55 57  0  0  0  0  0  0  0  0  2 V2000
  153.0750  138.8014  154.6800 C   0  0  0  0  0  0  0  0  0  0  0  0
  151.5677  138.7151  154.9422 C   0  0  2  0  0  0  0  0  0  0  0  0
  150.9046  137.5771  154.1399 C   0  0  0  0  0  0  0  0  0  0  0  0
  149.4356  137.5595  154.3433 N   0  3  1  0  0  0  0  0  0  0  0  0
  149.0217  136.9723  155.6449 C   0  0  0  0  0  0  0  0  0  0  0  0
  149.3469  135.4697  155.7374 C   0  0  0  0  0  0  0  0  0  0  0  0
  148.6089  134.7039  154.7399 N   0  0  0  0  0  0  0  0  0  0  0  0
  148.6448  133.3690  154.6223 C   0  0  0  0  0  0  0  0  0  0  0  0
  149.3160  132.6432  155.3561 O   0  0  0  0  0  0  0  0  0  0  0  0
  147.8533  132.9475  153.6219 N   0  0  0  0  0  0  0  0  0  0  0  0
  147.5736  131.6105  153.2187 C   0  0  0  0  0  0  0  0  0  0  0  0
  148.3996  130.5255  153.6030 C   0  0  0  0  0  0  0  0  0  0  0  0
  148.1133  129.2361  153.1230 C   0  0  0  0  0  0  0  0  0  0  0  0
  147.0172  129.0766  152.2590 C   0  0  0  0  0  0  0  0  0  0  0  0
  146.2308  130.1001  151.8709 N   0  0  0  0  0  0  0  0  0  0  0  0
  146.4858  131.3473  152.3373 C   0  0  0  0  0  0  0  0  0  0  0  0
  145.6184  132.3790  151.9112 N   0  0  0  0  0  0  0  0  0  0  0  0
  146.1462  133.5543  151.2264 C   0  0  0  0  0  0  0  0  0  0  0  0
  144.9285  134.2195  150.5915 C   0  0  0  0  0  0  0  0  0  0  0  0
  144.0747  133.0199  150.1921 C   0  0  0  0  0  0  0  0  0  0  0  0
  144.3520  131.9929  151.2956 C   0  0  0  0  0  0  0  0  0  0  0  0
  148.8583  138.8976  154.0549 C   0  0  0  0  0  0  0  0  0  0  0  0
  149.5853  140.0146  154.8356 C   0  0  2  0  0  0  0  0  0  0  0  0
  149.0839  141.4088  154.4439 C   0  0  0  0  0  0  0  0  0  0  0  0
  150.9797  139.9524  154.5553 O   0  0  0  0  0  0  0  0  0  0  0  0
  153.5771  137.8780  154.9695 H   0  0  0  0  0  0  0  0  0  0  0  0
  153.5236  139.6155  155.2500 H   0  0  0  0  0  0  0  0  0  0  0  0
  153.2834  138.9798  153.6247 H   0  0  0  0  0  0  0  0  0  0  0  0
  151.4139  138.5605  156.0113 H   0  0  0  0  0  0  0  0  0  0  0  0
  151.0989  137.7212  153.0760 H   0  0  0  0  0  0  0  0  0  0  0  0
  151.3386  136.6107  154.3999 H   0  0  0  0  0  0  0  0  0  0  0  0
  149.5551  137.4783  156.4509 H   0  0  0  0  0  0  0  0  0  0  0  0
  147.9622  137.1540  155.8246 H   0  0  0  0  0  0  0  0  0  0  0  0
  150.4138  135.2807  155.6154 H   0  0  0  0  0  0  0  0  0  0  0  0
  149.0773  135.0914  156.7239 H   0  0  0  0  0  0  0  0  0  0  0  0
  148.0269  135.2245  154.0995 H   0  0  0  0  0  0  0  0  0  0  0  0
  147.3018  133.6574  153.1623 H   0  0  0  0  0  0  0  0  0  0  0  0
  149.2610  130.6619  154.2388 H   0  0  0  0  0  0  0  0  0  0  0  0
  148.7267  128.3918  153.4009 H   0  0  0  0  0  0  0  0  0  0  0  0
  146.7686  128.1031  151.8632 H   0  0  0  0  0  0  0  0  0  0  0  0
  146.6578  134.2219  151.9206 H   0  0  0  0  0  0  0  0  0  0  0  0
  146.8499  133.2659  150.4444 H   0  0  0  0  0  0  0  0  0  0  0  0
  144.4015  134.8216  151.3331 H   0  0  0  0  0  0  0  0  0  0  0  0
  145.1858  134.8628  149.7495 H   0  0  0  0  0  0  0  0  0  0  0  0
  143.0162  133.2626  150.0948 H   0  0  0  0  0  0  0  0  0  0  0  0
  144.4193  132.6297  149.2335 H   0  0  0  0  0  0  0  0  0  0  0  0
  144.3805  130.9778  150.8968 H   0  0  0  0  0  0  0  0  0  0  0  0
  143.5660  132.0380  152.0498 H   0  0  0  0  0  0  0  0  0  0  0  0
  148.9607  139.0814  152.9844 H   0  0  0  0  0  0  0  0  0  0  0  0
  147.7892  138.9175  154.2632 H   0  0  0  0  0  0  0  0  0  0  0  0
  149.4307  139.8903  155.9081 H   0  0  0  0  0  0  0  0  0  0  0  0
  148.0176  141.5135  154.6465 H   0  0  0  0  0  0  0  0  0  0  0  0
  149.2440  141.6038  153.3829 H   0  0  0  0  0  0  0  0  0  0  0  0
  149.6058  142.1828  155.0071 H   0  0  0  0  0  0  0  0  0  0  0  0
  149.0698  136.9296  153.6433 H   0  0  0  0  0  0  0  0  0  0  0  0
  1  2  1  0  0  0  0
  1 26  1  0  0  0  0
  1 27  1  0  0  0  0
  1 28  1  0  0  0  0
  2 25  1  0  0  0  0
  2  3  1  0  0  0  0
  2 29  1  0  0  0  0
  3  4  1  0  0  0  0
  3 30  1  0  0  0  0
  3 31  1  0  0  0  0
  4  5  1  0  0  0  0
  4 22  1  0  0  0  0
  4 55  1  0  0  0  0
  5  6  1  0  0  0  0
  5 32  1  0  0  0  0
  5 33  1  0  0  0  0
  6  7  1  0  0  0  0
  6 34  1  0  0  0  0
  6 35  1  0  0  0  0
  7  8  1  0  0  0  0
  7 36  1  0  0  0  0
  8  9  2  0  0  0  0
  8 10  1  0  0  0  0
 10 11  1  0  0  0  0
 10 37  1  0  0  0  0
 11 16  1  0  0  0  0
 11 12  2  0  0  0  0
 12 13  1  0  0  0  0
 12 38  1  0  0  0  0
 13 14  2  0  0  0  0
 13 39  1  0  0  0  0
 14 15  1  0  0  0  0
 14 40  1  0  0  0  0
 15 16  2  0  0  0  0
 16 17  1  0  0  0  0
 17 21  1  0  0  0  0
 17 18  1  0  0  0  0
 18 19  1  0  0  0  0
 18 41  1  0  0  0  0
 18 42  1  0  0  0  0
 19 20  1  0  0  0  0
 19 43  1  0  0  0  0
 19 44  1  0  0  0  0
 20 21  1  0  0  0  0
 20 45  1  0  0  0  0
 20 46  1  0  0  0  0
 21 47  1  0  0  0  0
 21 48  1  0  0  0  0
 22 23  1  0  0  0  0
 22 49  1  0  0  0  0
 22 50  1  0  0  0  0
 23 24  1  0  0  0  0
 23 25  1  0  0  0  0
 23 51  1  0  0  0  0
 24 52  1  0  0  0  0
 24 53  1  0  0  0  0
 24 54  1  0  0  0  0
M  CHG  1   4   1
M  END
> <s_m_source_file>
AV-unprocessed.smi

> <i_m_source_file_index>
1244

> <i_lp_mmshare_version>
43012

> <i_f3d_flags>
0

> <s_epik_input>
W0NIM11bQ0BASF0xW0NIMl1OKFtDSDJdW0NASF0oTzEpW0NIM10pW0NIMl1bQ0gyXVtOSF1DKD1PKVtOSF1jMltjSF1bY0hdW2NIXW5jMk4zW0NIMl1bQ0gyXVtDSDJdW0NIMl0z

> <s_epik_cmdline>
J2VwaWtfcHl0aG9uJywgJy1waCcsICc3LjAnLCAnLXRuJywgJzgnLCAnLW1hJywgJzIwMCcsICctbWV0YWxfYmluZGluZycsICctaW1hZScsICc8aW5maWxlLm1hZT4nLCAnLW9tYWUnLCAnPG91dGZpbGUubWFlPic=

> <r_lp_tautomer_probability>
1

> <r_epik_Ionization_Penalty>
0.684913

> <r_epik_Ionization_Penalty_Charging>
0.602531

> <r_epik_Ionization_Penalty_Neutral>
0.0823829

> <r_epik_State_Penalty>
0.678827

> <r_epik_Charging_Adjusted_Penalty>
1.28136

> <i_epik_Tot_Q>
1

> <i_epik_Tot_abs_Q>
1

> <r_epik_Metal_State_Penalty>
0.67806

> <b_epik_Metal_Only>
0

> <s_lp_Force_Field>
OPLS_2005

> <r_lp_Energy>
44.826

> <b_lp_Chiralities_Consistent>
1

> <s_lp_Variant>
AV-unprocessed.smi:1244-6

> <Gold.Version>
5.8.1

> <Gold.Id.Protein>
6NUR|6NUR_protein|mol2

> <Gold.PLP.Fitness>
52.0981

> <Gold.PLP.PLP>
-43.3882

> <Gold.PLP.part.hbond>
-2.2320

> <Gold.PLP.part.metal>
0.0000

> <Gold.PLP.part.buried>
-3.7709

> <Gold.PLP.part.nonpolar>
-37.4767

> <Gold.PLP.part.repulsive>
0.3341

> <Gold.PLP.ligand.clash>
0.0000

> <Gold.PLP.ligand.torsion>
0.3225

> <Gold.PLP.Chemscore.Hbond>
3.0000

> <Gold.PLP.Chemscore.CHOScore>
0.0000

> <Gold.PLP.Chemscore.Metal>
0.0000

> <Gold.Chemscore.Hbonds>
donor molecule, donor type, donor heavy atom, donor atom, acceptor molecule, acceptor atom, score
      L1  H     4    55       P1  7948  2.00
      P1  H  7989  7998       L1    25  1.00

> <Gold.PLP.Chemscore.Internal.Correction>
0.3550

> <Gold.Rescore>
     Score         DG    S(hbond)    S(metal)    S(lipo)     H(rot)  DE(clash)    DE(int)     intcor
     18.52     -20.29       1.94        0.00     106.09       1.60       0.05       1.72       ----

> <Gold.Chemscore.Fitness>
18.5163

> <Gold.Chemscore.DG>
-20.2890

> <Gold.Chemscore.ZeroCoef>
-5.4800

> <Gold.Chemscore.Hbond>
1.9421

> <Gold.Chemscore.Metal>
0.0000

> <Gold.Chemscore.Lipo>
106.0931

> <Gold.Chemscore.Internal_Hbond>
0.0000

> <Gold.Chemscore.DEClash>
0.0481

> <Gold.Chemscore.DEInternal>
1.7246

> <Gold.Chemscore.Rot>
1.5978

> <Gold.Chemscore.Internal.Correction>
   9.000000E+99

> <Gold.Chemscore.Hbonds>
donor molecule, donor type, donor heavy atom, donor atom, acceptor molecule, acceptor atom, score
      L1  H     4    55       P1  7948  0.96
      P1  H  7989  7998       L1    25  0.92

> <Gold.Chemscore.Hbond.Weighted>
-6.4866

> <Gold.Chemscore.Metal.Weighted>
-0.0000

> <Gold.Chemscore.Lipo.Weighted>
-12.4129

> <Gold.Chemscore.Internal_Hbond.Weighted>
0.0000

> <Gold.Chemscore.DEClash.Weighted>
0.0481

> <Gold.Chemscore.DEInternal.Weighted>
1.7246

> <Gold.Chemscore.Rot.Weighted>
4.0905

> <Gold.Chemscore.Internal.Correction.Weighted>
   9.000000E+99

> <Gold.Protein.RotatedTorsions>
[ 6907 6896 6895 6894 ] final    9.52 input  -60.11 | X-H torsion
[ 7974 7965 7964 7962 ] final  -19.80 input  175.53 | X-H torsion
[ 8008 7997 7996 7995 ] final  104.29 input   59.86 | X-H torsion
[ 10167 10162 10161 10158 ] final  104.40 input  -65.29 | X-H torsion
[ 10718 10713 10712 10709 ] final   69.48 input   66.30 | X-H torsion
[ 10763 10752 10751 10750 ] final   81.07 input  -60.55 | X-H torsion
[ 11005 11000 10999 10996 ] final  -68.45 input  -57.11 | X-H torsion

> <Gold.Protein.ActiveResidues>
 VAL166  LYS551  ARG553  GLY616  TRP617  ASP618  TYR619  PRO620  LYS621  CYS622 
 ASP623  PHE694  ASN695  SER759  ASP760  ASP761  ALA762  ILE779  LEU786  VAL792 
 PHE793  MET794  SER795  GLU796  ALA797  LYS798  CYS799  TRP800  GLU811  SER814 

> <Gold.Protein.RotatedAtoms>
  151.7235  135.0889  160.0287 H   0  0  0  0  0  0  0  0  0  0  0  0  # atno 6907 bound_to 6896
  152.3587  133.6265  159.6007 H   0  0  0  0  0  0  0  0  0  0  0  0  # atno 6908 bound_to 6896
  150.7589  133.9375  159.3487 H   0  0  0  0  0  0  0  0  0  0  0  0  # atno 6909 bound_to 6896
  146.1822  140.4113  142.8490 H   0  0  0  0  0  0  0  0  0  0  0  0  # atno 7974 bound_to 7965
  156.1559  140.3150  155.8726 H   0  0  0  0  0  0  0  0  0  0  0  0  # atno 8008 bound_to 7997
  155.3878  140.0492  157.3059 H   0  0  0  0  0  0  0  0  0  0  0  0  # atno 8009 bound_to 7997
  154.5101  140.2161  155.9184 H   0  0  0  0  0  0  0  0  0  0  0  0  # atno 8010 bound_to 7997
  139.7180  144.7064  151.0918 H   0  0  0  0  0  0  0  0  0  0  0  0  # atno 10167 bound_to 10162
  157.6348  130.9428  150.0519 H   0  0  0  0  0  0  0  0  0  0  0  0  # atno 10718 bound_to 10713
  153.1086  135.4779  154.8995 H   0  0  0  0  0  0  0  0  0  0  0  0  # atno 10763 bound_to 10752
  154.7457  135.3093  154.8652 H   0  0  0  0  0  0  0  0  0  0  0  0  # atno 10764 bound_to 10752
  153.9247  135.6851  153.4800 H   0  0  0  0  0  0  0  0  0  0  0  0  # atno 10765 bound_to 10752
  141.1532  133.6741  156.6448 H   0  0  0  0  0  0  0  0  0  0  0  0  # atno 11005 bound_to 11000
  144.8335  140.6744  143.6276 LP  0  0  0  0  0  0  0  0  0  0  0  0  # atno 17320 bound_to 7965
  145.4043  139.1592  143.4160 LP  0  0  0  0  0  0  0  0  0  0  0  0  # atno 17321 bound_to 7965
  140.7748  143.5203  150.9544 LP  0  0  0  0  0  0  0  0  0  0  0  0  # atno 17342 bound_to 10162
  139.8890  143.6977  152.3148 LP  0  0  0  0  0  0  0  0  0  0  0  0  # atno 17343 bound_to 10162
  156.1579  130.3643  149.9342 LP  0  0  0  0  0  0  0  0  0  0  0  0  # atno 17370 bound_to 10713
  156.7347  130.9057  151.3628 LP  0  0  0  0  0  0  0  0  0  0  0  0  # atno 17371 bound_to 10713
  140.3366  134.7884  157.4366 LP  0  0  0  0  0  0  0  0  0  0  0  0  # atno 17394 bound_to 11000
  140.0973  134.5520  155.8386 LP  0  0  0  0  0  0  0  0  0  0  0  0  # atno 17395 bound_to 11000

$$$$
