#       Name:                AV-unprocessed.smi:2766
#       Creating user name   scv26
#       Creation time:       Fri Mar 27 15:09:35 2020


#       File generated by GOLD software.
#

@<TRIPOS>MOLECULE
AV-unprocessed.smi:2766
    37    38     1
SMALL
NO_CHARGES


@<TRIPOS>ATOM
      1 ****        -4.6611   2.1114  -0.5223 C.3            1 S1                 0.0000
      2 ****        -3.2473   2.0307  -0.5591 O.3            1 S1                 0.0000
      3 ****        -2.7632   0.7576  -0.1635 C.3            1 S1                 0.0000
      4 ****        -1.2268   0.7600  -0.2189 C.3            1 S1                 0.0000
      5 ****        -0.7403   1.3818   0.9542 O.3            1 S1                 0.0000
      6 ****        -0.6544  -0.6707  -0.3185 C.3            1 S1                 0.0000
      7 ****         0.8004  -0.7023  -0.4141 N.pl3          1 S1                 0.0000
      8 ****         1.5715  -0.7145  -1.5335 C.2            1 S1                 0.0000
      9 ****         0.9846  -0.7331  -2.9187 C.3            1 S1                 0.0000
     10 ****         1.9387  -0.6045  -3.8422 F              1 S1                 0.0000
     11 ****         0.3539  -1.8862  -3.1411 F              1 S1                 0.0000
     12 ****         0.1208   0.2663  -3.0902 F              1 S1                 0.0000
     13 ****         2.8897  -0.7495  -1.3229 N.2            1 S1                 0.0000
     14 ****         2.9822  -0.7657   0.0539 C.ar           1 S1                 0.0000
     15 ****         4.1162  -0.8044   0.8965 C.ar           1 S1                 0.0000
     16 ****         3.9635  -0.8254   2.2982 C.ar           1 S1                 0.0000
     17 ****         2.6775  -0.8090   2.8759 C.ar           1 S1                 0.0000
     18 ****         1.5349  -0.7696   2.0538 C.ar           1 S1                 0.0000
     19 ****         1.6923  -0.7451   0.6545 C.ar           1 S1                 0.0000
     20 ****        -0.8970   1.3421  -1.0792 H              1 S1                 0.0000
     21 ****        -4.9793   3.1048  -0.8380 H              1 S1                 0.0000
     22 ****        -5.0388   1.9423   0.4869 H              1 S1                 0.0000
     23 ****        -5.1169   1.3829  -1.1942 H              1 S1                 0.0000
     24 ****        -3.1215   0.4848   0.8310 H              1 S1                 0.0000
     25 ****        -3.1545   0.0153  -0.8613 H              1 S1                 0.0000
     26 ****        -1.0559   0.9005   1.7033 H              1 S1                 0.0000
     27 ****        -0.9551  -1.2574   0.5506 H              1 S1                 0.0000
     28 ****        -1.0750  -1.1842  -1.1824 H              1 S1                 0.0000
     29 ****         5.1052  -0.8198   0.4630 H              1 S1                 0.0000
     30 ****         4.8370  -0.8557   2.9329 H              1 S1                 0.0000
     31 ****         2.5687  -0.8261   3.9505 H              1 S1                 0.0000
     32 ****         0.5492  -0.7558   2.4944 H              1 S1                 0.0000
     33 ****        -2.8708   2.7222   0.0574 LP             1 S1                 0.0000
     34 ****        -2.9402   2.2141  -1.4929 LP             1 S1                 0.0000
     35 ****        -1.0693   2.3251   0.9968 LP             1 S1                 0.0000
     36 ****         0.2597   1.3775   0.9479 LP             1 S1                 0.0000
     37 ****         3.6282  -0.7612  -1.9971 LP             1 S1                 0.0000
@<TRIPOS>BOND
    1    1    2 1     
    2    1   21 1     
    3    1   22 1     
    4    1   23 1     
    5    2    3 1     
    6    3    4 1     
    7    3   24 1     
    8    3   25 1     
    9    4   20 1     
   10    4    5 1     
   11    4    6 1     
   12    5   26 1     
   13    6    7 1     
   14    6   27 1     
   15    6   28 1     
   16    7   19 1     
   17    7    8 1     
   18    8    9 1     
   19    8   13 2     
   20    9   10 1     
   21    9   11 1     
   22    9   12 1     
   23   13   14 1     
   24   14   19 ar    
   25   14   15 ar    
   26   15   16 ar    
   27   15   29 1     
   28   16   17 ar    
   29   16   30 1     
   30   17   18 ar    
   31   17   31 1     
   32   18   19 ar    
   33   18   32 1     
   34    2   33 1     
   35    2   34 1     
   36    5   35 1     
   37    5   36 1     
   38   13   37 1     
@<TRIPOS>SUBSTRUCTURE
      1 S1             1
@<TRIPOS>SET
LONE_PAIRS      STATIC     ATOMS    <user>   **** ""
5 33 34 35 36 37
DONOR_HYDROGENS      STATIC     ATOMS    <user>   **** ""
1 26
ATOM$BLUE        STATIC     ATOMS    COLORGROUP SYSTEM
5 33 34 35 36 37
ATOM$RED        STATIC     ATOMS    COLORGROUP SYSTEM
1 26
