AV-unprocessed.smi:109|AV-procd|sdf|1043|dock2
  -GOLD-   2262018 73D 1   1.00000     0.00000
 Structure written by MMmdl.
 58 61  0  0  0  0  0  0  0  0  1 V2000
  153.0930  139.6643  157.6691 O   0  0  0  0  0  0  0  0  0  0  0  0
  151.8552  139.0750  157.3343 C   0  0  0  0  0  0  0  0  0  0  0  0
  150.7130  139.8174  158.0485 C   0  0  0  0  0  0  0  0  0  0  0  0
  150.4513  141.2477  157.5145 C   0  0  2  0  0  0  0  0  0  0  0  0
  150.3556  141.2123  156.0535 N   0  0  0  0  0  0  0  0  0  0  0  0
  149.1697  141.2992  155.4106 C   0  0  0  0  0  0  0  0  0  0  0  0
  149.0462  140.9755  154.0971 N   0  0  0  0  0  0  0  0  0  0  0  0
  147.8615  141.0865  153.4888 C   0  0  0  0  0  0  0  0  0  0  0  0
  146.6955  141.4887  153.9998 N   0  0  0  0  0  0  0  0  0  0  0  0
  146.8130  141.8082  155.3215 C   0  0  0  0  0  0  0  0  0  0  0  0
  148.0074  141.7443  156.0909 C   0  0  0  0  0  0  0  0  0  0  0  0
  147.7497  142.1513  157.3924 N   0  0  0  0  0  0  0  0  0  0  0  0
  146.4763  142.4399  157.3860 C   0  0  0  0  0  0  0  0  0  0  0  0
  145.8291  142.2506  156.1802 N   0  0  0  0  0  0  0  0  0  0  0  0
  144.3982  142.5068  155.7982 C   0  0  2  0  0  0  0  0  0  0  0  0
  144.3941  143.3324  154.6785 O   0  0  0  0  0  0  0  0  0  0  0  0
  144.4277  144.6885  155.0984 C   0  0  1  0  0  0  0  0  0  0  0  0
  143.9163  145.5879  153.9632 C   0  0  0  0  0  0  0  0  0  0  0  0
  142.6789  145.1116  153.4794 O   0  0  0  0  0  0  0  0  0  0  0  0
  143.5614  144.6973  156.3703 C   0  0  2  0  0  0  0  0  0  0  0  0
  144.0953  145.6024  157.3163 O   0  0  0  0  0  0  0  0  0  0  0  0
  143.6345  143.2601  156.9002 C   0  0  1  0  0  0  0  0  0  0  0  0
  142.3383  142.7245  157.0739 O   0  0  0  0  0  0  0  0  0  0  0  0
  151.5436  142.2728  157.9372 C   0  0  0  0  0  0  0  0  0  0  0  0
  151.8384  142.2521  159.4585 C   0  0  0  0  0  0  0  0  0  0  0  0
  152.8955  143.2912  159.8683 C   0  0  0  0  0  0  0  0  0  0  0  0
  152.4947  144.7054  159.4315 C   0  0  0  0  0  0  0  0  0  0  0  0
  152.2256  144.7472  157.9230 C   0  0  0  0  0  0  0  0  0  0  0  0
  151.1590  143.7169  157.5213 C   0  0  0  0  0  0  0  0  0  0  0  0
  143.9900  141.5204  155.5752 H   0  0  0  0  0  0  0  0  0  0  0  0
  145.4650  144.9378  155.3276 H   0  0  0  0  0  0  0  0  0  0  0  0
  142.5326  144.9764  156.1366 H   0  0  0  0  0  0  0  0  0  0  0  0
  144.1582  143.1770  157.8535 H   0  0  0  0  0  0  0  0  0  0  0  0
  153.2270  139.5719  158.5999 H   0  0  0  0  0  0  0  0  0  0  0  0
  151.7364  139.1127  156.2515 H   0  0  0  0  0  0  0  0  0  0  0  0
  151.8726  138.0248  157.6269 H   0  0  0  0  0  0  0  0  0  0  0  0
  149.8201  139.2066  157.9283 H   0  0  0  0  0  0  0  0  0  0  0  0
  150.9142  139.8580  159.1199 H   0  0  0  0  0  0  0  0  0  0  0  0
  149.5151  141.5991  157.9482 H   0  0  0  0  0  0  0  0  0  0  0  0
  151.2371  141.2691  155.5638 H   0  0  0  0  0  0  0  0  0  0  0  0
  147.8459  140.8136  152.4439 H   0  0  0  0  0  0  0  0  0  0  0  0
  145.9808  142.8027  158.2737 H   0  0  0  0  0  0  0  0  0  0  0  0
  143.7687  146.6039  154.3301 H   0  0  0  0  0  0  0  0  0  0  0  0
  144.6371  145.6412  153.1467 H   0  0  0  0  0  0  0  0  0  0  0  0
  142.8157  144.2630  153.0869 H   0  0  0  0  0  0  0  0  0  0  0  0
  144.1796  146.4505  156.9094 H   0  0  0  0  0  0  0  0  0  0  0  0
  141.9302  142.6456  156.2251 H   0  0  0  0  0  0  0  0  0  0  0  0
  152.4672  142.0120  157.4174 H   0  0  0  0  0  0  0  0  0  0  0  0
  150.9165  142.4318  160.0136 H   0  0  0  0  0  0  0  0  0  0  0  0
  152.2043  141.2763  159.7726 H   0  0  0  0  0  0  0  0  0  0  0  0
  153.0409  143.2652  160.9486 H   0  0  0  0  0  0  0  0  0  0  0  0
  153.8555  143.0297  159.4213 H   0  0  0  0  0  0  0  0  0  0  0  0
  151.6020  145.0196  159.9738 H   0  0  0  0  0  0  0  0  0  0  0  0
  153.2821  145.4137  159.6909 H   0  0  0  0  0  0  0  0  0  0  0  0
  151.9041  145.7473  157.6312 H   0  0  0  0  0  0  0  0  0  0  0  0
  153.1498  144.5482  157.3789 H   0  0  0  0  0  0  0  0  0  0  0  0
  151.0131  143.7855  156.4432 H   0  0  0  0  0  0  0  0  0  0  0  0
  150.2046  143.9868  157.9757 H   0  0  0  0  0  0  0  0  0  0  0  0
  1  2  1  0  0  0  0
  1 34  1  0  0  0  0
  2  3  1  0  0  0  0
  2 35  1  0  0  0  0
  2 36  1  0  0  0  0
  3  4  1  0  0  0  0
  3 37  1  0  0  0  0
  3 38  1  0  0  0  0
  4  5  1  0  0  0  0
  4 24  1  0  0  0  0
  4 39  1  0  0  0  0
  5  6  1  0  0  0  0
  5 40  1  0  0  0  0
  6 11  1  0  0  0  0
  6  7  2  0  0  0  0
  7  8  1  0  0  0  0
  8  9  2  0  0  0  0
  8 41  1  0  0  0  0
  9 10  1  0  0  0  0
 10 14  1  0  0  0  0
 10 11  2  0  0  0  0
 11 12  1  0  0  0  0
 12 13  2  0  0  0  0
 13 14  1  0  0  0  0
 13 42  1  0  0  0  0
 14 15  1  0  0  0  0
 15 30  1  0  0  0  0
 15 22  1  0  0  0  0
 15 16  1  0  0  0  0
 16 17  1  0  0  0  0
 17 31  1  0  0  0  0
 17 18  1  0  0  0  0
 17 20  1  0  0  0  0
 18 19  1  0  0  0  0
 18 43  1  0  0  0  0
 18 44  1  0  0  0  0
 19 45  1  0  0  0  0
 20 32  1  0  0  0  0
 20 21  1  0  0  0  0
 20 22  1  0  0  0  0
 21 46  1  0  0  0  0
 22 33  1  0  0  0  0
 22 23  1  0  0  0  0
 23 47  1  0  0  0  0
 24 29  1  0  0  0  0
 24 25  1  0  0  0  0
 24 48  1  0  0  0  0
 25 26  1  0  0  0  0
 25 49  1  0  0  0  0
 25 50  1  0  0  0  0
 26 27  1  0  0  0  0
 26 51  1  0  0  0  0
 26 52  1  0  0  0  0
 27 28  1  0  0  0  0
 27 53  1  0  0  0  0
 27 54  1  0  0  0  0
 28 29  1  0  0  0  0
 28 55  1  0  0  0  0
 28 56  1  0  0  0  0
 29 57  1  0  0  0  0
 29 58  1  0  0  0  0
M  END
> <s_m_source_file>
AV-unprocessed.smi

> <i_m_source_file_index>
109

> <i_lp_mmshare_version>
43012

> <i_f3d_flags>
0

> <s_epik_input>
W0NIMl0xW0NIMl1bQ0gyXVtDSDJdW0NIMl1bQ0hdMVtDQEhdKFtDSDJdW0NIMl1bT0hdKVtOSF1jKG5bY0hdbjIpYyhjMjMpbltjSF1uM1tDQEBIXTRPW0NASF0oW0NIMl1bT0hdKVtDQEBIXShbT0hdKVtDQEhdNFtPSF0=

> <s_epik_cmdline>
J2VwaWtfcHl0aG9uJywgJy1waCcsICc3LjAnLCAnLXRuJywgJzgnLCAnLW1hJywgJzIwMCcsICctbWV0YWxfYmluZGluZycsICctaW1hZScsICc8aW5maWxlLm1hZT4nLCAnLW9tYWUnLCAnPG91dGZpbGUubWFlPic=

> <r_lp_tautomer_probability>
1

> <r_epik_Ionization_Penalty>
0.000793976

> <r_epik_Ionization_Penalty_Charging>
0

> <r_epik_Ionization_Penalty_Neutral>
0.000793976

> <r_epik_State_Penalty>
-0

> <r_epik_Charging_Adjusted_Penalty>
0

> <i_epik_Tot_Q>
0

> <i_epik_Tot_abs_Q>
0

> <r_epik_Metal_State_Penalty>
-0

> <b_epik_Metal_Only>
0

> <s_epik_Chemistry_Notes>
This compound contains an acetal/aminal-like group ( X-CH(R)-Y where X, Y are N, S, or O) that may be acid/base labile, releasing an aldehyde.

> <s_lp_Force_Field>
OPLS_2005

> <r_lp_Energy>
47.5794

> <b_lp_Chiralities_Consistent>
1

> <s_lp_Variant>
AV-unprocessed.smi:109-13

> <Gold.Version>
5.8.1

> <Gold.Id.Protein>
6NUR|6NUR_protein|mol2

> <Gold.PLP.Fitness>
52.8539

> <Gold.PLP.PLP>
-44.6078

> <Gold.PLP.part.hbond>
-3.4138

> <Gold.PLP.part.metal>
0.0000

> <Gold.PLP.part.buried>
-6.6395

> <Gold.PLP.part.nonpolar>
-34.4114

> <Gold.PLP.part.repulsive>
0.7491

> <Gold.PLP.ligand.clash>
0.0000

> <Gold.PLP.ligand.torsion>
0.5343

> <Gold.PLP.Chemscore.Hbond>
2.0086

> <Gold.PLP.Chemscore.CHOScore>
0.9922

> <Gold.PLP.Chemscore.Metal>
0.0000

> <Gold.Chemscore.Hbonds>
donor molecule, donor type, donor heavy atom, donor atom, acceptor molecule, acceptor atom, score
      L1  H    19    45       P1 10174  1.00
      P1  H  7997  8009       L1     1  1.00
      P1  H  8011  8017       L1     7  0.01
      L1  C     8    41       P1  7957  0.97

> <Gold.PLP.Chemscore.Internal.Correction>
0.3123

> <Gold.Rescore>
     Score         DG    S(hbond)    S(metal)    S(lipo)     H(rot)  DE(clash)    DE(int)     intcor
      6.92      -9.81       1.95        0.00     100.98       5.47       0.12       2.77       ----

> <Gold.Chemscore.Fitness>
6.9194

> <Gold.Chemscore.DG>
-9.8113

> <Gold.Chemscore.ZeroCoef>
-5.4800

> <Gold.Chemscore.Hbond>
1.9491

> <Gold.Chemscore.Metal>
0.0000

> <Gold.Chemscore.Lipo>
100.9821

> <Gold.Chemscore.Internal_Hbond>
0.0000

> <Gold.Chemscore.DEClash>
0.1223

> <Gold.Chemscore.DEInternal>
2.7695

> <Gold.Chemscore.Rot>
5.4662

> <Gold.Chemscore.Internal.Correction>
   9.000000E+99

> <Gold.Chemscore.Hbonds>
donor molecule, donor type, donor heavy atom, donor atom, acceptor molecule, acceptor atom, score
      L1  H    19    45       P1 10174  0.96
      P1  H  7997  8009       L1     1  0.49

> <Gold.Chemscore.Hbond.Weighted>
-6.5099

> <Gold.Chemscore.Metal.Weighted>
-0.0000

> <Gold.Chemscore.Lipo.Weighted>
-11.8149

> <Gold.Chemscore.Internal_Hbond.Weighted>
0.0000

> <Gold.Chemscore.DEClash.Weighted>
0.1223

> <Gold.Chemscore.DEInternal.Weighted>
2.7695

> <Gold.Chemscore.Rot.Weighted>
13.9935

> <Gold.Chemscore.Internal.Correction.Weighted>
   9.000000E+99

> <Gold.Protein.RotatedTorsions>
[ 6907 6896 6895 6894 ] final   53.03 input  -60.11 | X-H torsion
[ 7974 7965 7964 7962 ] final  -25.85 input  175.53 | X-H torsion
[ 8008 7997 7996 7995 ] final  152.61 input   59.86 | X-H torsion
[ 10167 10162 10161 10158 ] final  -26.77 input  -65.29 | X-H torsion
[ 10718 10713 10712 10709 ] final  163.69 input   66.30 | X-H torsion
[ 10763 10752 10751 10750 ] final  121.72 input  -60.55 | X-H torsion
[ 11005 11000 10999 10996 ] final  148.97 input  -57.11 | X-H torsion

> <Gold.Protein.ActiveResidues>
 VAL166  LYS551  ARG553  GLY616  TRP617  ASP618  TYR619  PRO620  LYS621  CYS622 
 ASP623  PHE694  ASN695  SER759  ASP760  ASP761  ALA762  ILE779  LEU786  VAL792 
 PHE793  MET794  SER795  GLU796  ALA797  LYS798  CYS799  TRP800  GLU811  SER814 

> <Gold.Protein.RotatedAtoms>
  152.3295  134.7278  160.0293 H   0  0  0  0  0  0  0  0  0  0  0  0  # atno 6907 bound_to 6896
  151.7700  133.3335  159.3450 H   0  0  0  0  0  0  0  0  0  0  0  0  # atno 6908 bound_to 6896
  150.7414  134.5959  159.6056 H   0  0  0  0  0  0  0  0  0  0  0  0  # atno 6909 bound_to 6896
  146.1464  140.4941  142.8630 H   0  0  0  0  0  0  0  0  0  0  0  0  # atno 7974 bound_to 7965
  156.2621  140.2016  156.6361 H   0  0  0  0  0  0  0  0  0  0  0  0  # atno 8008 bound_to 7997
  154.6645  140.0557  157.0123 H   0  0  0  0  0  0  0  0  0  0  0  0  # atno 8009 bound_to 7997
  155.1227  140.3226  155.4496 H   0  0  0  0  0  0  0  0  0  0  0  0  # atno 8010 bound_to 7997
  140.7281  143.4150  151.1043 H   0  0  0  0  0  0  0  0  0  0  0  0  # atno 10167 bound_to 10162
  157.1049  131.0452  151.2482 H   0  0  0  0  0  0  0  0  0  0  0  0  # atno 10718 bound_to 10713
  153.6185  135.3417  155.3003 H   0  0  0  0  0  0  0  0  0  0  0  0  # atno 10763 bound_to 10752
  154.8605  135.4267  154.2233 H   0  0  0  0  0  0  0  0  0  0  0  0  # atno 10764 bound_to 10752
  153.3100  135.7031  153.7197 H   0  0  0  0  0  0  0  0  0  0  0  0  # atno 10765 bound_to 10752
  140.1005  134.8986  157.1788 H   0  0  0  0  0  0  0  0  0  0  0  0  # atno 11005 bound_to 11000
  144.7852  140.5921  143.6579 LP  0  0  0  0  0  0  0  0  0  0  0  0  # atno 17320 bound_to 7965
  145.4927  139.1488  143.3701 LP  0  0  0  0  0  0  0  0  0  0  0  0  # atno 17321 bound_to 7965
  139.7788  143.8385  152.3134 LP  0  0  0  0  0  0  0  0  0  0  0  0  # atno 17342 bound_to 10162
  139.8329  144.7245  150.9427 LP  0  0  0  0  0  0  0  0  0  0  0  0  # atno 17343 bound_to 10162
  157.4609  130.7653  149.7235 LP  0  0  0  0  0  0  0  0  0  0  0  0  # atno 17370 bound_to 10713
  155.9864  130.3975  150.3212 LP  0  0  0  0  0  0  0  0  0  0  0  0  # atno 17371 bound_to 10713
  140.3227  134.2898  155.7243 LP  0  0  0  0  0  0  0  0  0  0  0  0  # atno 17394 bound_to 11000
  141.2104  133.7720  156.9933 LP  0  0  0  0  0  0  0  0  0  0  0  0  # atno 17395 bound_to 11000

$$$$
