AV-unprocessed.smi:160|AV-procd|sdf|1343|dock4
  -GOLD-   2262019 43D 1   1.00000     0.00000
 Structure written by MMmdl.
 29 30  0  0  0  0  0  0  0  0  1 V2000
  148.8081  136.7592  158.7217 N   0  0  0  0  0  0  0  0  0  0  0  0
  149.3634  135.9930  157.7773 C   0  0  0  0  0  0  0  0  0  0  0  0
  149.5384  134.7851  157.9286 O   0  0  0  0  0  0  0  0  0  0  0  0
  149.7676  136.6907  156.5080 C   0  0  0  0  0  0  0  0  0  0  0  0
  150.3999  136.0162  155.5024 N   0  0  0  0  0  0  0  0  0  0  0  0
  150.5450  137.0146  154.6404 C   0  0  0  0  0  0  0  0  0  0  0  0
  150.0425  138.1792  155.0625 N   0  0  0  0  0  0  0  0  0  0  0  0
  150.0436  139.5200  154.4037 C   0  0  2  0  0  0  0  0  0  0  0  0
  150.9042  140.3394  155.1387 O   0  0  0  0  0  0  0  0  0  0  0  0
  150.2433  141.5355  155.5450 C   0  0  2  0  0  0  0  0  0  0  0  0
  150.8116  142.0046  156.8931 C   0  0  0  0  0  0  0  0  0  0  0  0
  150.1400  143.1685  157.3246 O   0  0  0  0  0  0  0  0  0  0  0  0
  148.7726  141.1207  155.6138 C   0  0  1  0  0  0  0  0  0  0  0  0
  147.8752  142.2120  155.5275 O   0  0  0  0  0  0  0  0  0  0  0  0
  148.6442  140.1525  154.4442 C   0  0  1  0  0  0  0  0  0  0  0  0
  148.3543  140.8074  153.2229 O   0  0  0  0  0  0  0  0  0  0  0  0
  149.5338  137.9887  156.3058 N   0  0  0  0  0  0  0  0  0  0  0  0
  150.4195  139.3326  153.3966 H   0  0  0  0  0  0  0  0  0  0  0  0
  150.3729  142.2944  154.7707 H   0  0  0  0  0  0  0  0  0  0  0  0
  148.5857  140.5867  156.5463 H   0  0  0  0  0  0  0  0  0  0  0  0
  147.8732  139.4001  154.6171 H   0  0  0  0  0  0  0  0  0  0  0  0
  148.5160  136.3478  159.5958 H   0  0  0  0  0  0  0  0  0  0  0  0
  148.6847  137.7469  158.5528 H   0  0  0  0  0  0  0  0  0  0  0  0
  151.0287  136.8945  153.6822 H   0  0  0  0  0  0  0  0  0  0  0  0
  150.6575  141.2388  157.6537 H   0  0  0  0  0  0  0  0  0  0  0  0
  151.8851  142.1856  156.8283 H   0  0  0  0  0  0  0  0  0  0  0  0
  149.6087  143.4910  156.6129 H   0  0  0  0  0  0  0  0  0  0  0  0
  148.3437  143.0044  155.7415 H   0  0  0  0  0  0  0  0  0  0  0  0
  148.9178  140.4485  152.5541 H   0  0  0  0  0  0  0  0  0  0  0  0
  1  2  1  0  0  0  0
  1 22  1  0  0  0  0
  1 23  1  0  0  0  0
  2  3  2  0  0  0  0
  2  4  1  0  0  0  0
  4 17  2  0  0  0  0
  4  5  1  0  0  0  0
  5  6  2  0  0  0  0
  6  7  1  0  0  0  0
  6 24  1  0  0  0  0
  7  8  1  0  0  0  0
  7 17  1  0  0  0  0
  8 18  1  0  0  0  0
  8 15  1  0  0  0  0
  8  9  1  0  0  0  0
  9 10  1  0  0  0  0
 10 19  1  0  0  0  0
 10 11  1  0  0  0  0
 10 13  1  0  0  0  0
 11 12  1  0  0  0  0
 11 25  1  0  0  0  0
 11 26  1  0  0  0  0
 12 27  1  0  0  0  0
 13 20  1  0  0  0  0
 13 14  1  0  0  0  0
 13 15  1  0  0  0  0
 14 28  1  0  0  0  0
 15 21  1  0  0  0  0
 15 16  1  0  0  0  0
 16 29  1  0  0  0  0
M  END
> <s_m_source_file>
AV-unprocessed.smi

> <i_m_source_file_index>
160

> <i_lp_mmshare_version>
43012

> <i_f3d_flags>
0

> <s_epik_input>
W05IMl1DKD1PKWMxbltjSF1uKG4xKVtDQEBIXTJPW0NASF0oW0NIMl1bT0hdKVtDQEBIXShbT0hdKVtDQEhdMltPSF0=

> <s_epik_cmdline>
J2VwaWtfcHl0aG9uJywgJy1waCcsICc3LjAnLCAnLXRuJywgJzgnLCAnLW1hJywgJzIwMCcsICctbWV0YWxfYmluZGluZycsICctaW1hZScsICc8aW5maWxlLm1hZT4nLCAnLW9tYWUnLCAnPG91dGZpbGUubWFlPic=

> <r_lp_tautomer_probability>
1

> <r_epik_Ionization_Penalty>
1.06932e-05

> <r_epik_Ionization_Penalty_Charging>
0

> <r_epik_Ionization_Penalty_Neutral>
1.06932e-05

> <r_epik_State_Penalty>
-0

> <r_epik_Charging_Adjusted_Penalty>
0

> <i_epik_Tot_Q>
0

> <i_epik_Tot_abs_Q>
0

> <r_epik_Metal_State_Penalty>
0.0142097

> <b_epik_Metal_Only>
0

> <s_epik_Chemistry_Notes>
This compound contains an acetal/aminal-like group ( X-CH(R)-Y where X, Y are N, S, or O) that may be acid/base labile, releasing an aldehyde.

> <s_lp_Force_Field>
OPLS_2005

> <r_lp_Energy>
39.0499

> <b_lp_Chiralities_Consistent>
1

> <s_lp_Variant>
AV-unprocessed.smi:160-1

> <Gold.Version>
5.8.1

> <Gold.Id.Protein>
6NUR|6NUR_protein|mol2

> <Gold.PLP.Fitness>
39.1045

> <Gold.PLP.PLP>
-22.7876

> <Gold.PLP.part.hbond>
-5.0892

> <Gold.PLP.part.metal>
0.0000

> <Gold.PLP.part.buried>
-4.7943

> <Gold.PLP.part.nonpolar>
-13.9807

> <Gold.PLP.part.repulsive>
0.3031

> <Gold.PLP.ligand.clash>
0.0000

> <Gold.PLP.ligand.torsion>
0.1755

> <Gold.PLP.Chemscore.Hbond>
4.5000

> <Gold.PLP.Chemscore.CHOScore>
1.0474

> <Gold.PLP.Chemscore.Metal>
0.0000

> <Gold.Chemscore.Hbonds>
donor molecule, donor type, donor heavy atom, donor atom, acceptor molecule, acceptor atom, score
      L1  H    12    27       P1  8028  1.00
      L1  H    14    28       P1  8028  1.00
      L1  H    16    29       P1  7957  1.00
      P1  H  6896  6909       L1     3  1.00
      P1  H  7989  7998       L1     9  0.35
      L1  C     6    24       P1  7948  0.03
      L1  C     6    24       P1  7949  1.00

> <Gold.PLP.Chemscore.Internal.Correction>
0.0256

> <Gold.Rescore>
     Score         DG    S(hbond)    S(metal)    S(lipo)     H(rot)  DE(clash)    DE(int)     intcor
     11.28     -11.51       3.95        0.00      27.71       4.06       0.07       0.15       ----

> <Gold.Chemscore.Fitness>
11.2837

> <Gold.Chemscore.DG>
-11.5062

> <Gold.Chemscore.ZeroCoef>
-5.4800

> <Gold.Chemscore.Hbond>
3.9455

> <Gold.Chemscore.Metal>
0.0000

> <Gold.Chemscore.Lipo>
27.7084

> <Gold.Chemscore.Internal_Hbond>
0.0000

> <Gold.Chemscore.DEClash>
0.0739

> <Gold.Chemscore.DEInternal>
0.1486

> <Gold.Chemscore.Rot>
4.0600

> <Gold.Chemscore.Internal.Correction>
   9.000000E+99

> <Gold.Chemscore.Hbonds>
donor molecule, donor type, donor heavy atom, donor atom, acceptor molecule, acceptor atom, score
      L1  H    12    27       P1  8028  0.97
      L1  H    14    28       P1  8028  0.95
      L1  H    16    29       P1  7957  0.99
      P1  H  6896  6909       L1     3  0.93

> <Gold.Chemscore.Hbond.Weighted>
-13.1779

> <Gold.Chemscore.Metal.Weighted>
-0.0000

> <Gold.Chemscore.Lipo.Weighted>
-3.2419

> <Gold.Chemscore.Internal_Hbond.Weighted>
0.0000

> <Gold.Chemscore.DEClash.Weighted>
0.0739

> <Gold.Chemscore.DEInternal.Weighted>
0.1486

> <Gold.Chemscore.Rot.Weighted>
10.3936

> <Gold.Chemscore.Internal.Correction.Weighted>
   9.000000E+99

> <Gold.Protein.RotatedTorsions>
[ 6907 6896 6895 6894 ] final   27.66 input  -60.11 | X-H torsion
[ 7974 7965 7964 7962 ] final  -97.27 input  175.53 | X-H torsion
[ 8008 7997 7996 7995 ] final  -27.75 input   59.86 | X-H torsion
[ 10167 10162 10161 10158 ] final  -50.24 input  -65.29 | X-H torsion
[ 10718 10713 10712 10709 ] final  -72.62 input   66.30 | X-H torsion
[ 10763 10752 10751 10750 ] final   75.08 input  -60.55 | X-H torsion
[ 11005 11000 10999 10996 ] final  147.60 input  -57.11 | X-H torsion

> <Gold.Protein.ActiveResidues>
 VAL166  LYS551  ARG553  GLY616  TRP617  ASP618  TYR619  PRO620  LYS621  CYS622 
 ASP623  PHE694  ASN695  SER759  ASP760  ASP761  ALA762  ILE779  LEU786  VAL792 
 PHE793  MET794  SER795  GLU796  ALA797  LYS798  CYS799  TRP800  GLU811  SER814 

> <Gold.Protein.RotatedAtoms>
  152.0055  134.9905  160.0566 H   0  0  0  0  0  0  0  0  0  0  0  0  # atno 6907 bound_to 6896
  152.1479  133.4499  159.4807 H   0  0  0  0  0  0  0  0  0  0  0  0  # atno 6908 bound_to 6896
  150.6872  134.2143  159.4415 H   0  0  0  0  0  0  0  0  0  0  0  0  # atno 6909 bound_to 6896
  145.3359  140.9450  143.2635 H   0  0  0  0  0  0  0  0  0  0  0  0  # atno 7974 bound_to 7965
  154.4363  140.1864  156.0981 H   0  0  0  0  0  0  0  0  0  0  0  0  # atno 8008 bound_to 7997
  156.0313  140.3330  155.7117 H   0  0  0  0  0  0  0  0  0  0  0  0  # atno 8009 bound_to 7997
  155.5835  140.0624  157.2768 H   0  0  0  0  0  0  0  0  0  0  0  0  # atno 8010 bound_to 7997
  140.6647  143.2665  151.4331 H   0  0  0  0  0  0  0  0  0  0  0  0  # atno 10167 bound_to 10162
  156.0313  130.4376  150.2620 H   0  0  0  0  0  0  0  0  0  0  0  0  # atno 10718 bound_to 10713
  153.0630  135.5002  154.8137 H   0  0  0  0  0  0  0  0  0  0  0  0  # atno 10763 bound_to 10752
  154.6912  135.2985  154.9479 H   0  0  0  0  0  0  0  0  0  0  0  0  # atno 10764 bound_to 10752
  154.0233  135.6739  153.4827 H   0  0  0  0  0  0  0  0  0  0  0  0  # atno 10765 bound_to 10752
  140.0890  134.9052  157.1620 H   0  0  0  0  0  0  0  0  0  0  0  0  # atno 11005 bound_to 11000
  144.8827  139.4881  143.6715 LP  0  0  0  0  0  0  0  0  0  0  0  0  # atno 17320 bound_to 7965
  146.3027  139.7478  142.9079 LP  0  0  0  0  0  0  0  0  0  0  0  0  # atno 17321 bound_to 7965
  139.5892  144.1537  152.2067 LP  0  0  0  0  0  0  0  0  0  0  0  0  # atno 17342 bound_to 10162
  140.0886  144.5640  150.7071 LP  0  0  0  0  0  0  0  0  0  0  0  0  # atno 17343 bound_to 10162
  157.0722  131.0120  151.3186 LP  0  0  0  0  0  0  0  0  0  0  0  0  # atno 17370 bound_to 10713
  157.4991  130.7869  149.7586 LP  0  0  0  0  0  0  0  0  0  0  0  0  # atno 17371 bound_to 10713
  140.3380  134.2736  155.7217 LP  0  0  0  0  0  0  0  0  0  0  0  0  # atno 17394 bound_to 11000
  141.2072  133.7813  157.0135 LP  0  0  0  0  0  0  0  0  0  0  0  0  # atno 17395 bound_to 11000

$$$$
