AV-unprocessed.smi:1570|AV-procd|sdf|6325|dock3
  -GOLD-   22720 6533D 1   1.00000     0.00000
 Structure written by MMmdl.
 52 54  0  0  0  0  0  0  0  0  2 V2000
  151.4031  141.5427  158.8748 C   0  0  0  0  0  0  0  0  0  0  0  0
  151.5466  141.8944  157.3889 C   0  0  0  0  0  0  0  0  0  0  0  0
  150.3920  141.4340  156.6220 N   0  0  0  0  0  0  0  0  0  0  0  0
  150.4155  140.6324  155.5315 C   0  0  0  0  0  0  0  0  0  0  0  0
  151.4194  140.1499  155.0069 O   0  0  0  0  0  0  0  0  0  0  0  0
  149.1384  140.4338  155.1280 N   0  0  0  0  0  0  0  0  0  0  0  0
  148.7051  139.6181  153.9956 C   0  0  0  0  0  0  0  0  0  0  0  0
  147.7537  138.4884  154.4413 C   0  0  1  0  0  0  0  0  0  0  0  0
  147.2232  137.8774  153.2813 O   0  0  0  0  0  0  0  0  0  0  0  0
  148.4962  137.4017  155.2455 C   0  0  0  0  0  0  0  0  0  0  0  0
  149.5816  136.7505  154.4622 N   0  3  1  0  0  0  0  0  0  0  0  0
  150.8548  137.5107  154.4672 C   0  0  0  0  0  0  0  0  0  0  0  0
  151.6213  137.3118  155.7908 C   0  0  2  0  0  0  0  0  0  0  0  0
  152.9807  138.0193  155.7802 C   0  0  0  0  0  0  0  0  0  0  0  0
  151.8492  135.9204  155.9867 O   0  0  0  0  0  0  0  0  0  0  0  0
  150.6429  135.1725  156.0980 C   0  0  2  0  0  0  0  0  0  0  0  0
  151.0130  133.7116  156.3764 C   0  0  0  0  0  0  0  0  0  0  0  0
  149.8293  135.3236  154.7947 C   0  0  0  0  0  0  0  0  0  0  0  0
  148.2708  141.1030  156.0028 C   0  0  0  0  0  0  0  0  0  0  0  0
  146.8676  141.1853  156.0332 C   0  0  0  0  0  0  0  0  0  0  0  0
  146.2869  141.9450  157.0758 C   0  0  0  0  0  0  0  0  0  0  0  0
  147.0988  142.5904  158.0441 C   0  0  0  0  0  0  0  0  0  0  0  0
  148.5088  142.4904  157.9907 C   0  0  0  0  0  0  0  0  0  0  0  0
  149.0599  141.7313  156.9438 C   0  0  0  0  0  0  0  0  0  0  0  0
  152.2673  141.8911  159.4403 H   0  0  0  0  0  0  0  0  0  0  0  0
  151.3237  140.4648  159.0197 H   0  0  0  0  0  0  0  0  0  0  0  0
  150.5151  142.0061  159.3060 H   0  0  0  0  0  0  0  0  0  0  0  0
  151.6597  142.9723  157.2685 H   0  0  0  0  0  0  0  0  0  0  0  0
  152.4590  141.4492  156.9886 H   0  0  0  0  0  0  0  0  0  0  0  0
  148.2586  140.2355  153.2149 H   0  0  0  0  0  0  0  0  0  0  0  0
  149.6008  139.1887  153.5439 H   0  0  0  0  0  0  0  0  0  0  0  0
  146.9376  138.9028  155.0321 H   0  0  0  0  0  0  0  0  0  0  0  0
  147.7550  137.1269  153.0634 H   0  0  0  0  0  0  0  0  0  0  0  0
  148.9149  137.8624  156.1417 H   0  0  0  0  0  0  0  0  0  0  0  0
  147.7932  136.6472  155.5984 H   0  0  0  0  0  0  0  0  0  0  0  0
  151.4657  137.1563  153.6357 H   0  0  0  0  0  0  0  0  0  0  0  0
  150.6687  138.5687  154.2786 H   0  0  0  0  0  0  0  0  0  0  0  0
  151.0374  137.7026  156.6258 H   0  0  0  0  0  0  0  0  0  0  0  0
  152.8629  139.0941  155.6408 H   0  0  0  0  0  0  0  0  0  0  0  0
  153.6150  137.6446  154.9764 H   0  0  0  0  0  0  0  0  0  0  0  0
  153.5085  137.8630  156.7211 H   0  0  0  0  0  0  0  0  0  0  0  0
  150.0694  135.5433  156.9482 H   0  0  0  0  0  0  0  0  0  0  0  0
  150.1208  133.0942  156.4838 H   0  0  0  0  0  0  0  0  0  0  0  0
  151.5896  133.6243  157.2977 H   0  0  0  0  0  0  0  0  0  0  0  0
  151.6135  133.2938  155.5676 H   0  0  0  0  0  0  0  0  0  0  0  0
  148.8975  134.7634  154.8572 H   0  0  0  0  0  0  0  0  0  0  0  0
  150.3894  134.8831  153.9686 H   0  0  0  0  0  0  0  0  0  0  0  0
  146.2535  140.6881  155.2972 H   0  0  0  0  0  0  0  0  0  0  0  0
  145.2120  142.0325  157.1368 H   0  0  0  0  0  0  0  0  0  0  0  0
  146.6344  143.1633  158.8334 H   0  0  0  0  0  0  0  0  0  0  0  0
  149.1313  142.9753  158.7282 H   0  0  0  0  0  0  0  0  0  0  0  0
  149.2534  136.7697  153.5067 H   0  0  0  0  0  0  0  0  0  0  0  0
  1  2  1  0  0  0  0
  1 25  1  0  0  0  0
  1 26  1  0  0  0  0
  1 27  1  0  0  0  0
  2  3  1  0  0  0  0
  2 28  1  0  0  0  0
  2 29  1  0  0  0  0
  3 24  1  0  0  0  0
  3  4  1  0  0  0  0
  4  5  2  0  0  0  0
  4  6  1  0  0  0  0
  6  7  1  0  0  0  0
  6 19  1  0  0  0  0
  7  8  1  0  0  0  0
  7 30  1  0  0  0  0
  7 31  1  0  0  0  0
  8  9  1  0  0  0  0
  8 10  1  0  0  0  0
  8 32  1  0  0  0  0
  9 33  1  0  0  0  0
 10 11  1  0  0  0  0
 10 34  1  0  0  0  0
 10 35  1  0  0  0  0
 11 18  1  0  0  0  0
 11 12  1  0  0  0  0
 11 52  1  0  0  0  0
 12 13  1  0  0  0  0
 12 36  1  0  0  0  0
 12 37  1  0  0  0  0
 13 14  1  0  0  0  0
 13 15  1  0  0  0  0
 13 38  1  0  0  0  0
 14 39  1  0  0  0  0
 14 40  1  0  0  0  0
 14 41  1  0  0  0  0
 15 16  1  0  0  0  0
 16 17  1  0  0  0  0
 16 18  1  0  0  0  0
 16 42  1  0  0  0  0
 17 43  1  0  0  0  0
 17 44  1  0  0  0  0
 17 45  1  0  0  0  0
 18 46  1  0  0  0  0
 18 47  1  0  0  0  0
 19 24  2  0  0  0  0
 19 20  1  0  0  0  0
 20 21  2  0  0  0  0
 20 48  1  0  0  0  0
 21 22  1  0  0  0  0
 21 49  1  0  0  0  0
 22 23  2  0  0  0  0
 22 50  1  0  0  0  0
 23 24  1  0  0  0  0
 23 51  1  0  0  0  0
M  CHG  1  11   1
M  END
> <s_m_source_file>
AV-unprocessed.smi

> <i_m_source_file_index>
1570

> <i_lp_mmshare_version>
43012

> <i_f3d_flags>
0

> <s_epik_input>
W2NIXTFbY0hdW2NIXVtjSF1jKGMxMiluKFtDSDJdW0NIM10pYyg9TyluMltDSDJdW0NASF0oW09IXSlbQ0gyXU4zW0NIMl1bQ0BASF0oW0NIM10pT1tDQEBIXShbQ0gzXSlbQ0gyXTM=

> <s_epik_cmdline>
J2VwaWtfcHl0aG9uJywgJy1waCcsICc3LjAnLCAnLXRuJywgJzgnLCAnLW1hJywgJzIwMCcsICctbWV0YWxfYmluZGluZycsICctaW1hZScsICc8aW5maWxlLm1hZT4nLCAnLW9tYWUnLCAnPG91dGZpbGUubWFlPic=

> <r_epik_Ionization_Penalty>
0.706332

> <r_epik_Ionization_Penalty_Charging>
0.706318

> <r_epik_Ionization_Penalty_Neutral>
1.42224e-05

> <r_epik_State_Penalty>
0.729493

> <r_epik_Charging_Adjusted_Penalty>
1.43581

> <i_epik_Tot_Q>
1

> <i_epik_Tot_abs_Q>
1

> <r_epik_Metal_State_Penalty>
0.729493

> <b_epik_Metal_Only>
0

> <s_lp_Force_Field>
OPLS_2005

> <r_lp_Energy>
54.0737

> <b_lp_Chiralities_Consistent>
1

> <s_lp_Variant>
AV-unprocessed.smi:1570-14

> <Gold.Version>
5.8.1

> <Gold.Id.Protein>
6NUR|6NUR_protein|mol2

> <Gold.PLP.Fitness>
47.5737

> <Gold.PLP.PLP>
-33.3203

> <Gold.PLP.part.hbond>
-4.0000

> <Gold.PLP.part.metal>
0.0000

> <Gold.PLP.part.buried>
-3.7947

> <Gold.PLP.part.nonpolar>
-26.0416

> <Gold.PLP.part.repulsive>
0.0908

> <Gold.PLP.ligand.clash>
0.0000

> <Gold.PLP.ligand.torsion>
0.4190

> <Gold.PLP.Chemscore.Hbond>
5.0000

> <Gold.PLP.Chemscore.CHOScore>
0.0000

> <Gold.PLP.Chemscore.Metal>
0.0000

> <Gold.Chemscore.Hbonds>
donor molecule, donor type, donor heavy atom, donor atom, acceptor molecule, acceptor atom, score
      L1  H     9    33       P1  7948  0.99
      L1  H    11    52       P1  7948  2.00
      P1  H  7989  7998       L1     5  1.00
      P1  H 10752 10765       L1    15  1.00

> <Gold.PLP.Chemscore.Internal.Correction>
0.0912

> <Gold.Rescore>
     Score         DG    S(hbond)    S(metal)    S(lipo)     H(rot)  DE(clash)    DE(int)     intcor
     19.94     -20.75       3.71        0.00      71.14       2.13       0.27       0.54       ----

> <Gold.Chemscore.Fitness>
19.9383

> <Gold.Chemscore.DG>
-20.7503

> <Gold.Chemscore.ZeroCoef>
-5.4800

> <Gold.Chemscore.Hbond>
3.7129

> <Gold.Chemscore.Metal>
0.0000

> <Gold.Chemscore.Lipo>
71.1351

> <Gold.Chemscore.Internal_Hbond>
0.0000

> <Gold.Chemscore.DEClash>
0.2671

> <Gold.Chemscore.DEInternal>
0.5448

> <Gold.Chemscore.Rot>
2.1303

> <Gold.Chemscore.Internal.Correction>
   9.000000E+99

> <Gold.Chemscore.Hbonds>
donor molecule, donor type, donor heavy atom, donor atom, acceptor molecule, acceptor atom, score
      L1  H     9    33       P1  7948  0.93
      L1  H    11    52       P1  7948  0.96
      P1  H  7989  7998       L1     5  0.69
      P1  H 10752 10765       L1    15  0.60

> <Gold.Chemscore.Hbond.Weighted>
-12.4010

> <Gold.Chemscore.Metal.Weighted>
-0.0000

> <Gold.Chemscore.Lipo.Weighted>
-8.3228

> <Gold.Chemscore.Internal_Hbond.Weighted>
0.0000

> <Gold.Chemscore.DEClash.Weighted>
0.2671

> <Gold.Chemscore.DEInternal.Weighted>
0.5448

> <Gold.Chemscore.Rot.Weighted>
5.4535

> <Gold.Chemscore.Internal.Correction.Weighted>
   9.000000E+99

> <Gold.Protein.RotatedTorsions>
[ 6907 6896 6895 6894 ] final  171.03 input  -60.11 | X-H torsion
[ 7974 7965 7964 7962 ] final  162.93 input  175.53 | X-H torsion
[ 8008 7997 7996 7995 ] final  -31.15 input   59.86 | X-H torsion
[ 10167 10162 10161 10158 ] final   40.94 input  -65.29 | X-H torsion
[ 10718 10713 10712 10709 ] final  -71.43 input   66.30 | X-H torsion
[ 10763 10752 10751 10750 ] final -156.71 input  -60.55 | X-H torsion
[ 11005 11000 10999 10996 ] final   81.82 input  -57.11 | X-H torsion

> <Gold.Protein.ActiveResidues>
 VAL166  LYS551  ARG553  GLY616  TRP617  ASP618  TYR619  PRO620  LYS621  CYS622 
 ASP623  PHE694  ASN695  SER759  ASP760  ASP761  ALA762  ILE779  LEU786  VAL792 
 PHE793  MET794  SER795  GLU796  ALA797  LYS798  CYS799  TRP800  GLU811  SER814 

> <Gold.Protein.RotatedAtoms>
  151.8068  133.3376  159.3542 H   0  0  0  0  0  0  0  0  0  0  0  0  # atno 6907 bound_to 6896
  150.7340  134.5702  159.5896 H   0  0  0  0  0  0  0  0  0  0  0  0  # atno 6908 bound_to 6896
  152.3104  134.7505  160.0389 H   0  0  0  0  0  0  0  0  0  0  0  0  # atno 6909 bound_to 6896
  144.7613  139.8110  143.6331 H   0  0  0  0  0  0  0  0  0  0  0  0  # atno 7974 bound_to 7965
  154.4224  140.1772  156.1521 H   0  0  0  0  0  0  0  0  0  0  0  0  # atno 8008 bound_to 7997
  155.9907  140.3369  155.6725 H   0  0  0  0  0  0  0  0  0  0  0  0  # atno 8009 bound_to 7997
  155.6377  140.0676  157.2619 H   0  0  0  0  0  0  0  0  0  0  0  0  # atno 8010 bound_to 7997
  140.3692  144.2127  150.6134 H   0  0  0  0  0  0  0  0  0  0  0  0  # atno 10167 bound_to 10162
  156.0363  130.4351  150.2443 H   0  0  0  0  0  0  0  0  0  0  0  0  # atno 10718 bound_to 10713
  154.7692  135.3140  154.8224 H   0  0  0  0  0  0  0  0  0  0  0  0  # atno 10763 bound_to 10752
  153.8964  135.6820  153.4762 H   0  0  0  0  0  0  0  0  0  0  0  0  # atno 10764 bound_to 10752
  153.1303  135.4783  154.9272 H   0  0  0  0  0  0  0  0  0  0  0  0  # atno 10765 bound_to 10752
  139.9084  134.8025  156.2093 H   0  0  0  0  0  0  0  0  0  0  0  0  # atno 11005 bound_to 11000
  146.1679  139.4818  142.9946 LP  0  0  0  0  0  0  0  0  0  0  0  0  # atno 17320 bound_to 7965
  145.6610  141.0240  143.1709 LP  0  0  0  0  0  0  0  0  0  0  0  0  # atno 17321 bound_to 7965
  140.5050  143.2307  151.8622 LP  0  0  0  0  0  0  0  0  0  0  0  0  # atno 17342 bound_to 10162
  139.4805  144.5016  151.9053 LP  0  0  0  0  0  0  0  0  0  0  0  0  # atno 17343 bound_to 10162
  157.0542  131.0071  151.3243 LP  0  0  0  0  0  0  0  0  0  0  0  0  # atno 17370 bound_to 10713
  157.5118  130.7943  149.7713 LP  0  0  0  0  0  0  0  0  0  0  0  0  # atno 17371 bound_to 10713
  141.0476  133.6905  156.1711 LP  0  0  0  0  0  0  0  0  0  0  0  0  # atno 17394 bound_to 11000
  140.6860  134.4716  157.5589 LP  0  0  0  0  0  0  0  0  0  0  0  0  # atno 17395 bound_to 11000

$$$$
