AV-unprocessed.smi:633|AV-procd|sdf|3132|dock2
  -GOLD-   22720 0 53D 1   1.00000     0.00000
 Structure written by MMmdl.
 53 56  0  0  0  0  0  0  0  0  1 V2000
  152.1677  144.2201  157.7869 C   0  0  0  0  0  0  0  0  0  0  0  0
  151.3138  143.3986  158.7694 C   0  0  1  0  0  0  0  0  0  0  0  0
  150.5899  142.2093  158.1077 C   0  0  0  0  0  0  0  0  0  0  0  0
  151.5199  141.1169  157.8292 N   0  0  0  0  0  0  0  0  0  0  0  0
  151.0804  140.0697  156.9913 C   0  0  0  0  0  0  0  0  0  0  0  0
  151.3460  140.1126  155.6026 C   0  0  0  0  0  0  0  0  0  0  0  0
  150.9005  139.0588  154.7818 C   0  0  0  0  0  0  0  0  0  0  0  0
  150.1900  137.9865  155.3694 C   0  0  0  0  0  0  0  0  0  0  0  0
  149.7096  136.8558  154.6551 N   0  0  0  0  0  0  0  0  0  0  0  0
  149.3721  135.6455  155.1325 C   0  0  0  0  0  0  0  0  0  0  0  0
  149.4704  135.2940  156.3079 O   0  0  0  0  0  0  0  0  0  0  0  0
  148.9268  134.8474  154.1497 N   0  0  0  0  0  0  0  0  0  0  0  0
  148.4795  133.4616  154.2822 C   0  0  0  0  0  0  0  0  0  0  0  0
  149.5305  132.5286  154.8663 C   0  0  0  0  0  0  0  0  0  0  0  0
  149.1400  131.3436  155.7174 C   0  0  0  0  0  0  0  0  0  0  0  0
  149.8399  132.5289  156.3440 C   0  0  0  0  0  0  0  0  0  0  0  0
  147.8882  132.8824  153.0054 C   0  0  0  0  0  0  0  0  0  0  0  0
  146.4665  133.1841  152.5967 C   0  0  0  0  0  0  0  0  0  0  0  0
  146.8443  131.7917  153.0505 C   0  0  0  0  0  0  0  0  0  0  0  0
  149.9814  138.0276  156.7619 C   0  0  0  0  0  0  0  0  0  0  0  0
  150.4040  139.0369  157.5514 N   0  0  0  0  0  0  0  0  0  0  0  0
  152.2924  140.7086  158.9979 C   0  0  0  0  0  0  0  0  0  0  0  0
  153.0146  141.9204  159.6138 C   0  0  2  0  0  0  0  0  0  0  0  0
  153.7252  141.5566  160.9218 C   0  0  0  0  0  0  0  0  0  0  0  0
  152.0684  142.9507  159.8978 O   0  0  0  0  0  0  0  0  0  0  0  0
  151.5436  144.6604  157.0087 H   0  0  0  0  0  0  0  0  0  0  0  0
  152.9240  143.6143  157.2881 H   0  0  0  0  0  0  0  0  0  0  0  0
  152.6763  145.0356  158.3015 H   0  0  0  0  0  0  0  0  0  0  0  0
  150.5516  144.0722  159.1620 H   0  0  0  0  0  0  0  0  0  0  0  0
  149.8071  141.8415  158.7727 H   0  0  0  0  0  0  0  0  0  0  0  0
  150.1027  142.5414  157.1898 H   0  0  0  0  0  0  0  0  0  0  0  0
  151.8750  140.9423  155.1579 H   0  0  0  0  0  0  0  0  0  0  0  0
  151.1231  139.0910  153.7267 H   0  0  0  0  0  0  0  0  0  0  0  0
  149.6598  136.9676  153.6531 H   0  0  0  0  0  0  0  0  0  0  0  0
  148.8923  135.2352  153.2184 H   0  0  0  0  0  0  0  0  0  0  0  0
  147.6669  133.5095  155.0086 H   0  0  0  0  0  0  0  0  0  0  0  0
  150.3813  132.3620  154.2080 H   0  0  0  0  0  0  0  0  0  0  0  0
  148.0859  131.2065  155.9500 H   0  0  0  0  0  0  0  0  0  0  0  0
  149.7133  130.4273  155.5942 H   0  0  0  0  0  0  0  0  0  0  0  0
  150.8797  132.4024  156.6382 H   0  0  0  0  0  0  0  0  0  0  0  0
  149.2486  133.1779  156.9866 H   0  0  0  0  0  0  0  0  0  0  0  0
  148.6045  132.8025  152.1897 H   0  0  0  0  0  0  0  0  0  0  0  0
  145.8613  133.7855  153.2722 H   0  0  0  0  0  0  0  0  0  0  0  0
  146.2704  133.3329  151.5368 H   0  0  0  0  0  0  0  0  0  0  0  0
  146.8997  131.0127  152.2928 H   0  0  0  0  0  0  0  0  0  0  0  0
  146.4829  131.4694  154.0251 H   0  0  0  0  0  0  0  0  0  0  0  0
  149.4538  137.2279  157.2611 H   0  0  0  0  0  0  0  0  0  0  0  0
  151.6124  140.2665  159.7272 H   0  0  0  0  0  0  0  0  0  0  0  0
  153.0272  139.9442  158.7489 H   0  0  0  0  0  0  0  0  0  0  0  0
  153.7649  142.2924  158.9157 H   0  0  0  0  0  0  0  0  0  0  0  0
  154.4709  140.7778  160.7601 H   0  0  0  0  0  0  0  0  0  0  0  0
  153.0172  141.1927  161.6672 H   0  0  0  0  0  0  0  0  0  0  0  0
  154.2355  142.4236  161.3420 H   0  0  0  0  0  0  0  0  0  0  0  0
  1  2  1  0  0  0  0
  1 26  1  0  0  0  0
  1 27  1  0  0  0  0
  1 28  1  0  0  0  0
  2 25  1  0  0  0  0
  2  3  1  0  0  0  0
  2 29  1  0  0  0  0
  3  4  1  0  0  0  0
  3 30  1  0  0  0  0
  3 31  1  0  0  0  0
  4  5  1  0  0  0  0
  4 22  1  0  0  0  0
  5 21  1  0  0  0  0
  5  6  2  0  0  0  0
  6  7  1  0  0  0  0
  6 32  1  0  0  0  0
  7  8  2  0  0  0  0
  7 33  1  0  0  0  0
  8  9  1  0  0  0  0
  8 20  1  0  0  0  0
  9 10  1  0  0  0  0
  9 34  1  0  0  0  0
 10 11  2  0  0  0  0
 10 12  1  0  0  0  0
 12 13  1  0  0  0  0
 12 35  1  0  0  0  0
 13 14  1  0  0  0  0
 13 17  1  0  0  0  0
 13 36  1  0  0  0  0
 14 16  1  0  0  0  0
 14 15  1  0  0  0  0
 14 37  1  0  0  0  0
 15 16  1  0  0  0  0
 15 38  1  0  0  0  0
 15 39  1  0  0  0  0
 16 40  1  0  0  0  0
 16 41  1  0  0  0  0
 17 19  1  0  0  0  0
 17 18  1  0  0  0  0
 17 42  1  0  0  0  0
 18 19  1  0  0  0  0
 18 43  1  0  0  0  0
 18 44  1  0  0  0  0
 19 45  1  0  0  0  0
 19 46  1  0  0  0  0
 20 21  2  0  0  0  0
 20 47  1  0  0  0  0
 22 23  1  0  0  0  0
 22 48  1  0  0  0  0
 22 49  1  0  0  0  0
 23 24  1  0  0  0  0
 23 25  1  0  0  0  0
 23 50  1  0  0  0  0
 24 51  1  0  0  0  0
 24 52  1  0  0  0  0
 24 53  1  0  0  0  0
M  END
> <s_m_source_file>
AV-unprocessed.smi

> <i_m_source_file_index>
633

> <i_lp_mmshare_version>
43012

> <i_f3d_flags>
0

> <s_epik_input>
W0NIM11bQ0BASF0xW0NIMl1OKFtDSDJdW0NASF0oTzEpW0NIM10pYzJbY0hdW2NIXWMoW2NIXW4yKVtOSF1DKD1PKVtOSF1bQ0hdKFtDSF0zW0NIMl1bQ0gyXTMpW0NIXTRbQ0gyXVtDSDJdNA==

> <s_epik_cmdline>
J2VwaWtfcHl0aG9uJywgJy1waCcsICc3LjAnLCAnLXRuJywgJzgnLCAnLW1hJywgJzIwMCcsICctbWV0YWxfYmluZGluZycsICctaW1hZScsICc8aW5maWxlLm1hZT4nLCAnLW9tYWUnLCAnPG91dGZpbGUubWFlPic=

> <r_lp_tautomer_probability>
1

> <r_epik_Ionization_Penalty>
0.00291159

> <r_epik_Ionization_Penalty_Charging>
0

> <r_epik_Ionization_Penalty_Neutral>
0.00291159

> <r_epik_State_Penalty>
0.00200877

> <r_epik_Charging_Adjusted_Penalty>
0.00200877

> <i_epik_Tot_Q>
0

> <i_epik_Tot_abs_Q>
0

> <r_epik_Metal_State_Penalty>
-0

> <b_epik_Metal_Only>
0

> <s_lp_Force_Field>
OPLS_2005

> <r_lp_Energy>
43.3159

> <b_lp_Chiralities_Consistent>
1

> <s_lp_Variant>
AV-unprocessed.smi:633-3

> <Gold.Version>
5.8.1

> <Gold.Id.Protein>
6NUR|6NUR_protein|mol2

> <Gold.PLP.Fitness>
50.8731

> <Gold.PLP.PLP>
-45.6314

> <Gold.PLP.part.hbond>
-2.0000

> <Gold.PLP.part.metal>
0.0000

> <Gold.PLP.part.buried>
-4.9882

> <Gold.PLP.part.nonpolar>
-39.3259

> <Gold.PLP.part.repulsive>
0.0722

> <Gold.PLP.ligand.clash>
0.0000

> <Gold.PLP.ligand.torsion>
1.5934

> <Gold.PLP.Chemscore.Hbond>
1.9675

> <Gold.PLP.Chemscore.CHOScore>
0.0000

> <Gold.PLP.Chemscore.Metal>
0.0000

> <Gold.Chemscore.Hbonds>
donor molecule, donor type, donor heavy atom, donor atom, acceptor molecule, acceptor atom, score
      L1  H     9    34       P1  7948  0.96
      L1  H    12    35       P1  7948  1.00

> <Gold.PLP.Chemscore.Internal.Correction>
2.5260

> <Gold.Rescore>
     Score         DG    S(hbond)    S(metal)    S(lipo)     H(rot)  DE(clash)    DE(int)     intcor
     16.35     -20.79       1.60        0.00     115.85       1.40       0.05       4.38       ----

> <Gold.Chemscore.Fitness>
16.3516

> <Gold.Chemscore.DG>
-20.7904

> <Gold.Chemscore.ZeroCoef>
-5.4800

> <Gold.Chemscore.Hbond>
1.6006

> <Gold.Chemscore.Metal>
0.0000

> <Gold.Chemscore.Lipo>
115.8471

> <Gold.Chemscore.Internal_Hbond>
0.0000

> <Gold.Chemscore.DEClash>
0.0542

> <Gold.Chemscore.DEInternal>
4.3846

> <Gold.Chemscore.Rot>
1.4022

> <Gold.Chemscore.Internal.Correction>
   9.000000E+99

> <Gold.Chemscore.Hbonds>
donor molecule, donor type, donor heavy atom, donor atom, acceptor molecule, acceptor atom, score
      L1  H     9    34       P1  7948  0.64
      L1  H    12    35       P1  7948  0.50

> <Gold.Chemscore.Hbond.Weighted>
-5.3460

> <Gold.Chemscore.Metal.Weighted>
-0.0000

> <Gold.Chemscore.Lipo.Weighted>
-13.5541

> <Gold.Chemscore.Internal_Hbond.Weighted>
0.0000

> <Gold.Chemscore.DEClash.Weighted>
0.0542

> <Gold.Chemscore.DEInternal.Weighted>
4.3846

> <Gold.Chemscore.Rot.Weighted>
3.5897

> <Gold.Chemscore.Internal.Correction.Weighted>
   9.000000E+99

> <Gold.Protein.RotatedTorsions>
[ 6907 6896 6895 6894 ] final   86.77 input  -60.11 | X-H torsion
[ 7974 7965 7964 7962 ] final   58.46 input  175.53 | X-H torsion
[ 8008 7997 7996 7995 ] final  -21.17 input   59.86 | X-H torsion
[ 10167 10162 10161 10158 ] final   38.04 input  -65.29 | X-H torsion
[ 10718 10713 10712 10709 ] final  152.87 input   66.30 | X-H torsion
[ 10763 10752 10751 10750 ] final   95.73 input  -60.55 | X-H torsion
[ 11005 11000 10999 10996 ] final -132.36 input  -57.11 | X-H torsion

> <Gold.Protein.ActiveResidues>
 VAL166  LYS551  ARG553  GLY616  TRP617  ASP618  TYR619  PRO620  LYS621  CYS622 
 ASP623  PHE694  ASN695  SER759  ASP760  ASP761  ALA762  ILE779  LEU786  VAL792 
 PHE793  MET794  SER795  GLU796  ALA797  LYS798  CYS799  TRP800  GLU811  SER814 

> <Gold.Protein.RotatedAtoms>
  152.5400  134.2379  159.8850 H   0  0  0  0  0  0  0  0  0  0  0  0  # atno 6907 bound_to 6896
  151.2348  133.4424  159.2612 H   0  0  0  0  0  0  0  0  0  0  0  0  # atno 6908 bound_to 6896
  151.0681  134.9794  159.8351 H   0  0  0  0  0  0  0  0  0  0  0  0  # atno 6909 bound_to 6896
  145.9179  139.3706  143.0496 H   0  0  0  0  0  0  0  0  0  0  0  0  # atno 7974 bound_to 7965
  154.4723  140.2042  155.9965 H   0  0  0  0  0  0  0  0  0  0  0  0  # atno 8008 bound_to 7997
  156.1031  140.3241  155.7939 H   0  0  0  0  0  0  0  0  0  0  0  0  # atno 8009 bound_to 7997
  155.4764  140.0535  157.2964 H   0  0  0  0  0  0  0  0  0  0  0  0  # atno 8010 bound_to 7997
  140.3975  144.1769  150.6132 H   0  0  0  0  0  0  0  0  0  0  0  0  # atno 10167 bound_to 10162
  157.2522  131.0781  151.1722 H   0  0  0  0  0  0  0  0  0  0  0  0  # atno 10718 bound_to 10713
  153.2566  135.4243  155.0852 H   0  0  0  0  0  0  0  0  0  0  0  0  # atno 10763 bound_to 10752
  154.8403  135.3439  154.6437 H   0  0  0  0  0  0  0  0  0  0  0  0  # atno 10764 bound_to 10752
  153.6857  135.7036  153.5161 H   0  0  0  0  0  0  0  0  0  0  0  0  # atno 10765 bound_to 10752
  140.9177  134.1485  157.4339 H   0  0  0  0  0  0  0  0  0  0  0  0  # atno 11005 bound_to 11000
  145.8588  140.9487  143.0711 LP  0  0  0  0  0  0  0  0  0  0  0  0  # atno 17320 bound_to 7965
  144.6750  140.0503  143.7479 LP  0  0  0  0  0  0  0  0  0  0  0  0  # atno 17321 bound_to 7965
  140.4775  143.2391  151.9002 LP  0  0  0  0  0  0  0  0  0  0  0  0  # atno 17342 bound_to 10162
  139.4786  144.5305  151.8674 LP  0  0  0  0  0  0  0  0  0  0  0  0  # atno 17343 bound_to 10162
  157.3266  130.6964  149.6300 LP  0  0  0  0  0  0  0  0  0  0  0  0  # atno 17370 bound_to 10713
  155.9666  130.4320  150.4943 LP  0  0  0  0  0  0  0  0  0  0  0  0  # atno 17371 bound_to 10713
  139.8769  134.9960  156.5771 LP  0  0  0  0  0  0  0  0  0  0  0  0  # atno 17394 bound_to 11000
  140.8028  133.8491  155.8742 LP  0  0  0  0  0  0  0  0  0  0  0  0  # atno 17395 bound_to 11000

$$$$
