#       Name:                AV-unprocessed.smi:496
#       Creating user name   scv26
#       Creation time:       Thu Mar 26 23:16:21 2020


#       File generated by GOLD software.
#

@<TRIPOS>MOLECULE
AV-unprocessed.smi:496
    49    51     1
SMALL
NO_CHARGES


@<TRIPOS>ATOM
      1 ****        -2.2060   2.8272   1.8610 C.3            1 S1                 0.0000
      2 ****        -1.9733   1.4401   2.0279 O.3            1 S1                 0.0000
      3 ****        -2.6867   0.6531   1.0880 C.3            1 S1                 0.0000
      4 ****        -2.3268  -0.8285   1.2660 C.3            1 S1                 0.0000
      5 ****        -0.8806  -1.0693   1.1429 N.pl3          1 S1                 0.0000
      6 ****        -0.1120  -1.2612   0.0317 C.2            1 S1                 0.0000
      7 ****        -0.5759  -1.2665  -1.3959 C.3            1 S1                 0.0000
      8 ****        -0.6511  -2.7021  -1.9317 C.3            1 S1                 0.0000
      9 ****         0.2835  -0.4615  -2.2594 N.am           1 S1                 0.0000
     10 ****         0.3883   0.8768  -2.2196 C.2            1 S1                 0.0000
     11 ****        -0.2328   1.5831  -1.4258 O.2            1 S1                 0.0000
     12 ****         1.3159   1.4773  -3.1958 C.2            1 S1                 0.0000
     13 ****         1.6534   2.7862  -3.4130 C.2            1 S1                 0.0000
     14 ****         2.5950   2.7923  -4.4790 C.2            1 S1                 0.0000
     15 ****         2.7659   1.4860  -4.8370 C.2            1 S1                 0.0000
     16 ****         1.9948   0.6720  -4.0657 O.3            1 S1                 0.0000
     17 ****         1.1699  -1.4504   0.4578 N.pl3          1 S1                 1.0000
     18 ****         1.2262  -1.3565   1.8480 C.ar           1 S1                 0.0000
     19 ****         2.3012  -1.4664   2.7246 C.ar           1 S1                 0.0000
     20 ****         2.0174  -1.3078   4.0968 C.ar           1 S1                 0.0000
     21 ****         0.7074  -1.0511   4.5502 C.ar           1 S1                 0.0000
     22 ****        -0.3746  -0.9447   3.6516 C.ar           1 S1                 0.0000
     23 ****        -0.0867  -1.1054   2.2960 C.ar           1 S1                 0.0000
     24 ****        -1.6471   3.3853   2.6120 H              1 S1                 0.0000
     25 ****        -3.2631   3.0677   1.9799 H              1 S1                 0.0000
     26 ****        -1.8774   3.1657   0.8775 H              1 S1                 0.0000
     27 ****        -3.7601   0.7928   1.2226 H              1 S1                 0.0000
     28 ****        -2.4440   0.9724   0.0737 H              1 S1                 0.0000
     29 ****        -2.6756  -1.2013   2.2287 H              1 S1                 0.0000
     30 ****        -2.8301  -1.4310   0.5095 H              1 S1                 0.0000
     31 ****        -1.5784  -0.8391  -1.4406 H              1 S1                 0.0000
     32 ****        -1.3306  -3.3076  -1.3309 H              1 S1                 0.0000
     33 ****         0.3262  -3.1860  -1.9180 H              1 S1                 0.0000
     34 ****        -1.0171  -2.7198  -2.9588 H              1 S1                 0.0000
     35 ****         0.8315  -0.9554  -2.9489 H              1 S1                 0.0000
     36 ****         1.2684   3.6371  -2.8701 H              1 S1                 0.0000
     37 ****         3.0842   3.6444  -4.9271 H              1 S1                 0.0000
     38 ****         3.3666   0.9844  -5.5813 H              1 S1                 0.0000
     39 ****         3.3060  -1.6601   2.3791 H              1 S1                 0.0000
     40 ****         2.8209  -1.3821   4.8153 H              1 S1                 0.0000
     41 ****         0.5279  -0.9322   5.6090 H              1 S1                 0.0000
     42 ****        -1.3721  -0.7409   4.0114 H              1 S1                 0.0000
     43 ****         1.9504  -1.6191  -0.1636 H              1 S1                 0.0000
     44 ****        -2.2579   1.1757   2.9494 LP             1 S1                 0.0000
     45 ****        -0.9952   1.2634   1.9176 LP             1 S1                 0.0000
     46 ****        -0.8551   1.1641  -0.7647 LP             1 S1                 0.0000
     47 ****        -0.1151   2.5761  -1.4419 LP             1 S1                 0.0000
     48 ****         1.3511   0.1642  -4.6382 LP             1 S1                 0.0000
     49 ****         2.5711   0.0292  -3.5611 LP             1 S1                 0.0000
@<TRIPOS>BOND
    1    1    2 1     
    2    1   24 1     
    3    1   25 1     
    4    1   26 1     
    5    2    3 1     
    6    3    4 1     
    7    3   27 1     
    8    3   28 1     
    9    4    5 1     
   10    4   29 1     
   11    4   30 1     
   12    5   23 1     
   13    5    6 1     
   14    6    7 1     
   15    6   17 2     
   16    7    8 1     
   17    7    9 1     
   18    7   31 1     
   19    8   32 1     
   20    8   33 1     
   21    8   34 1     
   22    9   10 am    
   23    9   35 1     
   24   10   11 2     
   25   10   12 1     
   26   12   16 1     
   27   12   13 2     
   28   13   14 1     
   29   13   36 1     
   30   14   15 2     
   31   14   37 1     
   32   15   16 1     
   33   15   38 1     
   34   17   18 1     
   35   17   43 1     
   36   18   23 ar    
   37   18   19 ar    
   38   19   20 ar    
   39   19   39 1     
   40   20   21 ar    
   41   20   40 1     
   42   21   22 ar    
   43   21   41 1     
   44   22   23 ar    
   45   22   42 1     
   46    2   44 1     
   47    2   45 1     
   48   11   46 1     
   49   11   47 1     
   50   16   48 1     
   51   16   49 1     
@<TRIPOS>SUBSTRUCTURE
      1 S1             1
@<TRIPOS>SET
LONE_PAIRS      STATIC     ATOMS    <user>   **** ""
6 44 45 46 47 48 49
DONOR_HYDROGENS      STATIC     ATOMS    <user>   **** ""
2 35 43
ATOM$BLUE        STATIC     ATOMS    COLORGROUP SYSTEM
6 44 45 46 47 48 49
ATOM$RED        STATIC     ATOMS    COLORGROUP SYSTEM
2 35 43
