AV-unprocessed.smi:193|AV-procd|sdf|1517|dock7
  -GOLD-   2262019353D 1   1.00000     0.00000
 Structure written by MMmdl.
 61 65  0  0  0  0  0  0  0  0  1 V2000
  149.4464  141.4150  155.0832 C   0  0  0  0  0  0  0  0  0  0  0  0
  150.2078  141.2028  156.4002 C   0  0  1  0  0  0  0  0  0  0  0  0
  151.1408  139.9793  156.2736 C   0  0  0  0  0  0  0  0  0  0  0  0
  151.4517  139.3417  157.5562 N   0  0  0  0  0  0  0  0  0  0  0  0
  150.7606  138.2172  157.8724 C   0  0  0  0  0  0  0  0  0  0  0  0
  150.1747  138.1007  159.0946 N   0  0  0  0  0  0  0  0  0  0  0  0
  149.5222  136.9830  159.4259 C   0  0  0  0  0  0  0  0  0  0  0  0
  149.3380  135.8782  158.7008 N   0  0  0  0  0  0  0  0  0  0  0  0
  149.9170  135.9909  157.4713 C   0  0  0  0  0  0  0  0  0  0  0  0
  150.6428  137.1136  156.9816 C   0  0  0  0  0  0  0  0  0  0  0  0
  151.0843  136.8638  155.6874 N   0  0  0  0  0  0  0  0  0  0  0  0
  150.6513  135.6597  155.4304 C   0  0  0  0  0  0  0  0  0  0  0  0
  149.9348  135.0636  156.4438 N   0  0  0  0  0  0  0  0  0  0  0  0
  149.3438  133.7336  156.4275 C   0  0  0  0  0  0  0  0  0  0  0  0
  148.3247  133.5059  155.2831 C   0  0  0  0  0  0  0  0  0  0  0  0
  147.3355  134.5166  155.3727 O   0  0  0  0  0  0  0  0  0  0  0  0
  148.9739  133.5835  153.8837 C   0  0  0  0  0  0  0  0  0  0  0  0
  148.0070  133.1427  152.7700 C   0  0  0  0  0  0  0  0  0  0  0  0
  147.5050  131.8403  153.0428 O   0  0  0  0  0  0  0  0  0  0  0  0
  146.7428  131.7863  154.2423 C   0  0  0  0  0  0  0  0  0  0  0  0
  147.6345  132.1364  155.4468 C   0  0  0  0  0  0  0  0  0  0  0  0
  151.7343  140.1681  158.7288 C   0  0  0  0  0  0  0  0  0  0  0  0
  152.4487  141.4906  158.4086 C   0  0  0  0  0  0  0  0  0  0  0  0
  151.4657  142.5374  158.1350 N   0  0  0  0  0  0  0  0  0  0  0  0
  152.0935  143.8361  158.3408 C   0  0  2  0  0  0  0  0  0  0  0  0
  152.5528  144.1803  159.7402 C   0  0  0  0  0  0  0  0  0  0  0  0
  151.3552  144.8872  159.1510 C   0  0  2  0  0  0  0  0  0  0  0  0
  149.9729  144.6582  159.7325 C   0  0  0  0  0  0  0  0  0  0  0  0
  151.0014  142.4819  156.7485 C   0  0  0  0  0  0  0  0  0  0  0  0
  150.1301  141.6119  154.2567 H   0  0  0  0  0  0  0  0  0  0  0  0
  148.7596  142.2587  155.1564 H   0  0  0  0  0  0  0  0  0  0  0  0
  148.8547  140.5359  154.8257 H   0  0  0  0  0  0  0  0  0  0  0  0
  149.4572  141.0178  157.1704 H   0  0  0  0  0  0  0  0  0  0  0  0
  150.7025  139.2424  155.5987 H   0  0  0  0  0  0  0  0  0  0  0  0
  152.0754  140.2701  155.7933 H   0  0  0  0  0  0  0  0  0  0  0  0
  149.0894  136.9703  160.4152 H   0  0  0  0  0  0  0  0  0  0  0  0
  150.8390  135.1716  154.4851 H   0  0  0  0  0  0  0  0  0  0  0  0
  150.1561  133.0096  156.3513 H   0  0  0  0  0  0  0  0  0  0  0  0
  148.8730  133.5564  157.3956 H   0  0  0  0  0  0  0  0  0  0  0  0
  147.5371  135.0706  156.1113 H   0  0  0  0  0  0  0  0  0  0  0  0
  149.3313  134.5926  153.6761 H   0  0  0  0  0  0  0  0  0  0  0  0
  149.8507  132.9352  153.8585 H   0  0  0  0  0  0  0  0  0  0  0  0
  147.1809  133.8480  152.6657 H   0  0  0  0  0  0  0  0  0  0  0  0
  148.5272  133.1239  151.8122 H   0  0  0  0  0  0  0  0  0  0  0  0
  145.8875  132.4606  154.1751 H   0  0  0  0  0  0  0  0  0  0  0  0
  146.3407  130.7793  154.3567 H   0  0  0  0  0  0  0  0  0  0  0  0
  148.3939  131.3599  155.5485 H   0  0  0  0  0  0  0  0  0  0  0  0
  147.0485  132.1105  156.3666 H   0  0  0  0  0  0  0  0  0  0  0  0
  150.8175  140.3524  159.2920 H   0  0  0  0  0  0  0  0  0  0  0  0
  152.3851  139.5976  159.3911 H   0  0  0  0  0  0  0  0  0  0  0  0
  153.0012  141.7731  159.3059 H   0  0  0  0  0  0  0  0  0  0  0  0
  153.1891  141.3918  157.6134 H   0  0  0  0  0  0  0  0  0  0  0  0
  152.7245  144.2299  157.5454 H   0  0  0  0  0  0  0  0  0  0  0  0
  152.3738  143.4497  160.5271 H   0  0  0  0  0  0  0  0  0  0  0  0
  153.4739  144.7509  159.8390 H   0  0  0  0  0  0  0  0  0  0  0  0
  151.5189  145.9153  158.8338 H   0  0  0  0  0  0  0  0  0  0  0  0
  149.8598  143.6344  160.0901 H   0  0  0  0  0  0  0  0  0  0  0  0
  149.2118  144.8491  158.9760 H   0  0  0  0  0  0  0  0  0  0  0  0
  149.8051  145.3345  160.5707 H   0  0  0  0  0  0  0  0  0  0  0  0
  151.8421  142.6047  156.0634 H   0  0  0  0  0  0  0  0  0  0  0  0
  150.3509  143.3420  156.5859 H   0  0  0  0  0  0  0  0  0  0  0  0
  1  2  1  0  0  0  0
  1 30  1  0  0  0  0
  1 31  1  0  0  0  0
  1 32  1  0  0  0  0
  2 29  1  0  0  0  0
  2  3  1  0  0  0  0
  2 33  1  0  0  0  0
  3  4  1  0  0  0  0
  3 34  1  0  0  0  0
  3 35  1  0  0  0  0
  4  5  1  0  0  0  0
  4 22  1  0  0  0  0
  5 10  1  0  0  0  0
  5  6  2  0  0  0  0
  6  7  1  0  0  0  0
  7  8  2  0  0  0  0
  7 36  1  0  0  0  0
  8  9  1  0  0  0  0
  9 13  1  0  0  0  0
  9 10  2  0  0  0  0
 10 11  1  0  0  0  0
 11 12  2  0  0  0  0
 12 13  1  0  0  0  0
 12 37  1  0  0  0  0
 13 14  1  0  0  0  0
 14 15  1  0  0  0  0
 14 38  1  0  0  0  0
 14 39  1  0  0  0  0
 15 21  1  0  0  0  0
 15 16  1  0  0  0  0
 15 17  1  0  0  0  0
 16 40  1  0  0  0  0
 17 18  1  0  0  0  0
 17 41  1  0  0  0  0
 17 42  1  0  0  0  0
 18 19  1  0  0  0  0
 18 43  1  0  0  0  0
 18 44  1  0  0  0  0
 19 20  1  0  0  0  0
 20 21  1  0  0  0  0
 20 45  1  0  0  0  0
 20 46  1  0  0  0  0
 21 47  1  0  0  0  0
 21 48  1  0  0  0  0
 22 23  1  0  0  0  0
 22 49  1  0  0  0  0
 22 50  1  0  0  0  0
 23 24  1  0  0  0  0
 23 51  1  0  0  0  0
 23 52  1  0  0  0  0
 24 25  1  0  0  0  0
 24 29  1  0  0  0  0
 25 27  1  0  0  0  0
 25 26  1  0  0  0  0
 25 53  1  0  0  0  0
 26 27  1  0  0  0  0
 26 54  1  0  0  0  0
 26 55  1  0  0  0  0
 27 28  1  0  0  0  0
 27 56  1  0  0  0  0
 28 57  1  0  0  0  0
 28 58  1  0  0  0  0
 28 59  1  0  0  0  0
 29 60  1  0  0  0  0
 29 61  1  0  0  0  0
M  END
> <s_m_source_file>
AV-unprocessed.smi

> <i_m_source_file_index>
193

> <i_lp_mmshare_version>
43012

> <i_f3d_flags>
0

> <s_epik_input>
W0NIM11bQ0BASF0xW0NIMl1bQ0BIXTFOKFtDSDJdMilbQ0gyXVtDSDJdTihbQ0gyXVtDQEhdMltDSDNdKWMobltjSF1uMyljKGMzNCluW2NIXW40W0NIMl1DNShbT0hdKVtDSDJdW0NIMl1PW0NIMl1bQ0gyXTU=

> <s_epik_cmdline>
J2VwaWtfcHl0aG9uJywgJy1waCcsICc3LjAnLCAnLXRuJywgJzgnLCAnLW1hJywgJzIwMCcsICctbWV0YWxfYmluZGluZycsICctaW1hZScsICc8aW5maWxlLm1hZT4nLCAnLW9tYWUnLCAnPG91dGZpbGUubWFlPic=

> <r_lp_tautomer_probability>
1

> <r_epik_Ionization_Penalty>
1.45227

> <r_epik_Ionization_Penalty_Charging>
0

> <r_epik_Ionization_Penalty_Neutral>
1.45227

> <r_epik_State_Penalty>
2.02377

> <r_epik_Charging_Adjusted_Penalty>
2.02377

> <i_epik_Tot_Q>
0

> <i_epik_Tot_abs_Q>
0

> <r_epik_Metal_State_Penalty>
2.01937

> <b_epik_Metal_Only>
0

> <s_lp_Force_Field>
OPLS_2005

> <r_lp_Energy>
53.149

> <b_lp_Chiralities_Consistent>
1

> <s_lp_Variant>
AV-unprocessed.smi:193-22

> <Gold.Version>
5.8.1

> <Gold.Id.Protein>
6NUR|6NUR_protein|mol2

> <Gold.PLP.Fitness>
47.0713

> <Gold.PLP.PLP>
-44.2902

> <Gold.PLP.part.hbond>
-1.4086

> <Gold.PLP.part.metal>
0.0000

> <Gold.PLP.part.buried>
-7.2730

> <Gold.PLP.part.nonpolar>
-36.8629

> <Gold.PLP.part.repulsive>
0.3045

> <Gold.PLP.ligand.clash>
0.0000

> <Gold.PLP.ligand.torsion>
0.9682

> <Gold.PLP.Chemscore.Hbond>
1.0000

> <Gold.PLP.Chemscore.CHOScore>
0.0000

> <Gold.PLP.Chemscore.Metal>
0.0000

> <Gold.Chemscore.Hbonds>
donor molecule, donor type, donor heavy atom, donor atom, acceptor molecule, acceptor atom, score
      P1  H  6896  6907       L1     8  0.94

> <Gold.PLP.Chemscore.Internal.Correction>
1.7174

> <Gold.Rescore>
     Score         DG    S(hbond)    S(metal)    S(lipo)     H(rot)  DE(clash)    DE(int)     intcor
     13.51     -14.80       0.35        0.00     117.05       2.17       0.20       1.09       ----

> <Gold.Chemscore.Fitness>
13.5147

> <Gold.Chemscore.DG>
-14.8033

> <Gold.Chemscore.ZeroCoef>
-5.4800

> <Gold.Chemscore.Hbond>
0.3517

> <Gold.Chemscore.Metal>
0.0000

> <Gold.Chemscore.Lipo>
117.0479

> <Gold.Chemscore.Internal_Hbond>
0.0000

> <Gold.Chemscore.DEClash>
0.1992

> <Gold.Chemscore.DEInternal>
1.0893

> <Gold.Chemscore.Rot>
2.1664

> <Gold.Chemscore.Internal.Correction>
   9.000000E+99

> <Gold.Chemscore.Hbonds>
donor molecule, donor type, donor heavy atom, donor atom, acceptor molecule, acceptor atom, score
      P1  H  6896  6907       L1     8  0.05

> <Gold.Chemscore.Hbond.Weighted>
-1.1746

> <Gold.Chemscore.Metal.Weighted>
-0.0000

> <Gold.Chemscore.Lipo.Weighted>
-13.6946

> <Gold.Chemscore.Internal_Hbond.Weighted>
0.0000

> <Gold.Chemscore.DEClash.Weighted>
0.1992

> <Gold.Chemscore.DEInternal.Weighted>
1.0893

> <Gold.Chemscore.Rot.Weighted>
5.5459

> <Gold.Chemscore.Internal.Correction.Weighted>
   9.000000E+99

> <Gold.Protein.RotatedTorsions>
[ 6907 6896 6895 6894 ] final  -65.86 input  -60.11 | X-H torsion
[ 7974 7965 7964 7962 ] final -173.03 input  175.53 | X-H torsion
[ 8008 7997 7996 7995 ] final  105.64 input   59.86 | X-H torsion
[ 10167 10162 10161 10158 ] final  164.07 input  -65.29 | X-H torsion
[ 10718 10713 10712 10709 ] final    7.11 input   66.30 | X-H torsion
[ 10763 10752 10751 10750 ] final    3.66 input  -60.55 | X-H torsion
[ 11005 11000 10999 10996 ] final -110.58 input  -57.11 | X-H torsion

> <Gold.Protein.ActiveResidues>
 VAL166  LYS551  ARG553  GLY616  TRP617  ASP618  TYR619  PRO620  LYS621  CYS622 
 ASP623  PHE694  ASN695  SER759  ASP760  ASP761  ALA762  ILE779  LEU786  VAL792 
 PHE793  MET794  SER795  GLU796  ALA797  LYS798  CYS799  TRP800  GLU811  SER814 

> <Gold.Protein.RotatedAtoms>
  150.7499  134.6102  159.6081 H   0  0  0  0  0  0  0  0  0  0  0  0  # atno 6907 bound_to 6896
  152.3438  134.7096  160.0265 H   0  0  0  0  0  0  0  0  0  0  0  0  # atno 6908 bound_to 6896
  151.7539  133.3293  159.3435 H   0  0  0  0  0  0  0  0  0  0  0  0  # atno 6909 bound_to 6896
  144.7141  140.1682  143.6370 H   0  0  0  0  0  0  0  0  0  0  0  0  # atno 7974 bound_to 7965
  156.1676  140.3127  155.8916 H   0  0  0  0  0  0  0  0  0  0  0  0  # atno 8008 bound_to 7997
  155.3654  140.0479  157.3063 H   0  0  0  0  0  0  0  0  0  0  0  0  # atno 8009 bound_to 7997
  154.5208  140.2197  155.8990 H   0  0  0  0  0  0  0  0  0  0  0  0  # atno 8010 bound_to 7997
  139.4883  144.4273  151.9114 H   0  0  0  0  0  0  0  0  0  0  0  0  # atno 10167 bound_to 10162
  156.9321  130.5830  149.5650 H   0  0  0  0  0  0  0  0  0  0  0  0  # atno 10718 bound_to 10713
  153.2806  135.6940  153.7389 H   0  0  0  0  0  0  0  0  0  0  0  0  # atno 10763 bound_to 10752
  153.6378  135.3399  155.3062 H   0  0  0  0  0  0  0  0  0  0  0  0  # atno 10764 bound_to 10752
  154.8494  135.4424  154.1858 H   0  0  0  0  0  0  0  0  0  0  0  0  # atno 10765 bound_to 10752
  141.0784  133.9262  157.2342 H   0  0  0  0  0  0  0  0  0  0  0  0  # atno 11005 bound_to 11000
  145.8967  139.2407  143.1517 LP  0  0  0  0  0  0  0  0  0  0  0  0  # atno 17320 bound_to 7965
  145.9850  140.8651  143.0095 LP  0  0  0  0  0  0  0  0  0  0  0  0  # atno 17321 bound_to 7965
  140.3719  144.2844  150.5919 LP  0  0  0  0  0  0  0  0  0  0  0  0  # atno 17342 bound_to 10162
  140.5311  143.2243  151.8237 LP  0  0  0  0  0  0  0  0  0  0  0  0  # atno 17343 bound_to 10162
  156.0442  130.5521  150.8842 LP  0  0  0  0  0  0  0  0  0  0  0  0  # atno 17370 bound_to 10713
  157.5840  131.0946  150.9226 LP  0  0  0  0  0  0  0  0  0  0  0  0  # atno 17371 bound_to 10713
  139.9596  135.0157  156.9225 LP  0  0  0  0  0  0  0  0  0  0  0  0  # atno 17394 bound_to 11000
  140.5523  134.0615  155.7373 LP  0  0  0  0  0  0  0  0  0  0  0  0  # atno 17395 bound_to 11000

$$$$
