AV-unprocessed.smi:3335|AV-procd|sdf|12842|dock2
  -GOLD-   2272019223D 1   1.00000     0.00000
 Structure written by MMmdl.
 47 48  0  0  0  0  0  0  0  0  2 V2000
  146.8812  141.6166  153.9038 C   0  0  0  0  0  0  0  0  0  0  0  0
  148.1605  140.8818  154.1838 C   0  0  0  0  0  0  0  0  0  0  0  0
  149.3707  141.4063  154.7188 C   0  0  0  0  0  0  0  0  0  0  0  0
  150.3178  140.4907  154.8384 N   0  0  0  0  0  0  0  0  0  0  0  0
  149.7463  139.3483  154.3963 N   0  0  0  0  0  0  0  0  0  0  0  0
  150.5075  138.1040  154.3667 C   0  0  1  0  0  0  0  0  0  0  0  0
  151.9887  138.4035  154.6641 C   0  0  0  0  0  0  0  0  0  0  0  0
  149.8977  137.0314  155.3104 C   0  0  2  0  0  0  0  0  0  0  0  0
  150.9031  135.9169  155.6574 C   0  0  0  0  0  0  0  0  0  0  0  0
  148.6920  136.4356  154.6838 N   0  3  0  0  0  0  0  0  0  0  0  0
  148.1647  135.2004  155.3113 C   0  0  1  0  0  0  0  0  0  0  0  0
  146.6921  135.3886  155.7234 C   0  0  0  0  0  0  0  0  0  0  0  0
  148.2865  134.0150  154.3344 C   0  0  0  0  0  0  0  0  0  0  0  0
  147.5888  134.0096  153.3183 O   0  0  0  0  0  0  0  0  0  0  0  0
  149.1334  133.0005  154.6183 N   0  0  0  0  0  0  0  0  0  0  0  0
  149.9961  132.9913  155.7994 C   0  0  0  0  0  0  0  0  0  0  0  0
  150.9995  131.8610  155.5742 C   0  0  0  0  0  0  0  0  0  0  0  0
  150.2679  130.8964  154.6533 C   0  0  0  0  0  0  0  0  0  0  0  0
  149.3486  131.7915  153.8206 C   0  0  0  0  0  0  0  0  0  0  0  0
  148.4469  139.5610  153.9850 C   0  0  0  0  0  0  0  0  0  0  0  0
  147.0589  142.6706  153.6897 H   0  0  0  0  0  0  0  0  0  0  0  0
  146.1983  141.5711  154.7522 H   0  0  0  0  0  0  0  0  0  0  0  0
  146.3554  141.2000  153.0443 H   0  0  0  0  0  0  0  0  0  0  0  0
  149.5887  142.4204  155.0200 H   0  0  0  0  0  0  0  0  0  0  0  0
  150.4483  137.7255  153.3448 H   0  0  0  0  0  0  0  0  0  0  0  0
  152.6216  137.5352  154.4836 H   0  0  0  0  0  0  0  0  0  0  0  0
  152.1332  138.7144  155.6993 H   0  0  0  0  0  0  0  0  0  0  0  0
  152.3605  139.2045  154.0241 H   0  0  0  0  0  0  0  0  0  0  0  0
  149.6064  137.5247  156.2379 H   0  0  0  0  0  0  0  0  0  0  0  0
  151.7612  136.3057  156.2047 H   0  0  0  0  0  0  0  0  0  0  0  0
  151.2757  135.4254  154.7583 H   0  0  0  0  0  0  0  0  0  0  0  0
  150.4537  135.1508  156.2887 H   0  0  0  0  0  0  0  0  0  0  0  0
  147.9493  137.1200  154.7076 H   0  0  0  0  0  0  0  0  0  0  0  0
  148.7636  135.0004  156.1972 H   0  0  0  0  0  0  0  0  0  0  0  0
  146.2755  134.4765  156.1510 H   0  0  0  0  0  0  0  0  0  0  0  0
  146.0722  135.6645  154.8690 H   0  0  0  0  0  0  0  0  0  0  0  0
  146.5796  136.1701  156.4746 H   0  0  0  0  0  0  0  0  0  0  0  0
  150.5051  133.9449  155.9493 H   0  0  0  0  0  0  0  0  0  0  0  0
  149.3856  132.7908  156.6812 H   0  0  0  0  0  0  0  0  0  0  0  0
  151.8832  132.2508  155.0668 H   0  0  0  0  0  0  0  0  0  0  0  0
  151.3267  131.3941  156.5038 H   0  0  0  0  0  0  0  0  0  0  0  0
  150.9451  130.2995  154.0414 H   0  0  0  0  0  0  0  0  0  0  0  0
  149.6663  130.2100  155.2511 H   0  0  0  0  0  0  0  0  0  0  0  0
  148.4184  131.2689  153.5963 H   0  0  0  0  0  0  0  0  0  0  0  0
  149.8301  132.0577  152.8791 H   0  0  0  0  0  0  0  0  0  0  0  0
  147.8371  138.7619  153.5893 H   0  0  0  0  0  0  0  0  0  0  0  0
  148.9077  136.2399  153.7167 H   0  0  0  0  0  0  0  0  0  0  0  0
  1  2  1  0  0  0  0
  1 21  1  0  0  0  0
  1 22  1  0  0  0  0
  1 23  1  0  0  0  0
  2 20  2  0  0  0  0
  2  3  1  0  0  0  0
  3  4  2  0  0  0  0
  3 24  1  0  0  0  0
  4  5  1  0  0  0  0
  5  6  1  0  0  0  0
  5 20  1  0  0  0  0
  6  7  1  0  0  0  0
  6  8  1  0  0  0  0
  6 25  1  0  0  0  0
  7 26  1  0  0  0  0
  7 27  1  0  0  0  0
  7 28  1  0  0  0  0
  8  9  1  0  0  0  0
  8 10  1  0  0  0  0
  8 29  1  0  0  0  0
  9 30  1  0  0  0  0
  9 31  1  0  0  0  0
  9 32  1  0  0  0  0
 10 11  1  0  0  0  0
 10 33  1  0  0  0  0
 10 47  1  0  0  0  0
 11 12  1  0  0  0  0
 11 13  1  0  0  0  0
 11 34  1  0  0  0  0
 12 35  1  0  0  0  0
 12 36  1  0  0  0  0
 12 37  1  0  0  0  0
 13 14  2  0  0  0  0
 13 15  1  0  0  0  0
 15 19  1  0  0  0  0
 15 16  1  0  0  0  0
 16 17  1  0  0  0  0
 16 38  1  0  0  0  0
 16 39  1  0  0  0  0
 17 18  1  0  0  0  0
 17 40  1  0  0  0  0
 17 41  1  0  0  0  0
 18 19  1  0  0  0  0
 18 42  1  0  0  0  0
 18 43  1  0  0  0  0
 19 44  1  0  0  0  0
 19 45  1  0  0  0  0
 20 46  1  0  0  0  0
M  CHG  1  10   1
M  END
> <s_m_source_file>
AV-unprocessed.smi

> <i_m_source_file_index>
3335

> <i_lp_mmshare_version>
43012

> <i_f3d_flags>
0

> <s_epik_input>
W0NIM11jMVtjSF1ubihbY0hdMSlbQ0BIXShbQ0gzXSlbQ0BIXShbQ0gzXSlbTkhdW0NASF0oW0NIM10pQyg9TylOMltDSDJdW0NIMl1bQ0gyXVtDSDJdMg==

> <s_epik_cmdline>
J2VwaWtfcHl0aG9uJywgJy1waCcsICc3LjAnLCAnLXRuJywgJzgnLCAnLW1hJywgJzIwMCcsICctbWV0YWxfYmluZGluZycsICctaW1hZScsICc8aW5maWxlLm1hZT4nLCAnLW9tYWUnLCAnPG91dGZpbGUubWFlPic=

> <r_lp_tautomer_probability>
1

> <r_epik_Ionization_Penalty>
0.14175

> <r_epik_Ionization_Penalty_Charging>
0.141731

> <r_epik_Ionization_Penalty_Neutral>
1.91261e-05

> <r_epik_State_Penalty>
0.131043

> <r_epik_Charging_Adjusted_Penalty>
0.272773

> <i_epik_Tot_Q>
1

> <i_epik_Tot_abs_Q>
1

> <r_epik_Metal_State_Penalty>
0.131408

> <b_epik_Metal_Only>
0

> <s_lp_Force_Field>
OPLS_2005

> <r_lp_Energy>
36.2431

> <b_lp_Chiralities_Consistent>
1

> <s_lp_Variant>
AV-unprocessed.smi:3335-6

> <Gold.Version>
5.8.1

> <Gold.Id.Protein>
6NUR|6NUR_protein|mol2

> <Gold.PLP.Fitness>
46.3076

> <Gold.PLP.PLP>
-36.8482

> <Gold.PLP.part.hbond>
-2.0000

> <Gold.PLP.part.metal>
0.0000

> <Gold.PLP.part.buried>
-3.2821

> <Gold.PLP.part.nonpolar>
-32.6937

> <Gold.PLP.part.repulsive>
1.4434

> <Gold.PLP.ligand.clash>
0.0000

> <Gold.PLP.ligand.torsion>
1.4268

> <Gold.PLP.Chemscore.Hbond>
3.0000

> <Gold.PLP.Chemscore.CHOScore>
1.0000

> <Gold.PLP.Chemscore.Metal>
0.0000

> <Gold.Chemscore.Hbonds>
donor molecule, donor type, donor heavy atom, donor atom, acceptor molecule, acceptor atom, score
      L1  H    10    47       P1  7948  2.00
      P1  H  7989  7998       L1     4  0.99
      L1  C     3    24       P1  8028  1.00

> <Gold.PLP.Chemscore.Internal.Correction>
0.3131

> <Gold.Rescore>
     Score         DG    S(hbond)    S(metal)    S(lipo)     H(rot)  DE(clash)    DE(int)     intcor
     14.74     -15.99       1.80        0.00      75.28       1.68       0.10       1.15       ----

> <Gold.Chemscore.Fitness>
14.7423

> <Gold.Chemscore.DG>
-15.9904

> <Gold.Chemscore.ZeroCoef>
-5.4800

> <Gold.Chemscore.Hbond>
1.7959

> <Gold.Chemscore.Metal>
0.0000

> <Gold.Chemscore.Lipo>
75.2765

> <Gold.Chemscore.Internal_Hbond>
0.0000

> <Gold.Chemscore.DEClash>
0.0969

> <Gold.Chemscore.DEInternal>
1.1512

> <Gold.Chemscore.Rot>
1.6778

> <Gold.Chemscore.Internal.Correction>
   9.000000E+99

> <Gold.Chemscore.Hbonds>
donor molecule, donor type, donor heavy atom, donor atom, acceptor molecule, acceptor atom, score
      L1  H    10    47       P1  7948  1.00
      P1  H  7989  7998       L1     4  0.23

> <Gold.Chemscore.Hbond.Weighted>
-5.9982

> <Gold.Chemscore.Metal.Weighted>
-0.0000

> <Gold.Chemscore.Lipo.Weighted>
-8.8074

> <Gold.Chemscore.Internal_Hbond.Weighted>
0.0000

> <Gold.Chemscore.DEClash.Weighted>
0.0969

> <Gold.Chemscore.DEInternal.Weighted>
1.1512

> <Gold.Chemscore.Rot.Weighted>
4.2952

> <Gold.Chemscore.Internal.Correction.Weighted>
   9.000000E+99

> <Gold.Protein.RotatedTorsions>
[ 6907 6896 6895 6894 ] final -118.00 input  -60.11 | X-H torsion
[ 7974 7965 7964 7962 ] final -145.71 input  175.53 | X-H torsion
[ 8008 7997 7996 7995 ] final -117.24 input   59.86 | X-H torsion
[ 10167 10162 10161 10158 ] final  102.14 input  -65.29 | X-H torsion
[ 10718 10713 10712 10709 ] final   77.54 input   66.30 | X-H torsion
[ 10763 10752 10751 10750 ] final  174.86 input  -60.55 | X-H torsion
[ 11005 11000 10999 10996 ] final   77.56 input  -57.11 | X-H torsion

> <Gold.Protein.ActiveResidues>
 VAL166  LYS551  ARG553  GLY616  TRP617  ASP618  TYR619  PRO620  LYS621  CYS622 
 ASP623  PHE694  ASN695  SER759  ASP760  ASP761  ALA762  ILE779  LEU786  VAL792 
 PHE793  MET794  SER795  GLU796  ALA797  LYS798  CYS799  TRP800  GLU811  SER814 

> <Gold.Protein.RotatedAtoms>
  150.8183  133.8297  159.3150 H   0  0  0  0  0  0  0  0  0  0  0  0  # atno 6907 bound_to 6896
  151.6063  135.1042  160.0081 H   0  0  0  0  0  0  0  0  0  0  0  0  # atno 6908 bound_to 6896
  152.4274  133.7177  159.6572 H   0  0  0  0  0  0  0  0  0  0  0  0  # atno 6909 bound_to 6896
  144.8209  140.5549  143.5579 H   0  0  0  0  0  0  0  0  0  0  0  0  # atno 7974 bound_to 7965
  155.0805  140.0394  157.2638 H   0  0  0  0  0  0  0  0  0  0  0  0  # atno 8008 bound_to 7997
  154.6910  140.2653  155.6788 H   0  0  0  0  0  0  0  0  0  0  0  0  # atno 8009 bound_to 7997
  156.2729  140.2759  156.1488 H   0  0  0  0  0  0  0  0  0  0  0  0  # atno 8010 bound_to 7997
  139.7376  144.7020  151.0625 H   0  0  0  0  0  0  0  0  0  0  0  0  # atno 10167 bound_to 10162
  157.6714  130.9826  150.1656 H   0  0  0  0  0  0  0  0  0  0  0  0  # atno 10718 bound_to 10713
  154.4598  135.2767  155.1721 H   0  0  0  0  0  0  0  0  0  0  0  0  # atno 10763 bound_to 10752
  154.3514  135.6149  153.5648 H   0  0  0  0  0  0  0  0  0  0  0  0  # atno 10764 bound_to 10752
  152.9854  135.5812  154.4958 H   0  0  0  0  0  0  0  0  0  0  0  0  # atno 10765 bound_to 10752
  139.9249  134.7693  156.1538 H   0  0  0  0  0  0  0  0  0  0  0  0  # atno 11005 bound_to 11000
  145.5108  139.1479  143.3606 LP  0  0  0  0  0  0  0  0  0  0  0  0  # atno 17320 bound_to 7965
  146.2514  140.5248  142.8892 LP  0  0  0  0  0  0  0  0  0  0  0  0  # atno 17321 bound_to 7965
  140.7781  143.4964  150.9827 LP  0  0  0  0  0  0  0  0  0  0  0  0  # atno 17342 bound_to 10162
  139.8653  143.7262  152.3170 LP  0  0  0  0  0  0  0  0  0  0  0  0  # atno 17343 bound_to 10162
  156.2422  130.3692  149.8324 LP  0  0  0  0  0  0  0  0  0  0  0  0  # atno 17370 bound_to 10713
  156.6121  130.8591  151.3456 LP  0  0  0  0  0  0  0  0  0  0  0  0  # atno 17371 bound_to 10713
  141.0799  133.6759  156.2314 LP  0  0  0  0  0  0  0  0  0  0  0  0  # atno 17394 bound_to 11000
  140.6365  134.5210  157.5565 LP  0  0  0  0  0  0  0  0  0  0  0  0  # atno 17395 bound_to 11000

$$$$
