AV-unprocessed.smi:2186|AV-procd|sdf|8877|dock10
  -GOLD-   2272012 73D 1   1.00000     0.00000
 Structure written by MMmdl.
 44 45  0  0  0  0  0  0  0  0  2 V2000
  152.5727  143.5771  161.4079 C   0  0  0  0  0  0  0  0  0  0  0  0
  152.7948  143.6343  159.8897 C   0  0  0  0  0  0  0  0  0  0  0  0
  152.2174  144.9027  159.2432 C   0  0  0  0  0  0  0  0  0  0  0  0
  152.3182  142.3939  159.2028 C   0  0  0  0  0  0  0  0  0  0  0  0
  151.3707  142.3891  158.2614 N   0  0  0  0  0  0  0  0  0  0  0  0
  151.1310  141.1144  157.7349 C   0  0  0  0  0  0  0  0  0  0  0  0
  150.1277  140.9258  156.6291 C   0  0  0  0  0  0  0  0  0  0  0  0
  150.6885  140.0106  155.5355 C   0  0  0  0  0  0  0  0  0  0  0  0
  151.6475  140.3773  154.8566 O   0  0  0  0  0  0  0  0  0  0  0  0
  150.1020  138.8109  155.3929 N   0  0  0  0  0  0  0  0  0  0  0  0
  150.5927  137.7404  154.5356 C   0  0  0  0  0  0  0  0  0  0  0  0
  150.4336  136.3736  155.2299 C   0  0  0  0  0  0  0  0  0  0  0  0
  149.4130  135.5139  154.5811 N   0  3  0  0  0  0  0  0  0  0  0  0
  149.7725  134.0767  154.6424 C   0  0  0  0  0  0  0  0  0  0  0  0
  148.7174  133.2241  153.9183 C   0  0  0  0  0  0  0  0  0  0  0  0
  147.4407  133.4555  154.4997 O   0  0  0  0  0  0  0  0  0  0  0  0
  147.0374  134.8128  154.3705 C   0  0  0  0  0  0  0  0  0  0  0  0
  148.0385  135.7253  155.1004 C   0  0  0  0  0  0  0  0  0  0  0  0
  151.8985  140.1390  158.3224 C   0  0  0  0  0  0  0  0  0  0  0  0
  152.9643  140.7915  159.5369 S   0  0  0  0  0  0  0  0  0  0  0  0
  153.0616  142.7046  161.8429 H   0  0  0  0  0  0  0  0  0  0  0  0
  151.5115  143.5204  161.6521 H   0  0  0  0  0  0  0  0  0  0  0  0
  152.9792  144.4620  161.8979 H   0  0  0  0  0  0  0  0  0  0  0  0
  153.8741  143.6747  159.7378 H   0  0  0  0  0  0  0  0  0  0  0  0
  152.4653  144.9497  158.1823 H   0  0  0  0  0  0  0  0  0  0  0  0
  152.6150  145.8007  159.7164 H   0  0  0  0  0  0  0  0  0  0  0  0
  151.1308  144.9341  159.3324 H   0  0  0  0  0  0  0  0  0  0  0  0
  149.2047  140.4885  157.0116 H   0  0  0  0  0  0  0  0  0  0  0  0
  149.8572  141.8891  156.1949 H   0  0  0  0  0  0  0  0  0  0  0  0
  149.3121  138.5979  155.9853 H   0  0  0  0  0  0  0  0  0  0  0  0
  150.0181  137.7774  153.6109 H   0  0  0  0  0  0  0  0  0  0  0  0
  151.6349  137.9182  154.2648 H   0  0  0  0  0  0  0  0  0  0  0  0
  151.3940  135.8567  155.1977 H   0  0  0  0  0  0  0  0  0  0  0  0
  150.1916  136.5030  156.2863 H   0  0  0  0  0  0  0  0  0  0  0  0
  150.7488  133.9177  154.1827 H   0  0  0  0  0  0  0  0  0  0  0  0
  149.8537  133.7637  155.6846 H   0  0  0  0  0  0  0  0  0  0  0  0
  148.6937  133.4538  152.8516 H   0  0  0  0  0  0  0  0  0  0  0  0
  148.9612  132.1657  154.0107 H   0  0  0  0  0  0  0  0  0  0  0  0
  146.9591  135.0831  153.3161 H   0  0  0  0  0  0  0  0  0  0  0  0
  146.0430  134.9267  154.8025 H   0  0  0  0  0  0  0  0  0  0  0  0
  148.0162  135.5182  156.1714 H   0  0  0  0  0  0  0  0  0  0  0  0
  147.7348  136.7630  154.9683 H   0  0  0  0  0  0  0  0  0  0  0  0
  151.9084  139.0803  158.1091 H   0  0  0  0  0  0  0  0  0  0  0  0
  149.4041  135.7626  153.6021 H   0  0  0  0  0  0  0  0  0  0  0  0
  1  2  1  0  0  0  0
  1 21  1  0  0  0  0
  1 22  1  0  0  0  0
  1 23  1  0  0  0  0
  2  3  1  0  0  0  0
  2  4  1  0  0  0  0
  2 24  1  0  0  0  0
  3 25  1  0  0  0  0
  3 26  1  0  0  0  0
  3 27  1  0  0  0  0
  4 20  1  0  0  0  0
  4  5  2  0  0  0  0
  5  6  1  0  0  0  0
  6  7  1  0  0  0  0
  6 19  2  0  0  0  0
  7  8  1  0  0  0  0
  7 28  1  0  0  0  0
  7 29  1  0  0  0  0
  8  9  2  0  0  0  0
  8 10  1  0  0  0  0
 10 11  1  0  0  0  0
 10 30  1  0  0  0  0
 11 12  1  0  0  0  0
 11 31  1  0  0  0  0
 11 32  1  0  0  0  0
 12 13  1  0  0  0  0
 12 33  1  0  0  0  0
 12 34  1  0  0  0  0
 13 18  1  0  0  0  0
 13 14  1  0  0  0  0
 13 44  1  0  0  0  0
 14 15  1  0  0  0  0
 14 35  1  0  0  0  0
 14 36  1  0  0  0  0
 15 16  1  0  0  0  0
 15 37  1  0  0  0  0
 15 38  1  0  0  0  0
 16 17  1  0  0  0  0
 17 18  1  0  0  0  0
 17 39  1  0  0  0  0
 17 40  1  0  0  0  0
 18 41  1  0  0  0  0
 18 42  1  0  0  0  0
 19 20  1  0  0  0  0
 19 43  1  0  0  0  0
M  CHG  1  13   1
M  END
> <s_m_source_file>
AV-unprocessed.smi

> <i_m_source_file_index>
2186

> <i_lp_mmshare_version>
43012

> <i_f3d_flags>
0

> <s_epik_input>
W0NIM11bQ0hdKFtDSDNdKWMxbmMoW2NIXXMxKVtDSDJdQyg9TylbTkhdW0NIMl1bQ0gyXU4yW0NIMl1bQ0gyXU9bQ0gyXVtDSDJdMg==

> <s_epik_cmdline>
J2VwaWtfcHl0aG9uJywgJy1waCcsICc3LjAnLCAnLXRuJywgJzgnLCAnLW1hJywgJzIwMCcsICctbWV0YWxfYmluZGluZycsICctaW1hZScsICc8aW5maWxlLm1hZT4nLCAnLW9tYWUnLCAnPG91dGZpbGUubWFlPic=

> <r_epik_Ionization_Penalty>
0.678862

> <r_epik_Ionization_Penalty_Charging>
0.678842

> <r_epik_Ionization_Penalty_Neutral>
2.00527e-05

> <r_epik_State_Penalty>
0.699693

> <r_epik_Charging_Adjusted_Penalty>
1.37854

> <i_epik_Tot_Q>
1

> <i_epik_Tot_abs_Q>
1

> <r_epik_Metal_State_Penalty>
0.699708

> <b_epik_Metal_Only>
0

> <s_lp_Force_Field>
OPLS_2005

> <r_lp_Energy>
6.68048

> <b_lp_Chiralities_Consistent>
1

> <s_lp_Variant>
AV-unprocessed.smi:2186-2

> <Gold.Version>
5.8.1

> <Gold.Id.Protein>
6NUR|6NUR_protein|mol2

> <Gold.PLP.Fitness>
45.8309

> <Gold.PLP.PLP>
-39.2815

> <Gold.PLP.part.hbond>
-2.0000

> <Gold.PLP.part.metal>
0.0000

> <Gold.PLP.part.buried>
-5.9791

> <Gold.PLP.part.nonpolar>
-32.5000

> <Gold.PLP.part.repulsive>
0.1820

> <Gold.PLP.ligand.clash>
0.0000

> <Gold.PLP.ligand.torsion>
1.2029

> <Gold.PLP.Chemscore.Hbond>
2.9440

> <Gold.PLP.Chemscore.CHOScore>
0.0000

> <Gold.PLP.Chemscore.Metal>
0.0000

> <Gold.Chemscore.Hbonds>
donor molecule, donor type, donor heavy atom, donor atom, acceptor molecule, acceptor atom, score
      L1  H    13    44       P1  7948  2.00
      P1  H  7989  7998       L1     9  0.70

> <Gold.PLP.Chemscore.Internal.Correction>
0.1231

> <Gold.Rescore>
     Score         DG    S(hbond)    S(metal)    S(lipo)     H(rot)  DE(clash)    DE(int)     intcor
     17.11     -18.42       1.93        0.00      95.36       1.82       0.02       1.29       ----

> <Gold.Chemscore.Fitness>
17.1102

> <Gold.Chemscore.DG>
-18.4237

> <Gold.Chemscore.ZeroCoef>
-5.4800

> <Gold.Chemscore.Hbond>
1.9313

> <Gold.Chemscore.Metal>
0.0000

> <Gold.Chemscore.Lipo>
95.3567

> <Gold.Chemscore.Internal_Hbond>
0.0000

> <Gold.Chemscore.DEClash>
0.0199

> <Gold.Chemscore.DEInternal>
1.2936

> <Gold.Chemscore.Rot>
1.8217

> <Gold.Chemscore.Internal.Correction>
   9.000000E+99

> <Gold.Chemscore.Hbonds>
donor molecule, donor type, donor heavy atom, donor atom, acceptor molecule, acceptor atom, score
      L1  H    13    44       P1  7948  0.45
      P1  H  7989  7998       L1     9  0.67

> <Gold.Chemscore.Hbond.Weighted>
-6.4505

> <Gold.Chemscore.Metal.Weighted>
-0.0000

> <Gold.Chemscore.Lipo.Weighted>
-11.1567

> <Gold.Chemscore.Internal_Hbond.Weighted>
0.0000

> <Gold.Chemscore.DEClash.Weighted>
0.0199

> <Gold.Chemscore.DEInternal.Weighted>
1.2936

> <Gold.Chemscore.Rot.Weighted>
4.6635

> <Gold.Chemscore.Internal.Correction.Weighted>
   9.000000E+99

> <Gold.Protein.RotatedTorsions>
[ 6907 6896 6895 6894 ] final   75.01 input  -60.11 | X-H torsion
[ 7974 7965 7964 7962 ] final  -33.45 input  175.53 | X-H torsion
[ 8008 7997 7996 7995 ] final   80.65 input   59.86 | X-H torsion
[ 10167 10162 10161 10158 ] final   20.51 input  -65.29 | X-H torsion
[ 10718 10713 10712 10709 ] final   23.09 input   66.30 | X-H torsion
[ 10763 10752 10751 10750 ] final   17.73 input  -60.55 | X-H torsion
[ 11005 11000 10999 10996 ] final  -37.00 input  -57.11 | X-H torsion

> <Gold.Protein.ActiveResidues>
 VAL166  LYS551  ARG553  GLY616  TRP617  ASP618  TYR619  PRO620  LYS621  CYS622 
 ASP623  PHE694  ASN695  SER759  ASP760  ASP761  ALA762  ILE779  LEU786  VAL792 
 PHE793  MET794  SER795  GLU796  ALA797  LYS798  CYS799  TRP800  GLU811  SER814 

> <Gold.Protein.RotatedAtoms>
  152.5005  134.4185  159.9472 H   0  0  0  0  0  0  0  0  0  0  0  0  # atno 6907 bound_to 6896
  151.4157  133.3707  159.2757 H   0  0  0  0  0  0  0  0  0  0  0  0  # atno 6908 bound_to 6896
  150.9259  134.8698  159.7579 H   0  0  0  0  0  0  0  0  0  0  0  0  # atno 6909 bound_to 6896
  146.0909  140.5918  142.8865 H   0  0  0  0  0  0  0  0  0  0  0  0  # atno 7974 bound_to 7965
  155.8863  140.3441  155.5924 H   0  0  0  0  0  0  0  0  0  0  0  0  # atno 8008 bound_to 7997
  155.7662  140.0839  157.2150 H   0  0  0  0  0  0  0  0  0  0  0  0  # atno 8009 bound_to 7997
  154.4029  140.1527  156.2876 H   0  0  0  0  0  0  0  0  0  0  0  0  # atno 8010 bound_to 7997
  140.5498  143.9530  150.6571 H   0  0  0  0  0  0  0  0  0  0  0  0  # atno 10167 bound_to 10162
  157.1613  130.6718  149.6045 H   0  0  0  0  0  0  0  0  0  0  0  0  # atno 10718 bound_to 10713
  153.1313  135.6740  153.9174 H   0  0  0  0  0  0  0  0  0  0  0  0  # atno 10763 bound_to 10752
  153.8660  135.3075  155.3441 H   0  0  0  0  0  0  0  0  0  0  0  0  # atno 10764 bound_to 10752
  154.7709  135.4940  153.9729 H   0  0  0  0  0  0  0  0  0  0  0  0  # atno 10765 bound_to 10752
  140.9918  133.7001  156.1864 H   0  0  0  0  0  0  0  0  0  0  0  0  # atno 11005 bound_to 11000
  144.7360  140.4808  143.6903 LP  0  0  0  0  0  0  0  0  0  0  0  0  # atno 17320 bound_to 7965
  145.6040  139.1506  143.3113 LP  0  0  0  0  0  0  0  0  0  0  0  0  # atno 17321 bound_to 7965
  140.2952  143.3297  152.1024 LP  0  0  0  0  0  0  0  0  0  0  0  0  # atno 17342 bound_to 10162
  139.5022  144.6731  151.6195 LP  0  0  0  0  0  0  0  0  0  0  0  0  # atno 17343 bound_to 10162
  155.9753  130.4710  150.6451 LP  0  0  0  0  0  0  0  0  0  0  0  0  # atno 17370 bound_to 10713
  157.4129  131.0826  151.1203 LP  0  0  0  0  0  0  0  0  0  0  0  0  # atno 17371 bound_to 10713
  140.7028  134.4546  157.5585 LP  0  0  0  0  0  0  0  0  0  0  0  0  # atno 17394 bound_to 11000
  139.8996  134.8588  156.1954 LP  0  0  0  0  0  0  0  0  0  0  0  0  # atno 17395 bound_to 11000

$$$$
