AV-unprocessed.smi:249|AV-procd|sdf|1922|dock4
  -GOLD-   2262021 33D 1   1.00000     0.00000
 Structure written by MMmdl.
 64 67  0  0  0  0  0  0  0  0  2 V2000
  144.4019  131.9631  150.8149 C   0  0  0  0  0  0  0  0  0  0  0  0
  145.8569  131.8617  150.3358 C   0  0  0  0  0  0  0  0  0  0  0  0
  146.8250  131.8800  151.4627 N   0  3  2  0  0  0  0  0  0  0  0  0
  146.4289  131.0117  152.6045 C   0  0  0  0  0  0  0  0  0  0  0  0
  147.5589  130.9076  153.6412 C   0  0  0  0  0  0  0  0  0  0  0  0
  147.9902  132.3014  154.1426 C   0  0  1  0  0  0  0  0  0  0  0  0
  149.0312  132.2502  155.1795 N   0  0  0  0  0  0  0  0  0  0  0  0
  150.3020  131.6324  154.8171 C   0  0  0  0  0  0  0  0  0  0  0  0
  149.1613  133.3352  155.9807 C   0  0  0  0  0  0  0  0  0  0  0  0
  148.7447  133.2766  157.2732 N   0  0  0  0  0  0  0  0  0  0  0  0
  148.8996  134.3350  158.0747 C   0  0  0  0  0  0  0  0  0  0  0  0
  149.4419  135.5218  157.7942 N   0  0  0  0  0  0  0  0  0  0  0  0
  149.8502  135.5857  156.4945 C   0  0  0  0  0  0  0  0  0  0  0  0
  149.7349  134.5520  155.5244 C   0  0  0  0  0  0  0  0  0  0  0  0
  150.2416  134.9831  154.3049 N   0  0  0  0  0  0  0  0  0  0  0  0
  150.6528  136.1981  154.5451 C   0  0  0  0  0  0  0  0  0  0  0  0
  150.4865  136.6274  155.8431 N   0  0  0  0  0  0  0  0  0  0  0  0
  150.8746  137.9161  156.3861 C   0  0  0  0  0  0  0  0  0  0  0  0
  151.3252  138.9621  155.3268 C   0  0  2  0  0  0  0  0  0  0  0  0
  152.6452  138.4822  154.6756 C   0  0  0  0  0  0  0  0  0  0  0  0
  153.6738  138.3458  155.6345 O   0  0  0  0  0  0  0  0  0  0  0  0
  151.4610  140.4065  155.9006 C   0  0  1  0  0  0  0  0  0  0  0  0
  150.1450  141.1333  156.1390 C   0  0  0  0  0  0  0  0  0  0  0  0
  150.5545  142.2480  157.0895 C   0  0  0  0  0  0  0  0  0  0  0  0
  151.5051  141.6435  157.9511 O   0  0  0  0  0  0  0  0  0  0  0  0
  152.0890  140.5175  157.3028 C   0  0  0  0  0  0  0  0  0  0  0  0
  148.3606  133.1824  152.9281 C   0  0  0  0  0  0  0  0  0  0  0  0
  147.2236  133.2541  151.8892 C   0  0  2  0  0  0  0  0  0  0  0  0
  146.0379  134.1191  152.3706 C   0  0  0  0  0  0  0  0  0  0  0  0
  143.7149  131.8676  149.9737 H   0  0  0  0  0  0  0  0  0  0  0  0
  144.1930  132.9186  151.2949 H   0  0  0  0  0  0  0  0  0  0  0  0
  144.1651  131.1700  151.5249 H   0  0  0  0  0  0  0  0  0  0  0  0
  145.9598  130.9245  149.7870 H   0  0  0  0  0  0  0  0  0  0  0  0
  146.0842  132.6618  149.6299 H   0  0  0  0  0  0  0  0  0  0  0  0
  145.5193  131.3923  153.0699 H   0  0  0  0  0  0  0  0  0  0  0  0
  146.1938  130.0092  152.2486 H   0  0  0  0  0  0  0  0  0  0  0  0
  147.2241  130.2880  154.4734 H   0  0  0  0  0  0  0  0  0  0  0  0
  148.4051  130.3891  153.1895 H   0  0  0  0  0  0  0  0  0  0  0  0
  147.1256  132.7588  154.6243 H   0  0  0  0  0  0  0  0  0  0  0  0
  150.9161  131.4679  155.7033 H   0  0  0  0  0  0  0  0  0  0  0  0
  150.8652  132.2551  154.1215 H   0  0  0  0  0  0  0  0  0  0  0  0
  150.1329  130.6642  154.3457 H   0  0  0  0  0  0  0  0  0  0  0  0
  148.5456  134.2109  159.0875 H   0  0  0  0  0  0  0  0  0  0  0  0
  151.1121  136.8100  153.7822 H   0  0  0  0  0  0  0  0  0  0  0  0
  150.0370  138.3125  156.9617 H   0  0  0  0  0  0  0  0  0  0  0  0
  151.6740  137.7281  157.1035 H   0  0  0  0  0  0  0  0  0  0  0  0
  150.5764  138.9951  154.5344 H   0  0  0  0  0  0  0  0  0  0  0  0
  152.5302  137.5046  154.2094 H   0  0  0  0  0  0  0  0  0  0  0  0
  152.9668  139.1736  153.8962 H   0  0  0  0  0  0  0  0  0  0  0  0
  153.5022  137.5743  156.1527 H   0  0  0  0  0  0  0  0  0  0  0  0
  152.0502  141.0097  155.2079 H   0  0  0  0  0  0  0  0  0  0  0  0
  149.6941  141.5214  155.2253 H   0  0  0  0  0  0  0  0  0  0  0  0
  149.4251  140.4738  156.6264 H   0  0  0  0  0  0  0  0  0  0  0  0
  151.0354  143.0599  156.5421 H   0  0  0  0  0  0  0  0  0  0  0  0
  149.7122  142.6601  157.6456 H   0  0  0  0  0  0  0  0  0  0  0  0
  151.8710  139.6365  157.9069 H   0  0  0  0  0  0  0  0  0  0  0  0
  153.1704  140.6406  157.2614 H   0  0  0  0  0  0  0  0  0  0  0  0
  148.6207  134.1885  153.2588 H   0  0  0  0  0  0  0  0  0  0  0  0
  149.2463  132.7828  152.4322 H   0  0  0  0  0  0  0  0  0  0  0  0
  147.6389  133.7501  151.0106 H   0  0  0  0  0  0  0  0  0  0  0  0
  146.3800  135.1145  152.6551 H   0  0  0  0  0  0  0  0  0  0  0  0
  145.5335  133.6923  153.2367 H   0  0  0  0  0  0  0  0  0  0  0  0
  145.2920  134.2538  151.5875 H   0  0  0  0  0  0  0  0  0  0  0  0
  147.6707  131.4715  151.0908 H   0  0  0  0  0  0  0  0  0  0  0  0
  1  2  1  0  0  0  0
  1 30  1  0  0  0  0
  1 31  1  0  0  0  0
  1 32  1  0  0  0  0
  2  3  1  0  0  0  0
  2 33  1  0  0  0  0
  2 34  1  0  0  0  0
  3 28  1  0  0  0  0
  3  4  1  0  0  0  0
  3 64  1  0  0  0  0
  4  5  1  0  0  0  0
  4 35  1  0  0  0  0
  4 36  1  0  0  0  0
  5  6  1  0  0  0  0
  5 37  1  0  0  0  0
  5 38  1  0  0  0  0
  6  7  1  0  0  0  0
  6 27  1  0  0  0  0
  6 39  1  0  0  0  0
  7  8  1  0  0  0  0
  7  9  1  0  0  0  0
  8 40  1  0  0  0  0
  8 41  1  0  0  0  0
  8 42  1  0  0  0  0
  9 14  1  0  0  0  0
  9 10  2  0  0  0  0
 10 11  1  0  0  0  0
 11 12  2  0  0  0  0
 11 43  1  0  0  0  0
 12 13  1  0  0  0  0
 13 17  1  0  0  0  0
 13 14  2  0  0  0  0
 14 15  1  0  0  0  0
 15 16  2  0  0  0  0
 16 17  1  0  0  0  0
 16 44  1  0  0  0  0
 17 18  1  0  0  0  0
 18 19  1  0  0  0  0
 18 45  1  0  0  0  0
 18 46  1  0  0  0  0
 19 20  1  0  0  0  0
 19 22  1  0  0  0  0
 19 47  1  0  0  0  0
 20 21  1  0  0  0  0
 20 48  1  0  0  0  0
 20 49  1  0  0  0  0
 21 50  1  0  0  0  0
 22 26  1  0  0  0  0
 22 23  1  0  0  0  0
 22 51  1  0  0  0  0
 23 24  1  0  0  0  0
 23 52  1  0  0  0  0
 23 53  1  0  0  0  0
 24 25  1  0  0  0  0
 24 54  1  0  0  0  0
 24 55  1  0  0  0  0
 25 26  1  0  0  0  0
 26 56  1  0  0  0  0
 26 57  1  0  0  0  0
 27 28  1  0  0  0  0
 27 58  1  0  0  0  0
 27 59  1  0  0  0  0
 28 29  1  0  0  0  0
 28 60  1  0  0  0  0
 29 61  1  0  0  0  0
 29 62  1  0  0  0  0
 29 63  1  0  0  0  0
M  CHG  1   3   1
M  END
> <s_m_source_file>
AV-unprocessed.smi

> <i_m_source_file_index>
249

> <i_lp_mmshare_version>
43012

> <i_f3d_flags>
0

> <s_epik_input>
W0NIM11bQ0gyXU4xW0NIMl1bQ0gyXVtDQEhdKFtDSDJdW0NASF0xW0NIM10pTihbQ0gzXSljKG5bY0hdbjIpYyhjMjMpbltjSF1uM1tDSDJdW0NASF0oW0NIMl1bT0hdKVtDQEBIXTRbQ0gyXVtDSDJdT1tDSDJdNA==

> <s_epik_cmdline>
J2VwaWtfcHl0aG9uJywgJy1waCcsICc3LjAnLCAnLXRuJywgJzgnLCAnLW1hJywgJzIwMCcsICctbWV0YWxfYmluZGluZycsICctaW1hZScsICc8aW5maWxlLm1hZT4nLCAnLW9tYWUnLCAnPG91dGZpbGUubWFlPic=

> <r_lp_tautomer_probability>
1

> <r_epik_Ionization_Penalty>
0.00294688

> <r_epik_Ionization_Penalty_Charging>
0.00169971

> <r_epik_Ionization_Penalty_Neutral>
0.00124717

> <r_epik_State_Penalty>
-0

> <r_epik_Charging_Adjusted_Penalty>
0.00169971

> <i_epik_Tot_Q>
1

> <i_epik_Tot_abs_Q>
1

> <r_epik_Metal_State_Penalty>
-0

> <b_epik_Metal_Only>
0

> <s_lp_Force_Field>
OPLS_2005

> <r_lp_Energy>
54.0807

> <b_lp_Chiralities_Consistent>
1

> <s_lp_Variant>
AV-unprocessed.smi:249-25

> <Gold.Version>
5.8.1

> <Gold.Id.Protein>
6NUR|6NUR_protein|mol2

> <Gold.PLP.Fitness>
49.6776

> <Gold.PLP.PLP>
-43.8860

> <Gold.PLP.part.hbond>
-2.0000

> <Gold.PLP.part.metal>
0.0000

> <Gold.PLP.part.buried>
-4.3502

> <Gold.PLP.part.nonpolar>
-37.1809

> <Gold.PLP.part.repulsive>
0.6218

> <Gold.PLP.ligand.clash>
0.0000

> <Gold.PLP.ligand.torsion>
1.1156

> <Gold.PLP.Chemscore.Hbond>
1.6080

> <Gold.PLP.Chemscore.CHOScore>
0.7969

> <Gold.PLP.Chemscore.Metal>
0.0000

> <Gold.Chemscore.Hbonds>
donor molecule, donor type, donor heavy atom, donor atom, acceptor molecule, acceptor atom, score
      L1  H     3    64       P1 10747  1.00
      P1  H  7997  8008       L1    21  0.61
      L1  C    16    44       P1  7949  0.77

> <Gold.PLP.Chemscore.Internal.Correction>
0.8082

> <Gold.Rescore>
     Score         DG    S(hbond)    S(metal)    S(lipo)     H(rot)  DE(clash)    DE(int)     intcor
     13.96     -15.70       1.64        0.00     104.05       2.90       0.33       1.41       ----

> <Gold.Chemscore.Fitness>
13.9559

> <Gold.Chemscore.DG>
-15.6955

> <Gold.Chemscore.ZeroCoef>
-5.4800

> <Gold.Chemscore.Hbond>
1.6371

> <Gold.Chemscore.Metal>
0.0000

> <Gold.Chemscore.Lipo>
104.0451

> <Gold.Chemscore.Internal_Hbond>
0.0000

> <Gold.Chemscore.DEClash>
0.3346

> <Gold.Chemscore.DEInternal>
1.4051

> <Gold.Chemscore.Rot>
2.9006

> <Gold.Chemscore.Internal.Correction>
   9.000000E+99

> <Gold.Chemscore.Hbonds>
donor molecule, donor type, donor heavy atom, donor atom, acceptor molecule, acceptor atom, score
      L1  H     3    64       P1 10747  1.00
      P1  H  7997  8008       L1    21  0.53

> <Gold.Chemscore.Hbond.Weighted>
-5.4679

> <Gold.Chemscore.Metal.Weighted>
-0.0000

> <Gold.Chemscore.Lipo.Weighted>
-12.1733

> <Gold.Chemscore.Internal_Hbond.Weighted>
0.0000

> <Gold.Chemscore.DEClash.Weighted>
0.3346

> <Gold.Chemscore.DEInternal.Weighted>
1.4051

> <Gold.Chemscore.Rot.Weighted>
7.4256

> <Gold.Chemscore.Internal.Correction.Weighted>
   9.000000E+99

> <Gold.Protein.RotatedTorsions>
[ 6907 6896 6895 6894 ] final    0.06 input  -60.11 | X-H torsion
[ 7974 7965 7964 7962 ] final -120.73 input  175.53 | X-H torsion
[ 8008 7997 7996 7995 ] final  -48.22 input   59.86 | X-H torsion
[ 10167 10162 10161 10158 ] final  120.88 input  -65.29 | X-H torsion
[ 10718 10713 10712 10709 ] final  152.12 input   66.30 | X-H torsion
[ 10763 10752 10751 10750 ] final -155.63 input  -60.55 | X-H torsion
[ 11005 11000 10999 10996 ] final -106.49 input  -57.11 | X-H torsion

> <Gold.Protein.ActiveResidues>
 VAL166  LYS551  ARG553  GLY616  TRP617  ASP618  TYR619  PRO620  LYS621  CYS622 
 ASP623  PHE694  ASN695  SER759  ASP760  ASP761  ALA762  ILE779  LEU786  VAL792 
 PHE793  MET794  SER795  GLU796  ALA797  LYS798  CYS799  TRP800  GLU811  SER814 

> <Gold.Protein.RotatedAtoms>
  151.5703  135.1062  159.9993 H   0  0  0  0  0  0  0  0  0  0  0  0  # atno 6907 bound_to 6896
  152.4404  133.7433  159.6664 H   0  0  0  0  0  0  0  0  0  0  0  0  # atno 6908 bound_to 6896
  150.8309  133.8024  159.3122 H   0  0  0  0  0  0  0  0  0  0  0  0  # atno 6909 bound_to 6896
  145.0482  140.8198  143.4225 H   0  0  0  0  0  0  0  0  0  0  0  0  # atno 7974 bound_to 7965
  154.4026  140.1327  156.4304 H   0  0  0  0  0  0  0  0  0  0  0  0  # atno 8008 bound_to 7997
  155.7556  140.3487  155.5152 H   0  0  0  0  0  0  0  0  0  0  0  0  # atno 8009 bound_to 7997
  155.8908  140.1003  157.1410 H   0  0  0  0  0  0  0  0  0  0  0  0  # atno 8010 bound_to 7997
  139.5954  144.7040  151.3188 H   0  0  0  0  0  0  0  0  0  0  0  0  # atno 10167 bound_to 10162
  157.2618  131.0799  151.1660 H   0  0  0  0  0  0  0  0  0  0  0  0  # atno 10718 bound_to 10713
  154.7773  135.3163  154.8065 H   0  0  0  0  0  0  0  0  0  0  0  0  # atno 10763 bound_to 10752
  153.8785  135.6837  153.4773 H   0  0  0  0  0  0  0  0  0  0  0  0  # atno 10764 bound_to 10752
  153.1400  135.4743  154.9417 H   0  0  0  0  0  0  0  0  0  0  0  0  # atno 10765 bound_to 10752
  141.1002  133.8898  157.1862 H   0  0  0  0  0  0  0  0  0  0  0  0  # atno 11005 bound_to 11000
  145.1561  139.2485  143.5415 LP  0  0  0  0  0  0  0  0  0  0  0  0  # atno 17320 bound_to 7965
  146.3515  140.1276  142.8598 LP  0  0  0  0  0  0  0  0  0  0  0  0  # atno 17321 bound_to 7965
  140.7208  143.7142  150.7746 LP  0  0  0  0  0  0  0  0  0  0  0  0  # atno 17342 bound_to 10162
  140.0707  143.5064  152.2581 LP  0  0  0  0  0  0  0  0  0  0  0  0  # atno 17343 bound_to 10162
  157.3167  130.6916  149.6246 LP  0  0  0  0  0  0  0  0  0  0  0  0  # atno 17370 bound_to 10713
  155.9664  130.4347  150.5062 LP  0  0  0  0  0  0  0  0  0  0  0  0  # atno 17371 bound_to 10713
  139.9851  135.0085  156.9843 LP  0  0  0  0  0  0  0  0  0  0  0  0  # atno 17394 bound_to 11000
  140.5041  134.1068  155.7256 LP  0  0  0  0  0  0  0  0  0  0  0  0  # atno 17395 bound_to 11000

$$$$
