AV-unprocessed.smi:2529|AV-procd|sdf|9960|dock8
  -GOLD-   2272014 03D 1   1.00000     0.00000
 Structure written by MMmdl.
 44 46  0  0  0  0  0  0  0  0  1 V2000
  144.8651  141.9976  155.2025 C   0  0  0  0  0  0  0  0  0  0  0  0
  146.3305  141.5901  155.4116 C   0  0  2  0  0  0  0  0  0  0  0  0
  147.1470  141.7361  154.1158 C   0  0  0  0  0  0  0  0  0  0  0  0
  148.6198  141.3382  154.3206 C   0  0  0  0  0  0  0  0  0  0  0  0
  148.7900  139.9103  154.8988 C   0  0  1  0  0  0  0  0  0  0  0  0
  148.3208  138.9675  153.9507 O   0  0  0  0  0  0  0  0  0  0  0  0
  150.2609  139.5252  155.2368 C   0  0  0  0  0  0  0  0  0  0  0  0
  150.8452  140.2419  156.3878 N   0  0  0  0  0  0  0  0  0  0  0  0
  150.8509  141.6477  156.3024 C   0  0  0  0  0  0  0  0  0  0  0  0
  151.3492  142.3886  157.2398 N   0  0  0  0  0  0  0  0  0  0  0  0
  151.9064  141.7916  158.3758 C   0  0  0  0  0  0  0  0  0  0  0  0
  152.4490  142.7129  159.4595 C   0  0  0  0  0  0  0  0  0  0  0  0
  151.3978  143.4651  160.2917 C   0  0  0  0  0  0  0  0  0  0  0  0
  152.3390  144.6746  160.2683 C   0  0  0  0  0  0  0  0  0  0  0  0
  152.9507  144.0892  158.9908 C   0  0  0  0  0  0  0  0  0  0  0  0
  151.9287  140.4438  158.5044 C   0  0  0  0  0  0  0  0  0  0  0  0
  151.3807  139.5810  157.4573 C   0  0  0  0  0  0  0  0  0  0  0  0
  151.3973  138.3529  157.5398 O   0  0  0  0  0  0  0  0  0  0  0  0
  147.9129  139.7429  156.1633 C   0  0  0  0  0  0  0  0  0  0  0  0
  146.4448  140.1526  155.9474 C   0  0  0  0  0  0  0  0  0  0  0  0
  144.3771  141.3604  154.4642 H   0  0  0  0  0  0  0  0  0  0  0  0
  144.7904  143.0279  154.8535 H   0  0  0  0  0  0  0  0  0  0  0  0
  144.3002  141.9237  156.1321 H   0  0  0  0  0  0  0  0  0  0  0  0
  146.7563  142.2637  156.1569 H   0  0  0  0  0  0  0  0  0  0  0  0
  146.7064  141.1209  153.3301 H   0  0  0  0  0  0  0  0  0  0  0  0
  147.0974  142.7658  153.7600 H   0  0  0  0  0  0  0  0  0  0  0  0
  149.1454  141.4336  153.3699 H   0  0  0  0  0  0  0  0  0  0  0  0
  149.0799  142.0571  154.9993 H   0  0  0  0  0  0  0  0  0  0  0  0
  148.8887  138.9910  153.1958 H   0  0  0  0  0  0  0  0  0  0  0  0
  150.3069  138.4525  155.4309 H   0  0  0  0  0  0  0  0  0  0  0  0
  150.8931  139.6490  154.3547 H   0  0  0  0  0  0  0  0  0  0  0  0
  150.4080  142.0623  155.3953 H   0  0  0  0  0  0  0  0  0  0  0  0
  153.1819  142.2071  160.0907 H   0  0  0  0  0  0  0  0  0  0  0  0
  150.4669  143.6514  159.7527 H   0  0  0  0  0  0  0  0  0  0  0  0
  151.2146  143.0474  161.2820 H   0  0  0  0  0  0  0  0  0  0  0  0
  151.8450  145.6380  160.1391 H   0  0  0  0  0  0  0  0  0  0  0  0
  153.0373  144.6848  161.1069 H   0  0  0  0  0  0  0  0  0  0  0  0
  154.0346  144.1797  158.9186 H   0  0  0  0  0  0  0  0  0  0  0  0
  152.4538  144.4535  158.0894 H   0  0  0  0  0  0  0  0  0  0  0  0
  152.3542  139.9908  159.3879 H   0  0  0  0  0  0  0  0  0  0  0  0
  147.9558  138.7132  156.5211 H   0  0  0  0  0  0  0  0  0  0  0  0
  148.3223  140.3562  156.9676 H   0  0  0  0  0  0  0  0  0  0  0  0
  145.9027  140.0641  156.8894 H   0  0  0  0  0  0  0  0  0  0  0  0
  145.9659  139.4596  155.2546 H   0  0  0  0  0  0  0  0  0  0  0  0
  1  2  1  0  0  0  0
  1 21  1  0  0  0  0
  1 22  1  0  0  0  0
  1 23  1  0  0  0  0
  2 20  1  0  0  0  0
  2  3  1  0  0  0  0
  2 24  1  0  0  0  0
  3  4  1  0  0  0  0
  3 25  1  0  0  0  0
  3 26  1  0  0  0  0
  4  5  1  0  0  0  0
  4 27  1  0  0  0  0
  4 28  1  0  0  0  0
  5  6  1  0  0  0  0
  5  7  1  0  0  0  0
  5 19  1  0  0  0  0
  6 29  1  0  0  0  0
  7  8  1  0  0  0  0
  7 30  1  0  0  0  0
  7 31  1  0  0  0  0
  8 17  1  0  0  0  0
  8  9  1  0  0  0  0
  9 10  2  0  0  0  0
  9 32  1  0  0  0  0
 10 11  1  0  0  0  0
 11 12  1  0  0  0  0
 11 16  2  0  0  0  0
 12 15  1  0  0  0  0
 12 13  1  0  0  0  0
 12 33  1  0  0  0  0
 13 14  1  0  0  0  0
 13 34  1  0  0  0  0
 13 35  1  0  0  0  0
 14 15  1  0  0  0  0
 14 36  1  0  0  0  0
 14 37  1  0  0  0  0
 15 38  1  0  0  0  0
 15 39  1  0  0  0  0
 16 17  1  0  0  0  0
 16 40  1  0  0  0  0
 17 18  2  0  0  0  0
 19 20  1  0  0  0  0
 19 41  1  0  0  0  0
 19 42  1  0  0  0  0
 20 43  1  0  0  0  0
 20 44  1  0  0  0  0
M  END
> <s_m_source_file>
AV-unprocessed.smi

> <i_m_source_file_index>
2529

> <i_lp_mmshare_version>
43012

> <i_f3d_flags>
0

> <s_epik_input>
W0NIMl0xW0NIMl1bQ0BIXShbQ0gzXSlbQ0gyXVtDSDJdW0NAQF0xKFtPSF0pW0NIMl1uMltjSF1uYyhbY0hdYzI9TylbQ0hdM1tDSDJdW0NIMl1bQ0gyXTM=

> <s_epik_cmdline>
J2VwaWtfcHl0aG9uJywgJy1waCcsICc3LjAnLCAnLXRuJywgJzgnLCAnLW1hJywgJzIwMCcsICctbWV0YWxfYmluZGluZycsICctaW1hZScsICc8aW5maWxlLm1hZT4nLCAnLW9tYWUnLCAnPG91dGZpbGUubWFlPic=

> <r_lp_tautomer_probability>
1

> <r_epik_Ionization_Penalty>
9.15498e-05

> <r_epik_Ionization_Penalty_Charging>
1.67865e-07

> <r_epik_Ionization_Penalty_Neutral>
9.13819e-05

> <r_epik_State_Penalty>
-0

> <r_epik_Charging_Adjusted_Penalty>
1.67865e-07

> <i_epik_Tot_Q>
0

> <i_epik_Tot_abs_Q>
0

> <r_epik_Metal_State_Penalty>
-0

> <b_epik_Metal_Only>
0

> <s_lp_Force_Field>
OPLS_2005

> <r_lp_Energy>
32.8679

> <b_lp_Chiralities_Consistent>
1

> <s_lp_Variant>
AV-unprocessed.smi:2529-1

> <Gold.Version>
5.8.1

> <Gold.Id.Protein>
6NUR|6NUR_protein|mol2

> <Gold.PLP.Fitness>
42.5489

> <Gold.PLP.PLP>
-37.9720

> <Gold.PLP.part.hbond>
-1.0000

> <Gold.PLP.part.metal>
0.0000

> <Gold.PLP.part.buried>
-3.0501

> <Gold.PLP.part.nonpolar>
-33.8521

> <Gold.PLP.part.repulsive>
0.1356

> <Gold.PLP.ligand.clash>
0.0000

> <Gold.PLP.ligand.torsion>
0.5869

> <Gold.PLP.Chemscore.Hbond>
1.0000

> <Gold.PLP.Chemscore.CHOScore>
0.7746

> <Gold.PLP.Chemscore.Metal>
0.0000

> <Gold.Chemscore.Hbonds>
donor molecule, donor type, donor heavy atom, donor atom, acceptor molecule, acceptor atom, score
      L1  H     6    29       P1  7957  0.10

> <Gold.PLP.Chemscore.Internal.Correction>
0.4271

> <Gold.Rescore>
     Score         DG    S(hbond)    S(metal)    S(lipo)     H(rot)  DE(clash)    DE(int)     intcor
     14.52     -16.05       0.99        0.00     101.23       1.80       0.18       1.35       ----

> <Gold.Chemscore.Fitness>
14.5156

> <Gold.Chemscore.DG>
-16.0457

> <Gold.Chemscore.ZeroCoef>
-5.4800

> <Gold.Chemscore.Hbond>
0.9944

> <Gold.Chemscore.Metal>
0.0000

> <Gold.Chemscore.Lipo>
101.2319

> <Gold.Chemscore.Internal_Hbond>
0.0000

> <Gold.Chemscore.DEClash>
0.1787

> <Gold.Chemscore.DEInternal>
1.3515

> <Gold.Chemscore.Rot>
1.7968

> <Gold.Chemscore.Internal.Correction>
   9.000000E+99

> <Gold.Chemscore.Hbonds>
donor molecule, donor type, donor heavy atom, donor atom, acceptor molecule, acceptor atom, score
      L1  H     6    29       P1  7957  0.12

> <Gold.Chemscore.Hbond.Weighted>
-3.3213

> <Gold.Chemscore.Metal.Weighted>
-0.0000

> <Gold.Chemscore.Lipo.Weighted>
-11.8441

> <Gold.Chemscore.Internal_Hbond.Weighted>
0.0000

> <Gold.Chemscore.DEClash.Weighted>
0.1787

> <Gold.Chemscore.DEInternal.Weighted>
1.3515

> <Gold.Chemscore.Rot.Weighted>
4.5997

> <Gold.Chemscore.Internal.Correction.Weighted>
   9.000000E+99

> <Gold.Protein.RotatedTorsions>
[ 6907 6896 6895 6894 ] final  -45.00 input  -60.11 | X-H torsion
[ 7974 7965 7964 7962 ] final  -22.87 input  175.53 | X-H torsion
[ 8008 7997 7996 7995 ] final  -99.79 input   59.86 | X-H torsion
[ 10167 10162 10161 10158 ] final  -75.32 input  -65.29 | X-H torsion
[ 10718 10713 10712 10709 ] final   49.84 input   66.30 | X-H torsion
[ 10763 10752 10751 10750 ] final  157.55 input  -60.55 | X-H torsion
[ 11005 11000 10999 10996 ] final   -2.70 input  -57.11 | X-H torsion

> <Gold.Protein.ActiveResidues>
 VAL166  LYS551  ARG553  GLY616  TRP617  ASP618  TYR619  PRO620  LYS621  CYS622 
 ASP623  PHE694  ASN695  SER759  ASP760  ASP761  ALA762  ILE779  LEU786  VAL792 
 PHE793  MET794  SER795  GLU796  ALA797  LYS798  CYS799  TRP800  GLU811  SER814 

> <Gold.Protein.RotatedAtoms>
  150.9267  134.8683  159.7524 H   0  0  0  0  0  0  0  0  0  0  0  0  # atno 6907 bound_to 6896
  152.5018  134.4139  159.9468 H   0  0  0  0  0  0  0  0  0  0  0  0  # atno 6908 bound_to 6896
  151.4169  133.3670  159.2786 H   0  0  0  0  0  0  0  0  0  0  0  0  # atno 6909 bound_to 6896
  146.1650  140.4539  142.8556 H   0  0  0  0  0  0  0  0  0  0  0  0  # atno 7974 bound_to 7965
  154.8197  140.0445  157.1402 H   0  0  0  0  0  0  0  0  0  0  0  0  # atno 8008 bound_to 7997
  154.9273  140.3035  155.5165 H   0  0  0  0  0  0  0  0  0  0  0  0  # atno 8009 bound_to 7997
  156.2979  140.2329  156.4330 H   0  0  0  0  0  0  0  0  0  0  0  0  # atno 8010 bound_to 7997
  140.4952  143.2372  151.7842 H   0  0  0  0  0  0  0  0  0  0  0  0  # atno 10167 bound_to 10162
  157.4826  130.8325  149.8111 H   0  0  0  0  0  0  0  0  0  0  0  0  # atno 10718 bound_to 10713
  154.2020  135.2790  155.2987 H   0  0  0  0  0  0  0  0  0  0  0  0  # atno 10763 bound_to 10752
  154.5847  135.5578  153.7223 H   0  0  0  0  0  0  0  0  0  0  0  0  # atno 10764 bound_to 10752
  153.0085  135.6353  154.2158 H   0  0  0  0  0  0  0  0  0  0  0  0  # atno 10765 bound_to 10752
  140.6612  133.9318  155.8437 H   0  0  0  0  0  0  0  0  0  0  0  0  # atno 11005 bound_to 11000
  144.8079  140.6333  143.6434 LP  0  0  0  0  0  0  0  0  0  0  0  0  # atno 17320 bound_to 7965
  145.4491  139.1526  143.3928 LP  0  0  0  0  0  0  0  0  0  0  0  0  # atno 17321 bound_to 7965
  139.4860  144.4596  151.9557 LP  0  0  0  0  0  0  0  0  0  0  0  0  # atno 17342 bound_to 10162
  140.3683  144.2887  150.5923 LP  0  0  0  0  0  0  0  0  0  0  0  0  # atno 17343 bound_to 10162
  156.0130  130.3825  150.2203 LP  0  0  0  0  0  0  0  0  0  0  0  0  # atno 17370 bound_to 10713
  157.0389  131.0029  151.3289 LP  0  0  0  0  0  0  0  0  0  0  0  0  # atno 17371 bound_to 10713
  141.0464  134.0548  157.3839 LP  0  0  0  0  0  0  0  0  0  0  0  0  # atno 17394 bound_to 11000
  139.9012  135.0165  156.7278 LP  0  0  0  0  0  0  0  0  0  0  0  0  # atno 17395 bound_to 11000

$$$$
