AV-unprocessed.smi:3277|AV-procd|sdf|12536|dock1
  -GOLD-   2272018453D 1   1.00000     0.00000
 Structure written by MMmdl.
 35 37  0  0  0  0  0  0  0  0  1 V2000
  149.2777  136.6095  155.2922 C   0  0  0  0  0  0  0  0  0  0  0  0
  150.1606  137.7553  155.1396 N   0  0  0  0  0  0  0  0  0  0  0  0
  151.4600  137.7575  155.4726 C   0  0  0  0  0  0  0  0  0  0  0  0
  152.0397  136.7774  155.9398 O   0  0  0  0  0  0  0  0  0  0  0  0
  152.2262  139.0607  155.2388 C   0  0  0  0  0  0  0  0  0  0  0  0
  151.5025  140.1593  155.9491 C   0  0  0  0  0  0  0  0  0  0  0  0
  151.8859  140.6536  157.1292 N   0  0  0  0  0  0  0  0  0  0  0  0
  151.0502  141.6777  157.5897 C   0  0  0  0  0  0  0  0  0  0  0  0
  151.3127  142.3602  158.9067 C   0  0  2  0  0  0  0  0  0  0  0  0
  150.4885  143.6421  159.1550 C   0  0  0  0  0  0  0  0  0  0  0  0
  151.5648  144.6488  159.6063 C   0  0  1  0  0  0  0  0  0  0  0  0
  152.1372  144.2301  160.9754 C   0  0  0  0  0  0  0  0  0  0  0  0
  153.0142  143.0109  160.6233 C   0  0  0  0  0  0  0  0  0  0  0  0
  152.7672  142.8458  159.1111 C   0  0  2  0  0  0  0  0  0  0  0  0
  152.7160  144.3070  158.6690 C   0  0  0  0  0  0  0  0  0  0  0  0
  150.0212  141.9562  156.7243 C   0  0  0  0  0  0  0  0  0  0  0  0
  150.0659  140.9468  155.3055 S   0  0  0  0  0  0  0  0  0  0  0  0
  148.2625  136.8811  155.0035 H   0  0  0  0  0  0  0  0  0  0  0  0
  149.2576  136.2676  156.3276 H   0  0  0  0  0  0  0  0  0  0  0  0
  149.6031  135.7843  154.6582 H   0  0  0  0  0  0  0  0  0  0  0  0
  149.7594  138.6009  154.7610 H   0  0  0  0  0  0  0  0  0  0  0  0
  153.2441  138.9772  155.6220 H   0  0  0  0  0  0  0  0  0  0  0  0
  152.2896  139.2879  154.1740 H   0  0  0  0  0  0  0  0  0  0  0  0
  151.0752  141.6458  159.6966 H   0  0  0  0  0  0  0  0  0  0  0  0
  150.0135  143.9958  158.2388 H   0  0  0  0  0  0  0  0  0  0  0  0
  149.7042  143.4976  159.8986 H   0  0  0  0  0  0  0  0  0  0  0  0
  151.2337  145.6869  159.5682 H   0  0  0  0  0  0  0  0  0  0  0  0
  152.7447  145.0269  161.4061 H   0  0  0  0  0  0  0  0  0  0  0  0
  151.3508  143.9842  161.6899 H   0  0  0  0  0  0  0  0  0  0  0  0
  154.0651  143.2269  160.8197 H   0  0  0  0  0  0  0  0  0  0  0  0
  152.7471  142.1224  161.1966 H   0  0  0  0  0  0  0  0  0  0  0  0
  153.5196  142.2285  158.6190 H   0  0  0  0  0  0  0  0  0  0  0  0
  152.4699  144.4414  157.6153 H   0  0  0  0  0  0  0  0  0  0  0  0
  153.6317  144.8585  158.8896 H   0  0  0  0  0  0  0  0  0  0  0  0
  149.2409  142.6945  156.8353 H   0  0  0  0  0  0  0  0  0  0  0  0
  1  2  1  0  0  0  0
  1 18  1  0  0  0  0
  1 19  1  0  0  0  0
  1 20  1  0  0  0  0
  2  3  1  0  0  0  0
  2 21  1  0  0  0  0
  3  4  2  0  0  0  0
  3  5  1  0  0  0  0
  5  6  1  0  0  0  0
  5 22  1  0  0  0  0
  5 23  1  0  0  0  0
  6 17  1  0  0  0  0
  6  7  2  0  0  0  0
  7  8  1  0  0  0  0
  8  9  1  0  0  0  0
  8 16  2  0  0  0  0
  9 14  1  0  0  0  0
  9 10  1  0  0  0  0
  9 24  1  0  0  0  0
 10 11  1  0  0  0  0
 10 25  1  0  0  0  0
 10 26  1  0  0  0  0
 11 15  1  0  0  0  0
 11 12  1  0  0  0  0
 11 27  1  0  0  0  0
 12 13  1  0  0  0  0
 12 28  1  0  0  0  0
 12 29  1  0  0  0  0
 13 14  1  0  0  0  0
 13 30  1  0  0  0  0
 13 31  1  0  0  0  0
 14 15  1  0  0  0  0
 14 32  1  0  0  0  0
 15 33  1  0  0  0  0
 15 34  1  0  0  0  0
 16 17  1  0  0  0  0
 16 35  1  0  0  0  0
M  END
> <s_m_source_file>
AV-unprocessed.smi

> <i_m_source_file_index>
3277

> <i_lp_mmshare_version>
43012

> <i_f3d_flags>
0

> <s_epik_input>
W0NIM11bTkhdQyg9TylbQ0gyXWMxbmMoW2NIXXMxKVtDQEhdKFtDSDJdW0NAQEhdMjMpW0NAQEhdKFtDSDJdMylbQ0gyXVtDSDJdMg==

> <s_epik_cmdline>
J2VwaWtfcHl0aG9uJywgJy1waCcsICc3LjAnLCAnLXRuJywgJzgnLCAnLW1hJywgJzIwMCcsICctbWV0YWxfYmluZGluZycsICctaW1hZScsICc8aW5maWxlLm1hZT4nLCAnLW9tYWUnLCAnPG91dGZpbGUubWFlPic=

> <r_lp_tautomer_probability>
1

> <r_epik_Ionization_Penalty>
8.50008e-05

> <r_epik_Ionization_Penalty_Charging>
0

> <r_epik_Ionization_Penalty_Neutral>
8.50008e-05

> <r_epik_State_Penalty>
-0

> <r_epik_Charging_Adjusted_Penalty>
0

> <i_epik_Tot_Q>
0

> <i_epik_Tot_abs_Q>
0

> <r_epik_Metal_State_Penalty>
-0

> <b_epik_Metal_Only>
0

> <s_lp_Force_Field>
OPLS_2005

> <r_lp_Energy>
44.9061

> <b_lp_Chiralities_Consistent>
1

> <s_lp_Variant>
AV-unprocessed.smi:3277-1

> <Gold.Version>
5.8.1

> <Gold.Id.Protein>
6NUR|6NUR_protein|mol2

> <Gold.PLP.Fitness>
44.8764

> <Gold.PLP.PLP>
-39.9117

> <Gold.PLP.part.hbond>
-1.0000

> <Gold.PLP.part.metal>
0.0000

> <Gold.PLP.part.buried>
-3.8870

> <Gold.PLP.part.nonpolar>
-35.4051

> <Gold.PLP.part.repulsive>
0.0477

> <Gold.PLP.ligand.clash>
0.0000

> <Gold.PLP.ligand.torsion>
0.5213

> <Gold.PLP.Chemscore.Hbond>
1.0000

> <Gold.PLP.Chemscore.CHOScore>
1.0000

> <Gold.PLP.Chemscore.Metal>
0.0000

> <Gold.Chemscore.Hbonds>
donor molecule, donor type, donor heavy atom, donor atom, acceptor molecule, acceptor atom, score
      P1  H 10752 10765       L1     4  1.00
      L1  C    16    35       P1  8028  1.00

> <Gold.PLP.Chemscore.Internal.Correction>
0.0073

> <Gold.Rescore>
     Score         DG    S(hbond)    S(metal)    S(lipo)     H(rot)  DE(clash)    DE(int)     intcor
     18.51     -18.89       0.99        0.00     117.22       1.41       0.07       0.30       ----

> <Gold.Chemscore.Fitness>
18.5129

> <Gold.Chemscore.DG>
-18.8899

> <Gold.Chemscore.ZeroCoef>
-5.4800

> <Gold.Chemscore.Hbond>
0.9912

> <Gold.Chemscore.Metal>
0.0000

> <Gold.Chemscore.Lipo>
117.2184

> <Gold.Chemscore.Internal_Hbond>
0.0000

> <Gold.Chemscore.DEClash>
0.0737

> <Gold.Chemscore.DEInternal>
0.3034

> <Gold.Chemscore.Rot>
1.4122

> <Gold.Chemscore.Internal.Correction>
   9.000000E+99

> <Gold.Chemscore.Hbonds>
donor molecule, donor type, donor heavy atom, donor atom, acceptor molecule, acceptor atom, score
      P1  H 10752 10765       L1     4  0.98

> <Gold.Chemscore.Hbond.Weighted>
-3.3105

> <Gold.Chemscore.Metal.Weighted>
-0.0000

> <Gold.Chemscore.Lipo.Weighted>
-13.7145

> <Gold.Chemscore.Internal_Hbond.Weighted>
0.0000

> <Gold.Chemscore.DEClash.Weighted>
0.0737

> <Gold.Chemscore.DEInternal.Weighted>
0.3034

> <Gold.Chemscore.Rot.Weighted>
3.6151

> <Gold.Chemscore.Internal.Correction.Weighted>
   9.000000E+99

> <Gold.Protein.RotatedTorsions>
[ 6907 6896 6895 6894 ] final -100.89 input  -60.11 | X-H torsion
[ 7974 7965 7964 7962 ] final   95.37 input  175.53 | X-H torsion
[ 8008 7997 7996 7995 ] final  -47.02 input   59.86 | X-H torsion
[ 10167 10162 10161 10158 ] final   14.87 input  -65.29 | X-H torsion
[ 10718 10713 10712 10709 ] final  -70.11 input   66.30 | X-H torsion
[ 10763 10752 10751 10750 ] final -150.55 input  -60.55 | X-H torsion
[ 11005 11000 10999 10996 ] final -107.73 input  -57.11 | X-H torsion

> <Gold.Protein.ActiveResidues>
 VAL166  LYS551  ARG553  GLY616  TRP617  ASP618  TYR619  PRO620  LYS621  CYS622 
 ASP623  PHE694  ASN695  SER759  ASP760  ASP761  ALA762  ILE779  LEU786  VAL792 
 PHE793  MET794  SER795  GLU796  ALA797  LYS798  CYS799  TRP800  GLU811  SER814 

> <Gold.Protein.RotatedAtoms>
  150.7133  134.0817  159.3900 H   0  0  0  0  0  0  0  0  0  0  0  0  # atno 6907 bound_to 6896
  151.8801  135.0454  160.0497 H   0  0  0  0  0  0  0  0  0  0  0  0  # atno 6908 bound_to 6896
  152.2574  133.5232  159.5398 H   0  0  0  0  0  0  0  0  0  0  0  0  # atno 6909 bound_to 6896
  145.4531  139.2292  143.3029 H   0  0  0  0  0  0  0  0  0  0  0  0  # atno 7974 bound_to 7965
  154.4012  140.1357  156.4106 H   0  0  0  0  0  0  0  0  0  0  0  0  # atno 8008 bound_to 7997
  155.7737  140.3483  155.5240 H   0  0  0  0  0  0  0  0  0  0  0  0  # atno 8009 bound_to 7997
  155.8742  140.0976  157.1520 H   0  0  0  0  0  0  0  0  0  0  0  0  # atno 8010 bound_to 7997
  140.5906  143.8802  150.6870 H   0  0  0  0  0  0  0  0  0  0  0  0  # atno 10167 bound_to 10162
  156.0423  130.4325  150.2247 H   0  0  0  0  0  0  0  0  0  0  0  0  # atno 10718 bound_to 10713
  154.8112  135.3281  154.7300 H   0  0  0  0  0  0  0  0  0  0  0  0  # atno 10763 bound_to 10752
  153.7949  135.6908  153.4869 H   0  0  0  0  0  0  0  0  0  0  0  0  # atno 10764 bound_to 10752
  153.1892  135.4557  155.0074 H   0  0  0  0  0  0  0  0  0  0  0  0  # atno 10765 bound_to 10752
  141.0938  133.9007  157.2011 H   0  0  0  0  0  0  0  0  0  0  0  0  # atno 11005 bound_to 11000
  146.2493  140.5292  142.8900 LP  0  0  0  0  0  0  0  0  0  0  0  0  # atno 17320 bound_to 7965
  144.8049  140.6281  143.6453 LP  0  0  0  0  0  0  0  0  0  0  0  0  # atno 17321 bound_to 7965
  140.2324  143.3725  152.1555 LP  0  0  0  0  0  0  0  0  0  0  0  0  # atno 17342 bound_to 10162
  139.5225  144.7060  151.5353 LP  0  0  0  0  0  0  0  0  0  0  0  0  # atno 17343 bound_to 10162
  157.0341  131.0016  151.3303 LP  0  0  0  0  0  0  0  0  0  0  0  0  # atno 17370 bound_to 10713
  157.5256  130.8026  149.7859 LP  0  0  0  0  0  0  0  0  0  0  0  0  # atno 17371 bound_to 10713
  139.9770  135.0110  156.9656 LP  0  0  0  0  0  0  0  0  0  0  0  0  # atno 17394 bound_to 11000
  140.5188  134.0928  155.7287 LP  0  0  0  0  0  0  0  0  0  0  0  0  # atno 17395 bound_to 11000

$$$$
