#       Name:                AV-unprocessed.smi:1867
#       Creating user name   scv26
#       Creation time:       Fri Mar 27 09:28:01 2020


#       File generated by GOLD software.
#

@<TRIPOS>MOLECULE
AV-unprocessed.smi:1867
    55    58     1
SMALL
NO_CHARGES


@<TRIPOS>ATOM
      1 ****        -0.4970   2.4492   1.3571 O.2            1 S1                 0.0000
      2 ****        -0.8311   1.4864   0.6704 C.2            1 S1                 0.0000
      3 ****         0.0275   0.6659   0.0341 N.am           1 S1                 0.0000
      4 ****         1.4454   0.6513   0.1085 C.ar           1 S1                 0.0000
      5 ****         2.1635   0.0672  -0.9526 C.ar           1 S1                 0.0000
      6 ****         3.5689   0.0195  -0.8882 C.ar           1 S1                 0.0000
      7 ****         4.2233   0.5522   0.2477 C.ar           1 S1                 0.0000
      8 ****         5.6277   0.5189   0.3557 N.pl3          1 S1                 0.0000
      9 ****         6.3264   1.1819   1.4461 C.3            1 S1                 0.0000
     10 ****         7.8070   1.0375   1.0996 C.3            1 S1                 0.0000
     11 ****         7.8084   1.0753  -0.4285 C.3            1 S1                 0.0000
     12 ****         6.4807   0.4159  -0.8206 C.3            1 S1                 0.0000
     13 ****         3.5317   1.0937   1.2785 N.ar           1 S1                 0.0000
     14 ****         2.1847   1.1422   1.2103 C.ar           1 S1                 0.0000
     15 ****        -2.1280   1.2052   0.4535 N.am           1 S1                 0.0000
     16 ****        -3.3021   1.8952   0.9889 C.3            1 S1                 0.0000
     17 ****        -3.6969   1.4681   2.4006 C.3            1 S1                 0.0000
     18 ****        -5.1582   1.9150   2.4740 C.3            1 S1                 0.0000
     19 ****        -5.7058   1.7367   1.1101 N.4            1 S1                 1.0000
     20 ****        -6.7293   2.7350   0.7145 C.3            1 S1                 0.0000
     21 ****        -7.2295   2.4608  -0.7161 C.3            1 S1                 0.0000
     22 ****        -6.0841   2.3131  -1.7403 C.3            1 S1                 0.0000
     23 ****        -4.6965   2.4603  -1.0961 C.3            1 S1                 0.0000
     24 ****        -4.5618   1.5816   0.1676 C.3            1 S1                 0.0000
     25 ****        -0.3813  -0.0048  -0.5995 H              1 S1                 0.0000
     26 ****         1.6465  -0.3388  -1.8099 H              1 S1                 0.0000
     27 ****         4.1212  -0.4304  -1.6997 H              1 S1                 0.0000
     28 ****         6.0394   2.2338   1.4773 H              1 S1                 0.0000
     29 ****         6.0913   0.7296   2.4101 H              1 S1                 0.0000
     30 ****         8.4256   1.8150   1.5483 H              1 S1                 0.0000
     31 ****         8.1751   0.0703   1.4445 H              1 S1                 0.0000
     32 ****         7.8133   2.1129  -0.7651 H              1 S1                 0.0000
     33 ****         8.6740   0.5776  -0.8660 H              1 S1                 0.0000
     34 ****         6.6277  -0.6383  -1.0576 H              1 S1                 0.0000
     35 ****         6.0440   0.9067  -1.6912 H              1 S1                 0.0000
     36 ****         1.7019   1.5649   2.0777 H              1 S1                 0.0000
     37 ****        -2.3168   0.4741  -0.2171 H              1 S1                 0.0000
     38 ****        -3.1361   2.9745   0.9826 H              1 S1                 0.0000
     39 ****        -3.6301   0.3839   2.5052 H              1 S1                 0.0000
     40 ****        -3.0784   1.9230   3.1748 H              1 S1                 0.0000
     41 ****        -5.7318   1.3528   3.2112 H              1 S1                 0.0000
     42 ****        -5.1971   2.9688   2.7544 H              1 S1                 0.0000
     43 ****        -7.5634   2.6961   1.4160 H              1 S1                 0.0000
     44 ****        -6.3106   3.7406   0.7795 H              1 S1                 0.0000
     45 ****        -7.8261   1.5478  -0.7174 H              1 S1                 0.0000
     46 ****        -7.9045   3.2591  -1.0262 H              1 S1                 0.0000
     47 ****        -6.1561   1.3351  -2.2176 H              1 S1                 0.0000
     48 ****        -6.1975   3.0469  -2.5393 H              1 S1                 0.0000
     49 ****        -3.9202   2.2016  -1.8169 H              1 S1                 0.0000
     50 ****        -4.5323   3.5086  -0.8423 H              1 S1                 0.0000
     51 ****        -4.5559   0.5303  -0.1258 H              1 S1                 0.0000
     52 ****        -6.1738   0.8415   1.1077 H              1 S1                 0.0000
     53 ****         0.4717   2.6683   1.4735 LP             1 S1                 0.0000
     54 ****        -1.1939   3.0136   1.7996 LP             1 S1                 0.0000
     55 ****         4.0122   1.4525   2.0788 LP             1 S1                 0.0000
@<TRIPOS>BOND
    1    1    2 2     
    2    2    3 am    
    3    2   15 am    
    4    3    4 1     
    5    3   25 1     
    6    4   14 ar    
    7    4    5 ar    
    8    5    6 ar    
    9    5   26 1     
   10    6    7 ar    
   11    6   27 1     
   12    7    8 1     
   13    7   13 ar    
   14    8   12 1     
   15    8    9 1     
   16    9   10 1     
   17    9   28 1     
   18    9   29 1     
   19   10   11 1     
   20   10   30 1     
   21   10   31 1     
   22   11   12 1     
   23   11   32 1     
   24   11   33 1     
   25   12   34 1     
   26   12   35 1     
   27   13   14 ar    
   28   14   36 1     
   29   15   16 1     
   30   15   37 1     
   31   16   24 1     
   32   16   17 1     
   33   16   38 1     
   34   17   18 1     
   35   17   39 1     
   36   17   40 1     
   37   18   19 1     
   38   18   41 1     
   39   18   42 1     
   40   19   24 1     
   41   19   20 1     
   42   19   52 1     
   43   20   21 1     
   44   20   43 1     
   45   20   44 1     
   46   21   22 1     
   47   21   45 1     
   48   21   46 1     
   49   22   23 1     
   50   22   47 1     
   51   22   48 1     
   52   23   24 1     
   53   23   49 1     
   54   23   50 1     
   55   24   51 1     
   56    1   53 1     
   57    1   54 1     
   58   13   55 1     
@<TRIPOS>SUBSTRUCTURE
      1 S1             1
@<TRIPOS>SET
LONE_PAIRS      STATIC     ATOMS    <user>   **** ""
3 53 54 55
DONOR_HYDROGENS      STATIC     ATOMS    <user>   **** ""
3 25 37 52
ATOM$BLUE        STATIC     ATOMS    COLORGROUP SYSTEM
3 53 54 55
ATOM$RED        STATIC     ATOMS    COLORGROUP SYSTEM
3 25 37 52
