AV-unprocessed.smi:3325|AV-procd|sdf|12784|dock7
  -GOLD-   2272019133D 1   1.00000     0.00000
 Structure written by MMmdl.
 44 45  0  0  0  0  0  0  0  0  2 V2000
  147.5157  144.8428  161.5475 C   0  0  0  0  0  0  0  0  0  0  0  0
  146.3412  143.9580  161.1039 C   0  0  0  0  0  0  0  0  0  0  0  0
  145.8995  142.9616  162.1858 C   0  0  0  0  0  0  0  0  0  0  0  0
  146.6217  143.2716  159.8022 C   0  0  0  0  0  0  0  0  0  0  0  0
  145.9072  143.5375  158.7148 N   0  0  0  0  0  0  0  0  0  0  0  0
  146.4607  142.6899  157.7448 O   0  0  0  0  0  0  0  0  0  0  0  0
  147.4611  142.0222  158.3663 C   0  0  0  0  0  0  0  0  0  0  0  0
  148.2158  140.9814  157.6067 C   0  0  0  0  0  0  0  0  0  0  0  0
  148.2805  141.2680  156.0990 C   0  0  0  0  0  0  0  0  0  0  0  0
  149.3259  142.2612  155.7773 N   0  3  0  0  0  0  0  0  0  0  0  0
  150.6698  141.9063  156.2747 C   0  0  0  0  0  0  0  0  0  0  0  0
  150.9944  142.6288  157.5952 C   0  0  0  0  0  0  0  0  0  0  0  0
  151.4918  144.0723  157.3596 C   0  0  0  0  0  0  0  0  0  0  0  0
  151.8298  144.7805  158.6816 C   0  0  0  0  0  0  0  0  0  0  0  0
  152.8594  143.9819  159.4946 C   0  0  0  0  0  0  0  0  0  0  0  0
  152.3766  142.5443  159.7363 C   0  0  0  0  0  0  0  0  0  0  0  0
  152.0390  141.8403  158.4117 C   0  0  0  0  0  0  0  0  0  0  0  0
  147.5914  142.3248  159.6551 N   0  0  0  0  0  0  0  0  0  0  0  0
  147.7575  145.5854  160.7864 H   0  0  0  0  0  0  0  0  0  0  0  0
  148.4124  144.2506  161.7326 H   0  0  0  0  0  0  0  0  0  0  0  0
  147.2774  145.3784  162.4666 H   0  0  0  0  0  0  0  0  0  0  0  0
  145.4966  144.6299  160.9409 H   0  0  0  0  0  0  0  0  0  0  0  0
  145.0170  142.4050  161.8689 H   0  0  0  0  0  0  0  0  0  0  0  0
  145.6488  143.4758  163.1140 H   0  0  0  0  0  0  0  0  0  0  0  0
  146.6868  142.2407  162.4083 H   0  0  0  0  0  0  0  0  0  0  0  0
  149.2259  140.9230  158.0136 H   0  0  0  0  0  0  0  0  0  0  0  0
  147.7540  140.0097  157.7869 H   0  0  0  0  0  0  0  0  0  0  0  0
  148.4749  140.3440  155.5527 H   0  0  0  0  0  0  0  0  0  0  0  0
  147.3166  141.6464  155.7568 H   0  0  0  0  0  0  0  0  0  0  0  0
  149.3733  142.3647  154.7734 H   0  0  0  0  0  0  0  0  0  0  0  0
  150.7038  140.8264  156.4262 H   0  0  0  0  0  0  0  0  0  0  0  0
  151.4179  142.1456  155.5177 H   0  0  0  0  0  0  0  0  0  0  0  0
  150.0796  142.6746  158.1888 H   0  0  0  0  0  0  0  0  0  0  0  0
  152.3762  144.0585  156.7206 H   0  0  0  0  0  0  0  0  0  0  0  0
  150.7376  144.6525  156.8274 H   0  0  0  0  0  0  0  0  0  0  0  0
  152.2131  145.7812  158.4795 H   0  0  0  0  0  0  0  0  0  0  0  0
  150.9206  144.9112  159.2698 H   0  0  0  0  0  0  0  0  0  0  0  0
  153.8116  143.9632  158.9625 H   0  0  0  0  0  0  0  0  0  0  0  0
  153.0469  144.4771  160.4478 H   0  0  0  0  0  0  0  0  0  0  0  0
  153.1412  141.9814  160.2728 H   0  0  0  0  0  0  0  0  0  0  0  0
  151.4956  142.5576  160.3791 H   0  0  0  0  0  0  0  0  0  0  0  0
  151.6698  140.8358  158.6209 H   0  0  0  0  0  0  0  0  0  0  0  0
  152.9501  141.7169  157.8246 H   0  0  0  0  0  0  0  0  0  0  0  0
  149.0605  143.1494  156.1792 H   0  0  0  0  0  0  0  0  0  0  0  0
  1  2  1  0  0  0  0
  1 19  1  0  0  0  0
  1 20  1  0  0  0  0
  1 21  1  0  0  0  0
  2  3  1  0  0  0  0
  2  4  1  0  0  0  0
  2 22  1  0  0  0  0
  3 23  1  0  0  0  0
  3 24  1  0  0  0  0
  3 25  1  0  0  0  0
  4 18  1  0  0  0  0
  4  5  2  0  0  0  0
  5  6  1  0  0  0  0
  6  7  1  0  0  0  0
  7  8  1  0  0  0  0
  7 18  2  0  0  0  0
  8  9  1  0  0  0  0
  8 26  1  0  0  0  0
  8 27  1  0  0  0  0
  9 10  1  0  0  0  0
  9 28  1  0  0  0  0
  9 29  1  0  0  0  0
 10 11  1  0  0  0  0
 10 30  1  0  0  0  0
 10 44  1  0  0  0  0
 11 12  1  0  0  0  0
 11 31  1  0  0  0  0
 11 32  1  0  0  0  0
 12 17  1  0  0  0  0
 12 13  1  0  0  0  0
 12 33  1  0  0  0  0
 13 14  1  0  0  0  0
 13 34  1  0  0  0  0
 13 35  1  0  0  0  0
 14 15  1  0  0  0  0
 14 36  1  0  0  0  0
 14 37  1  0  0  0  0
 15 16  1  0  0  0  0
 15 38  1  0  0  0  0
 15 39  1  0  0  0  0
 16 17  1  0  0  0  0
 16 40  1  0  0  0  0
 16 41  1  0  0  0  0
 17 42  1  0  0  0  0
 17 43  1  0  0  0  0
M  CHG  1  10   1
M  END
> <s_m_source_file>
AV-unprocessed.smi

> <i_m_source_file_index>
3325

> <i_lp_mmshare_version>
43012

> <i_f3d_flags>
0

> <s_epik_input>
W0NIM11bQ0hdKFtDSDNdKWMxbm9jKG4xKVtDSDJdW0NIMl1bTkhdW0NIMl1bQ0hdMltDSDJdW0NIMl1bQ0gyXVtDSDJdW0NIMl0y

> <s_epik_cmdline>
J2VwaWtfcHl0aG9uJywgJy1waCcsICc3LjAnLCAnLXRuJywgJzgnLCAnLW1hJywgJzIwMCcsICctbWV0YWxfYmluZGluZycsICctaW1hZScsICc8aW5maWxlLm1hZT4nLCAnLW9tYWUnLCAnPG91dGZpbGUubWFlPic=

> <r_lp_tautomer_probability>
1

> <r_epik_Ionization_Penalty>
0.00142412

> <r_epik_Ionization_Penalty_Charging>
0.00142412

> <r_epik_Ionization_Penalty_Neutral>
2.66011e-13

> <r_epik_State_Penalty>
0.000950746

> <r_epik_Charging_Adjusted_Penalty>
0.00237487

> <i_epik_Tot_Q>
1

> <i_epik_Tot_abs_Q>
1

> <r_epik_Metal_State_Penalty>
-0

> <b_epik_Metal_Only>
0

> <s_lp_Force_Field>
OPLS_2005

> <r_lp_Energy>
7.21373

> <b_lp_Chiralities_Consistent>
1

> <s_lp_Variant>
AV-unprocessed.smi:3325-1

> <Gold.Version>
5.8.1

> <Gold.Id.Protein>
6NUR|6NUR_protein|mol2

> <Gold.PLP.Fitness>
46.1025

> <Gold.PLP.PLP>
-40.4820

> <Gold.PLP.part.hbond>
-2.9576

> <Gold.PLP.part.metal>
0.0000

> <Gold.PLP.part.buried>
-6.9428

> <Gold.PLP.part.nonpolar>
-32.9870

> <Gold.PLP.part.repulsive>
1.1529

> <Gold.PLP.ligand.clash>
0.0000

> <Gold.PLP.ligand.torsion>
1.0194

> <Gold.PLP.Chemscore.Hbond>
2.5028

> <Gold.PLP.Chemscore.CHOScore>
0.0000

> <Gold.PLP.Chemscore.Metal>
0.0000

> <Gold.Chemscore.Hbonds>
donor molecule, donor type, donor heavy atom, donor atom, acceptor molecule, acceptor atom, score
      L1  H    10    44       P1  8028  1.50
      P1  H  6933  6944       L1    18  0.46
      P1  H  6934  6946       L1    18  0.50

> <Gold.PLP.Chemscore.Internal.Correction>
0.1509

> <Gold.Rescore>
     Score         DG    S(hbond)    S(metal)    S(lipo)     H(rot)  DE(clash)    DE(int)     intcor
     17.41     -18.24       1.79        0.00      98.53       1.86       0.12       0.72       ----

> <Gold.Chemscore.Fitness>
17.4052

> <Gold.Chemscore.DG>
-18.2378

> <Gold.Chemscore.ZeroCoef>
-5.4800

> <Gold.Chemscore.Hbond>
1.7937

> <Gold.Chemscore.Metal>
0.0000

> <Gold.Chemscore.Lipo>
98.5285

> <Gold.Chemscore.Internal_Hbond>
0.0000

> <Gold.Chemscore.DEClash>
0.1162

> <Gold.Chemscore.DEInternal>
0.7164

> <Gold.Chemscore.Rot>
1.8597

> <Gold.Chemscore.Internal.Correction>
   9.000000E+99

> <Gold.Chemscore.Hbonds>
donor molecule, donor type, donor heavy atom, donor atom, acceptor molecule, acceptor atom, score
      L1  H    10    44       P1  8028  0.74
      P1  H  6933  6944       L1    18  0.20
      P1  H  6934  6946       L1    18  0.16

> <Gold.Chemscore.Hbond.Weighted>
-5.9909

> <Gold.Chemscore.Metal.Weighted>
-0.0000

> <Gold.Chemscore.Lipo.Weighted>
-11.5278

> <Gold.Chemscore.Internal_Hbond.Weighted>
0.0000

> <Gold.Chemscore.DEClash.Weighted>
0.1162

> <Gold.Chemscore.DEInternal.Weighted>
0.7164

> <Gold.Chemscore.Rot.Weighted>
4.7610

> <Gold.Chemscore.Internal.Correction.Weighted>
   9.000000E+99

> <Gold.Protein.RotatedTorsions>
[ 6907 6896 6895 6894 ] final -138.19 input  -60.11 | X-H torsion
[ 7974 7965 7964 7962 ] final  -79.90 input  175.53 | X-H torsion
[ 8008 7997 7996 7995 ] final   37.43 input   59.86 | X-H torsion
[ 10167 10162 10161 10158 ] final -152.61 input  -65.29 | X-H torsion
[ 10718 10713 10712 10709 ] final  174.41 input   66.30 | X-H torsion
[ 10763 10752 10751 10750 ] final   82.10 input  -60.55 | X-H torsion
[ 11005 11000 10999 10996 ] final  128.91 input  -57.11 | X-H torsion

> <Gold.Protein.ActiveResidues>
 VAL166  LYS551  ARG553  GLY616  TRP617  ASP618  TYR619  PRO620  LYS621  CYS622 
 ASP623  PHE694  ASN695  SER759  ASP760  ASP761  ALA762  ILE779  LEU786  VAL792 
 PHE793  MET794  SER795  GLU796  ALA797  LYS798  CYS799  TRP800  GLU811  SER814 

> <Gold.Protein.RotatedAtoms>
  151.0320  133.5782  159.2659 H   0  0  0  0  0  0  0  0  0  0  0  0  # atno 6907 bound_to 6896
  151.2860  135.0727  159.9197 H   0  0  0  0  0  0  0  0  0  0  0  0  # atno 6908 bound_to 6896
  152.5346  134.0026  159.7956 H   0  0  0  0  0  0  0  0  0  0  0  0  # atno 6909 bound_to 6896
  145.5670  140.9472  143.1416 H   0  0  0  0  0  0  0  0  0  0  0  0  # atno 7974 bound_to 7965
  155.2036  140.3318  155.4339 H   0  0  0  0  0  0  0  0  0  0  0  0  # atno 8008 bound_to 7997
  156.2397  140.1889  156.7071 H   0  0  0  0  0  0  0  0  0  0  0  0  # atno 8009 bound_to 7997
  154.6125  140.0607  156.9497 H   0  0  0  0  0  0  0  0  0  0  0  0  # atno 8010 bound_to 7997
  139.7167  143.9022  152.2488 H   0  0  0  0  0  0  0  0  0  0  0  0  # atno 10167 bound_to 10162
  156.9500  131.0028  151.2950 H   0  0  0  0  0  0  0  0  0  0  0  0  # atno 10718 bound_to 10713
  153.1173  135.4741  154.9137 H   0  0  0  0  0  0  0  0  0  0  0  0  # atno 10763 bound_to 10752
  154.7541  135.3114  154.8505 H   0  0  0  0  0  0  0  0  0  0  0  0  # atno 10764 bound_to 10752
  153.9078  135.6868  153.4806 H   0  0  0  0  0  0  0  0  0  0  0  0  # atno 10765 bound_to 10752
  139.9586  134.9607  156.9071 H   0  0  0  0  0  0  0  0  0  0  0  0  # atno 11005 bound_to 11000
  144.7455  139.7331  143.7294 LP  0  0  0  0  0  0  0  0  0  0  0  0  # atno 17320 bound_to 7965
  146.1811  139.5004  142.9866 LP  0  0  0  0  0  0  0  0  0  0  0  0  # atno 17321 bound_to 7965
  139.8906  144.6967  150.8774 LP  0  0  0  0  0  0  0  0  0  0  0  0  # atno 17342 bound_to 10162
  140.7745  143.3589  151.1867 LP  0  0  0  0  0  0  0  0  0  0  0  0  # atno 17343 bound_to 10162
  157.5728  130.8322  149.8415 LP  0  0  0  0  0  0  0  0  0  0  0  0  # atno 17370 bound_to 10713
  156.0367  130.3749  150.1543 LP  0  0  0  0  0  0  0  0  0  0  0  0  # atno 17371 bound_to 10713
  140.5552  134.0589  155.7381 LP  0  0  0  0  0  0  0  0  0  0  0  0  # atno 17394 bound_to 11000
  141.1261  133.9381  157.2633 LP  0  0  0  0  0  0  0  0  0  0  0  0  # atno 17395 bound_to 11000

$$$$
