#       Name:                AV-unprocessed.smi:1852
#       Creating user name   scv26
#       Creation time:       Fri Mar 27 09:23:35 2020


#       File generated by GOLD software.
#

@<TRIPOS>MOLECULE
AV-unprocessed.smi:1852
    50    52     1
SMALL
NO_CHARGES


@<TRIPOS>ATOM
      1 ****        -0.0433   5.5211   1.5985 C.3            1 S1                 0.0000
      2 ****        -0.8174   4.2399   1.3654 C.ar           1 S1                 0.0000
      3 ****        -2.2102   4.2769   1.1600 C.ar           1 S1                 0.0000
      4 ****        -2.9207   3.0826   0.9425 C.ar           1 S1                 0.0000
      5 ****        -2.2445   1.8451   0.9284 C.ar           1 S1                 0.0000
      6 ****        -3.0236   0.5657   0.6856 C.3            1 S1                 0.0000
      7 ****        -0.8466   1.7944   1.1339 C.ar           1 S1                 0.0000
      8 ****        -0.2487   0.5524   1.1128 O.3            1 S1                 0.0000
      9 ****         1.1697   0.4779   1.1574 C.3            1 S1                 0.0000
     10 ****         1.6031  -0.9832   0.9748 C.3            1 S1                 0.0000
     11 ****         1.0510  -1.5718  -0.2559 N.pl3          1 S1                 0.0000
     12 ****         1.5178  -1.5354  -1.5377 C.2            1 S1                 0.0000
     13 ****         2.7640  -0.8662  -2.0287 C.3            1 S1                 0.0000
     14 ****         3.7581  -1.8086  -2.5280 N.am           1 S1                 0.0000
     15 ****         4.4787  -2.6418  -1.7637 C.2            1 S1                 0.0000
     16 ****         4.3784  -2.7259  -0.5408 O.2            1 S1                 0.0000
     17 ****         0.6308  -2.2257  -2.3091 N.pl3          1 S1                 1.0000
     18 ****        -0.4160  -2.6999  -1.5183 C.ar           1 S1                 0.0000
     19 ****        -1.5452  -3.4418  -1.8515 C.ar           1 S1                 0.0000
     20 ****        -2.4293  -3.7561  -0.7987 C.ar           1 S1                 0.0000
     21 ****        -2.1757  -3.3356   0.5227 C.ar           1 S1                 0.0000
     22 ****        -1.0261  -2.5868   0.8485 C.ar           1 S1                 0.0000
     23 ****        -0.1549  -2.2816  -0.1976 C.ar           1 S1                 0.0000
     24 ****        -0.1398   3.0041   1.3525 C.ar           1 S1                 0.0000
     25 ****        -0.7120   6.3743   1.7167 H              1 S1                 0.0000
     26 ****         0.6184   5.7199   0.7551 H              1 S1                 0.0000
     27 ****         0.5642   5.4393   2.5002 H              1 S1                 0.0000
     28 ****        -2.7389   5.2188   1.1685 H              1 S1                 0.0000
     29 ****        -3.9886   3.1222   0.7851 H              1 S1                 0.0000
     30 ****        -2.9579  -0.0875   1.5559 H              1 S1                 0.0000
     31 ****        -2.6192   0.0327  -0.1754 H              1 S1                 0.0000
     32 ****        -4.0770   0.7696   0.4921 H              1 S1                 0.0000
     33 ****         1.6027   1.0851   0.3608 H              1 S1                 0.0000
     34 ****         1.5414   0.8547   2.1111 H              1 S1                 0.0000
     35 ****         2.6895  -1.0505   0.9242 H              1 S1                 0.0000
     36 ****         1.3043  -1.5887   1.8301 H              1 S1                 0.0000
     37 ****         2.4978  -0.1857  -2.8378 H              1 S1                 0.0000
     38 ****         3.1989  -0.2500  -1.2411 H              1 S1                 0.0000
     39 ****         3.9220  -1.8171  -3.5243 H              1 S1                 0.0000
     40 ****         5.1703  -3.2388  -2.3781 H              1 S1                 0.0000
     41 ****        -1.7434  -3.7623  -2.8636 H              1 S1                 0.0000
     42 ****        -3.3205  -4.3295  -1.0093 H              1 S1                 0.0000
     43 ****        -2.8775  -3.5911   1.3034 H              1 S1                 0.0000
     44 ****        -0.8471  -2.2653   1.8637 H              1 S1                 0.0000
     45 ****         0.9270   3.0080   1.5175 H              1 S1                 0.0000
     46 ****         0.7358  -2.3589  -3.3065 H              1 S1                 0.0000
     47 ****        -0.5411   0.0991   0.2707 LP             1 S1                 0.0000
     48 ****        -0.5952   0.0453   1.9019 LP             1 S1                 0.0000
     49 ****         3.7249  -2.1481  -0.0518 LP             1 S1                 0.0000
     50 ****         4.9504  -3.3720  -0.0355 LP             1 S1                 0.0000
@<TRIPOS>BOND
    1    1    2 1     
    2    1   25 1     
    3    1   26 1     
    4    1   27 1     
    5    2   24 ar    
    6    2    3 ar    
    7    3    4 ar    
    8    3   28 1     
    9    4    5 ar    
   10    4   29 1     
   11    5    6 1     
   12    5    7 ar    
   13    6   30 1     
   14    6   31 1     
   15    6   32 1     
   16    7    8 1     
   17    7   24 ar    
   18    8    9 1     
   19    9   10 1     
   20    9   33 1     
   21    9   34 1     
   22   10   11 1     
   23   10   35 1     
   24   10   36 1     
   25   11   23 1     
   26   11   12 1     
   27   12   13 1     
   28   12   17 2     
   29   13   14 1     
   30   13   37 1     
   31   13   38 1     
   32   14   15 am    
   33   14   39 1     
   34   15   16 2     
   35   15   40 1     
   36   17   18 1     
   37   17   46 1     
   38   18   23 ar    
   39   18   19 ar    
   40   19   20 ar    
   41   19   41 1     
   42   20   21 ar    
   43   20   42 1     
   44   21   22 ar    
   45   21   43 1     
   46   22   23 ar    
   47   22   44 1     
   48   24   45 1     
   49    8   47 1     
   50    8   48 1     
   51   16   49 1     
   52   16   50 1     
@<TRIPOS>SUBSTRUCTURE
      1 S1             1
@<TRIPOS>SET
LONE_PAIRS      STATIC     ATOMS    <user>   **** ""
4 47 48 49 50
DONOR_HYDROGENS      STATIC     ATOMS    <user>   **** ""
2 39 46
ATOM$BLUE        STATIC     ATOMS    COLORGROUP SYSTEM
4 47 48 49 50
ATOM$RED        STATIC     ATOMS    COLORGROUP SYSTEM
2 39 46
