AV-unprocessed.smi:2208|AV-procd|sdf|8946|dock1
  -GOLD-   2272012163D 1   1.00000     0.00000
 Structure written by MMmdl.
 35 36  0  0  0  0  0  0  0  0  1 V2000
  150.6175  136.9413  155.6141 C   0  0  0  0  0  0  0  0  0  0  0  0
  150.5933  138.4368  155.4745 C   0  0  0  0  0  0  0  0  0  0  0  0
  150.4362  138.9645  154.2725 N   0  0  0  0  0  0  0  0  0  0  0  0
  150.4382  140.3500  154.4574 O   0  0  0  0  0  0  0  0  0  0  0  0
  150.5992  140.6060  155.7799 C   0  0  0  0  0  0  0  0  0  0  0  0
  150.6098  142.0424  156.1813 C   0  0  0  0  0  0  0  0  0  0  0  0
  150.7088  139.4372  156.4837 C   0  0  0  0  0  0  0  0  0  0  0  0
  150.8897  139.2503  157.9692 C   0  0  0  0  0  0  0  0  0  0  0  0
  152.1545  139.9801  158.4178 C   0  0  0  0  0  0  0  0  0  0  0  0
  153.2292  139.7485  157.8644 O   0  0  0  0  0  0  0  0  0  0  0  0
  152.0152  140.8377  159.4400 N   0  0  0  0  0  0  0  0  0  0  0  0
  153.1063  141.5470  160.0955 C   0  0  0  0  0  0  0  0  0  0  0  0
  152.8674  143.0653  160.0740 C   0  0  1  0  0  0  0  0  0  0  0  0
  152.8598  143.6713  158.6741 C   0  0  0  0  0  0  0  0  0  0  0  0
  152.1026  144.9592  158.9101 C   0  0  0  0  0  0  0  0  0  0  0  0
  151.0622  144.5428  159.9492 C   0  0  0  0  0  0  0  0  0  0  0  0
  151.5788  143.3796  160.5922 O   0  0  0  0  0  0  0  0  0  0  0  0
  149.6452  136.5116  155.3716 H   0  0  0  0  0  0  0  0  0  0  0  0
  150.8669  136.6341  156.6291 H   0  0  0  0  0  0  0  0  0  0  0  0
  151.3550  136.4964  154.9456 H   0  0  0  0  0  0  0  0  0  0  0  0
  149.5935  142.4320  156.2383 H   0  0  0  0  0  0  0  0  0  0  0  0
  151.1632  142.6437  155.4601 H   0  0  0  0  0  0  0  0  0  0  0  0
  151.0766  142.1741  157.1575 H   0  0  0  0  0  0  0  0  0  0  0  0
  150.0414  139.6368  158.5340 H   0  0  0  0  0  0  0  0  0  0  0  0
  150.9624  138.1936  158.2301 H   0  0  0  0  0  0  0  0  0  0  0  0
  151.0929  140.9621  159.8314 H   0  0  0  0  0  0  0  0  0  0  0  0
  153.2202  141.1946  161.1220 H   0  0  0  0  0  0  0  0  0  0  0  0
  154.0352  141.3047  159.5785 H   0  0  0  0  0  0  0  0  0  0  0  0
  153.6150  143.5800  160.6805 H   0  0  0  0  0  0  0  0  0  0  0  0
  153.8613  143.8307  158.2735 H   0  0  0  0  0  0  0  0  0  0  0  0
  152.3085  143.0346  157.9806 H   0  0  0  0  0  0  0  0  0  0  0  0
  152.7718  145.7103  159.3321 H   0  0  0  0  0  0  0  0  0  0  0  0
  151.6591  145.3695  158.0026 H   0  0  0  0  0  0  0  0  0  0  0  0
  150.8689  145.3366  160.6707 H   0  0  0  0  0  0  0  0  0  0  0  0
  150.1177  144.2837  159.4702 H   0  0  0  0  0  0  0  0  0  0  0  0
  1  2  1  0  0  0  0
  1 18  1  0  0  0  0
  1 19  1  0  0  0  0
  1 20  1  0  0  0  0
  2  7  1  0  0  0  0
  2  3  2  0  0  0  0
  3  4  1  0  0  0  0
  4  5  1  0  0  0  0
  5  6  1  0  0  0  0
  5  7  2  0  0  0  0
  6 21  1  0  0  0  0
  6 22  1  0  0  0  0
  6 23  1  0  0  0  0
  7  8  1  0  0  0  0
  8  9  1  0  0  0  0
  8 24  1  0  0  0  0
  8 25  1  0  0  0  0
  9 10  2  0  0  0  0
  9 11  1  0  0  0  0
 11 12  1  0  0  0  0
 11 26  1  0  0  0  0
 12 13  1  0  0  0  0
 12 27  1  0  0  0  0
 12 28  1  0  0  0  0
 13 17  1  0  0  0  0
 13 14  1  0  0  0  0
 13 29  1  0  0  0  0
 14 15  1  0  0  0  0
 14 30  1  0  0  0  0
 14 31  1  0  0  0  0
 15 16  1  0  0  0  0
 15 32  1  0  0  0  0
 15 33  1  0  0  0  0
 16 17  1  0  0  0  0
 16 34  1  0  0  0  0
 16 35  1  0  0  0  0
M  END
> <s_m_source_file>
AV-unprocessed.smi

> <i_m_source_file_index>
2208

> <i_lp_mmshare_version>
43012

> <i_f3d_flags>
0

> <s_epik_input>
W0NIM11jMW5vYyhbQ0gzXSljMVtDSDJdQyg9TylbTkhdW0NIMl1bQ0BASF0yW0NIMl1bQ0gyXVtDSDJdTzI=

> <s_epik_cmdline>
J2VwaWtfcHl0aG9uJywgJy1waCcsICc3LjAnLCAnLXRuJywgJzgnLCAnLW1hJywgJzIwMCcsICctbWV0YWxfYmluZGluZycsICctaW1hZScsICc8aW5maWxlLm1hZT4nLCAnLW9tYWUnLCAnPG91dGZpbGUubWFlPic=

> <r_lp_tautomer_probability>
1

> <r_epik_Ionization_Penalty>
3.13901e-08

> <r_epik_Ionization_Penalty_Charging>
0

> <r_epik_Ionization_Penalty_Neutral>
3.13901e-08

> <r_epik_State_Penalty>
-0

> <r_epik_Charging_Adjusted_Penalty>
0

> <i_epik_Tot_Q>
0

> <i_epik_Tot_abs_Q>
0

> <r_epik_Metal_State_Penalty>
-0

> <b_epik_Metal_Only>
0

> <s_lp_Force_Field>
OPLS_2005

> <r_lp_Energy>
10.5641

> <b_lp_Chiralities_Consistent>
1

> <s_lp_Variant>
AV-unprocessed.smi:2208-2

> <Gold.Version>
5.8.1

> <Gold.Id.Protein>
6NUR|6NUR_protein|mol2

> <Gold.PLP.Fitness>
42.1213

> <Gold.PLP.PLP>
-36.2512

> <Gold.PLP.part.hbond>
-2.6556

> <Gold.PLP.part.metal>
0.0000

> <Gold.PLP.part.buried>
-5.8451

> <Gold.PLP.part.nonpolar>
-28.8488

> <Gold.PLP.part.repulsive>
0.5329

> <Gold.PLP.ligand.clash>
0.0000

> <Gold.PLP.ligand.torsion>
0.0814

> <Gold.PLP.Chemscore.Hbond>
2.0000

> <Gold.PLP.Chemscore.CHOScore>
0.0000

> <Gold.PLP.Chemscore.Metal>
0.0000

> <Gold.Chemscore.Hbonds>
donor molecule, donor type, donor heavy atom, donor atom, acceptor molecule, acceptor atom, score
      P1  H  7989  7998       L1     4  1.00
      P1  H  7997  8008       L1    10  1.00

> <Gold.PLP.Chemscore.Internal.Correction>
0.0329

> <Gold.Rescore>
     Score         DG    S(hbond)    S(metal)    S(lipo)     H(rot)  DE(clash)    DE(int)     intcor
     18.41     -18.56       1.92        0.00      90.96       1.56       0.02       0.12       ----

> <Gold.Chemscore.Fitness>
18.4133

> <Gold.Chemscore.DG>
-18.5611

> <Gold.Chemscore.ZeroCoef>
-5.4800

> <Gold.Chemscore.Hbond>
1.9219

> <Gold.Chemscore.Metal>
0.0000

> <Gold.Chemscore.Lipo>
90.9649

> <Gold.Chemscore.Internal_Hbond>
0.0000

> <Gold.Chemscore.DEClash>
0.0246

> <Gold.Chemscore.DEInternal>
0.1232

> <Gold.Chemscore.Rot>
1.5551

> <Gold.Chemscore.Internal.Correction>
   9.000000E+99

> <Gold.Chemscore.Hbonds>
donor molecule, donor type, donor heavy atom, donor atom, acceptor molecule, acceptor atom, score
      P1  H  7989  7998       L1     4  0.40
      P1  H  7997  8008       L1    10  0.99

> <Gold.Chemscore.Hbond.Weighted>
-6.4192

> <Gold.Chemscore.Metal.Weighted>
-0.0000

> <Gold.Chemscore.Lipo.Weighted>
-10.6429

> <Gold.Chemscore.Internal_Hbond.Weighted>
0.0000

> <Gold.Chemscore.DEClash.Weighted>
0.0246

> <Gold.Chemscore.DEInternal.Weighted>
0.1232

> <Gold.Chemscore.Rot.Weighted>
3.9809

> <Gold.Chemscore.Internal.Correction.Weighted>
   9.000000E+99

> <Gold.Protein.RotatedTorsions>
[ 6907 6896 6895 6894 ] final  143.09 input  -60.11 | X-H torsion
[ 7974 7965 7964 7962 ] final -161.22 input  175.53 | X-H torsion
[ 8008 7997 7996 7995 ] final  -73.36 input   59.86 | X-H torsion
[ 10167 10162 10161 10158 ] final  -24.67 input  -65.29 | X-H torsion
[ 10718 10713 10712 10709 ] final  -25.41 input   66.30 | X-H torsion
[ 10763 10752 10751 10750 ] final   -1.17 input  -60.55 | X-H torsion
[ 11005 11000 10999 10996 ] final   41.81 input  -57.11 | X-H torsion

> <Gold.Protein.ActiveResidues>
 VAL166  LYS551  ARG553  GLY616  TRP617  ASP618  TYR619  PRO620  LYS621  CYS622 
 ASP623  PHE694  ASN695  SER759  ASP760  ASP761  ALA762  ILE779  LEU786  VAL792 
 PHE793  MET794  SER795  GLU796  ALA797  LYS798  CYS799  TRP800  GLU811  SER814 

> <Gold.Protein.RotatedAtoms>
  152.2107  133.4909  159.5107 H   0  0  0  0  0  0  0  0  0  0  0  0  # atno 6907 bound_to 6896
  150.6989  134.1471  159.4135 H   0  0  0  0  0  0  0  0  0  0  0  0  # atno 6908 bound_to 6896
  151.9391  135.0221  160.0585 H   0  0  0  0  0  0  0  0  0  0  0  0  # atno 6909 bound_to 6896
  144.7399  140.3429  143.6131 H   0  0  0  0  0  0  0  0  0  0  0  0  # atno 7974 bound_to 7965
  154.5241  140.0780  156.8226 H   0  0  0  0  0  0  0  0  0  0  0  0  # atno 8008 bound_to 7997
  155.3513  140.3413  155.4221 H   0  0  0  0  0  0  0  0  0  0  0  0  # atno 8009 bound_to 7997
  156.1713  140.1620  156.8430 H   0  0  0  0  0  0  0  0  0  0  0  0  # atno 8010 bound_to 7997
  140.7288  143.4333  151.0769 H   0  0  0  0  0  0  0  0  0  0  0  0  # atno 10167 bound_to 10162
  156.4647  130.4511  149.6906 H   0  0  0  0  0  0  0  0  0  0  0  0  # atno 10718 bound_to 10713
  153.3413  135.6981  153.6864 H   0  0  0  0  0  0  0  0  0  0  0  0  # atno 10763 bound_to 10752
  153.5628  135.3531  155.2807 H   0  0  0  0  0  0  0  0  0  0  0  0  # atno 10764 bound_to 10752
  154.8637  135.4253  154.2627 H   0  0  0  0  0  0  0  0  0  0  0  0  # atno 10765 bound_to 10752
  140.1799  134.4117  155.8206 H   0  0  0  0  0  0  0  0  0  0  0  0  # atno 11005 bound_to 11000
  145.7356  139.1749  143.2405 LP  0  0  0  0  0  0  0  0  0  0  0  0  # atno 17320 bound_to 7965
  146.1173  140.7353  142.9474 LP  0  0  0  0  0  0  0  0  0  0  0  0  # atno 17321 bound_to 7965
  139.7992  143.8108  152.3161 LP  0  0  0  0  0  0  0  0  0  0  0  0  # atno 17342 bound_to 10162
  139.8119  144.7332  150.9686 LP  0  0  0  0  0  0  0  0  0  0  0  0  # atno 17343 bound_to 10162
  156.3680  130.7516  151.2496 LP  0  0  0  0  0  0  0  0  0  0  0  0  # atno 17370 bound_to 10713
  157.7495  131.0331  150.4257 LP  0  0  0  0  0  0  0  0  0  0  0  0  # atno 17371 bound_to 10713
  141.2222  133.6995  156.7912 LP  0  0  0  0  0  0  0  0  0  0  0  0  # atno 17394 bound_to 11000
  140.2279  134.8707  157.3446 LP  0  0  0  0  0  0  0  0  0  0  0  0  # atno 17395 bound_to 11000

$$$$
