#       Name:                AV-unprocessed.smi:2387
#       Creating user name   scv26
#       Creation time:       Fri Mar 27 13:09:57 2020


#       File generated by GOLD software.
#

@<TRIPOS>MOLECULE
AV-unprocessed.smi:2387
    52    54     1
SMALL
NO_CHARGES


@<TRIPOS>ATOM
      1 ****        -6.4864   3.3637  -0.8906 C.3            1 S1                 0.0000
      2 ****        -5.2136   2.5448  -0.8454 C.ar           1 S1                 0.0000
      3 ****        -3.9726   3.0981  -0.4671 C.ar           1 S1                 0.0000
      4 ****        -2.8262   2.2767  -0.4491 C.ar           1 S1                 0.0000
      5 ****        -2.9391   0.9126  -0.8206 C.ar           1 S1                 0.0000
      6 ****        -1.8505  -0.0016  -0.8234 N.am           1 S1                 0.0000
      7 ****        -0.5382   0.2670  -0.9364 C.2            1 S1                 0.0000
      8 ****        -0.0556   1.3907  -1.0734 O.2            1 S1                 0.0000
      9 ****         0.1947  -0.8598  -0.8938 N.am           1 S1                 0.0000
     10 ****         1.6587  -0.9849  -1.0180 C.3            1 S1                 0.0000
     11 ****         2.4196  -0.3977   0.2033 C.2            1 S1                 0.0000
     12 ****         3.6121  -0.1065   0.1026 O.2            1 S1                 0.0000
     13 ****         1.7413  -0.2439   1.3536 N.am           1 S1                 0.0000
     14 ****         2.2948   0.2831   2.5935 C.3            1 S1                 0.0000
     15 ****         3.1741  -0.6832   3.3642 C.3            1 S1                 0.0000
     16 ****         2.5883  -1.6174   4.3963 C.3            1 S1                 0.0000
     17 ****         3.4533  -0.4588   4.8315 C.3            1 S1                 0.0000
     18 ****         2.0146  -2.4919  -1.1655 C.3            1 S1                 0.0000
     19 ****         2.6156  -2.6914  -2.5603 C.3            1 S1                 0.0000
     20 ****         3.1708  -1.3271  -2.9419 C.3            1 S1                 0.0000
     21 ****         2.1545  -0.3526  -2.3508 C.3            1 S1                 0.0000
     22 ****        -4.2128   0.4167  -1.1729 C.ar           1 S1                 0.0000
     23 ****        -5.2860   1.2373  -1.1776 N.pl3          1 S1                 1.0000
     24 ****        -6.3011   4.3952  -0.5893 H              1 S1                 0.0000
     25 ****        -7.2344   2.9422  -0.2185 H              1 S1                 0.0000
     26 ****        -6.8961   3.3731  -1.9010 H              1 S1                 0.0000
     27 ****        -3.8957   4.1393  -0.1892 H              1 S1                 0.0000
     28 ****        -1.8868   2.7078  -0.1388 H              1 S1                 0.0000
     29 ****        -2.1025  -0.9789  -0.8017 H              1 S1                 0.0000
     30 ****        -0.3059  -1.7287  -0.7780 H              1 S1                 0.0000
     31 ****         0.7683  -0.5115   1.3664 H              1 S1                 0.0000
     32 ****         2.8699   1.1856   2.3812 H              1 S1                 0.0000
     33 ****         1.4640   0.5946   3.2271 H              1 S1                 0.0000
     34 ****         4.0106  -1.0716   2.7865 H              1 S1                 0.0000
     35 ****         1.5205  -1.5499   4.5945 H              1 S1                 0.0000
     36 ****         3.0129  -2.6167   4.4665 H              1 S1                 0.0000
     37 ****         4.4542  -0.6860   5.1927 H              1 S1                 0.0000
     38 ****         2.9601   0.3789   5.3204 H              1 S1                 0.0000
     39 ****         2.7491  -2.8074  -0.4218 H              1 S1                 0.0000
     40 ****         1.1516  -3.1450  -1.0260 H              1 S1                 0.0000
     41 ****         3.3744  -3.4739  -2.5824 H              1 S1                 0.0000
     42 ****         1.8286  -2.9725  -3.2613 H              1 S1                 0.0000
     43 ****         4.1461  -1.1785  -2.4768 H              1 S1                 0.0000
     44 ****         3.2908  -1.2076  -4.0189 H              1 S1                 0.0000
     45 ****         1.3300  -0.2523  -3.0585 H              1 S1                 0.0000
     46 ****         2.5776   0.6459  -2.2295 H              1 S1                 0.0000
     47 ****        -4.4061  -0.6073  -1.4583 H              1 S1                 0.0000
     48 ****        -6.1927   0.8523  -1.4439 H              1 S1                 0.0000
     49 ****        -0.6541   2.1911  -1.1078 LP             1 S1                 0.0000
     50 ****         0.9351   1.5034  -1.1503 LP             1 S1                 0.0000
     51 ****         4.0899  -0.2480  -0.7644 LP             1 S1                 0.0000
     52 ****         4.1026   0.2714   0.8879 LP             1 S1                 0.0000
@<TRIPOS>BOND
    1    1    2 1     
    2    1   24 1     
    3    1   25 1     
    4    1   26 1     
    5    2   23 ar    
    6    2    3 ar    
    7    3    4 ar    
    8    3   27 1     
    9    4    5 ar    
   10    4   28 1     
   11    5    6 1     
   12    5   22 ar    
   13    6    7 am    
   14    6   29 1     
   15    7    8 2     
   16    7    9 am    
   17    9   10 1     
   18    9   30 1     
   19   10   21 1     
   20   10   11 1     
   21   10   18 1     
   22   11   12 2     
   23   11   13 am    
   24   13   14 1     
   25   13   31 1     
   26   14   15 1     
   27   14   32 1     
   28   14   33 1     
   29   15   17 1     
   30   15   16 1     
   31   15   34 1     
   32   16   17 1     
   33   16   35 1     
   34   16   36 1     
   35   17   37 1     
   36   17   38 1     
   37   18   19 1     
   38   18   39 1     
   39   18   40 1     
   40   19   20 1     
   41   19   41 1     
   42   19   42 1     
   43   20   21 1     
   44   20   43 1     
   45   20   44 1     
   46   21   45 1     
   47   21   46 1     
   48   22   23 ar    
   49   22   47 1     
   50   23   48 1     
   51    8   49 1     
   52    8   50 1     
   53   12   51 1     
   54   12   52 1     
@<TRIPOS>SUBSTRUCTURE
      1 S1             1
@<TRIPOS>SET
LONE_PAIRS      STATIC     ATOMS    <user>   **** ""
4 49 50 51 52
DONOR_HYDROGENS      STATIC     ATOMS    <user>   **** ""
4 29 30 31 48
ATOM$BLUE        STATIC     ATOMS    COLORGROUP SYSTEM
4 49 50 51 52
ATOM$RED        STATIC     ATOMS    COLORGROUP SYSTEM
4 29 30 31 48
