#       Name:                AV-unprocessed.smi:265
#       Creating user name   scv26
#       Creation time:       Thu Mar 26 21:22:36 2020


#       File generated by GOLD software.
#

@<TRIPOS>MOLECULE
AV-unprocessed.smi:265
    64    68     1
SMALL
NO_CHARGES


@<TRIPOS>ATOM
      1 ****        -1.9152  -2.3854  -5.9369 C.3            1 S1                 0.0000
      2 ****        -2.8991  -1.6396  -5.0220 C.3            1 S1                 0.0000
      3 ****        -3.8203  -2.6043  -4.5172 O.3            1 S1                 0.0000
      4 ****        -4.2086  -2.2349  -3.2058 C.3            1 S1                 0.0000
      5 ****        -2.9092  -1.7123  -2.6131 C.3            1 S1                 0.0000
      6 ****        -2.2950  -0.9357  -3.7738 C.3            1 S1                 0.0000
      7 ****        -2.8117   0.3844  -3.7336 O.3            1 S1                 0.0000
      8 ****        -0.7474  -0.8420  -3.7159 C.3            1 S1                 0.0000
      9 ****        -0.2500  -0.2036  -2.5062 N.pl3          1 S1                 0.0000
     10 ****        -0.0602   1.1452  -2.3058 C.2            1 S1                 0.0000
     11 ****         0.3999   1.4740  -1.1298 N.2            1 S1                 0.0000
     12 ****         0.5436   0.2597  -0.4685 C.ar           1 S1                 0.0000
     13 ****         0.9977  -0.1158   0.8280 C.ar           1 S1                 0.0000
     14 ****         1.3991   0.7898   1.7564 N.3            1 S1                 0.0000
     15 ****         0.3622   1.7255   2.1858 C.3            1 S1                 0.0000
     16 ****         0.9866   2.9547   2.8627 C.3            1 S1                 0.0000
     17 ****         1.9311   2.5578   4.0091 C.3            1 S1                 0.0000
     18 ****         1.1906   1.9974   5.0857 O.3            1 S1                 0.0000
     19 ****         1.9680   1.7686   6.2625 C.3            1 S1                 0.0000
     20 ****         3.2812   1.0221   5.9615 C.2            1 S1                 0.0000
     21 ****         3.9129   0.5001   6.8773 O.2            1 S1                 0.0000
     22 ****         3.7212   1.0021   4.6930 N.am           1 S1                 0.0000
     23 ****         2.9616   1.5025   3.5518 C.3            1 S1                 0.0000
     24 ****         2.2831   0.3230   2.8251 C.3            1 S1                 0.0000
     25 ****         1.0212  -1.4441   1.1203 N.ar           1 S1                 0.0000
     26 ****         0.6232  -2.3428   0.2153 C.ar           1 S1                 0.0000
     27 ****         0.1727  -2.1359  -1.0232 N.ar           1 S1                 0.0000
     28 ****         0.1500  -0.8067  -1.3260 C.ar           1 S1                 0.0000
     29 ****         2.4418   3.4552   4.3639 H              1 S1                 0.0000
     30 ****         3.6635   1.9759   2.8643 H              1 S1                 0.0000
     31 ****        -1.1818  -1.7070  -6.3730 H              1 S1                 0.0000
     32 ****        -2.4450  -2.8633  -6.7611 H              1 S1                 0.0000
     33 ****        -1.3809  -3.1669  -5.3962 H              1 S1                 0.0000
     34 ****        -3.4600  -0.9262  -5.6288 H              1 S1                 0.0000
     35 ****        -4.9658  -1.4507  -3.2514 H              1 S1                 0.0000
     36 ****        -4.6167  -3.0809  -2.6527 H              1 S1                 0.0000
     37 ****        -3.0552  -1.1188  -1.7095 H              1 S1                 0.0000
     38 ****        -2.2774  -2.5627  -2.3545 H              1 S1                 0.0000
     39 ****        -2.5520   0.7818  -2.9166 H              1 S1                 0.0000
     40 ****        -0.3004  -1.8347  -3.7743 H              1 S1                 0.0000
     41 ****        -0.3690  -0.2824  -4.5724 H              1 S1                 0.0000
     42 ****        -0.2785   1.8831  -3.0643 H              1 S1                 0.0000
     43 ****        -0.2574   2.0508   1.3510 H              1 S1                 0.0000
     44 ****        -0.3021   1.2141   2.8839 H              1 S1                 0.0000
     45 ****         1.5467   3.5228   2.1189 H              1 S1                 0.0000
     46 ****         0.2042   3.6182   3.2321 H              1 S1                 0.0000
     47 ****         2.2047   2.7237   6.7328 H              1 S1                 0.0000
     48 ****         1.3733   1.1966   6.9750 H              1 S1                 0.0000
     49 ****         4.6006   0.5457   4.4990 H              1 S1                 0.0000
     50 ****         1.6971  -0.2666   3.5323 H              1 S1                 0.0000
     51 ****         3.0494  -0.3369   2.4151 H              1 S1                 0.0000
     52 ****         0.6723  -3.3753   0.5287 H              1 S1                 0.0000
     53 ****        -3.3845  -3.5041  -4.4961 LP             1 S1                 0.0000
     54 ****        -4.6265  -2.6381  -5.1078 LP             1 S1                 0.0000
     55 ****        -3.8095   0.3585  -3.7943 LP             1 S1                 0.0000
     56 ****        -2.4449   0.9141  -4.4984 LP             1 S1                 0.0000
     57 ****         0.6027   2.3900  -0.7835 LP             1 S1                 0.0000
     58 ****         2.0364   1.3389   1.2158 LP             1 S1                 0.0000
     59 ****         0.8092   1.1233   4.7849 LP             1 S1                 0.0000
     60 ****         0.4463   2.6241   5.3164 LP             1 S1                 0.0000
     61 ****         3.5742   0.5604   7.8163 LP             1 S1                 0.0000
     62 ****         4.7657   0.0151   6.6836 LP             1 S1                 0.0000
     63 ****         1.3383  -1.7498   2.0181 LP             1 S1                 0.0000
     64 ****        -0.1117  -2.8622  -1.6489 LP             1 S1                 0.0000
@<TRIPOS>BOND
    1    1    2 1     
    2    1   31 1     
    3    1   32 1     
    4    1   33 1     
    5    2    6 1     
    6    2    3 1     
    7    2   34 1     
    8    3    4 1     
    9    4    5 1     
   10    4   35 1     
   11    4   36 1     
   12    5    6 1     
   13    5   37 1     
   14    5   38 1     
   15    6    7 1     
   16    6    8 1     
   17    7   39 1     
   18    8    9 1     
   19    8   40 1     
   20    8   41 1     
   21    9   28 1     
   22    9   10 1     
   23   10   11 2     
   24   10   42 1     
   25   11   12 1     
   26   12   28 ar    
   27   12   13 ar    
   28   13   14 1     
   29   13   25 ar    
   30   14   24 1     
   31   14   15 1     
   32   15   16 1     
   33   15   43 1     
   34   15   44 1     
   35   16   17 1     
   36   16   45 1     
   37   16   46 1     
   38   17   29 1     
   39   17   23 1     
   40   17   18 1     
   41   18   19 1     
   42   19   20 1     
   43   19   47 1     
   44   19   48 1     
   45   20   21 2     
   46   20   22 am    
   47   22   23 1     
   48   22   49 1     
   49   23   30 1     
   50   23   24 1     
   51   24   50 1     
   52   24   51 1     
   53   25   26 ar    
   54   26   27 ar    
   55   26   52 1     
   56   27   28 ar    
   57    3   53 1     
   58    3   54 1     
   59    7   55 1     
   60    7   56 1     
   61   11   57 1     
   62   14   58 1     
   63   18   59 1     
   64   18   60 1     
   65   21   61 1     
   66   21   62 1     
   67   25   63 1     
   68   27   64 1     
@<TRIPOS>SUBSTRUCTURE
      1 S1             1
@<TRIPOS>SET
LONE_PAIRS      STATIC     ATOMS    <user>   **** ""
12 53 54 55 56 57 58 59 60 61 62 63 64
DONOR_HYDROGENS      STATIC     ATOMS    <user>   **** ""
2 39 49
ATOM$BLUE        STATIC     ATOMS    COLORGROUP SYSTEM
12 53 54 55 56 57 58 59 60 61 62 63 64
ATOM$RED        STATIC     ATOMS    COLORGROUP SYSTEM
2 39 49
