AV-unprocessed.smi:3338|AV-procd|sdf|12872|dock1
  -GOLD-   2272019273D 1   1.00000     0.00000
 Structure written by MMmdl.
 44 45  0  0  0  0  0  0  0  0  2 V2000
  146.1386  132.3264  151.3533 C   0  0  0  0  0  0  0  0  0  0  0  0
  146.3997  133.8188  151.6006 C   0  0  1  0  0  0  0  0  0  0  0  0
  145.2906  134.6926  150.9913 C   0  0  0  0  0  0  0  0  0  0  0  0
  145.5693  136.1744  151.2717 C   0  0  0  0  0  0  0  0  0  0  0  0
  145.7491  136.4248  152.7773 C   0  0  0  0  0  0  0  0  0  0  0  0
  146.8274  135.5697  153.3379 N   0  3  1  0  0  0  0  0  0  0  0  0
  147.1137  135.8910  154.7589 C   0  0  0  0  0  0  0  0  0  0  0  0
  148.5885  135.6474  155.1336 C   0  0  0  0  0  0  0  0  0  0  0  0
  149.4267  136.7841  154.7719 N   0  0  0  0  0  0  0  0  0  0  0  0
  150.7364  136.8927  155.0495 C   0  0  0  0  0  0  0  0  0  0  0  0
  151.3703  136.0086  155.6273 O   0  0  0  0  0  0  0  0  0  0  0  0
  151.4269  138.1908  154.5946 C   0  0  2  0  0  0  0  0  0  0  0  0
  152.9553  138.1658  154.8011 C   0  0  0  0  0  0  0  0  0  0  0  0
  150.8164  139.3528  155.2314 N   0  0  0  0  0  0  0  0  0  0  0  0
  150.6557  139.5964  156.5805 C   0  0  0  0  0  0  0  0  0  0  0  0
  150.0572  140.8168  156.7092 C   0  0  0  0  0  0  0  0  0  0  0  0
  149.8924  141.2559  155.3663 C   0  0  0  0  0  0  0  0  0  0  0  0
  150.3512  140.3821  154.4854 N   0  0  0  0  0  0  0  0  0  0  0  0
  146.5552  134.1256  153.1037 C   0  0  0  0  0  0  0  0  0  0  0  0
  145.2076  132.0029  151.8198 H   0  0  0  0  0  0  0  0  0  0  0  0
  146.9446  131.7136  151.7581 H   0  0  0  0  0  0  0  0  0  0  0  0
  146.0682  132.1127  150.2862 H   0  0  0  0  0  0  0  0  0  0  0  0
  147.3390  134.0721  151.1066 H   0  0  0  0  0  0  0  0  0  0  0  0
  145.2219  134.5247  149.9159 H   0  0  0  0  0  0  0  0  0  0  0  0
  144.3232  134.4155  151.4132 H   0  0  0  0  0  0  0  0  0  0  0  0
  146.4679  136.4865  150.7377 H   0  0  0  0  0  0  0  0  0  0  0  0
  144.7527  136.7859  150.8868 H   0  0  0  0  0  0  0  0  0  0  0  0
  145.9896  137.4768  152.9358 H   0  0  0  0  0  0  0  0  0  0  0  0
  144.8150  136.2297  153.3066 H   0  0  0  0  0  0  0  0  0  0  0  0
  146.8854  136.9432  154.9347 H   0  0  0  0  0  0  0  0  0  0  0  0
  146.4485  135.3202  155.4088 H   0  0  0  0  0  0  0  0  0  0  0  0
  148.6991  135.4966  156.2066 H   0  0  0  0  0  0  0  0  0  0  0  0
  148.9619  134.7414  154.6529 H   0  0  0  0  0  0  0  0  0  0  0  0
  148.9770  137.5537  154.2969 H   0  0  0  0  0  0  0  0  0  0  0  0
  151.2488  138.2817  153.5219 H   0  0  0  0  0  0  0  0  0  0  0  0
  153.4117  137.3279  154.2728 H   0  0  0  0  0  0  0  0  0  0  0  0
  153.2239  138.0783  155.8546 H   0  0  0  0  0  0  0  0  0  0  0  0
  153.4133  139.0785  154.4190 H   0  0  0  0  0  0  0  0  0  0  0  0
  150.9771  138.8881  157.3301 H   0  0  0  0  0  0  0  0  0  0  0  0
  149.7806  141.3206  157.6235 H   0  0  0  0  0  0  0  0  0  0  0  0
  149.4593  142.1780  155.0076 H   0  0  0  0  0  0  0  0  0  0  0  0
  145.6535  133.8338  153.6452 H   0  0  0  0  0  0  0  0  0  0  0  0
  147.3693  133.5212  153.5017 H   0  0  0  0  0  0  0  0  0  0  0  0
  147.6634  135.8003  152.8200 H   0  0  0  0  0  0  0  0  0  0  0  0
  1  2  1  0  0  0  0
  1 20  1  0  0  0  0
  1 21  1  0  0  0  0
  1 22  1  0  0  0  0
  2 19  1  0  0  0  0
  2  3  1  0  0  0  0
  2 23  1  0  0  0  0
  3  4  1  0  0  0  0
  3 24  1  0  0  0  0
  3 25  1  0  0  0  0
  4  5  1  0  0  0  0
  4 26  1  0  0  0  0
  4 27  1  0  0  0  0
  5  6  1  0  0  0  0
  5 28  1  0  0  0  0
  5 29  1  0  0  0  0
  6  7  1  0  0  0  0
  6 19  1  0  0  0  0
  6 44  1  0  0  0  0
  7  8  1  0  0  0  0
  7 30  1  0  0  0  0
  7 31  1  0  0  0  0
  8  9  1  0  0  0  0
  8 32  1  0  0  0  0
  8 33  1  0  0  0  0
  9 10  1  0  0  0  0
  9 34  1  0  0  0  0
 10 11  2  0  0  0  0
 10 12  1  0  0  0  0
 12 13  1  0  0  0  0
 12 14  1  0  0  0  0
 12 35  1  0  0  0  0
 13 36  1  0  0  0  0
 13 37  1  0  0  0  0
 13 38  1  0  0  0  0
 14 18  1  0  0  0  0
 14 15  1  0  0  0  0
 15 16  2  0  0  0  0
 15 39  1  0  0  0  0
 16 17  1  0  0  0  0
 16 40  1  0  0  0  0
 17 18  2  0  0  0  0
 17 41  1  0  0  0  0
 19 42  1  0  0  0  0
 19 43  1  0  0  0  0
M  CHG  1   6   1
M  END
> <s_m_source_file>
AV-unprocessed.smi

> <i_m_source_file_index>
3338

> <i_lp_mmshare_version>
43012

> <i_f3d_flags>
0

> <s_epik_input>
W0NIM11bQ0BASF0xW0NIMl1bQ0gyXVtDSDJdTihbQ0gyXTEpW0NIMl1bQ0gyXVtOSF1DKD1PKVtDQEhdKFtDSDNdKW4yW2NIXVtjSF1bY0hdbjI=

> <s_epik_cmdline>
J2VwaWtfcHl0aG9uJywgJy1waCcsICc3LjAnLCAnLXRuJywgJzgnLCAnLW1hJywgJzIwMCcsICctbWV0YWxfYmluZGluZycsICctaW1hZScsICc8aW5maWxlLm1hZT4nLCAnLW9tYWUnLCAnPG91dGZpbGUubWFlPic=

> <r_lp_tautomer_probability>
1

> <r_epik_Ionization_Penalty>
0.00225707

> <r_epik_Ionization_Penalty_Charging>
0.00223709

> <r_epik_Ionization_Penalty_Neutral>
1.99775e-05

> <r_epik_State_Penalty>
0.00153978

> <r_epik_Charging_Adjusted_Penalty>
0.00377687

> <i_epik_Tot_Q>
1

> <i_epik_Tot_abs_Q>
1

> <r_epik_Metal_State_Penalty>
-0

> <b_epik_Metal_Only>
0

> <s_lp_Force_Field>
OPLS_2005

> <r_lp_Energy>
19.9397

> <b_lp_Chiralities_Consistent>
1

> <s_lp_Variant>
AV-unprocessed.smi:3338-4

> <Gold.Version>
5.8.1

> <Gold.Id.Protein>
6NUR|6NUR_protein|mol2

> <Gold.PLP.Fitness>
47.5214

> <Gold.PLP.PLP>
-34.1382

> <Gold.PLP.part.hbond>
-4.0000

> <Gold.PLP.part.metal>
0.0000

> <Gold.PLP.part.buried>
-3.7988

> <Gold.PLP.part.nonpolar>
-27.5615

> <Gold.PLP.part.repulsive>
0.2175

> <Gold.PLP.ligand.clash>
0.0000

> <Gold.PLP.ligand.torsion>
0.6536

> <Gold.PLP.Chemscore.Hbond>
3.8512

> <Gold.PLP.Chemscore.CHOScore>
1.0000

> <Gold.PLP.Chemscore.Metal>
0.0000

> <Gold.Chemscore.Hbonds>
donor molecule, donor type, donor heavy atom, donor atom, acceptor molecule, acceptor atom, score
      L1  H     6    44       P1  7948  2.00
      P1  H  7989  7998       L1    18  1.00
      P1  H 10752 10764       L1    11  1.00
      L1  C    17    41       P1  8028  0.63

> <Gold.PLP.Chemscore.Internal.Correction>
0.1369

> <Gold.Rescore>
     Score         DG    S(hbond)    S(metal)    S(lipo)     H(rot)  DE(clash)    DE(int)     intcor
     17.26     -18.50       2.82        0.00      69.29       1.76       0.28       0.95       ----

> <Gold.Chemscore.Fitness>
17.2627

> <Gold.Chemscore.DG>
-18.4960

> <Gold.Chemscore.ZeroCoef>
-5.4800

> <Gold.Chemscore.Hbond>
2.8166

> <Gold.Chemscore.Metal>
0.0000

> <Gold.Chemscore.Lipo>
69.2872

> <Gold.Chemscore.Internal_Hbond>
0.0000

> <Gold.Chemscore.DEClash>
0.2843

> <Gold.Chemscore.DEInternal>
0.9491

> <Gold.Chemscore.Rot>
1.7570

> <Gold.Chemscore.Internal.Correction>
   9.000000E+99

> <Gold.Chemscore.Hbonds>
donor molecule, donor type, donor heavy atom, donor atom, acceptor molecule, acceptor atom, score
      L1  H     6    44       P1  7948  1.00
      P1  H  7989  7998       L1    18  0.54
      P1  H 10752 10764       L1    11  0.97

> <Gold.Chemscore.Hbond.Weighted>
-9.4073

> <Gold.Chemscore.Metal.Weighted>
-0.0000

> <Gold.Chemscore.Lipo.Weighted>
-8.1066

> <Gold.Chemscore.Internal_Hbond.Weighted>
0.0000

> <Gold.Chemscore.DEClash.Weighted>
0.2843

> <Gold.Chemscore.DEInternal.Weighted>
0.9491

> <Gold.Chemscore.Rot.Weighted>
4.4979

> <Gold.Chemscore.Internal.Correction.Weighted>
   9.000000E+99

> <Gold.Protein.RotatedTorsions>
[ 6907 6896 6895 6894 ] final -126.41 input  -60.11 | X-H torsion
[ 7974 7965 7964 7962 ] final  -65.15 input  175.53 | X-H torsion
[ 8008 7997 7996 7995 ] final -170.96 input   59.86 | X-H torsion
[ 10167 10162 10161 10158 ] final  -27.81 input  -65.29 | X-H torsion
[ 10718 10713 10712 10709 ] final -134.43 input   66.30 | X-H torsion
[ 10763 10752 10751 10750 ] final  -33.59 input  -60.55 | X-H torsion
[ 11005 11000 10999 10996 ] final  -12.57 input  -57.11 | X-H torsion

> <Gold.Protein.ActiveResidues>
 VAL166  LYS551  ARG553  GLY616  TRP617  ASP618  TYR619  PRO620  LYS621  CYS622 
 ASP623  PHE694  ASN695  SER759  ASP760  ASP761  ALA762  ILE779  LEU786  VAL792 
 PHE793  MET794  SER795  GLU796  ALA797  LYS798  CYS799  TRP800  GLU811  SER814 

> <Gold.Protein.RotatedAtoms>
  150.8966  133.7172  159.2889 H   0  0  0  0  0  0  0  0  0  0  0  0  # atno 6907 bound_to 6896
  151.4705  135.1044  159.9759 H   0  0  0  0  0  0  0  0  0  0  0  0  # atno 6908 bound_to 6896
  152.4852  133.8308  159.7157 H   0  0  0  0  0  0  0  0  0  0  0  0  # atno 6909 bound_to 6896
  145.7579  140.8876  143.0445 H   0  0  0  0  0  0  0  0  0  0  0  0  # atno 7974 bound_to 7965
  155.9252  140.1081  157.1176 H   0  0  0  0  0  0  0  0  0  0  0  0  # atno 8008 bound_to 7997
  154.4061  140.1248  156.4796 H   0  0  0  0  0  0  0  0  0  0  0  0  # atno 8009 bound_to 7997
  155.7147  140.3470  155.4991 H   0  0  0  0  0  0  0  0  0  0  0  0  # atno 8010 bound_to 7997
  140.7274  143.4062  151.1182 H   0  0  0  0  0  0  0  0  0  0  0  0  # atno 10167 bound_to 10162
  156.2554  130.7178  151.1092 H   0  0  0  0  0  0  0  0  0  0  0  0  # atno 10718 bound_to 10713
  153.8327  135.6864  153.4812 H   0  0  0  0  0  0  0  0  0  0  0  0  # atno 10763 bound_to 10752
  153.1501  135.4621  154.9622 H   0  0  0  0  0  0  0  0  0  0  0  0  # atno 10764 bound_to 10752
  154.7879  135.3291  154.7789 H   0  0  0  0  0  0  0  0  0  0  0  0  # atno 10765 bound_to 10752
  140.7671  133.8468  155.9175 H   0  0  0  0  0  0  0  0  0  0  0  0  # atno 11005 bound_to 11000
  144.6836  139.9682  143.7481 LP  0  0  0  0  0  0  0  0  0  0  0  0  # atno 17320 bound_to 7965
  146.0293  139.3320  143.0765 LP  0  0  0  0  0  0  0  0  0  0  0  0  # atno 17321 bound_to 7965
  139.7689  143.8524  152.3116 LP  0  0  0  0  0  0  0  0  0  0  0  0  # atno 17342 bound_to 10162
  139.8436  144.7198  150.9301 LP  0  0  0  0  0  0  0  0  0  0  0  0  # atno 17343 bound_to 10162
  157.7230  131.0669  150.6053 LP  0  0  0  0  0  0  0  0  0  0  0  0  # atno 17370 bound_to 10713
  156.6136  130.4387  149.5849 LP  0  0  0  0  0  0  0  0  0  0  0  0  # atno 17371 bound_to 10713
  140.9609  134.1657  157.4655 LP  0  0  0  0  0  0  0  0  0  0  0  0  # atno 17394 bound_to 11000
  139.8761  134.9944  156.5692 LP  0  0  0  0  0  0  0  0  0  0  0  0  # atno 17395 bound_to 11000

$$$$
