AV-unprocessed.smi:2144|AV-procd|sdf|8730|dock2
  -GOLD-   2272011493D 1   1.00000     0.00000
 Structure written by MMmdl.
 40 42  0  0  0  0  0  0  0  0  1 V2000
  151.1093  140.7545  154.9992 O   0  0  0  0  0  0  0  0  0  0  0  0
  151.1621  139.8371  156.0696 C   0  0  0  0  0  0  0  0  0  0  0  0
  151.7428  140.4296  157.3177 C   0  0  0  0  0  0  0  0  0  0  0  0
  152.7544  139.8460  157.9616 N   0  0  0  0  0  0  0  0  0  0  0  0
  152.9866  140.7101  159.0130 C   0  0  0  0  0  0  0  0  0  0  0  0
  153.9393  140.6531  160.0553 C   0  0  0  0  0  0  0  0  0  0  0  0
  153.9944  141.6722  161.0285 C   0  0  0  0  0  0  0  0  0  0  0  0
  153.1004  142.7610  160.9730 C   0  0  0  0  0  0  0  0  0  0  0  0
  152.1422  142.8358  159.9439 C   0  0  0  0  0  0  0  0  0  0  0  0
  152.0892  141.8142  158.9767 C   0  0  0  0  0  0  0  0  0  0  0  0
  151.2849  141.5861  157.8640 N   0  0  0  0  0  0  0  0  0  0  0  0
  150.2020  142.4484  157.4060 C   0  0  0  0  0  0  0  0  0  0  0  0
  148.9491  141.6569  156.9772 C   0  0  2  0  0  0  0  0  0  0  0  0
  148.4795  142.1309  155.7316 O   0  0  0  0  0  0  0  0  0  0  0  0
  147.8097  141.7692  158.0001 C   0  0  0  0  0  0  0  0  0  0  0  0
  147.9268  143.0122  158.6796 O   0  0  0  0  0  0  0  0  0  0  0  0
  146.9798  143.3319  159.6289 C   0  0  0  0  0  0  0  0  0  0  0  0
  145.7210  142.6887  159.7451 C   0  0  0  0  0  0  0  0  0  0  0  0
  144.8108  143.0783  160.7469 C   0  0  0  0  0  0  0  0  0  0  0  0
  145.1443  144.1109  161.6423 C   0  0  0  0  0  0  0  0  0  0  0  0
  146.3905  144.7549  161.5345 C   0  0  0  0  0  0  0  0  0  0  0  0
  147.3016  144.3665  160.5334 C   0  0  0  0  0  0  0  0  0  0  0  0
  148.4982  144.9945  160.4402 F   0  0  0  0  0  0  0  0  0  0  0  0
  150.7577  141.5704  155.3205 H   0  0  0  0  0  0  0  0  0  0  0  0
  150.1492  139.4893  156.2748 H   0  0  0  0  0  0  0  0  0  0  0  0
  151.7343  138.9576  155.7750 H   0  0  0  0  0  0  0  0  0  0  0  0
  154.6302  139.8246  160.1045 H   0  0  0  0  0  0  0  0  0  0  0  0
  154.7272  141.6189  161.8204 H   0  0  0  0  0  0  0  0  0  0  0  0
  153.1507  143.5390  161.7207 H   0  0  0  0  0  0  0  0  0  0  0  0
  151.4569  143.6690  159.8984 H   0  0  0  0  0  0  0  0  0  0  0  0
  149.9516  143.1262  158.2228 H   0  0  0  0  0  0  0  0  0  0  0  0
  150.5453  143.0788  156.5871 H   0  0  0  0  0  0  0  0  0  0  0  0
  149.2023  140.6043  156.8484 H   0  0  0  0  0  0  0  0  0  0  0  0
  148.7773  143.0207  155.6179 H   0  0  0  0  0  0  0  0  0  0  0  0
  146.8452  141.6908  157.4955 H   0  0  0  0  0  0  0  0  0  0  0  0
  147.8820  140.9545  158.7229 H   0  0  0  0  0  0  0  0  0  0  0  0
  145.4293  141.8918  159.0782 H   0  0  0  0  0  0  0  0  0  0  0  0
  143.8544  142.5830  160.8280 H   0  0  0  0  0  0  0  0  0  0  0  0
  144.4455  144.4083  162.4104 H   0  0  0  0  0  0  0  0  0  0  0  0
  146.6491  145.5480  162.2204 H   0  0  0  0  0  0  0  0  0  0  0  0
  1  2  1  0  0  0  0
  1 24  1  0  0  0  0
  2  3  1  0  0  0  0
  2 25  1  0  0  0  0
  2 26  1  0  0  0  0
  3 11  1  0  0  0  0
  3  4  2  0  0  0  0
  4  5  1  0  0  0  0
  5 10  2  0  0  0  0
  5  6  1  0  0  0  0
  6  7  2  0  0  0  0
  6 27  1  0  0  0  0
  7  8  1  0  0  0  0
  7 28  1  0  0  0  0
  8  9  2  0  0  0  0
  8 29  1  0  0  0  0
  9 10  1  0  0  0  0
  9 30  1  0  0  0  0
 10 11  1  0  0  0  0
 11 12  1  0  0  0  0
 12 13  1  0  0  0  0
 12 31  1  0  0  0  0
 12 32  1  0  0  0  0
 13 14  1  0  0  0  0
 13 15  1  0  0  0  0
 13 33  1  0  0  0  0
 14 34  1  0  0  0  0
 15 16  1  0  0  0  0
 15 35  1  0  0  0  0
 15 36  1  0  0  0  0
 16 17  1  0  0  0  0
 17 22  1  0  0  0  0
 17 18  2  0  0  0  0
 18 19  1  0  0  0  0
 18 37  1  0  0  0  0
 19 20  2  0  0  0  0
 19 38  1  0  0  0  0
 20 21  1  0  0  0  0
 20 39  1  0  0  0  0
 21 22  2  0  0  0  0
 21 40  1  0  0  0  0
 22 23  1  0  0  0  0
M  END
> <s_m_source_file>
AV-unprocessed.smi

> <i_m_source_file_index>
2144

> <i_lp_mmshare_version>
43012

> <i_f3d_flags>
0

> <s_epik_input>
W2NIXTFbY0hdW2NIXVtjSF1jKGMxMiluKGMobjIpW0NIMl1bT0hdKVtDSDJdW0NASF0oW09IXSlbQ0gyXU9jM1tjSF1bY0hdW2NIXVtjSF1jM0Y=

> <s_epik_cmdline>
J2VwaWtfcHl0aG9uJywgJy1waCcsICc3LjAnLCAnLXRuJywgJzgnLCAnLW1hJywgJzIwMCcsICctbWV0YWxfYmluZGluZycsICctaW1hZScsICc8aW5maWxlLm1hZT4nLCAnLW9tYWUnLCAnPG91dGZpbGUubWFlPic=

> <r_lp_tautomer_probability>
1

> <r_epik_Ionization_Penalty>
0.0547315

> <r_epik_Ionization_Penalty_Charging>
0

> <r_epik_Ionization_Penalty_Neutral>
0.0547315

> <r_epik_State_Penalty>
0.047032

> <r_epik_Charging_Adjusted_Penalty>
0.047032

> <i_epik_Tot_Q>
0

> <i_epik_Tot_abs_Q>
0

> <r_epik_Metal_State_Penalty>
4.89471e-05

> <b_epik_Metal_Only>
0

> <s_lp_Force_Field>
OPLS_2005

> <r_lp_Energy>
15.0425

> <b_lp_Chiralities_Consistent>
1

> <s_lp_Variant>
AV-unprocessed.smi:2144-1

> <Gold.Version>
5.8.1

> <Gold.Id.Protein>
6NUR|6NUR_protein|mol2

> <Gold.PLP.Fitness>
49.3204

> <Gold.PLP.PLP>
-43.5899

> <Gold.PLP.part.hbond>
-2.8592

> <Gold.PLP.part.metal>
0.0000

> <Gold.PLP.part.buried>
-5.7947

> <Gold.PLP.part.nonpolar>
-35.2965

> <Gold.PLP.part.repulsive>
0.1653

> <Gold.PLP.ligand.clash>
0.0000

> <Gold.PLP.ligand.torsion>
1.5807

> <Gold.PLP.Chemscore.Hbond>
2.8713

> <Gold.PLP.Chemscore.CHOScore>
0.0000

> <Gold.PLP.Chemscore.Metal>
0.0000

> <Gold.Chemscore.Hbonds>
donor molecule, donor type, donor heavy atom, donor atom, acceptor molecule, acceptor atom, score
      L1  H    14    34       P1  8028  1.00
      P1  H  7989  7998       L1     1  0.85
      P1  H  7997  8010       L1     4  0.96

> <Gold.PLP.Chemscore.Internal.Correction>
0.2781

> <Gold.Rescore>
     Score         DG    S(hbond)    S(metal)    S(lipo)     H(rot)  DE(clash)    DE(int)     intcor
     13.71     -16.82       2.22        0.00     104.00       3.22       0.88       2.24       ----

> <Gold.Chemscore.Fitness>
13.7063

> <Gold.Chemscore.DG>
-16.8178

> <Gold.Chemscore.ZeroCoef>
-5.4800

> <Gold.Chemscore.Hbond>
2.2190

> <Gold.Chemscore.Metal>
0.0000

> <Gold.Chemscore.Lipo>
104.0048

> <Gold.Chemscore.Internal_Hbond>
0.0000

> <Gold.Chemscore.DEClash>
0.8765

> <Gold.Chemscore.DEInternal>
2.2350

> <Gold.Chemscore.Rot>
3.2196

> <Gold.Chemscore.Internal.Correction>
   9.000000E+99

> <Gold.Chemscore.Hbonds>
donor molecule, donor type, donor heavy atom, donor atom, acceptor molecule, acceptor atom, score
      L1  H    14    34       P1  8028  1.00
      P1  H  7989  7998       L1     1  0.64
      P1  H  7997  8010       L1     4  0.20

> <Gold.Chemscore.Hbond.Weighted>
-7.4114

> <Gold.Chemscore.Metal.Weighted>
-0.0000

> <Gold.Chemscore.Lipo.Weighted>
-12.1686

> <Gold.Chemscore.Internal_Hbond.Weighted>
0.0000

> <Gold.Chemscore.DEClash.Weighted>
0.8765

> <Gold.Chemscore.DEInternal.Weighted>
2.2350

> <Gold.Chemscore.Rot.Weighted>
8.2422

> <Gold.Chemscore.Internal.Correction.Weighted>
   9.000000E+99

> <Gold.Protein.RotatedTorsions>
[ 6907 6896 6895 6894 ] final  -54.72 input  -60.11 | X-H torsion
[ 7974 7965 7964 7962 ] final   -7.50 input  175.53 | X-H torsion
[ 8008 7997 7996 7995 ] final   44.25 input   59.86 | X-H torsion
[ 10167 10162 10161 10158 ] final -112.97 input  -65.29 | X-H torsion
[ 10718 10713 10712 10709 ] final   81.90 input   66.30 | X-H torsion
[ 10763 10752 10751 10750 ] final  -44.52 input  -60.55 | X-H torsion
[ 11005 11000 10999 10996 ] final  140.14 input  -57.11 | X-H torsion

> <Gold.Protein.ActiveResidues>
 VAL166  LYS551  ARG553  GLY616  TRP617  ASP618  TYR619  PRO620  LYS621  CYS622 
 ASP623  PHE694  ASN695  SER759  ASP760  ASP761  ALA762  ILE779  LEU786  VAL792 
 PHE793  MET794  SER795  GLU796  ALA797  LYS798  CYS799  TRP800  GLU811  SER814 

> <Gold.Protein.RotatedAtoms>
  150.8313  134.7567  159.6855 H   0  0  0  0  0  0  0  0  0  0  0  0  # atno 6907 bound_to 6896
  152.4417  134.5574  159.9894 H   0  0  0  0  0  0  0  0  0  0  0  0  # atno 6908 bound_to 6896
  151.5734  133.3349  159.3030 H   0  0  0  0  0  0  0  0  0  0  0  0  # atno 6909 bound_to 6896
  146.2305  140.2328  142.8341 H   0  0  0  0  0  0  0  0  0  0  0  0  # atno 7974 bound_to 7965
  155.3161  140.3394  155.4242 H   0  0  0  0  0  0  0  0  0  0  0  0  # atno 8008 bound_to 7997
  156.1932  140.1705  156.8089 H   0  0  0  0  0  0  0  0  0  0  0  0  # atno 8009 bound_to 7997
  154.5467  140.0714  156.8584 H   0  0  0  0  0  0  0  0  0  0  0  0  # atno 8010 bound_to 7997
  140.1169  143.4478  152.1716 H   0  0  0  0  0  0  0  0  0  0  0  0  # atno 10167 bound_to 10162
  157.6844  131.0024  150.2295 H   0  0  0  0  0  0  0  0  0  0  0  0  # atno 10718 bound_to 10713
  154.0134  135.6678  153.4767 H   0  0  0  0  0  0  0  0  0  0  0  0  # atno 10763 bound_to 10752
  153.0611  135.5027  154.8091 H   0  0  0  0  0  0  0  0  0  0  0  0  # atno 10764 bound_to 10752
  154.6981  135.3073  154.9345 H   0  0  0  0  0  0  0  0  0  0  0  0  # atno 10765 bound_to 10752
  140.0305  134.9354  157.0653 H   0  0  0  0  0  0  0  0  0  0  0  0  # atno 11005 bound_to 11000
  144.9544  140.8212  143.5552 LP  0  0  0  0  0  0  0  0  0  0  0  0  # atno 17320 bound_to 7965
  145.2292  139.2122  143.5052 LP  0  0  0  0  0  0  0  0  0  0  0  0  # atno 17321 bound_to 7965
  139.5589  144.7392  151.4212 LP  0  0  0  0  0  0  0  0  0  0  0  0  # atno 17342 bound_to 10162
  140.6894  143.7897  150.7233 LP  0  0  0  0  0  0  0  0  0  0  0  0  # atno 17343 bound_to 10162
  156.2930  130.3748  149.7823 LP  0  0  0  0  0  0  0  0  0  0  0  0  # atno 17370 bound_to 10713
  156.5476  130.8327  151.3289 LP  0  0  0  0  0  0  0  0  0  0  0  0  # atno 17371 bound_to 10713
  140.4233  134.1857  155.7165 LP  0  0  0  0  0  0  0  0  0  0  0  0  # atno 17394 bound_to 11000
  141.1828  133.8377  157.1196 LP  0  0  0  0  0  0  0  0  0  0  0  0  # atno 17395 bound_to 11000

$$$$
