#       Name:                AV-unprocessed.smi:2089
#       Creating user name   scv26
#       Creation time:       Fri Mar 27 11:25:13 2020


#       File generated by GOLD software.
#

@<TRIPOS>MOLECULE
AV-unprocessed.smi:2089
    43    44     1
SMALL
NO_CHARGES


@<TRIPOS>ATOM
      1 ****        -2.5180   4.0029  -0.9862 C.3            1 S1                 0.0000
      2 ****        -2.6616   2.1695  -1.0163 S.o2           1 S1                 0.0000
      3 ****        -3.9953   1.7950  -1.5105 O.2            1 S1                 0.0000
      4 ****        -1.4598   1.6278  -1.6691 O.2            1 S1                 0.0000
      5 ****        -2.5853   1.7532   0.6638 N.3            1 S1                 0.0000
      6 ****        -3.6702   2.2067   1.5454 C.3            1 S1                 0.0000
      7 ****        -4.1903   0.9508   2.2381 C.3            1 S1                 0.0000
      8 ****        -2.9528   0.0716   2.3287 C.3            1 S1                 0.0000
      9 ****        -2.2002   0.3774   1.0236 C.3            1 S1                 0.0000
     10 ****        -0.6848   0.1779   1.1473 C.2            1 S1                 0.0000
     11 ****        -0.0513   0.7475   2.0364 O.2            1 S1                 0.0000
     12 ****        -0.1086  -0.6132   0.2310 N.am           1 S1                 0.0000
     13 ****         1.3217  -0.8733   0.1568 C.3            1 S1                 0.0000
     14 ****         1.6397  -1.8414  -0.9905 C.3            1 S1                 0.0000
     15 ****         3.1278  -2.1032  -1.1211 C.ar           1 S1                 0.0000
     16 ****         3.7402  -3.2533  -0.5771 C.ar           1 S1                 0.0000
     17 ****         5.1317  -3.4290  -0.7277 C.ar           1 S1                 0.0000
     18 ****         5.8807  -2.4520  -1.4157 C.ar           1 S1                 0.0000
     19 ****         5.2184  -1.3220  -1.9370 C.ar           1 S1                 0.0000
     20 ****         3.8837  -1.1898  -1.7727 N.pl3          1 S1                 1.0000
     21 ****        -2.5312   4.3838  -2.0071 H              1 S1                 0.0000
     22 ****        -1.5810   4.2858  -0.5072 H              1 S1                 0.0000
     23 ****        -3.3527   4.4307  -0.4319 H              1 S1                 0.0000
     24 ****        -3.2584   2.9068   2.2730 H              1 S1                 0.0000
     25 ****        -4.4572   2.7184   0.9908 H              1 S1                 0.0000
     26 ****        -4.6372   1.1571   3.2108 H              1 S1                 0.0000
     27 ****        -4.9443   0.4681   1.6146 H              1 S1                 0.0000
     28 ****        -2.3695   0.3528   3.2071 H              1 S1                 0.0000
     29 ****        -3.2080  -0.9843   2.4227 H              1 S1                 0.0000
     30 ****        -2.5906  -0.2874   0.2504 H              1 S1                 0.0000
     31 ****        -0.6958  -1.0360  -0.4735 H              1 S1                 0.0000
     32 ****         1.8477   0.0711   0.0088 H              1 S1                 0.0000
     33 ****         1.6658  -1.2905   1.1047 H              1 S1                 0.0000
     34 ****         1.1221  -2.7891  -0.8343 H              1 S1                 0.0000
     35 ****         1.2687  -1.4393  -1.9346 H              1 S1                 0.0000
     36 ****         3.1542  -3.9917  -0.0491 H              1 S1                 0.0000
     37 ****         5.6190  -4.3023  -0.3194 H              1 S1                 0.0000
     38 ****         6.9476  -2.5675  -1.5407 H              1 S1                 0.0000
     39 ****         5.7120  -0.5260  -2.4755 H              1 S1                 0.0000
     40 ****         3.4249  -0.3632  -2.1571 H              1 S1                 0.0000
     41 ****        -1.7959   2.3367   0.8542 LP             1 S1                 0.0000
     42 ****        -0.5249   1.3447   2.6837 LP             1 S1                 0.0000
     43 ****         0.9367   0.6128   2.1112 LP             1 S1                 0.0000
@<TRIPOS>BOND
    1    1    2 1     
    2    1   21 1     
    3    1   22 1     
    4    1   23 1     
    5    2    3 2     
    6    2    4 2     
    7    2    5 1     
    8    5    9 1     
    9    5    6 1     
   10    6    7 1     
   11    6   24 1     
   12    6   25 1     
   13    7    8 1     
   14    7   26 1     
   15    7   27 1     
   16    8    9 1     
   17    8   28 1     
   18    8   29 1     
   19    9   10 1     
   20    9   30 1     
   21   10   11 2     
   22   10   12 am    
   23   12   13 1     
   24   12   31 1     
   25   13   14 1     
   26   13   32 1     
   27   13   33 1     
   28   14   15 1     
   29   14   34 1     
   30   14   35 1     
   31   15   20 ar    
   32   15   16 ar    
   33   16   17 ar    
   34   16   36 1     
   35   17   18 ar    
   36   17   37 1     
   37   18   19 ar    
   38   18   38 1     
   39   19   20 ar    
   40   19   39 1     
   41   20   40 1     
   42    5   41 1     
   43   11   42 1     
   44   11   43 1     
@<TRIPOS>SUBSTRUCTURE
      1 S1             1
@<TRIPOS>SET
LONE_PAIRS      STATIC     ATOMS    <user>   **** ""
5 3 4 41 42 43
DONOR_HYDROGENS      STATIC     ATOMS    <user>   **** ""
2 31 40
ATOM$BLUE        STATIC     ATOMS    COLORGROUP SYSTEM
5 3 4 41 42 43
ATOM$RED        STATIC     ATOMS    COLORGROUP SYSTEM
2 31 40
