#       Name:                AV-unprocessed.smi:651
#       Creating user name   scv26
#       Creation time:       Fri Mar 27 00:11:28 2020


#       File generated by GOLD software.
#

@<TRIPOS>MOLECULE
AV-unprocessed.smi:651
    43    44     1
SMALL
NO_CHARGES


@<TRIPOS>ATOM
      1 ****        -3.1290   4.4776  -1.1406 C.3            1 S1                 0.0000
      2 ****        -2.7285   3.0239  -1.2756 C.ar           1 S1                 0.0000
      3 ****        -2.2165   2.4913  -2.4782 C.ar           1 S1                 0.0000
      4 ****        -1.8636   1.1268  -2.5318 C.ar           1 S1                 0.0000
      5 ****        -2.0279   0.3223  -1.3822 C.ar           1 S1                 0.0000
      6 ****        -1.6477  -1.1491  -1.4054 C.3            1 S1                 0.0000
      7 ****        -0.1320  -1.3307  -1.2900 C.2            1 S1                 0.0000
      8 ****         0.4783  -1.9574  -2.1550 O.2            1 S1                 0.0000
      9 ****         0.4586  -0.7919  -0.2117 N.am           1 S1                 0.0000
     10 ****         1.8860  -0.8670   0.1040 C.3            1 S1                 0.0000
     11 ****         2.3382   0.3753   0.8974 C.3            1 S1                 0.0000
     12 ****         3.1560  -0.1303   2.0907 C.3            1 S1                 0.0000
     13 ****         3.4840  -1.5902   1.7729 C.3            1 S1                 0.0000
     14 ****         2.3004  -2.1086   0.9419 C.3            1 S1                 0.0000
     15 ****         1.1992  -2.6848   1.8590 C.2            1 S1                 0.0000
     16 ****         0.9165  -3.9827   1.7225 N.am           1 S1                 0.0000
     17 ****         0.6080  -1.9731   2.6698 O.2            1 S1                 0.0000
     18 ****        -2.5495   0.9097  -0.2089 C.ar           1 S1                 0.0000
     19 ****        -2.8752   2.2207  -0.1982 N.pl3          1 S1                 1.0000
     20 ****        -2.7651   5.0642  -1.9848 H              1 S1                 0.0000
     21 ****        -2.7153   4.9062  -0.2272 H              1 S1                 0.0000
     22 ****        -4.2149   4.5686  -1.1037 H              1 S1                 0.0000
     23 ****        -2.0930   3.1179  -3.3497 H              1 S1                 0.0000
     24 ****        -1.4668   0.7049  -3.4440 H              1 S1                 0.0000
     25 ****        -2.1360  -1.6779  -0.5859 H              1 S1                 0.0000
     26 ****        -2.0062  -1.6011  -2.3314 H              1 S1                 0.0000
     27 ****        -0.1246  -0.3072   0.4548 H              1 S1                 0.0000
     28 ****         2.4561  -0.8843  -0.8272 H              1 S1                 0.0000
     29 ****         2.9465   1.0207   0.2627 H              1 S1                 0.0000
     30 ****         1.4968   0.9752   1.2473 H              1 S1                 0.0000
     31 ****         4.0528   0.4660   2.2612 H              1 S1                 0.0000
     32 ****         2.5534  -0.0763   2.9981 H              1 S1                 0.0000
     33 ****         4.3935  -1.6383   1.1727 H              1 S1                 0.0000
     34 ****         3.6671  -2.1728   2.6772 H              1 S1                 0.0000
     35 ****         2.6371  -2.9040   0.2745 H              1 S1                 0.0000
     36 ****         0.2003  -4.4067   2.2946 H              1 S1                 0.0000
     37 ****         1.4171  -4.5358   1.0419 H              1 S1                 0.0000
     38 ****        -2.7108   0.3765   0.7169 H              1 S1                 0.0000
     39 ****        -3.2483   2.6230   0.6621 H              1 S1                 0.0000
     40 ****        -0.0157  -2.3473  -2.9322 LP             1 S1                 0.0000
     41 ****         1.4684  -2.0768  -2.0811 LP             1 S1                 0.0000
     42 ****         0.8375  -1.0026   2.7439 LP             1 S1                 0.0000
     43 ****        -0.1020  -2.3650   3.2547 LP             1 S1                 0.0000
@<TRIPOS>BOND
    1    1    2 1     
    2    1   20 1     
    3    1   21 1     
    4    1   22 1     
    5    2   19 ar    
    6    2    3 ar    
    7    3    4 ar    
    8    3   23 1     
    9    4    5 ar    
   10    4   24 1     
   11    5    6 1     
   12    5   18 ar    
   13    6    7 1     
   14    6   25 1     
   15    6   26 1     
   16    7    8 2     
   17    7    9 am    
   18    9   10 1     
   19    9   27 1     
   20   10   14 1     
   21   10   11 1     
   22   10   28 1     
   23   11   12 1     
   24   11   29 1     
   25   11   30 1     
   26   12   13 1     
   27   12   31 1     
   28   12   32 1     
   29   13   14 1     
   30   13   33 1     
   31   13   34 1     
   32   14   15 1     
   33   14   35 1     
   34   15   16 am    
   35   15   17 2     
   36   16   36 1     
   37   16   37 1     
   38   18   19 ar    
   39   18   38 1     
   40   19   39 1     
   41    8   40 1     
   42    8   41 1     
   43   17   42 1     
   44   17   43 1     
@<TRIPOS>SUBSTRUCTURE
      1 S1             1
@<TRIPOS>SET
LONE_PAIRS      STATIC     ATOMS    <user>   **** ""
4 40 41 42 43
DONOR_HYDROGENS      STATIC     ATOMS    <user>   **** ""
4 27 36 37 39
ATOM$BLUE        STATIC     ATOMS    COLORGROUP SYSTEM
4 40 41 42 43
ATOM$RED        STATIC     ATOMS    COLORGROUP SYSTEM
4 27 36 37 39
