AV-unprocessed.smi:877|AV-procd|sdf|4028|dock1
  -GOLD-   22720 1523D 1   1.00000     0.00000
 Structure written by MMmdl.
 43 45  0  0  0  0  0  0  0  0  1 V2000
  153.1565  142.6622  162.4742 C   0  0  0  0  0  0  0  0  0  0  0  0
  152.5170  143.7300  161.7903 O   0  0  0  0  0  0  0  0  0  0  0  0
  152.1423  143.5279  160.4793 C   0  0  0  0  0  0  0  0  0  0  0  0
  152.2282  142.2812  159.8093 C   0  0  0  0  0  0  0  0  0  0  0  0
  151.8236  142.1644  158.4654 C   0  0  0  0  0  0  0  0  0  0  0  0
  151.3289  143.2865  157.7713 C   0  0  0  0  0  0  0  0  0  0  0  0
  150.8999  143.1536  156.3199 C   0  0  0  0  0  0  0  0  0  0  0  0
  151.0589  141.7624  155.7682 C   0  0  0  0  0  0  0  0  0  0  0  0
  152.2568  141.2034  155.5781 N   0  0  0  0  0  0  0  0  0  0  0  0
  151.9410  139.9605  155.0680 C   0  0  0  0  0  0  0  0  0  0  0  0
  152.7751  138.8919  154.6691 C   0  0  0  0  0  0  0  0  0  0  0  0
  152.2155  137.6983  154.1680 C   0  0  0  0  0  0  0  0  0  0  0  0
  150.8169  137.5573  154.0574 C   0  0  0  0  0  0  0  0  0  0  0  0
  149.9683  138.6107  154.4490 C   0  0  0  0  0  0  0  0  0  0  0  0
  150.5325  139.7993  154.9501 C   0  0  0  0  0  0  0  0  0  0  0  0
  149.9946  140.9965  155.4118 N   0  0  0  0  0  0  0  0  0  0  0  0
  148.5740  141.3155  155.4784 C   0  0  0  0  0  0  0  0  0  0  0  0
  148.0341  141.8874  154.1519 C   0  0  1  0  0  0  0  0  0  0  0  0
  148.0408  140.8757  153.1634 O   0  0  0  0  0  0  0  0  0  0  0  0
  146.5985  142.4181  154.3006 C   0  0  0  0  0  0  0  0  0  0  0  0
  145.6891  141.3426  154.4084 O   0  0  0  0  0  0  0  0  0  0  0  0
  151.2402  144.5284  158.4315 C   0  0  0  0  0  0  0  0  0  0  0  0
  151.6453  144.6440  159.7751 C   0  0  0  0  0  0  0  0  0  0  0  0
  153.3875  142.9741  163.4926 H   0  0  0  0  0  0  0  0  0  0  0  0
  154.0960  142.3857  161.9937 H   0  0  0  0  0  0  0  0  0  0  0  0
  152.5099  141.7858  162.5362 H   0  0  0  0  0  0  0  0  0  0  0  0
  152.6029  141.3981  160.3036 H   0  0  0  0  0  0  0  0  0  0  0  0
  151.8976  141.2093  157.9658 H   0  0  0  0  0  0  0  0  0  0  0  0
  149.8599  143.4710  156.2579 H   0  0  0  0  0  0  0  0  0  0  0  0
  151.4736  143.8420  155.6986 H   0  0  0  0  0  0  0  0  0  0  0  0
  153.8474  138.9910  154.7491 H   0  0  0  0  0  0  0  0  0  0  0  0
  152.8626  136.8878  153.8665 H   0  0  0  0  0  0  0  0  0  0  0  0
  150.3961  136.6402  153.6720 H   0  0  0  0  0  0  0  0  0  0  0  0
  148.8967  138.5061  154.3667 H   0  0  0  0  0  0  0  0  0  0  0  0
  148.0095  140.4357  155.7862 H   0  0  0  0  0  0  0  0  0  0  0  0
  148.4349  142.0467  156.2756 H   0  0  0  0  0  0  0  0  0  0  0  0
  148.6906  142.6952  153.8245 H   0  0  0  0  0  0  0  0  0  0  0  0
  148.7758  141.0287  152.5891 H   0  0  0  0  0  0  0  0  0  0  0  0
  146.5039  143.0790  155.1635 H   0  0  0  0  0  0  0  0  0  0  0  0
  146.3183  142.9972  153.4201 H   0  0  0  0  0  0  0  0  0  0  0  0
  145.0705  141.3994  153.6961 H   0  0  0  0  0  0  0  0  0  0  0  0
  150.8668  145.3970  157.9087 H   0  0  0  0  0  0  0  0  0  0  0  0
  151.5745  145.6013  160.2705 H   0  0  0  0  0  0  0  0  0  0  0  0
  1  2  1  0  0  0  0
  1 24  1  0  0  0  0
  1 25  1  0  0  0  0
  1 26  1  0  0  0  0
  2  3  1  0  0  0  0
  3 23  1  0  0  0  0
  3  4  2  0  0  0  0
  4  5  1  0  0  0  0
  4 27  1  0  0  0  0
  5  6  2  0  0  0  0
  5 28  1  0  0  0  0
  6  7  1  0  0  0  0
  6 22  1  0  0  0  0
  7  8  1  0  0  0  0
  7 29  1  0  0  0  0
  7 30  1  0  0  0  0
  8 16  1  0  0  0  0
  8  9  2  0  0  0  0
  9 10  1  0  0  0  0
 10 15  2  0  0  0  0
 10 11  1  0  0  0  0
 11 12  2  0  0  0  0
 11 31  1  0  0  0  0
 12 13  1  0  0  0  0
 12 32  1  0  0  0  0
 13 14  2  0  0  0  0
 13 33  1  0  0  0  0
 14 15  1  0  0  0  0
 14 34  1  0  0  0  0
 15 16  1  0  0  0  0
 16 17  1  0  0  0  0
 17 18  1  0  0  0  0
 17 35  1  0  0  0  0
 17 36  1  0  0  0  0
 18 19  1  0  0  0  0
 18 20  1  0  0  0  0
 18 37  1  0  0  0  0
 19 38  1  0  0  0  0
 20 21  1  0  0  0  0
 20 39  1  0  0  0  0
 20 40  1  0  0  0  0
 21 41  1  0  0  0  0
 22 23  2  0  0  0  0
 22 42  1  0  0  0  0
 23 43  1  0  0  0  0
M  END
> <s_m_source_file>
AV-unprocessed.smi

> <i_m_source_file_index>
877

> <i_lp_mmshare_version>
43012

> <i_f3d_flags>
0

> <s_epik_input>
W0NIM11PYzFbY0hdW2NIXWMoW2NIXVtjSF0xKVtDSDJdYyhuMiluKFtDSDJdW0NASF0oW09IXSlbQ0gyXVtPSF0pYyhjMjMpW2NIXVtjSF1bY0hdW2NIXTM=

> <s_epik_cmdline>
J2VwaWtfcHl0aG9uJywgJy1waCcsICc3LjAnLCAnLXRuJywgJzgnLCAnLW1hJywgJzIwMCcsICctbWV0YWxfYmluZGluZycsICctaW1hZScsICc8aW5maWxlLm1hZT4nLCAnLW9tYWUnLCAnPG91dGZpbGUubWFlPic=

> <r_lp_tautomer_probability>
1

> <r_epik_Ionization_Penalty>
0.0616669

> <r_epik_Ionization_Penalty_Charging>
0

> <r_epik_Ionization_Penalty_Neutral>
0.0616669

> <r_epik_State_Penalty>
0.0535415

> <r_epik_Charging_Adjusted_Penalty>
0.0535415

> <i_epik_Tot_Q>
0

> <i_epik_Tot_abs_Q>
0

> <r_epik_Metal_State_Penalty>
5.60326e-05

> <b_epik_Metal_Only>
0

> <s_lp_Force_Field>
OPLS_2005

> <r_lp_Energy>
19.9882

> <b_lp_Chiralities_Consistent>
1

> <s_lp_Variant>
AV-unprocessed.smi:877-2

> <Gold.Version>
5.8.1

> <Gold.Id.Protein>
6NUR|6NUR_protein|mol2

> <Gold.PLP.Fitness>
54.4645

> <Gold.PLP.PLP>
-48.4452

> <Gold.PLP.part.hbond>
-3.4368

> <Gold.PLP.part.metal>
0.0000

> <Gold.PLP.part.buried>
1.6905

> <Gold.PLP.part.nonpolar>
-46.6618

> <Gold.PLP.part.repulsive>
0.1459

> <Gold.PLP.ligand.clash>
0.0000

> <Gold.PLP.ligand.torsion>
0.5732

> <Gold.PLP.Chemscore.Hbond>
2.3114

> <Gold.PLP.Chemscore.CHOScore>
0.0000

> <Gold.PLP.Chemscore.Metal>
0.0000

> <Gold.Chemscore.Hbonds>
donor molecule, donor type, donor heavy atom, donor atom, acceptor molecule, acceptor atom, score
      L1  H    19    38       P1  7957  0.70
      L1  H    21    41       P1 10175  0.96
      P1  H  7997  8008       L1     9  0.01

> <Gold.PLP.Chemscore.Internal.Correction>
0.2317

> <Gold.Rescore>
     Score         DG    S(hbond)    S(metal)    S(lipo)     H(rot)  DE(clash)    DE(int)     intcor
     17.30     -20.57       2.24        0.00     133.93       3.15       2.54       0.73       ----

> <Gold.Chemscore.Fitness>
17.2978

> <Gold.Chemscore.DG>
-20.5658

> <Gold.Chemscore.ZeroCoef>
-5.4800

> <Gold.Chemscore.Hbond>
2.2384

> <Gold.Chemscore.Metal>
0.0000

> <Gold.Chemscore.Lipo>
133.9339

> <Gold.Chemscore.Internal_Hbond>
0.0000

> <Gold.Chemscore.DEClash>
2.5369

> <Gold.Chemscore.DEInternal>
0.7310

> <Gold.Chemscore.Rot>
3.1488

> <Gold.Chemscore.Internal.Correction>
   9.000000E+99

> <Gold.Chemscore.Hbonds>
donor molecule, donor type, donor heavy atom, donor atom, acceptor molecule, acceptor atom, score
      L1  H    19    38       P1  7957  0.70
      L1  H    21    41       P1 10175  0.22

> <Gold.Chemscore.Hbond.Weighted>
-7.4764

> <Gold.Chemscore.Metal.Weighted>
-0.0000

> <Gold.Chemscore.Lipo.Weighted>
-15.6703

> <Gold.Chemscore.Internal_Hbond.Weighted>
0.0000

> <Gold.Chemscore.DEClash.Weighted>
2.5369

> <Gold.Chemscore.DEInternal.Weighted>
0.7310

> <Gold.Chemscore.Rot.Weighted>
8.0608

> <Gold.Chemscore.Internal.Correction.Weighted>
   9.000000E+99

> <Gold.Protein.RotatedTorsions>
[ 6907 6896 6895 6894 ] final   16.67 input  -60.11 | X-H torsion
[ 7974 7965 7964 7962 ] final  126.16 input  175.53 | X-H torsion
[ 8008 7997 7996 7995 ] final  -33.46 input   59.86 | X-H torsion
[ 10167 10162 10161 10158 ] final  -46.70 input  -65.29 | X-H torsion
[ 10718 10713 10712 10709 ] final   21.74 input   66.30 | X-H torsion
[ 10763 10752 10751 10750 ] final  161.06 input  -60.55 | X-H torsion
[ 11005 11000 10999 10996 ] final    7.13 input  -57.11 | X-H torsion

> <Gold.Protein.ActiveResidues>
 VAL166  LYS551  ARG553  GLY616  TRP617  ASP618  TYR619  PRO620  LYS621  CYS622 
 ASP623  PHE694  ASN695  SER759  ASP760  ASP761  ALA762  ILE779  LEU786  VAL792 
 PHE793  MET794  SER795  GLU796  ALA797  LYS798  CYS799  TRP800  GLU811  SER814 

> <Gold.Protein.RotatedAtoms>
  151.8375  135.0601  160.0443 H   0  0  0  0  0  0  0  0  0  0  0  0  # atno 6907 bound_to 6896
  152.2834  133.5487  159.5520 H   0  0  0  0  0  0  0  0  0  0  0  0  # atno 6908 bound_to 6896
  150.7199  134.0448  159.3820 H   0  0  0  0  0  0  0  0  0  0  0  0  # atno 6909 bound_to 6896
  145.0649  139.3776  143.4987 H   0  0  0  0  0  0  0  0  0  0  0  0  # atno 7974 bound_to 7965
  154.4148  140.1710  156.1892 H   0  0  0  0  0  0  0  0  0  0  0  0  # atno 8008 bound_to 7997
  155.9618  140.3393  155.6473 H   0  0  0  0  0  0  0  0  0  0  0  0  # atno 8009 bound_to 7997
  155.6739  140.0715  157.2500 H   0  0  0  0  0  0  0  0  0  0  0  0  # atno 8010 bound_to 7997
  140.6806  143.2819  151.3820 H   0  0  0  0  0  0  0  0  0  0  0  0  # atno 10167 bound_to 10162
  157.1426  130.6639  149.5986 H   0  0  0  0  0  0  0  0  0  0  0  0  # atno 10718 bound_to 10713
  154.2571  135.2769  155.2793 H   0  0  0  0  0  0  0  0  0  0  0  0  # atno 10763 bound_to 10752
  154.5416  135.5701  153.6847 H   0  0  0  0  0  0  0  0  0  0  0  0  # atno 10764 bound_to 10752
  152.9969  135.6252  154.2720 H   0  0  0  0  0  0  0  0  0  0  0  0  # atno 10765 bound_to 10752
  140.5517  134.0276  155.7939 H   0  0  0  0  0  0  0  0  0  0  0  0  # atno 11005 bound_to 11000
  146.3526  140.0365  142.8646 LP  0  0  0  0  0  0  0  0  0  0  0  0  # atno 17320 bound_to 7965
  145.1363  140.9546  143.4515 LP  0  0  0  0  0  0  0  0  0  0  0  0  # atno 17321 bound_to 7965
  139.6127  144.1066  152.2315 LP  0  0  0  0  0  0  0  0  0  0  0  0  # atno 17342 bound_to 10162
  140.0485  144.5951  150.7355 LP  0  0  0  0  0  0  0  0  0  0  0  0  # atno 17343 bound_to 10162
  155.9785  130.4772  150.6662 LP  0  0  0  0  0  0  0  0  0  0  0  0  # atno 17370 bound_to 10713
  157.4293  131.0847  151.1054 LP  0  0  0  0  0  0  0  0  0  0  0  0  # atno 17371 bound_to 10713
  141.1167  133.9528  157.2808 LP  0  0  0  0  0  0  0  0  0  0  0  0  # atno 17394 bound_to 11000
  139.9452  135.0185  156.8829 LP  0  0  0  0  0  0  0  0  0  0  0  0  # atno 17395 bound_to 11000

$$$$
