AV-unprocessed.smi:3347|AV-procd|sdf|12911|dock4
  -GOLD-   2272019323D 1   1.00000     0.00000
 Structure written by MMmdl.
 40 42  0  0  0  0  0  0  0  0  2 V2000
  150.9666  134.6037  155.5922 O   0  0  0  0  0  0  0  0  0  0  0  0
  150.4539  135.0908  154.5855 C   0  0  0  0  0  0  0  0  0  0  0  0
  149.5722  134.4341  153.8180 N   0  0  0  0  0  0  0  0  0  0  0  0
  149.0649  133.0889  154.0715 C   0  0  0  0  0  0  0  0  0  0  0  0
  148.2633  132.5339  152.8785 C   0  0  2  0  0  0  0  0  0  0  0  0
  146.9342  133.2501  152.6473 C   0  0  0  0  0  0  0  0  0  0  0  0
  146.0996  132.2500  151.8382 C   0  0  0  0  0  0  0  0  0  0  0  0
  146.7093  130.9162  152.0483 N   0  3  2  0  0  0  0  0  0  0  0  0
  145.7434  129.8584  152.4138 C   0  0  0  0  0  0  0  0  0  0  0  0
  146.3967  128.5815  152.8854 C   0  0  0  0  0  0  0  0  0  0  0  0
  145.7895  128.6567  151.5009 C   0  0  0  0  0  0  0  0  0  0  0  0
  147.8151  131.0767  153.0145 C   0  0  0  0  0  0  0  0  0  0  0  0
  150.6856  136.3247  154.1048 N   0  0  0  0  0  0  0  0  0  0  0  0
  151.5127  137.3584  154.6257 C   0  0  0  0  0  0  0  0  0  0  0  0
  152.6028  137.1604  155.5089 C   0  0  0  0  0  0  0  0  0  0  0  0
  153.3392  138.2800  155.9421 C   0  0  0  0  0  0  0  0  0  0  0  0
  152.9645  139.5548  155.4762 C   0  0  0  0  0  0  0  0  0  0  0  0
  151.9337  139.7586  154.6298 N   0  0  0  0  0  0  0  0  0  0  0  0
  151.2324  138.6808  154.2191 C   0  0  0  0  0  0  0  0  0  0  0  0
  149.2012  134.9130  153.0101 H   0  0  0  0  0  0  0  0  0  0  0  0
  149.8792  132.4125  154.3375 H   0  0  0  0  0  0  0  0  0  0  0  0
  148.4181  133.1428  154.9476 H   0  0  0  0  0  0  0  0  0  0  0  0
  148.8623  132.6282  151.9709 H   0  0  0  0  0  0  0  0  0  0  0  0
  146.4432  133.4422  153.6028 H   0  0  0  0  0  0  0  0  0  0  0  0
  147.0534  134.2070  152.1378 H   0  0  0  0  0  0  0  0  0  0  0  0
  145.0515  132.2809  152.1402 H   0  0  0  0  0  0  0  0  0  0  0  0
  146.1422  132.4826  150.7737 H   0  0  0  0  0  0  0  0  0  0  0  0
  144.8001  130.1892  152.8451 H   0  0  0  0  0  0  0  0  0  0  0  0
  147.4825  128.5542  152.9575 H   0  0  0  0  0  0  0  0  0  0  0  0
  145.8663  127.9930  153.6313 H   0  0  0  0  0  0  0  0  0  0  0  0
  144.8594  128.1168  151.3349 H   0  0  0  0  0  0  0  0  0  0  0  0
  146.4715  128.6792  150.6527 H   0  0  0  0  0  0  0  0  0  0  0  0
  148.6197  130.3678  152.8170 H   0  0  0  0  0  0  0  0  0  0  0  0
  147.4471  130.8943  154.0258 H   0  0  0  0  0  0  0  0  0  0  0  0
  150.1642  136.5762  153.2778 H   0  0  0  0  0  0  0  0  0  0  0  0
  152.8982  136.1851  155.8603 H   0  0  0  0  0  0  0  0  0  0  0  0
  154.1748  138.1635  156.6163 H   0  0  0  0  0  0  0  0  0  0  0  0
  153.5084  140.4337  155.7896 H   0  0  0  0  0  0  0  0  0  0  0  0
  150.4155  138.8829  153.5416 H   0  0  0  0  0  0  0  0  0  0  0  0
  147.1294  130.6542  151.1680 H   0  0  0  0  0  0  0  0  0  0  0  0
  1  2  2  0  0  0  0
  2  3  1  0  0  0  0
  2 13  1  0  0  0  0
  3  4  1  0  0  0  0
  3 20  1  0  0  0  0
  4  5  1  0  0  0  0
  4 21  1  0  0  0  0
  4 22  1  0  0  0  0
  5 12  1  0  0  0  0
  5  6  1  0  0  0  0
  5 23  1  0  0  0  0
  6  7  1  0  0  0  0
  6 24  1  0  0  0  0
  6 25  1  0  0  0  0
  7  8  1  0  0  0  0
  7 26  1  0  0  0  0
  7 27  1  0  0  0  0
  8  9  1  0  0  0  0
  8 12  1  0  0  0  0
  8 40  1  0  0  0  0
  9 11  1  0  0  0  0
  9 10  1  0  0  0  0
  9 28  1  0  0  0  0
 10 11  1  0  0  0  0
 10 29  1  0  0  0  0
 10 30  1  0  0  0  0
 11 31  1  0  0  0  0
 11 32  1  0  0  0  0
 12 33  1  0  0  0  0
 12 34  1  0  0  0  0
 13 14  1  0  0  0  0
 13 35  1  0  0  0  0
 14 19  1  0  0  0  0
 14 15  2  0  0  0  0
 15 16  1  0  0  0  0
 15 36  1  0  0  0  0
 16 17  2  0  0  0  0
 16 37  1  0  0  0  0
 17 18  1  0  0  0  0
 17 38  1  0  0  0  0
 18 19  2  0  0  0  0
 19 39  1  0  0  0  0
M  CHG  1   8   1
M  END
> <s_m_source_file>
AV-unprocessed.smi

> <i_m_source_file_index>
3347

> <i_lp_mmshare_version>
43012

> <i_f3d_flags>
0

> <s_epik_input>
W2NIXTFuW2NIXVtjSF1bY0hdYzFbTkhdQyg9TylbTkhdW0NIMl1bQ0BASF0yW0NIMl1bQ0gyXU4oW0NIMl0yKVtDSF0zW0NIMl1bQ0gyXTM=

> <s_epik_cmdline>
J2VwaWtfcHl0aG9uJywgJy1waCcsICc3LjAnLCAnLXRuJywgJzgnLCAnLW1hJywgJzIwMCcsICctbWV0YWxfYmluZGluZycsICctaW1hZScsICc8aW5maWxlLm1hZT4nLCAnLW9tYWUnLCAnPG91dGZpbGUubWFlPic=

> <r_epik_Ionization_Penalty>
0.00442629

> <r_epik_Ionization_Penalty_Charging>
0.000203384

> <r_epik_Ionization_Penalty_Neutral>
0.00422291

> <r_epik_State_Penalty>
0.00301008

> <r_epik_Charging_Adjusted_Penalty>
0.00321347

> <i_epik_Tot_Q>
1

> <i_epik_Tot_abs_Q>
1

> <r_epik_Metal_State_Penalty>
-0

> <b_epik_Metal_Only>
0

> <s_lp_Force_Field>
OPLS_2005

> <r_lp_Energy>
39.8414

> <b_lp_Chiralities_Consistent>
1

> <s_lp_Variant>
AV-unprocessed.smi:3347-1

> <Gold.Version>
5.8.1

> <Gold.Id.Protein>
6NUR|6NUR_protein|mol2

> <Gold.PLP.Fitness>
49.6972

> <Gold.PLP.PLP>
-35.4508

> <Gold.PLP.part.hbond>
-4.5216

> <Gold.PLP.part.metal>
0.0000

> <Gold.PLP.part.buried>
-3.3670

> <Gold.PLP.part.nonpolar>
-27.6686

> <Gold.PLP.part.repulsive>
0.1675

> <Gold.PLP.ligand.clash>
0.0000

> <Gold.PLP.ligand.torsion>
0.9943

> <Gold.PLP.Chemscore.Hbond>
3.9920

> <Gold.PLP.Chemscore.CHOScore>
1.0000

> <Gold.PLP.Chemscore.Metal>
0.0000

> <Gold.Chemscore.Hbonds>
donor molecule, donor type, donor heavy atom, donor atom, acceptor molecule, acceptor atom, score
      L1  H     3    20       P1  7948  0.50
      L1  H     8    40       P1 10747  0.69
      L1  H    13    35       P1  7948  0.50
      P1  H  7989  7998       L1    18  0.93
      L1  C    19    39       P1  7957  0.44

> <Gold.PLP.Chemscore.Internal.Correction>
1.2589

> <Gold.Rescore>
     Score         DG    S(hbond)    S(metal)    S(lipo)     H(rot)  DE(clash)    DE(int)     intcor
     19.64     -21.60       2.88        0.00      86.66       1.42       0.00       1.95       ----

> <Gold.Chemscore.Fitness>
19.6411

> <Gold.Chemscore.DG>
-21.5958

> <Gold.Chemscore.ZeroCoef>
-5.4800

> <Gold.Chemscore.Hbond>
2.8792

> <Gold.Chemscore.Metal>
0.0000

> <Gold.Chemscore.Lipo>
86.6608

> <Gold.Chemscore.Internal_Hbond>
0.0000

> <Gold.Chemscore.DEClash>
0.0000

> <Gold.Chemscore.DEInternal>
1.9548

> <Gold.Chemscore.Rot>
1.4219

> <Gold.Chemscore.Internal.Correction>
   9.000000E+99

> <Gold.Chemscore.Hbonds>
donor molecule, donor type, donor heavy atom, donor atom, acceptor molecule, acceptor atom, score
      L1  H     3    20       P1  7948  0.02
      L1  H     8    40       P1 10747  0.66
      L1  H    13    35       P1  7948  0.02
      P1  H  7989  7998       L1    18  0.40

> <Gold.Chemscore.Hbond.Weighted>
-9.6166

> <Gold.Chemscore.Metal.Weighted>
-0.0000

> <Gold.Chemscore.Lipo.Weighted>
-10.1393

> <Gold.Chemscore.Internal_Hbond.Weighted>
0.0000

> <Gold.Chemscore.DEClash.Weighted>
0.0000

> <Gold.Chemscore.DEInternal.Weighted>
1.9548

> <Gold.Chemscore.Rot.Weighted>
3.6401

> <Gold.Chemscore.Internal.Correction.Weighted>
   9.000000E+99

> <Gold.Protein.RotatedTorsions>
[ 6907 6896 6895 6894 ] final -118.45 input  -60.11 | X-H torsion
[ 7974 7965 7964 7962 ] final   -7.58 input  175.53 | X-H torsion
[ 8008 7997 7996 7995 ] final   56.70 input   59.86 | X-H torsion
[ 10167 10162 10161 10158 ] final   47.56 input  -65.29 | X-H torsion
[ 10718 10713 10712 10709 ] final  -72.36 input   66.30 | X-H torsion
[ 10763 10752 10751 10750 ] final    4.20 input  -60.55 | X-H torsion
[ 11005 11000 10999 10996 ] final -124.73 input  -57.11 | X-H torsion

> <Gold.Protein.ActiveResidues>
 VAL166  LYS551  ARG553  GLY616  TRP617  ASP618  TYR619  PRO620  LYS621  CYS622 
 ASP623  PHE694  ASN695  SER759  ASP760  ASP761  ALA762  ILE779  LEU786  VAL792 
 PHE793  MET794  SER795  GLU796  ALA797  LYS798  CYS799  TRP800  GLU811  SER814 

> <Gold.Protein.RotatedAtoms>
  150.8221  133.8235  159.3134 H   0  0  0  0  0  0  0  0  0  0  0  0  # atno 6907 bound_to 6896
  151.5991  135.1047  160.0065 H   0  0  0  0  0  0  0  0  0  0  0  0  # atno 6908 bound_to 6896
  152.4309  133.7235  159.6603 H   0  0  0  0  0  0  0  0  0  0  0  0  # atno 6909 bound_to 6896
  146.2303  140.2341  142.8341 H   0  0  0  0  0  0  0  0  0  0  0  0  # atno 7974 bound_to 7965
  155.5217  140.3480  155.4408 H   0  0  0  0  0  0  0  0  0  0  0  0  # atno 8008 bound_to 7997
  156.0779  140.1379  156.9775 H   0  0  0  0  0  0  0  0  0  0  0  0  # atno 8009 bound_to 7997
  154.4563  140.0952  156.6744 H   0  0  0  0  0  0  0  0  0  0  0  0  # atno 8010 bound_to 7997
  140.3024  144.2919  150.6216 H   0  0  0  0  0  0  0  0  0  0  0  0  # atno 10167 bound_to 10162
  156.0324  130.4370  150.2580 H   0  0  0  0  0  0  0  0  0  0  0  0  # atno 10718 bound_to 10713
  153.2741  135.6935  153.7451 H   0  0  0  0  0  0  0  0  0  0  0  0  # atno 10763 bound_to 10752
  153.6463  135.3384  155.3087 H   0  0  0  0  0  0  0  0  0  0  0  0  # atno 10764 bound_to 10752
  154.8474  135.4443  154.1773 H   0  0  0  0  0  0  0  0  0  0  0  0  # atno 10765 bound_to 10752
  140.9818  134.0663  157.3756 H   0  0  0  0  0  0  0  0  0  0  0  0  # atno 11005 bound_to 11000
  144.9535  140.8203  143.5557 LP  0  0  0  0  0  0  0  0  0  0  0  0  # atno 17320 bound_to 7965
  145.2304  139.2117  143.5046 LP  0  0  0  0  0  0  0  0  0  0  0  0  # atno 17321 bound_to 7965
  140.5640  143.2188  151.7716 LP  0  0  0  0  0  0  0  0  0  0  0  0  # atno 17342 bound_to 10162
  139.4912  144.4310  151.9873 LP  0  0  0  0  0  0  0  0  0  0  0  0  # atno 17343 bound_to 10162
  157.0682  131.0109  151.3199 LP  0  0  0  0  0  0  0  0  0  0  0  0  # atno 17370 bound_to 10713
  157.5019  130.7885  149.7614 LP  0  0  0  0  0  0  0  0  0  0  0  0  # atno 17371 bound_to 10713
  139.8953  135.0140  156.6996 LP  0  0  0  0  0  0  0  0  0  0  0  0  # atno 17394 bound_to 11000
  140.7175  133.9169  155.8125 LP  0  0  0  0  0  0  0  0  0  0  0  0  # atno 17395 bound_to 11000

$$$$
