AV-unprocessed.smi:17|AV-procd|sdf|101|dock10
  -GOLD-   2262015253D 1   1.00000     0.00000
 Structure written by MMmdl.
 57 59  0  0  0  0  0  0  0  0  1 V2000
  150.9623  134.0398  155.7030 C   0  0  0  0  0  0  0  0  0  0  0  0
  150.4698  135.2498  154.8964 C   0  0  0  0  0  0  0  0  0  0  0  0
  150.0873  136.3748  155.7549 N   0  0  0  0  0  0  0  0  0  0  0  0
  150.8194  137.5207  155.6925 C   0  0  0  0  0  0  0  0  0  0  0  0
  151.9900  137.4947  155.0015 N   0  0  0  0  0  0  0  0  0  0  0  0
  152.7431  138.5922  154.8959 C   0  0  0  0  0  0  0  0  0  0  0  0
  152.5236  139.8047  155.4038 N   0  0  0  0  0  0  0  0  0  0  0  0
  151.3627  139.8387  156.1169 C   0  0  0  0  0  0  0  0  0  0  0  0
  150.4579  138.7549  156.3124 C   0  0  0  0  0  0  0  0  0  0  0  0
  149.3998  139.1733  157.1134 N   0  0  0  0  0  0  0  0  0  0  0  0
  149.6550  140.4284  157.3605 C   0  0  0  0  0  0  0  0  0  0  0  0
  150.8177  140.9081  156.8049 N   0  0  0  0  0  0  0  0  0  0  0  0
  151.3434  142.2557  156.9300 C   0  0  0  0  0  0  0  0  0  0  0  0
  151.5696  142.6583  158.4117 C   0  0  2  0  0  0  0  0  0  0  0  0
  151.5188  144.1987  158.5432 C   0  0  0  0  0  0  0  0  0  0  0  0
  150.2275  144.7101  158.2874 O   0  0  0  0  0  0  0  0  0  0  0  0
  152.8856  142.0456  158.9634 C   0  0  1  0  0  0  0  0  0  0  0  0
  153.2242  142.3986  160.4015 C   0  0  0  0  0  0  0  0  0  0  0  0
  154.2324  141.3188  160.7724 C   0  0  0  0  0  0  0  0  0  0  0  0
  153.8141  140.1564  160.0690 O   0  0  0  0  0  0  0  0  0  0  0  0
  152.8815  140.5130  159.0530 C   0  0  0  0  0  0  0  0  0  0  0  0
  148.9863  136.2567  156.7175 C   0  0  2  0  0  0  0  0  0  0  0  0
  149.4752  136.4970  158.1555 C   0  0  0  0  0  0  0  0  0  0  0  0
  148.2241  134.9199  156.5904 C   0  0  0  0  0  0  0  0  0  0  0  0
  148.1488  133.9691  158.1779 S   0  0  0  0  0  0  0  0  0  0  0  0
  147.0819  132.5349  157.7398 C   0  0  0  0  0  0  0  0  0  0  0  0
  149.4952  133.4479  158.4577 O   0  0  0  0  0  0  0  0  0  0  0  0
  147.4491  134.7700  159.1944 O   0  0  0  0  0  0  0  0  0  0  0  0
  151.2092  133.2102  155.0406 H   0  0  0  0  0  0  0  0  0  0  0  0
  150.2004  133.6914  156.4007 H   0  0  0  0  0  0  0  0  0  0  0  0
  151.8570  134.2811  156.2774 H   0  0  0  0  0  0  0  0  0  0  0  0
  151.2338  135.5583  154.1828 H   0  0  0  0  0  0  0  0  0  0  0  0
  149.6151  134.9424  154.2954 H   0  0  0  0  0  0  0  0  0  0  0  0
  153.6518  138.4830  154.3225 H   0  0  0  0  0  0  0  0  0  0  0  0
  149.0036  141.0408  157.9672 H   0  0  0  0  0  0  0  0  0  0  0  0
  152.2617  142.3279  156.3473 H   0  0  0  0  0  0  0  0  0  0  0  0
  150.6443  142.9301  156.4340 H   0  0  0  0  0  0  0  0  0  0  0  0
  150.7456  142.2569  159.0050 H   0  0  0  0  0  0  0  0  0  0  0  0
  151.8533  144.5173  159.5311 H   0  0  0  0  0  0  0  0  0  0  0  0
  152.1849  144.6639  157.8158 H   0  0  0  0  0  0  0  0  0  0  0  0
  149.9827  144.4821  157.4034 H   0  0  0  0  0  0  0  0  0  0  0  0
  153.7205  142.3534  158.3315 H   0  0  0  0  0  0  0  0  0  0  0  0
  153.6358  143.4019  160.5139 H   0  0  0  0  0  0  0  0  0  0  0  0
  152.3393  142.3163  161.0345 H   0  0  0  0  0  0  0  0  0  0  0  0
  155.2294  141.5957  160.4279 H   0  0  0  0  0  0  0  0  0  0  0  0
  154.2807  141.1412  161.8470 H   0  0  0  0  0  0  0  0  0  0  0  0
  151.8990  140.1431  159.3494 H   0  0  0  0  0  0  0  0  0  0  0  0
  153.1472  140.0391  158.1083 H   0  0  0  0  0  0  0  0  0  0  0  0
  148.2458  137.0272  156.5142 H   0  0  0  0  0  0  0  0  0  0  0  0
  148.6405  136.5009  158.8567 H   0  0  0  0  0  0  0  0  0  0  0  0
  149.9797  137.4596  158.2429 H   0  0  0  0  0  0  0  0  0  0  0  0
  150.1729  135.7244  158.4784 H   0  0  0  0  0  0  0  0  0  0  0  0
  147.2141  135.0419  156.2011 H   0  0  0  0  0  0  0  0  0  0  0  0
  148.7525  134.2813  155.8821 H   0  0  0  0  0  0  0  0  0  0  0  0
  147.0427  131.8467  158.5838 H   0  0  0  0  0  0  0  0  0  0  0  0
  147.4974  132.0191  156.8748 H   0  0  0  0  0  0  0  0  0  0  0  0
  146.0736  132.8731  157.5132 H   0  0  0  0  0  0  0  0  0  0  0  0
  1  2  1  0  0  0  0
  1 29  1  0  0  0  0
  1 30  1  0  0  0  0
  1 31  1  0  0  0  0
  2  3  1  0  0  0  0
  2 32  1  0  0  0  0
  2 33  1  0  0  0  0
  3  4  1  0  0  0  0
  3 22  1  0  0  0  0
  4  9  1  0  0  0  0
  4  5  2  0  0  0  0
  5  6  1  0  0  0  0
  6  7  2  0  0  0  0
  6 34  1  0  0  0  0
  7  8  1  0  0  0  0
  8 12  1  0  0  0  0
  8  9  2  0  0  0  0
  9 10  1  0  0  0  0
 10 11  2  0  0  0  0
 11 12  1  0  0  0  0
 11 35  1  0  0  0  0
 12 13  1  0  0  0  0
 13 14  1  0  0  0  0
 13 36  1  0  0  0  0
 13 37  1  0  0  0  0
 14 15  1  0  0  0  0
 14 17  1  0  0  0  0
 14 38  1  0  0  0  0
 15 16  1  0  0  0  0
 15 39  1  0  0  0  0
 15 40  1  0  0  0  0
 16 41  1  0  0  0  0
 17 21  1  0  0  0  0
 17 18  1  0  0  0  0
 17 42  1  0  0  0  0
 18 19  1  0  0  0  0
 18 43  1  0  0  0  0
 18 44  1  0  0  0  0
 19 20  1  0  0  0  0
 19 45  1  0  0  0  0
 19 46  1  0  0  0  0
 20 21  1  0  0  0  0
 21 47  1  0  0  0  0
 21 48  1  0  0  0  0
 22 23  1  0  0  0  0
 22 24  1  0  0  0  0
 22 49  1  0  0  0  0
 23 50  1  0  0  0  0
 23 51  1  0  0  0  0
 23 52  1  0  0  0  0
 24 25  1  0  0  0  0
 24 53  1  0  0  0  0
 24 54  1  0  0  0  0
 25 26  1  0  0  0  0
 25 27  2  0  0  0  0
 25 28  2  0  0  0  0
 26 55  1  0  0  0  0
 26 56  1  0  0  0  0
 26 57  1  0  0  0  0
M  END
> <s_m_source_file>
AV-unprocessed.smi

> <i_m_source_file_index>
17

> <i_lp_mmshare_version>
43012

> <i_f3d_flags>
0

> <s_epik_input>
W0NIM11TKD1PKSg9TylbQ0gyXVtDQEBIXShbQ0gzXSlOKFtDSDJdW0NIM10pYyhuW2NIXW4xKWMoYzEyKW5bY0hdbjJbQ0gyXVtDQEhdKFtDSDJdW09IXSlbQ0BASF0zW0NIMl1bQ0gyXU9bQ0gyXTM=

> <s_epik_cmdline>
J2VwaWtfcHl0aG9uJywgJy1waCcsICc3LjAnLCAnLXRuJywgJzgnLCAnLW1hJywgJzIwMCcsICctbWV0YWxfYmluZGluZycsICctaW1hZScsICc8aW5maWxlLm1hZT4nLCAnLW9tYWUnLCAnPG91dGZpbGUubWFlPic=

> <r_lp_tautomer_probability>
1

> <r_epik_Ionization_Penalty>
0.00119955

> <r_epik_Ionization_Penalty_Charging>
0

> <r_epik_Ionization_Penalty_Neutral>
0.00119955

> <r_epik_State_Penalty>
0.000665399

> <r_epik_Charging_Adjusted_Penalty>
0.000665399

> <i_epik_Tot_Q>
0

> <i_epik_Tot_abs_Q>
0

> <r_epik_Metal_State_Penalty>
-0

> <b_epik_Metal_Only>
0

> <s_lp_Force_Field>
OPLS_2005

> <r_lp_Energy>
37.2201

> <b_lp_Chiralities_Consistent>
1

> <s_lp_Variant>
AV-unprocessed.smi:17-3

> <Gold.Version>
5.8.1

> <Gold.Id.Protein>
6NUR|6NUR_protein|mol2

> <Gold.PLP.Fitness>
51.0953

> <Gold.PLP.PLP>
-42.0631

> <Gold.PLP.part.hbond>
-5.6661

> <Gold.PLP.part.metal>
0.0000

> <Gold.PLP.part.buried>
-7.0537

> <Gold.PLP.part.nonpolar>
-30.2019

> <Gold.PLP.part.repulsive>
0.0882

> <Gold.PLP.ligand.clash>
0.0000

> <Gold.PLP.ligand.torsion>
1.2309

> <Gold.PLP.Chemscore.Hbond>
3.6082

> <Gold.PLP.Chemscore.CHOScore>
0.0000

> <Gold.PLP.Chemscore.Metal>
0.0000

> <Gold.Chemscore.Hbonds>
donor molecule, donor type, donor heavy atom, donor atom, acceptor molecule, acceptor atom, score
      L1  H    16    41       P1  8028  0.98
      P1  H  6896  6907       L1    27  1.00
      P1  H  7989  7998       L1     7  0.12
      P1  H  7997  8010       L1     7  0.95
      P1  H 10752 10764       L1     5  0.59

> <Gold.PLP.Chemscore.Internal.Correction>
0.6694

> <Gold.Rescore>
     Score         DG    S(hbond)    S(metal)    S(lipo)     H(rot)  DE(clash)    DE(int)     intcor
     11.51     -15.82       2.64        0.00      89.68       3.51       0.37       3.95       ----

> <Gold.Chemscore.Fitness>
11.5075

> <Gold.Chemscore.DG>
-15.8233

> <Gold.Chemscore.ZeroCoef>
-5.4800

> <Gold.Chemscore.Hbond>
2.6425

> <Gold.Chemscore.Metal>
0.0000

> <Gold.Chemscore.Lipo>
89.6789

> <Gold.Chemscore.Internal_Hbond>
0.0000

> <Gold.Chemscore.DEClash>
0.3673

> <Gold.Chemscore.DEInternal>
3.9485

> <Gold.Chemscore.Rot>
3.5059

> <Gold.Chemscore.Internal.Correction>
   9.000000E+99

> <Gold.Chemscore.Hbonds>
donor molecule, donor type, donor heavy atom, donor atom, acceptor molecule, acceptor atom, score
      L1  H    16    41       P1  8028  0.27
      P1  H  6896  6907       L1    27  0.97
      P1  H  7997  8010       L1     7  0.20
      P1  H 10752 10764       L1     5  0.54

> <Gold.Chemscore.Hbond.Weighted>
-8.8258

> <Gold.Chemscore.Metal.Weighted>
-0.0000

> <Gold.Chemscore.Lipo.Weighted>
-10.4924

> <Gold.Chemscore.Internal_Hbond.Weighted>
0.0000

> <Gold.Chemscore.DEClash.Weighted>
0.3673

> <Gold.Chemscore.DEInternal.Weighted>
3.9485

> <Gold.Chemscore.Rot.Weighted>
8.9750

> <Gold.Chemscore.Internal.Correction.Weighted>
   9.000000E+99

> <Gold.Protein.RotatedTorsions>
[ 6907 6896 6895 6894 ] final -102.00 input  -60.11 | X-H torsion
[ 7974 7965 7964 7962 ] final   80.16 input  175.53 | X-H torsion
[ 8008 7997 7996 7995 ] final   87.12 input   59.86 | X-H torsion
[ 10167 10162 10161 10158 ] final  -54.34 input  -65.29 | X-H torsion
[ 10718 10713 10712 10709 ] final   87.96 input   66.30 | X-H torsion
[ 10763 10752 10751 10750 ] final  -63.66 input  -60.55 | X-H torsion
[ 11005 11000 10999 10996 ] final -159.28 input  -57.11 | X-H torsion

> <Gold.Protein.ActiveResidues>
 VAL166  LYS551  ARG553  GLY616  TRP617  ASP618  TYR619  PRO620  LYS621  CYS622 
 ASP623  PHE694  ASN695  SER759  ASP760  ASP761  ALA762  ILE779  LEU786  VAL792 
 PHE793  MET794  SER795  GLU796  ALA797  LYS798  CYS799  TRP800  GLU811  SER814 

> <Gold.Protein.RotatedAtoms>
  150.7177  134.0649  159.3843 H   0  0  0  0  0  0  0  0  0  0  0  0  # atno 6907 bound_to 6896
  151.8630  135.0515  160.0480 H   0  0  0  0  0  0  0  0  0  0  0  0  # atno 6908 bound_to 6896
  152.2703  133.5340  159.5471 H   0  0  0  0  0  0  0  0  0  0  0  0  # atno 6909 bound_to 6896
  145.6548  139.2456  143.1956 H   0  0  0  0  0  0  0  0  0  0  0  0  # atno 7974 bound_to 7965
  155.9714  140.3385  155.6579 H   0  0  0  0  0  0  0  0  0  0  0  0  # atno 8008 bound_to 7997
  155.6670  140.0722  157.2552 H   0  0  0  0  0  0  0  0  0  0  0  0  # atno 8009 bound_to 7997
  154.4167  140.1698  156.1825 H   0  0  0  0  0  0  0  0  0  0  0  0  # atno 8010 bound_to 7997
  140.6435  143.2522  151.4923 H   0  0  0  0  0  0  0  0  0  0  0  0  # atno 10167 bound_to 10162
  157.6945  131.0276  150.3202 H   0  0  0  0  0  0  0  0  0  0  0  0  # atno 10718 bound_to 10713
  154.3184  135.6201  153.5496 H   0  0  0  0  0  0  0  0  0  0  0  0  # atno 10763 bound_to 10752
  152.9822  135.5718  154.5098 H   0  0  0  0  0  0  0  0  0  0  0  0  # atno 10764 bound_to 10752
  154.4761  135.2861  155.1582 H   0  0  0  0  0  0  0  0  0  0  0  0  # atno 10765 bound_to 10752
  140.6443  134.4518  157.5234 H   0  0  0  0  0  0  0  0  0  0  0  0  # atno 11005 bound_to 11000
  146.1174  140.7352  142.9474 LP  0  0  0  0  0  0  0  0  0  0  0  0  # atno 17320 bound_to 7965
  144.7110  140.4036  143.7081 LP  0  0  0  0  0  0  0  0  0  0  0  0  # atno 17321 bound_to 7965
  139.5645  144.2075  152.1744 LP  0  0  0  0  0  0  0  0  0  0  0  0  # atno 17342 bound_to 10162
  140.1353  144.5251  150.6777 LP  0  0  0  0  0  0  0  0  0  0  0  0  # atno 17343 bound_to 10162
  156.3690  130.3860  149.7190 LP  0  0  0  0  0  0  0  0  0  0  0  0  # atno 17370 bound_to 10713
  156.4611  130.7952  151.2972 LP  0  0  0  0  0  0  0  0  0  0  0  0  # atno 17371 bound_to 10713
  139.9069  134.8430  156.1674 LP  0  0  0  0  0  0  0  0  0  0  0  0  # atno 17394 bound_to 11000
  141.0584  133.6854  156.1904 LP  0  0  0  0  0  0  0  0  0  0  0  0  # atno 17395 bound_to 11000

$$$$
