#       Name:                AV-unprocessed.smi:475
#       Creating user name   scv26
#       Creation time:       Thu Mar 26 23:08:12 2020


#       File generated by GOLD software.
#

@<TRIPOS>MOLECULE
AV-unprocessed.smi:475
    44    46     1
SMALL
NO_CHARGES


@<TRIPOS>ATOM
      1 ****        -1.4006   2.8857   0.0653 C.3            1 S1                 0.0000
      2 ****        -1.4356   1.7094   0.8538 O.3            1 S1                 0.0000
      3 ****        -2.1141   0.6429   0.2102 C.3            1 S1                 0.0000
      4 ****        -2.0979  -0.6021   1.1094 C.3            1 S1                 0.0000
      5 ****        -0.7482  -0.9837   1.4991 N.pl3          1 S1                 0.0000
      6 ****         0.1593  -1.6821   0.7745 C.2            1 S1                 0.0000
      7 ****        -0.2067  -2.2601  -0.8516 S.3            1 S1                 0.0000
      8 ****         1.4210  -1.9977  -1.6121 C.3            1 S1                 0.0000
      9 ****         1.2687  -1.7348  -3.1069 C.2            1 S1                 0.0000
     10 ****         1.5010  -2.6375  -3.9106 O.2            1 S1                 0.0000
     11 ****         0.8436  -0.4016  -3.5257 C.2            1 S1                 0.0000
     12 ****         0.5727   0.7446  -2.8272 C.2            1 S1                 0.0000
     13 ****         0.1930   1.7487  -3.7670 C.2            1 S1                 0.0000
     14 ****         0.2433   1.1953  -5.0173 C.2            1 S1                 0.0000
     15 ****         0.6416  -0.1150  -4.8601 N.pl3          1 S1                 0.0000
     16 ****         1.3325  -1.8965   1.3721 N.2            1 S1                 0.0000
     17 ****         1.1731  -1.2711   2.5929 C.ar           1 S1                 0.0000
     18 ****         2.0661  -1.1386   3.6803 C.ar           1 S1                 0.0000
     19 ****         1.6770  -0.4406   4.8422 C.ar           1 S1                 0.0000
     20 ****         0.3929   0.1344   4.9329 C.ar           1 S1                 0.0000
     21 ****        -0.5125   0.0131   3.8612 C.ar           1 S1                 0.0000
     22 ****        -0.1197  -0.6864   2.7043 C.ar           1 S1                 0.0000
     23 ****         0.7671  -0.7759  -5.6139 H              1 S1                 0.0000
     24 ****        -0.8716   3.6715   0.6041 H              1 S1                 0.0000
     25 ****        -2.4072   3.2450  -0.1518 H              1 S1                 0.0000
     26 ****        -0.8793   2.7148  -0.8772 H              1 S1                 0.0000
     27 ****        -3.1449   0.9295  -0.0029 H              1 S1                 0.0000
     28 ****        -1.6368   0.4219  -0.7452 H              1 S1                 0.0000
     29 ****        -2.6807  -0.4138   2.0115 H              1 S1                 0.0000
     30 ****        -2.5770  -1.4434   0.6079 H              1 S1                 0.0000
     31 ****         1.9131  -1.1394  -1.1545 H              1 S1                 0.0000
     32 ****         2.0527  -2.8695  -1.4398 H              1 S1                 0.0000
     33 ****         0.6374   0.8538  -1.7543 H              1 S1                 0.0000
     34 ****        -0.0866   2.7687  -3.5489 H              1 S1                 0.0000
     35 ****         0.0354   1.6054  -5.9946 H              1 S1                 0.0000
     36 ****         3.0525  -1.5740   3.6199 H              1 S1                 0.0000
     37 ****         2.3675  -0.3447   5.6674 H              1 S1                 0.0000
     38 ****         0.1030   0.6692   5.8255 H              1 S1                 0.0000
     39 ****        -1.4953   0.4552   3.9275 H              1 S1                 0.0000
     40 ****        -1.9029   1.9139   1.7139 LP             1 S1                 0.0000
     41 ****        -0.4966   1.4232   1.0444 LP             1 S1                 0.0000
     42 ****         1.7879  -3.5375  -3.5825 LP             1 S1                 0.0000
     43 ****         1.4028  -2.4710  -4.8917 LP             1 S1                 0.0000
     44 ****         2.1300  -2.3883   1.0226 LP             1 S1                 0.0000
@<TRIPOS>BOND
    1    1    2 1     
    2    1   24 1     
    3    1   25 1     
    4    1   26 1     
    5    2    3 1     
    6    3    4 1     
    7    3   27 1     
    8    3   28 1     
    9    4    5 1     
   10    4   29 1     
   11    4   30 1     
   12    5   22 1     
   13    5    6 1     
   14    6    7 1     
   15    6   16 2     
   16    7    8 1     
   17    8    9 1     
   18    8   31 1     
   19    8   32 1     
   20    9   10 2     
   21    9   11 1     
   22   11   15 1     
   23   11   12 2     
   24   12   13 1     
   25   12   33 1     
   26   13   14 2     
   27   13   34 1     
   28   14   15 1     
   29   14   35 1     
   30   15   23 1     
   31   16   17 1     
   32   17   22 ar    
   33   17   18 ar    
   34   18   19 ar    
   35   18   36 1     
   36   19   20 ar    
   37   19   37 1     
   38   20   21 ar    
   39   20   38 1     
   40   21   22 ar    
   41   21   39 1     
   42    2   40 1     
   43    2   41 1     
   44   10   42 1     
   45   10   43 1     
   46   16   44 1     
@<TRIPOS>SUBSTRUCTURE
      1 S1             1
@<TRIPOS>SET
LONE_PAIRS      STATIC     ATOMS    <user>   **** ""
5 40 41 42 43 44
DONOR_HYDROGENS      STATIC     ATOMS    <user>   **** ""
1 23
ATOM$BLUE        STATIC     ATOMS    COLORGROUP SYSTEM
5 40 41 42 43 44
ATOM$RED        STATIC     ATOMS    COLORGROUP SYSTEM
1 23
