AV-unprocessed.smi:1240|AV-procd|sdf|5200|dock9
  -GOLD-   22720 4283D 1   1.00000     0.00000
 Structure written by MMmdl.
 48 50  0  0  0  0  0  0  0  0  2 V2000
  144.8553  137.3558  151.8511 O   0  0  0  0  0  0  0  0  0  0  0  0
  146.0275  136.9823  151.8121 C   0  0  0  0  0  0  0  0  0  0  0  0
  147.0691  137.8239  151.8770 N   0  0  0  0  0  0  0  0  0  0  0  0
  146.9653  139.2732  152.0041 C   0  0  0  0  0  0  0  0  0  0  0  0
  147.1538  139.7965  153.4579 C   0  0  1  0  0  0  0  0  0  0  0  0
  148.6324  140.0964  153.8370 C   0  0  2  0  0  0  0  0  0  0  0  0
  149.5220  138.8824  154.0670 C   0  0  0  0  0  0  0  0  0  0  0  0
  150.6505  139.4218  154.9456 C   0  0  0  0  0  0  0  0  0  0  0  0
  150.1613  140.6223  155.5323 O   0  0  0  0  0  0  0  0  0  0  0  0
  148.7951  140.7943  155.1902 C   0  0  0  0  0  0  0  0  0  0  0  0
  146.3053  140.9966  153.7276 N   0  3  0  0  0  0  0  0  0  0  0  0
  145.7728  141.1246  155.1081 C   0  0  0  0  0  0  0  0  0  0  0  0
  144.7800  142.2967  155.1789 C   0  0  0  0  0  0  0  0  0  0  0  0
  145.4261  143.4933  154.7601 O   0  0  0  0  0  0  0  0  0  0  0  0
  145.8789  143.4157  153.4133 C   0  0  0  0  0  0  0  0  0  0  0  0
  146.9033  142.2767  153.2752 C   0  0  0  0  0  0  0  0  0  0  0  0
  146.4393  135.7086  151.6907 N   0  0  0  0  0  0  0  0  0  0  0  0
  145.6578  134.5230  151.6327 C   0  0  0  0  0  0  0  0  0  0  0  0
  144.2969  134.6512  151.2859 C   0  0  0  0  0  0  0  0  0  0  0  0
  143.5041  133.4891  151.2040 C   0  0  0  0  0  0  0  0  0  0  0  0
  143.9824  132.2478  151.4309 N   0  0  0  0  0  0  0  0  0  0  0  0
  145.2887  132.1251  151.7483 C   0  0  0  0  0  0  0  0  0  0  0  0
  146.1677  133.2216  151.8583 C   0  0  0  0  0  0  0  0  0  0  0  0
  147.9998  137.4350  151.8307 H   0  0  0  0  0  0  0  0  0  0  0  0
  147.7222  139.7032  151.3481 H   0  0  0  0  0  0  0  0  0  0  0  0
  146.0006  139.5805  151.5991 H   0  0  0  0  0  0  0  0  0  0  0  0
  146.8092  139.0230  154.1460 H   0  0  0  0  0  0  0  0  0  0  0  0
  149.0962  140.7168  153.0691 H   0  0  0  0  0  0  0  0  0  0  0  0
  148.9755  138.1080  154.6074 H   0  0  0  0  0  0  0  0  0  0  0  0
  149.9032  138.4460  153.1438 H   0  0  0  0  0  0  0  0  0  0  0  0
  150.9428  138.7034  155.7120 H   0  0  0  0  0  0  0  0  0  0  0  0
  151.5323  139.6583  154.3493 H   0  0  0  0  0  0  0  0  0  0  0  0
  148.5336  141.8523  155.1558 H   0  0  0  0  0  0  0  0  0  0  0  0
  148.1777  140.3156  155.9521 H   0  0  0  0  0  0  0  0  0  0  0  0
  145.2722  140.2060  155.4129 H   0  0  0  0  0  0  0  0  0  0  0  0
  146.5856  141.3004  155.8139 H   0  0  0  0  0  0  0  0  0  0  0  0
  143.9037  142.1041  154.5578 H   0  0  0  0  0  0  0  0  0  0  0  0
  144.4237  142.4269  156.2009 H   0  0  0  0  0  0  0  0  0  0  0  0
  145.0326  143.2625  152.7416 H   0  0  0  0  0  0  0  0  0  0  0  0
  146.3350  144.3671  153.1385 H   0  0  0  0  0  0  0  0  0  0  0  0
  147.7916  142.5079  153.8637 H   0  0  0  0  0  0  0  0  0  0  0  0
  147.2197  142.1965  152.2346 H   0  0  0  0  0  0  0  0  0  0  0  0
  147.4337  135.5721  151.5841 H   0  0  0  0  0  0  0  0  0  0  0  0
  143.8617  135.6202  151.0902 H   0  0  0  0  0  0  0  0  0  0  0  0
  142.4575  133.5597  150.9467 H   0  0  0  0  0  0  0  0  0  0  0  0
  145.6479  131.1199  151.9133 H   0  0  0  0  0  0  0  0  0  0  0  0
  147.2039  133.0408  152.0979 H   0  0  0  0  0  0  0  0  0  0  0  0
  145.4948  140.8721  153.1376 H   0  0  0  0  0  0  0  0  0  0  0  0
  1  2  2  0  0  0  0
  2  3  1  0  0  0  0
  2 17  1  0  0  0  0
  3  4  1  0  0  0  0
  3 24  1  0  0  0  0
  4  5  1  0  0  0  0
  4 25  1  0  0  0  0
  4 26  1  0  0  0  0
  5  6  1  0  0  0  0
  5 11  1  0  0  0  0
  5 27  1  0  0  0  0
  6 10  1  0  0  0  0
  6  7  1  0  0  0  0
  6 28  1  0  0  0  0
  7  8  1  0  0  0  0
  7 29  1  0  0  0  0
  7 30  1  0  0  0  0
  8  9  1  0  0  0  0
  8 31  1  0  0  0  0
  8 32  1  0  0  0  0
  9 10  1  0  0  0  0
 10 33  1  0  0  0  0
 10 34  1  0  0  0  0
 11 16  1  0  0  0  0
 11 12  1  0  0  0  0
 11 48  1  0  0  0  0
 12 13  1  0  0  0  0
 12 35  1  0  0  0  0
 12 36  1  0  0  0  0
 13 14  1  0  0  0  0
 13 37  1  0  0  0  0
 13 38  1  0  0  0  0
 14 15  1  0  0  0  0
 15 16  1  0  0  0  0
 15 39  1  0  0  0  0
 15 40  1  0  0  0  0
 16 41  1  0  0  0  0
 16 42  1  0  0  0  0
 17 18  1  0  0  0  0
 17 43  1  0  0  0  0
 18 23  1  0  0  0  0
 18 19  2  0  0  0  0
 19 20  1  0  0  0  0
 19 44  1  0  0  0  0
 20 21  2  0  0  0  0
 20 45  1  0  0  0  0
 21 22  1  0  0  0  0
 22 23  2  0  0  0  0
 22 46  1  0  0  0  0
 23 47  1  0  0  0  0
M  CHG  1  11   1
M  END
> <s_m_source_file>
AV-unprocessed.smi

> <i_m_source_file_index>
1240

> <i_lp_mmshare_version>
43012

> <i_f3d_flags>
0

> <s_epik_input>
W2NIXTFbY0hdbltjSF1bY0hdYzFbTkhdQyg9TylbTkhdW0NIMl1bQ0BIXShbQ0BASF0yW0NIMl1bQ0gyXU9bQ0gyXTIpTjNbQ0gyXVtDSDJdT1tDSDJdW0NIMl0z

> <s_epik_cmdline>
J2VwaWtfcHl0aG9uJywgJy1waCcsICc3LjAnLCAnLXRuJywgJzgnLCAnLW1hJywgJzIwMCcsICctbWV0YWxfYmluZGluZycsICctaW1hZScsICc8aW5maWxlLm1hZT4nLCAnLW9tYWUnLCAnPG91dGZpbGUubWFlPic=

> <r_epik_Ionization_Penalty>
1.08433

> <r_epik_Ionization_Penalty_Charging>
0.98326

> <r_epik_Ionization_Penalty_Neutral>
0.10107

> <r_epik_State_Penalty>
1.11265

> <r_epik_Charging_Adjusted_Penalty>
2.09591

> <i_epik_Tot_Q>
1

> <i_epik_Tot_abs_Q>
1

> <r_epik_Metal_State_Penalty>
1.10731

> <b_epik_Metal_Only>
0

> <s_lp_Force_Field>
OPLS_2005

> <r_lp_Energy>
42.8142

> <b_lp_Chiralities_Consistent>
1

> <s_lp_Variant>
AV-unprocessed.smi:1240-6

> <Gold.Version>
5.8.1

> <Gold.Id.Protein>
6NUR|6NUR_protein|mol2

> <Gold.PLP.Fitness>
48.9182

> <Gold.PLP.PLP>
-36.6433

> <Gold.PLP.part.hbond>
-2.8030

> <Gold.PLP.part.metal>
0.0000

> <Gold.PLP.part.buried>
-3.7430

> <Gold.PLP.part.nonpolar>
-31.8981

> <Gold.PLP.part.repulsive>
2.3031

> <Gold.PLP.ligand.clash>
0.0000

> <Gold.PLP.ligand.torsion>
1.3970

> <Gold.PLP.Chemscore.Hbond>
3.9360

> <Gold.PLP.Chemscore.CHOScore>
1.0000

> <Gold.PLP.Chemscore.Metal>
0.0000

> <Gold.Chemscore.Hbonds>
donor molecule, donor type, donor heavy atom, donor atom, acceptor molecule, acceptor atom, score
      L1  H     3    24       P1  7948  0.94
      L1  H    11    48       P1 10175  2.00
      L1  H    17    43       P1  7948  0.94
      L1  C    20    45       P1 10186  1.00

> <Gold.PLP.Chemscore.Internal.Correction>
0.2608

> <Gold.Rescore>
     Score         DG    S(hbond)    S(metal)    S(lipo)     H(rot)  DE(clash)    DE(int)     intcor
     16.99     -20.05       2.87        0.00      79.75       1.70       0.26       2.80       ----

> <Gold.Chemscore.Fitness>
16.9946

> <Gold.Chemscore.DG>
-20.0463

> <Gold.Chemscore.ZeroCoef>
-5.4800

> <Gold.Chemscore.Hbond>
2.8721

> <Gold.Chemscore.Metal>
0.0000

> <Gold.Chemscore.Lipo>
79.7518

> <Gold.Chemscore.Internal_Hbond>
0.0000

> <Gold.Chemscore.DEClash>
0.2560

> <Gold.Chemscore.DEInternal>
2.7956

> <Gold.Chemscore.Rot>
1.7021

> <Gold.Chemscore.Internal.Correction>
   9.000000E+99

> <Gold.Chemscore.Hbonds>
donor molecule, donor type, donor heavy atom, donor atom, acceptor molecule, acceptor atom, score
      L1  H     3    24       P1  7948  0.87
      L1  H    11    48       P1 10175  0.54
      L1  H    17    43       P1  7948  0.88

> <Gold.Chemscore.Hbond.Weighted>
-9.5928

> <Gold.Chemscore.Metal.Weighted>
-0.0000

> <Gold.Chemscore.Lipo.Weighted>
-9.3310

> <Gold.Chemscore.Internal_Hbond.Weighted>
0.0000

> <Gold.Chemscore.DEClash.Weighted>
0.2560

> <Gold.Chemscore.DEInternal.Weighted>
2.7956

> <Gold.Chemscore.Rot.Weighted>
4.3575

> <Gold.Chemscore.Internal.Correction.Weighted>
   9.000000E+99

> <Gold.Protein.RotatedTorsions>
[ 6907 6896 6895 6894 ] final   98.42 input  -60.11 | X-H torsion
[ 7974 7965 7964 7962 ] final  -32.02 input  175.53 | X-H torsion
[ 8008 7997 7996 7995 ] final  177.53 input   59.86 | X-H torsion
[ 10167 10162 10161 10158 ] final -102.92 input  -65.29 | X-H torsion
[ 10718 10713 10712 10709 ] final   75.22 input   66.30 | X-H torsion
[ 10763 10752 10751 10750 ] final -105.66 input  -60.55 | X-H torsion
[ 11005 11000 10999 10996 ] final  141.45 input  -57.11 | X-H torsion

> <Gold.Protein.ActiveResidues>
 VAL166  LYS551  ARG553  GLY616  TRP617  ASP618  TYR619  PRO620  LYS621  CYS622 
 ASP623  PHE694  ASN695  SER759  ASP760  ASP761  ALA762  ILE779  LEU786  VAL792 
 PHE793  MET794  SER795  GLU796  ALA797  LYS798  CYS799  TRP800  GLU811  SER814 

> <Gold.Protein.RotatedAtoms>
  152.5409  134.0584  159.8140 H   0  0  0  0  0  0  0  0  0  0  0  0  # atno 6907 bound_to 6896
  151.0715  133.5455  159.2634 H   0  0  0  0  0  0  0  0  0  0  0  0  # atno 6908 bound_to 6896
  151.2316  135.0564  159.9044 H   0  0  0  0  0  0  0  0  0  0  0  0  # atno 6909 bound_to 6896
  146.1022  140.5740  142.8816 H   0  0  0  0  0  0  0  0  0  0  0  0  # atno 7974 bound_to 7965
  156.0646  140.1356  156.9900 H   0  0  0  0  0  0  0  0  0  0  0  0  # atno 8008 bound_to 7997
  154.4500  140.0984  156.6640 H   0  0  0  0  0  0  0  0  0  0  0  0  # atno 8009 bound_to 7997
  155.5323  140.3459  155.4431 H   0  0  0  0  0  0  0  0  0  0  0  0  # atno 8010 bound_to 7997
  140.2255  143.3644  152.0932 H   0  0  0  0  0  0  0  0  0  0  0  0  # atno 10167 bound_to 10162
  157.6625  130.9716  150.1323 H   0  0  0  0  0  0  0  0  0  0  0  0  # atno 10718 bound_to 10713
  154.7961  135.4741  154.0165 H   0  0  0  0  0  0  0  0  0  0  0  0  # atno 10763 bound_to 10752
  153.1706  135.6824  153.8620 H   0  0  0  0  0  0  0  0  0  0  0  0  # atno 10764 bound_to 10752
  153.8204  135.3205  155.3387 H   0  0  0  0  0  0  0  0  0  0  0  0  # atno 10765 bound_to 10752
  140.0402  134.9308  157.0829 H   0  0  0  0  0  0  0  0  0  0  0  0  # atno 11005 bound_to 11000
  144.7442  140.5023  143.6848 LP  0  0  0  0  0  0  0  0  0  0  0  0  # atno 17320 bound_to 7965
  145.5831  139.1490  143.3224 LP  0  0  0  0  0  0  0  0  0  0  0  0  # atno 17321 bound_to 7965
  139.5128  144.6923  151.5725 LP  0  0  0  0  0  0  0  0  0  0  0  0  # atno 17342 bound_to 10162
  140.6223  143.9234  150.6536 LP  0  0  0  0  0  0  0  0  0  0  0  0  # atno 17343 bound_to 10162
  156.2166  130.3671  149.8605 LP  0  0  0  0  0  0  0  0  0  0  0  0  # atno 17370 bound_to 10713
  156.6469  130.8728  151.3524 LP  0  0  0  0  0  0  0  0  0  0  0  0  # atno 17371 bound_to 10713
  140.4082  134.2010  155.7163 LP  0  0  0  0  0  0  0  0  0  0  0  0  # atno 17394 bound_to 11000
  141.1879  133.8272  157.1015 LP  0  0  0  0  0  0  0  0  0  0  0  0  # atno 17395 bound_to 11000

$$$$
