AV-unprocessed.smi:826|AV-procd|sdf|3852|dock7
  -GOLD-   22720 1303D 1   1.00000     0.00000
 Structure written by MMmdl.
 39 40  0  0  0  0  0  0  0  0  1 V2000
  150.8790  142.3057  156.4058 C   0  0  0  0  0  0  0  0  0  0  0  0
  150.5176  141.1246  155.5718 C   0  0  0  0  0  0  0  0  0  0  0  0
  151.4286  140.2498  155.1290 N   0  0  0  0  0  0  0  0  0  0  0  0
  150.8594  139.2361  154.3707 N   0  0  0  0  0  0  0  0  0  0  0  0
  149.5311  139.3767  154.2645 C   0  0  0  0  0  0  0  0  0  0  0  0
  148.6980  138.4852  153.5387 N   0  0  0  0  0  0  0  0  0  0  0  0
  147.3600  138.5133  153.4091 C   0  0  0  0  0  0  0  0  0  0  0  0
  146.6140  139.3645  153.8947 O   0  0  0  0  0  0  0  0  0  0  0  0
  146.9227  137.4832  152.6693 N   0  0  0  0  0  0  0  0  0  0  0  0
  145.5257  137.2312  152.3199 C   0  0  2  0  0  0  0  0  0  0  0  0
  144.6660  137.5031  153.5656 C   0  0  0  0  0  0  0  0  0  0  0  0
  145.3337  135.7613  151.9154 C   0  0  0  0  0  0  0  0  0  0  0  0
  144.2322  135.3522  151.5442 O   0  0  0  0  0  0  0  0  0  0  0  0
  146.4224  134.9807  151.9852 N   0  0  0  0  0  0  0  0  0  0  0  0
  146.4549  133.5579  151.6597 C   0  0  0  0  0  0  0  0  0  0  0  0
  145.9705  133.2901  150.2189 C   0  0  0  0  0  0  0  0  0  0  0  0
  144.9185  132.1843  150.3232 C   0  0  0  0  0  0  0  0  0  0  0  0
  144.3147  132.3698  151.7114 C   0  0  0  0  0  0  0  0  0  0  0  0
  145.5060  132.7704  152.5815 C   0  0  0  0  0  0  0  0  0  0  0  0
  148.8614  140.7707  155.0947 S   0  0  0  0  0  0  0  0  0  0  0  0
  151.7176  142.8398  155.9586 H   0  0  0  0  0  0  0  0  0  0  0  0
  151.1611  141.9827  157.4080 H   0  0  0  0  0  0  0  0  0  0  0  0
  150.0333  142.9895  156.4833 H   0  0  0  0  0  0  0  0  0  0  0  0
  149.1766  137.7287  153.0730 H   0  0  0  0  0  0  0  0  0  0  0  0
  147.6048  136.8361  152.3022 H   0  0  0  0  0  0  0  0  0  0  0  0
  145.2160  137.8938  151.5091 H   0  0  0  0  0  0  0  0  0  0  0  0
  143.6086  137.3273  153.3634 H   0  0  0  0  0  0  0  0  0  0  0  0
  144.7650  138.5406  153.8866 H   0  0  0  0  0  0  0  0  0  0  0  0
  144.9543  136.8696  154.4062 H   0  0  0  0  0  0  0  0  0  0  0  0
  147.2859  135.3971  152.3027 H   0  0  0  0  0  0  0  0  0  0  0  0
  147.4705  133.1810  151.7945 H   0  0  0  0  0  0  0  0  0  0  0  0
  145.5054  134.1823  149.7961 H   0  0  0  0  0  0  0  0  0  0  0  0
  146.7897  133.0114  149.5556 H   0  0  0  0  0  0  0  0  0  0  0  0
  144.1734  132.2373  149.5292 H   0  0  0  0  0  0  0  0  0  0  0  0
  145.4031  131.2088  150.2617 H   0  0  0  0  0  0  0  0  0  0  0  0
  143.5845  133.1801  151.6899 H   0  0  0  0  0  0  0  0  0  0  0  0
  143.8104  131.4740  152.0752 H   0  0  0  0  0  0  0  0  0  0  0  0
  146.0115  131.8683  152.9290 H   0  0  0  0  0  0  0  0  0  0  0  0
  145.2002  133.3260  153.4690 H   0  0  0  0  0  0  0  0  0  0  0  0
  1  2  1  0  0  0  0
  1 21  1  0  0  0  0
  1 22  1  0  0  0  0
  1 23  1  0  0  0  0
  2 20  1  0  0  0  0
  2  3  2  0  0  0  0
  3  4  1  0  0  0  0
  4  5  2  0  0  0  0
  5  6  1  0  0  0  0
  5 20  1  0  0  0  0
  6  7  1  0  0  0  0
  6 24  1  0  0  0  0
  7  8  2  0  0  0  0
  7  9  1  0  0  0  0
  9 10  1  0  0  0  0
  9 25  1  0  0  0  0
 10 11  1  0  0  0  0
 10 12  1  0  0  0  0
 10 26  1  0  0  0  0
 11 27  1  0  0  0  0
 11 28  1  0  0  0  0
 11 29  1  0  0  0  0
 12 13  2  0  0  0  0
 12 14  1  0  0  0  0
 14 15  1  0  0  0  0
 14 30  1  0  0  0  0
 15 19  1  0  0  0  0
 15 16  1  0  0  0  0
 15 31  1  0  0  0  0
 16 17  1  0  0  0  0
 16 32  1  0  0  0  0
 16 33  1  0  0  0  0
 17 18  1  0  0  0  0
 17 34  1  0  0  0  0
 17 35  1  0  0  0  0
 18 19  1  0  0  0  0
 18 36  1  0  0  0  0
 18 37  1  0  0  0  0
 19 38  1  0  0  0  0
 19 39  1  0  0  0  0
M  END
> <s_m_source_file>
AV-unprocessed.smi

> <i_m_source_file_index>
826

> <i_lp_mmshare_version>
43012

> <i_f3d_flags>
0

> <s_epik_input>
W0NIM11jMW5uYyhzMSlbTkhdQyg9TylbTkhdW0NASF0oW0NIM10pQyg9TylbTkhdW0NIXTJbQ0gyXVtDSDJdW0NIMl1bQ0gyXTI=

> <s_epik_cmdline>
J2VwaWtfcHl0aG9uJywgJy1waCcsICc3LjAnLCAnLXRuJywgJzgnLCAnLW1hJywgJzIwMCcsICctbWV0YWxfYmluZGluZycsICctaW1hZScsICc8aW5maWxlLm1hZT4nLCAnLW9tYWUnLCAnPG91dGZpbGUubWFlPic=

> <r_lp_tautomer_probability>
1

> <r_epik_Ionization_Penalty>
0.00368568

> <r_epik_Ionization_Penalty_Charging>
0

> <r_epik_Ionization_Penalty_Neutral>
0.00368568

> <r_epik_State_Penalty>
-0

> <r_epik_Charging_Adjusted_Penalty>
0

> <i_epik_Tot_Q>
0

> <i_epik_Tot_abs_Q>
0

> <r_epik_Metal_State_Penalty>
0.369753

> <b_epik_Metal_Only>
0

> <s_lp_Force_Field>
OPLS_2005

> <r_lp_Energy>
15.7146

> <b_lp_Chiralities_Consistent>
1

> <s_lp_Variant>
AV-unprocessed.smi:826-1

> <Gold.Version>
5.8.1

> <Gold.Id.Protein>
6NUR|6NUR_protein|mol2

> <Gold.PLP.Fitness>
38.7794

> <Gold.PLP.PLP>
-32.0885

> <Gold.PLP.part.hbond>
-5.9034

> <Gold.PLP.part.metal>
0.0000

> <Gold.PLP.part.buried>
-3.1160

> <Gold.PLP.part.nonpolar>
-23.6206

> <Gold.PLP.part.repulsive>
0.6341

> <Gold.PLP.ligand.clash>
1.2895

> <Gold.PLP.ligand.torsion>
0.2921

> <Gold.PLP.Chemscore.Hbond>
2.8473

> <Gold.PLP.Chemscore.CHOScore>
0.0000

> <Gold.PLP.Chemscore.Metal>
0.0000

> <Gold.Chemscore.Hbonds>
donor molecule, donor type, donor heavy atom, donor atom, acceptor molecule, acceptor atom, score
      L1  H     6    24       P1  7948  0.91
      L1  H     9    25       P1  7948  1.00
      L1  H    14    30       P1  7948  0.94

> <Gold.PLP.Chemscore.Internal.Correction>
0.0229

> <Gold.Rescore>
     Score         DG    S(hbond)    S(metal)    S(lipo)     H(rot)  DE(clash)    DE(int)     intcor
     13.28     -18.45       2.90        0.00      64.00       1.65       0.71       4.46       ----

> <Gold.Chemscore.Fitness>
13.2836

> <Gold.Chemscore.DG>
-18.4499

> <Gold.Chemscore.ZeroCoef>
-5.4800

> <Gold.Chemscore.Hbond>
2.9027

> <Gold.Chemscore.Metal>
0.0000

> <Gold.Chemscore.Lipo>
64.0007

> <Gold.Chemscore.Internal_Hbond>
0.0000

> <Gold.Chemscore.DEClash>
0.7071

> <Gold.Chemscore.DEInternal>
4.4591

> <Gold.Chemscore.Rot>
1.6458

> <Gold.Chemscore.Internal.Correction>
   9.000000E+99

> <Gold.Chemscore.Hbonds>
donor molecule, donor type, donor heavy atom, donor atom, acceptor molecule, acceptor atom, score
      L1  H     6    24       P1  7948  0.89
      L1  H     9    25       P1  7948  0.93
      L1  H    14    30       P1  7948  0.91

> <Gold.Chemscore.Hbond.Weighted>
-9.6951

> <Gold.Chemscore.Metal.Weighted>
-0.0000

> <Gold.Chemscore.Lipo.Weighted>
-7.4881

> <Gold.Chemscore.Internal_Hbond.Weighted>
0.0000

> <Gold.Chemscore.DEClash.Weighted>
0.7071

> <Gold.Chemscore.DEInternal.Weighted>
4.4591

> <Gold.Chemscore.Rot.Weighted>
4.2133

> <Gold.Chemscore.Internal.Correction.Weighted>
   9.000000E+99

> <Gold.Protein.RotatedTorsions>
[ 6907 6896 6895 6894 ] final  -77.71 input  -60.11 | X-H torsion
[ 7974 7965 7964 7962 ] final  111.45 input  175.53 | X-H torsion
[ 8008 7997 7996 7995 ] final   88.70 input   59.86 | X-H torsion
[ 10167 10162 10161 10158 ] final -119.87 input  -65.29 | X-H torsion
[ 10718 10713 10712 10709 ] final -154.83 input   66.30 | X-H torsion
[ 10763 10752 10751 10750 ] final  112.40 input  -60.55 | X-H torsion
[ 11005 11000 10999 10996 ] final  113.30 input  -57.11 | X-H torsion

> <Gold.Protein.ActiveResidues>
 VAL166  LYS551  ARG553  GLY616  TRP617  ASP618  TYR619  PRO620  LYS621  CYS622 
 ASP623  PHE694  ASN695  SER759  ASP760  ASP761  ALA762  ILE779  LEU786  VAL792 
 PHE793  MET794  SER795  GLU796  ALA797  LYS798  CYS799  TRP800  GLU811  SER814 

> <Gold.Protein.RotatedAtoms>
  150.6991  134.4381  159.5279 H   0  0  0  0  0  0  0  0  0  0  0  0  # atno 6907 bound_to 6896
  152.2096  134.8511  160.0508 H   0  0  0  0  0  0  0  0  0  0  0  0  # atno 6908 bound_to 6896
  151.9401  133.3600  159.3999 H   0  0  0  0  0  0  0  0  0  0  0  0  # atno 6909 bound_to 6896
  145.2420  139.2774  143.4112 H   0  0  0  0  0  0  0  0  0  0  0  0  # atno 7974 bound_to 7965
  155.9910  140.3369  155.6753 H   0  0  0  0  0  0  0  0  0  0  0  0  # atno 8008 bound_to 7997
  155.6421  140.0696  157.2633 H   0  0  0  0  0  0  0  0  0  0  0  0  # atno 8009 bound_to 7997
  154.4219  140.1741  156.1571 H   0  0  0  0  0  0  0  0  0  0  0  0  # atno 8010 bound_to 7997
  140.0420  143.5144  152.2125 H   0  0  0  0  0  0  0  0  0  0  0  0  # atno 10167 bound_to 10162
  156.5047  130.8407  151.2623 H   0  0  0  0  0  0  0  0  0  0  0  0  # atno 10718 bound_to 10713
  153.4773  135.3687  155.2423 H   0  0  0  0  0  0  0  0  0  0  0  0  # atno 10763 bound_to 10752
  154.8756  135.3946  154.3741 H   0  0  0  0  0  0  0  0  0  0  0  0  # atno 10764 bound_to 10752
  153.4339  135.7083  153.6277 H   0  0  0  0  0  0  0  0  0  0  0  0  # atno 10765 bound_to 10752
  139.8949  134.9547  156.6717 H   0  0  0  0  0  0  0  0  0  0  0  0  # atno 11005 bound_to 11000
  146.3326  140.2787  142.8609 LP  0  0  0  0  0  0  0  0  0  0  0  0  # atno 17320 bound_to 7965
  144.9580  140.8246  143.5531 LP  0  0  0  0  0  0  0  0  0  0  0  0  # atno 17321 bound_to 7965
  139.6008  144.7582  151.3177 LP  0  0  0  0  0  0  0  0  0  0  0  0  # atno 17342 bound_to 10162
  140.7256  143.7013  150.7842 LP  0  0  0  0  0  0  0  0  0  0  0  0  # atno 17343 bound_to 10162
  157.7458  130.9970  150.2800 LP  0  0  0  0  0  0  0  0  0  0  0  0  # atno 17370 bound_to 10713
  156.3299  130.3798  149.7500 LP  0  0  0  0  0  0  0  0  0  0  0  0  # atno 17371 bound_to 10713
  140.7368  133.9012  155.8249 LP  0  0  0  0  0  0  0  0  0  0  0  0  # atno 17394 bound_to 11000
  141.0110  134.1021  157.4221 LP  0  0  0  0  0  0  0  0  0  0  0  0  # atno 17395 bound_to 11000

$$$$
