AV-unprocessed.smi:1985|AV-procd|sdf|8044|dock2
  -GOLD-   2272010243D 1   1.00000     0.00000
 Structure written by MMmdl.
 51 52  0  0  0  0  0  0  0  0  2 V2000
  148.9431  132.2756  153.4494 C   0  0  0  0  0  0  0  0  0  0  0  0
  148.9530  133.6554  154.1312 C   0  0  0  0  0  0  0  0  0  0  0  0
  147.5523  134.2928  154.3897 C   0  0  1  0  0  0  0  0  0  0  0  0
  146.6947  133.2301  155.1267 C   0  0  0  0  0  0  0  0  0  0  0  0
  147.6946  135.5461  155.3109 C   0  0  0  0  0  0  0  0  0  0  0  0
  148.3211  135.2531  156.5994 N   0  0  0  0  0  0  0  0  0  0  0  0
  148.2154  136.0044  157.7060 C   0  0  0  0  0  0  0  0  0  0  0  0
  147.5214  137.0195  157.7717 O   0  0  0  0  0  0  0  0  0  0  0  0
  149.0216  135.5377  158.9239 C   0  0  0  0  0  0  0  0  0  0  0  0
  148.1555  135.1681  160.0508 N   0  0  0  0  0  0  0  0  0  0  0  0
  147.9729  133.8339  160.3669 C   0  0  0  0  0  0  0  0  0  0  0  0
  147.1790  133.4090  161.3737 C   0  0  0  0  0  0  0  0  0  0  0  0
  146.4514  134.3612  162.2030 C   0  0  0  0  0  0  0  0  0  0  0  0
  145.7128  134.0276  163.1308 O   0  0  0  0  0  0  0  0  0  0  0  0
  146.6553  135.7174  161.8609 N   0  0  0  0  0  0  0  0  0  0  0  0
  145.9437  136.6943  162.6585 C   0  0  0  0  0  0  0  0  0  0  0  0
  147.4890  136.1582  160.8068 C   0  0  0  0  0  0  0  0  0  0  0  0
  147.6406  137.3523  160.5372 O   0  0  0  0  0  0  0  0  0  0  0  0
  146.9105  134.6674  153.0767 N   0  3  0  0  0  0  0  0  0  0  0  0
  146.5143  133.5359  152.1912 C   0  0  0  0  0  0  0  0  0  0  0  0
  146.0601  134.0598  150.8176 C   0  0  0  0  0  0  0  0  0  0  0  0
  144.9892  134.9789  150.9799 O   0  0  0  0  0  0  0  0  0  0  0  0
  145.3783  136.1083  151.7488 C   0  0  0  0  0  0  0  0  0  0  0  0
  145.7930  135.6510  153.1562 C   0  0  0  0  0  0  0  0  0  0  0  0
  149.9620  131.9091  153.3219 H   0  0  0  0  0  0  0  0  0  0  0  0
  148.4871  132.3125  152.4601 H   0  0  0  0  0  0  0  0  0  0  0  0
  148.4067  131.5344  154.0414 H   0  0  0  0  0  0  0  0  0  0  0  0
  149.4831  133.5403  155.0766 H   0  0  0  0  0  0  0  0  0  0  0  0
  149.5793  134.3327  153.5511 H   0  0  0  0  0  0  0  0  0  0  0  0
  147.2387  132.7776  155.9569 H   0  0  0  0  0  0  0  0  0  0  0  0
  146.3922  132.4202  154.4625 H   0  0  0  0  0  0  0  0  0  0  0  0
  145.7890  133.6598  155.5549 H   0  0  0  0  0  0  0  0  0  0  0  0
  148.2500  136.3407  154.8127 H   0  0  0  0  0  0  0  0  0  0  0  0
  146.7142  135.9662  155.5333 H   0  0  0  0  0  0  0  0  0  0  0  0
  148.9083  134.4326  156.6429 H   0  0  0  0  0  0  0  0  0  0  0  0
  149.6328  134.6861  158.6223 H   0  0  0  0  0  0  0  0  0  0  0  0
  149.7253  136.3121  159.2344 H   0  0  0  0  0  0  0  0  0  0  0  0
  148.4870  133.0890  159.7772 H   0  0  0  0  0  0  0  0  0  0  0  0
  147.0788  132.3509  161.5661 H   0  0  0  0  0  0  0  0  0  0  0  0
  146.1649  137.7110  162.3361 H   0  0  0  0  0  0  0  0  0  0  0  0
  146.2609  136.5596  163.6943 H   0  0  0  0  0  0  0  0  0  0  0  0
  144.8776  136.4924  162.5395 H   0  0  0  0  0  0  0  0  0  0  0  0
  147.3408  132.8483  152.0217 H   0  0  0  0  0  0  0  0  0  0  0  0
  145.7069  132.9641  152.6488 H   0  0  0  0  0  0  0  0  0  0  0  0
  146.8878  134.5372  150.2905 H   0  0  0  0  0  0  0  0  0  0  0  0
  145.7217  133.2327  150.1935 H   0  0  0  0  0  0  0  0  0  0  0  0
  146.1922  136.6418  151.2548 H   0  0  0  0  0  0  0  0  0  0  0  0
  144.5368  136.7984  151.8114 H   0  0  0  0  0  0  0  0  0  0  0  0
  144.9293  135.2081  153.6523 H   0  0  0  0  0  0  0  0  0  0  0  0
  146.0747  136.5329  153.7283 H   0  0  0  0  0  0  0  0  0  0  0  0
  147.6436  135.1448  152.5717 H   0  0  0  0  0  0  0  0  0  0  0  0
  1  2  1  0  0  0  0
  1 25  1  0  0  0  0
  1 26  1  0  0  0  0
  1 27  1  0  0  0  0
  2  3  1  0  0  0  0
  2 28  1  0  0  0  0
  2 29  1  0  0  0  0
  3  4  1  0  0  0  0
  3  5  1  0  0  0  0
  3 19  1  0  0  0  0
  4 30  1  0  0  0  0
  4 31  1  0  0  0  0
  4 32  1  0  0  0  0
  5  6  1  0  0  0  0
  5 33  1  0  0  0  0
  5 34  1  0  0  0  0
  6  7  1  0  0  0  0
  6 35  1  0  0  0  0
  7  8  2  0  0  0  0
  7  9  1  0  0  0  0
  9 10  1  0  0  0  0
  9 36  1  0  0  0  0
  9 37  1  0  0  0  0
 10 17  1  0  0  0  0
 10 11  1  0  0  0  0
 11 12  2  0  0  0  0
 11 38  1  0  0  0  0
 12 13  1  0  0  0  0
 12 39  1  0  0  0  0
 13 14  2  0  0  0  0
 13 15  1  0  0  0  0
 15 16  1  0  0  0  0
 15 17  1  0  0  0  0
 16 40  1  0  0  0  0
 16 41  1  0  0  0  0
 16 42  1  0  0  0  0
 17 18  2  0  0  0  0
 19 24  1  0  0  0  0
 19 20  1  0  0  0  0
 19 51  1  0  0  0  0
 20 21  1  0  0  0  0
 20 43  1  0  0  0  0
 20 44  1  0  0  0  0
 21 22  1  0  0  0  0
 21 45  1  0  0  0  0
 21 46  1  0  0  0  0
 22 23  1  0  0  0  0
 23 24  1  0  0  0  0
 23 47  1  0  0  0  0
 23 48  1  0  0  0  0
 24 49  1  0  0  0  0
 24 50  1  0  0  0  0
M  CHG  1  19   1
M  END
> <s_m_source_file>
AV-unprocessed.smi

> <i_m_source_file_index>
1985

> <i_lp_mmshare_version>
43012

> <i_f3d_flags>
0

> <s_epik_input>
W0NIMl0xW0NIMl1PW0NIMl1bQ0gyXU4xW0NAQF0oW0NIM10pKFtDSDJdW0NIM10pW0NIMl1bTkhdQyg9TylbQ0gyXW4yW2NIXVtjSF1jKD1PKW4oW0NIM10pYzI9Tw==

> <s_epik_cmdline>
J2VwaWtfcHl0aG9uJywgJy1waCcsICc3LjAnLCAnLXRuJywgJzgnLCAnLW1hJywgJzIwMCcsICctbWV0YWxfYmluZGluZycsICctaW1hZScsICc8aW5maWxlLm1hZT4nLCAnLW9tYWUnLCAnPG91dGZpbGUubWFlPic=

> <r_lp_tautomer_probability>
1

> <r_epik_Ionization_Penalty>
0.519658

> <r_epik_Ionization_Penalty_Charging>
0.519658

> <r_epik_Ionization_Penalty_Neutral>
8.70177e-08

> <r_epik_State_Penalty>
0.527569

> <r_epik_Charging_Adjusted_Penalty>
1.04723

> <i_epik_Tot_Q>
1

> <i_epik_Tot_abs_Q>
1

> <r_epik_Metal_State_Penalty>
0.527613

> <b_epik_Metal_Only>
0

> <s_lp_Force_Field>
OPLS_2005

> <r_lp_Energy>
36.0852

> <b_lp_Chiralities_Consistent>
1

> <s_lp_Variant>
AV-unprocessed.smi:1985-3

> <Gold.Version>
5.8.1

> <Gold.Id.Protein>
6NUR|6NUR_protein|mol2

> <Gold.PLP.Fitness>
42.7438

> <Gold.PLP.PLP>
-33.5560

> <Gold.PLP.part.hbond>
-4.0000

> <Gold.PLP.part.metal>
0.0000

> <Gold.PLP.part.buried>
-3.1261

> <Gold.PLP.part.nonpolar>
-26.1213

> <Gold.PLP.part.repulsive>
0.2598

> <Gold.PLP.ligand.clash>
0.0000

> <Gold.PLP.ligand.torsion>
0.7217

> <Gold.PLP.Chemscore.Hbond>
3.3900

> <Gold.PLP.Chemscore.CHOScore>
0.0000

> <Gold.PLP.Chemscore.Metal>
0.0000

> <Gold.Chemscore.Hbonds>
donor molecule, donor type, donor heavy atom, donor atom, acceptor molecule, acceptor atom, score
      L1  H    19    51       P1  7948  2.00
      P1  H  6931  6943       L1    18  0.49
      P1  H  6934  6947       L1    18  0.93

> <Gold.PLP.Chemscore.Internal.Correction>
0.4611

> <Gold.Rescore>
     Score         DG    S(hbond)    S(metal)    S(lipo)     H(rot)  DE(clash)    DE(int)     intcor
     12.43     -15.36       2.58        0.00      60.53       2.27       0.63       2.31       ----

> <Gold.Chemscore.Fitness>
12.4279

> <Gold.Chemscore.DG>
-15.3649

> <Gold.Chemscore.ZeroCoef>
-5.4800

> <Gold.Chemscore.Hbond>
2.5811

> <Gold.Chemscore.Metal>
0.0000

> <Gold.Chemscore.Lipo>
60.5253

> <Gold.Chemscore.Internal_Hbond>
0.0000

> <Gold.Chemscore.DEClash>
0.6267

> <Gold.Chemscore.DEInternal>
2.3103

> <Gold.Chemscore.Rot>
2.2724

> <Gold.Chemscore.Internal.Correction>
   9.000000E+99

> <Gold.Chemscore.Hbonds>
donor molecule, donor type, donor heavy atom, donor atom, acceptor molecule, acceptor atom, score
      L1  H    19    51       P1  7948  1.00
      P1  H  6931  6943       L1    18  0.38
      P1  H  6934  6947       L1    18  0.90

> <Gold.Chemscore.Hbond.Weighted>
-8.6209

> <Gold.Chemscore.Metal.Weighted>
-0.0000

> <Gold.Chemscore.Lipo.Weighted>
-7.0815

> <Gold.Chemscore.Internal_Hbond.Weighted>
0.0000

> <Gold.Chemscore.DEClash.Weighted>
0.6267

> <Gold.Chemscore.DEInternal.Weighted>
2.3103

> <Gold.Chemscore.Rot.Weighted>
5.8174

> <Gold.Chemscore.Internal.Correction.Weighted>
   9.000000E+99

> <Gold.Protein.RotatedTorsions>
[ 6907 6896 6895 6894 ] final   18.99 input  -60.11 | X-H torsion
[ 7974 7965 7964 7962 ] final   16.21 input  175.53 | X-H torsion
[ 8008 7997 7996 7995 ] final  -89.35 input   59.86 | X-H torsion
[ 10167 10162 10161 10158 ] final  -43.90 input  -65.29 | X-H torsion
[ 10718 10713 10712 10709 ] final -132.95 input   66.30 | X-H torsion
[ 10763 10752 10751 10750 ] final  -68.78 input  -60.55 | X-H torsion
[ 11005 11000 10999 10996 ] final -142.73 input  -57.11 | X-H torsion

> <Gold.Protein.ActiveResidues>
 VAL166  LYS551  ARG553  GLY616  TRP617  ASP618  TYR619  PRO620  LYS621  CYS622 
 ASP623  PHE694  ASN695  SER759  ASP760  ASP761  ALA762  ILE779  LEU786  VAL792 
 PHE793  MET794  SER795  GLU796  ALA797  LYS798  CYS799  TRP800  GLU811  SER814 

> <Gold.Protein.RotatedAtoms>
  151.8739  135.0479  160.0481 H   0  0  0  0  0  0  0  0  0  0  0  0  # atno 6907 bound_to 6896
  152.2566  133.5256  159.5365 H   0  0  0  0  0  0  0  0  0  0  0  0  # atno 6908 bound_to 6896
  150.7102  134.0803  159.3938 H   0  0  0  0  0  0  0  0  0  0  0  0  # atno 6909 bound_to 6896
  146.2256  139.8781  142.8575 H   0  0  0  0  0  0  0  0  0  0  0  0  # atno 7974 bound_to 7965
  154.6856  140.0543  157.0311 H   0  0  0  0  0  0  0  0  0  0  0  0  # atno 8008 bound_to 7997
  155.0889  140.3217  155.4560 H   0  0  0  0  0  0  0  0  0  0  0  0  # atno 8009 bound_to 7997
  156.2710  140.2051  156.6016 H   0  0  0  0  0  0  0  0  0  0  0  0  # atno 8010 bound_to 7997
  140.6917  143.2958  151.3418 H   0  0  0  0  0  0  0  0  0  0  0  0  # atno 10167 bound_to 10162
  156.2399  130.7089  151.0946 H   0  0  0  0  0  0  0  0  0  0  0  0  # atno 10718 bound_to 10713
  154.3939  135.6046  153.5858 H   0  0  0  0  0  0  0  0  0  0  0  0  # atno 10763 bound_to 10752
  152.9787  135.5890  154.4265 H   0  0  0  0  0  0  0  0  0  0  0  0  # atno 10764 bound_to 10752
  154.4053  135.2843  155.2049 H   0  0  0  0  0  0  0  0  0  0  0  0  # atno 10765 bound_to 10752
  140.8196  134.2647  157.4906 H   0  0  0  0  0  0  0  0  0  0  0  0  # atno 11005 bound_to 11000
  145.2540  141.0054  143.3865 LP  0  0  0  0  0  0  0  0  0  0  0  0  # atno 17320 bound_to 7965
  144.9352  139.4252  143.6476 LP  0  0  0  0  0  0  0  0  0  0  0  0  # atno 17321 bound_to 7965
  139.6327  144.0690  152.2489 LP  0  0  0  0  0  0  0  0  0  0  0  0  # atno 17342 bound_to 10162
  140.0170  144.6181  150.7599 LP  0  0  0  0  0  0  0  0  0  0  0  0  # atno 17343 bound_to 10162
  157.7170  131.0704  150.6286 LP  0  0  0  0  0  0  0  0  0  0  0  0  # atno 17370 bound_to 10713
  156.6359  130.4445  149.5770 LP  0  0  0  0  0  0  0  0  0  0  0  0  # atno 17371 bound_to 10713
  139.8709  134.9528  156.4126 LP  0  0  0  0  0  0  0  0  0  0  0  0  # atno 17394 bound_to 11000
  140.9112  133.7710  155.9794 LP  0  0  0  0  0  0  0  0  0  0  0  0  # atno 17395 bound_to 11000

$$$$
