AV-unprocessed.smi:855|AV-procd|sdf|3957|dock1
  -GOLD-   22720 1423D 1   1.00000     0.00000
 Structure written by MMmdl.
 35 36  0  0  0  0  0  0  0  0  3 V2000
  153.0389  142.5629  161.0828 C   0  0  0  0  0  0  0  0  0  0  0  0
  152.3591  142.3257  159.7777 C   0  0  0  0  0  0  0  0  0  0  0  0
  151.9425  143.1641  158.7828 C   0  0  0  0  0  0  0  0  0  0  0  0
  151.3669  142.2783  157.8314 C   0  0  0  0  0  0  0  0  0  0  0  0
  150.8197  142.6279  156.6568 N   0  5  0  0  0  0  0  0  0  0  0  0
  150.4803  141.6782  155.7556 C   0  0  0  0  0  0  0  0  0  0  0  0
  151.1381  140.6773  155.4618 O   0  0  0  0  0  0  0  0  0  0  0  0
  149.3046  141.9012  155.1540 N   0  0  0  0  0  0  0  0  0  0  0  0
  148.7155  141.0443  154.1351 C   0  0  0  0  0  0  0  0  0  0  0  0
  147.2465  141.4207  153.8960 C   0  0  0  0  0  0  0  0  0  0  0  0
  146.5267  140.3738  153.1346 N   0  3  0  0  0  0  0  0  0  0  0  0
  147.0409  140.1165  151.7752 C   0  0  0  0  0  0  0  0  0  0  0  0
  146.4864  138.7444  151.3828 C   0  0  0  0  0  0  0  0  0  0  0  0
  146.1437  138.0475  152.7056 C   0  0  0  0  0  0  0  0  0  0  0  0
  146.4848  139.0601  153.8033 C   0  0  0  0  0  0  0  0  0  0  0  0
  151.4436  141.0126  158.2076 N   0  0  0  0  0  0  0  0  0  0  0  0
  152.0720  141.0349  159.4584 O   0  0  0  0  0  0  0  0  0  0  0  0
  153.9201  143.1907  160.9501 H   0  0  0  0  0  0  0  0  0  0  0  0
  153.3586  141.6243  161.5359 H   0  0  0  0  0  0  0  0  0  0  0  0
  152.3680  143.0639  161.7806 H   0  0  0  0  0  0  0  0  0  0  0  0
  152.0310  144.2395  158.7433 H   0  0  0  0  0  0  0  0  0  0  0  0
  148.7940  142.7311  155.4184 H   0  0  0  0  0  0  0  0  0  0  0  0
  149.2826  141.1429  153.2081 H   0  0  0  0  0  0  0  0  0  0  0  0
  148.7991  140.0061  154.4593 H   0  0  0  0  0  0  0  0  0  0  0  0
  146.7382  141.6098  154.8428 H   0  0  0  0  0  0  0  0  0  0  0  0
  147.2074  142.3509  153.3270 H   0  0  0  0  0  0  0  0  0  0  0  0
  146.7461  140.8963  151.0724 H   0  0  0  0  0  0  0  0  0  0  0  0
  148.1313  140.0774  151.7981 H   0  0  0  0  0  0  0  0  0  0  0  0
  145.5827  138.8614  150.7830 H   0  0  0  0  0  0  0  0  0  0  0  0
  147.2027  138.1761  150.7887 H   0  0  0  0  0  0  0  0  0  0  0  0
  145.0810  137.8033  152.7312 H   0  0  0  0  0  0  0  0  0  0  0  0
  146.6975  137.1171  152.8353 H   0  0  0  0  0  0  0  0  0  0  0  0
  147.4683  138.8316  154.2175 H   0  0  0  0  0  0  0  0  0  0  0  0
  145.7641  139.0487  154.6216 H   0  0  0  0  0  0  0  0  0  0  0  0
  145.5673  140.6737  153.0344 H   0  0  0  0  0  0  0  0  0  0  0  0
  1  2  1  0  0  0  0
  1 18  1  0  0  0  0
  1 19  1  0  0  0  0
  1 20  1  0  0  0  0
  2 17  1  0  0  0  0
  2  3  2  0  0  0  0
  3  4  1  0  0  0  0
  3 21  1  0  0  0  0
  4  5  1  0  0  0  0
  4 16  2  0  0  0  0
  5  6  1  0  0  0  0
  6  7  2  0  0  0  0
  6  8  1  0  0  0  0
  8  9  1  0  0  0  0
  8 22  1  0  0  0  0
  9 10  1  0  0  0  0
  9 23  1  0  0  0  0
  9 24  1  0  0  0  0
 10 11  1  0  0  0  0
 10 25  1  0  0  0  0
 10 26  1  0  0  0  0
 11 15  1  0  0  0  0
 11 12  1  0  0  0  0
 11 35  1  0  0  0  0
 12 13  1  0  0  0  0
 12 27  1  0  0  0  0
 12 28  1  0  0  0  0
 13 14  1  0  0  0  0
 13 29  1  0  0  0  0
 13 30  1  0  0  0  0
 14 15  1  0  0  0  0
 14 31  1  0  0  0  0
 14 32  1  0  0  0  0
 15 33  1  0  0  0  0
 15 34  1  0  0  0  0
 16 17  1  0  0  0  0
M  CHG  1   5  -1
M  CHG  1  11   1
M  END
> <s_m_source_file>
AV-unprocessed.smi

> <i_m_source_file_index>
855

> <i_lp_mmshare_version>
43012

> <i_f3d_flags>
0

> <s_epik_input>
W0NIM11jMVtjSF1jKG5vMSlbTkhdQyg9TylbTkhdW0NIMl1bQ0gyXU4yW0NIMl1bQ0gyXVtDSDJdW0NIMl0y

> <s_epik_cmdline>
J2VwaWtfcHl0aG9uJywgJy1waCcsICc3LjAnLCAnLXRuJywgJzgnLCAnLW1hJywgJzIwMCcsICctbWV0YWxfYmluZGluZycsICctaW1hZScsICc8aW5maWxlLm1hZT4nLCAnLW9tYWUnLCAnPG91dGZpbGUubWFlPic=

> <r_epik_Ionization_Penalty>
6.22372

> <r_epik_Ionization_Penalty_Charging>
6.22363

> <r_epik_Ionization_Penalty_Neutral>
9.36971e-05

> <r_epik_State_Penalty>
6.22291

> <r_epik_Charging_Adjusted_Penalty>
12.4465

> <i_epik_Tot_Q>
0

> <i_epik_Tot_abs_Q>
2

> <r_epik_Metal_State_Penalty>
2.16624

> <b_epik_Metal_Only>
1

> <s_lp_Force_Field>
OPLS_2005

> <r_lp_Energy>
15.2309

> <b_lp_Chiralities_Consistent>
1

> <s_lp_Variant>
AV-unprocessed.smi:855-2

> <Gold.Version>
5.8.1

> <Gold.Id.Protein>
6NUR|6NUR_protein|mol2

> <Gold.PLP.Fitness>
44.0662

> <Gold.PLP.PLP>
-33.3730

> <Gold.PLP.part.hbond>
-3.0000

> <Gold.PLP.part.metal>
0.0000

> <Gold.PLP.part.buried>
0.3503

> <Gold.PLP.part.nonpolar>
-30.6307

> <Gold.PLP.part.repulsive>
0.6406

> <Gold.PLP.ligand.clash>
0.0000

> <Gold.PLP.ligand.torsion>
0.4716

> <Gold.PLP.Chemscore.Hbond>
3.8640

> <Gold.PLP.Chemscore.CHOScore>
0.0000

> <Gold.PLP.Chemscore.Metal>
0.0000

> <Gold.Chemscore.Hbonds>
donor molecule, donor type, donor heavy atom, donor atom, acceptor molecule, acceptor atom, score
      L1  H     8    22       P1  8028  0.91
      L1  H    11    35       P1 10175  2.00
      P1  H  7989  7998       L1     7  0.83

> <Gold.PLP.Chemscore.Internal.Correction>
0.0444

> <Gold.Rescore>
     Score         DG    S(hbond)    S(metal)    S(lipo)     H(rot)  DE(clash)    DE(int)     intcor
     13.61     -18.44       2.23        0.00      81.40       1.57       2.98       1.85       ----

> <Gold.Chemscore.Fitness>
13.6127

> <Gold.Chemscore.DG>
-18.4406

> <Gold.Chemscore.ZeroCoef>
-5.4800

> <Gold.Chemscore.Hbond>
2.2346

> <Gold.Chemscore.Metal>
0.0000

> <Gold.Chemscore.Lipo>
81.4020

> <Gold.Chemscore.Internal_Hbond>
0.0000

> <Gold.Chemscore.DEClash>
2.9750

> <Gold.Chemscore.DEInternal>
1.8528

> <Gold.Chemscore.Rot>
1.5731

> <Gold.Chemscore.Internal.Correction>
   9.000000E+99

> <Gold.Chemscore.Hbonds>
donor molecule, donor type, donor heavy atom, donor atom, acceptor molecule, acceptor atom, score
      L1  H     8    22       P1  8028  0.87
      L1  H    11    35       P1 10175  0.67
      P1  H  7989  7998       L1     7  0.42

> <Gold.Chemscore.Hbond.Weighted>
-7.4636

> <Gold.Chemscore.Metal.Weighted>
-0.0000

> <Gold.Chemscore.Lipo.Weighted>
-9.5240

> <Gold.Chemscore.Internal_Hbond.Weighted>
0.0000

> <Gold.Chemscore.DEClash.Weighted>
2.9750

> <Gold.Chemscore.DEInternal.Weighted>
1.8528

> <Gold.Chemscore.Rot.Weighted>
4.0271

> <Gold.Chemscore.Internal.Correction.Weighted>
   9.000000E+99

> <Gold.Protein.RotatedTorsions>
[ 6907 6896 6895 6894 ] final -164.86 input  -60.11 | X-H torsion
[ 7974 7965 7964 7962 ] final  -18.04 input  175.53 | X-H torsion
[ 8008 7997 7996 7995 ] final   72.48 input   59.86 | X-H torsion
[ 10167 10162 10161 10158 ] final   96.87 input  -65.29 | X-H torsion
[ 10718 10713 10712 10709 ] final    8.19 input   66.30 | X-H torsion
[ 10763 10752 10751 10750 ] final   84.91 input  -60.55 | X-H torsion
[ 11005 11000 10999 10996 ] final  -84.21 input  -57.11 | X-H torsion

> <Gold.Protein.ActiveResidues>
 VAL166  LYS551  ARG553  GLY616  TRP617  ASP618  TYR619  PRO620  LYS621  CYS622 
 ASP623  PHE694  ASN695  SER759  ASP760  ASP761  ALA762  ILE779  LEU786  VAL792 
 PHE793  MET794  SER795  GLU796  ALA797  LYS798  CYS799  TRP800  GLU811  SER814 

> <Gold.Protein.RotatedAtoms>
  151.4185  133.3705  159.2752 H   0  0  0  0  0  0  0  0  0  0  0  0  # atno 6907 bound_to 6896
  150.9311  134.8727  159.7562 H   0  0  0  0  0  0  0  0  0  0  0  0  # atno 6908 bound_to 6896
  152.5028  134.4130  159.9507 H   0  0  0  0  0  0  0  0  0  0  0  0  # atno 6909 bound_to 6896
  146.1912  140.3865  142.8457 H   0  0  0  0  0  0  0  0  0  0  0  0  # atno 7974 bound_to 7965
  155.7694  140.3484  155.5239 H   0  0  0  0  0  0  0  0  0  0  0  0  # atno 8008 bound_to 7997
  155.8836  140.1006  157.1489 H   0  0  0  0  0  0  0  0  0  0  0  0  # atno 8009 bound_to 7997
  154.4027  140.1317  156.4215 H   0  0  0  0  0  0  0  0  0  0  0  0  # atno 8010 bound_to 7997
  139.7854  144.6872  150.9965 H   0  0  0  0  0  0  0  0  0  0  0  0  # atno 10167 bound_to 10162
  156.9480  130.5886  149.5655 H   0  0  0  0  0  0  0  0  0  0  0  0  # atno 10718 bound_to 10713
  153.1426  135.4636  154.9518 H   0  0  0  0  0  0  0  0  0  0  0  0  # atno 10763 bound_to 10752
  154.7759  135.3173  154.8094 H   0  0  0  0  0  0  0  0  0  0  0  0  # atno 10764 bound_to 10752
  153.8614  135.6912  153.4836 H   0  0  0  0  0  0  0  0  0  0  0  0  # atno 10765 bound_to 10752
  141.1652  133.7334  156.8835 H   0  0  0  0  0  0  0  0  0  0  0  0  # atno 11005 bound_to 11000
  144.8490  140.6972  143.6180 LP  0  0  0  0  0  0  0  0  0  0  0  0  # atno 17320 bound_to 7965
  145.3787  139.1642  143.4292 LP  0  0  0  0  0  0  0  0  0  0  0  0  # atno 17321 bound_to 7965
  140.7819  143.4438  151.0513 LP  0  0  0  0  0  0  0  0  0  0  0  0  # atno 17342 bound_to 10162
  139.8117  143.7942  152.3171 LP  0  0  0  0  0  0  0  0  0  0  0  0  # atno 17343 bound_to 10162
  156.0375  130.5461  150.8690 LP  0  0  0  0  0  0  0  0  0  0  0  0  # atno 17370 bound_to 10713
  157.5741  131.0946  150.9373 LP  0  0  0  0  0  0  0  0  0  0  0  0  # atno 17371 bound_to 10713
  140.1698  134.9107  157.2819 LP  0  0  0  0  0  0  0  0  0  0  0  0  # atno 17394 bound_to 11000
  140.2515  134.3678  155.7440 LP  0  0  0  0  0  0  0  0  0  0  0  0  # atno 17395 bound_to 11000

$$$$
