AV-unprocessed.smi:879|AV-procd|sdf|4033|dock10
  -GOLD-   22720 1523D 1   1.00000     0.00000
 Structure written by MMmdl.
 39 40  0  0  0  0  0  0  0  0  1 V2000
  149.6431  134.6213  154.8945 C   0  0  0  0  0  0  0  0  0  0  0  0
  149.9110  135.9568  154.3830 N   0  0  0  0  0  0  0  0  0  0  0  0
  150.9053  136.7454  154.8159 C   0  0  0  0  0  0  0  0  0  0  0  0
  151.6945  136.4035  155.6984 O   0  0  0  0  0  0  0  0  0  0  0  0
  151.0175  138.1159  154.1346 C   0  0  0  0  0  0  0  0  0  0  0  0
  150.9528  139.2487  155.1120 C   0  0  0  0  0  0  0  0  0  0  0  0
  150.5483  140.4581  154.7405 N   0  0  0  0  0  0  0  0  0  0  0  0
  150.6421  141.2079  155.9215 O   0  0  0  0  0  0  0  0  0  0  0  0
  151.0900  140.3502  156.8701 C   0  0  0  0  0  0  0  0  0  0  0  0
  151.3335  140.8609  158.2535 C   0  0  0  0  0  0  0  0  0  0  0  0
  152.1770  142.1548  158.3072 C   0  0  0  0  0  0  0  0  0  0  0  0
  152.9383  142.2658  159.6478 C   0  0  0  0  0  0  0  0  0  0  0  0
  152.1623  142.9237  160.8019 C   0  0  0  0  0  0  0  0  0  0  0  0
  152.3330  144.4519  160.8393 C   0  0  0  0  0  0  0  0  0  0  0  0
  151.6019  145.2096  159.7209 C   0  0  0  0  0  0  0  0  0  0  0  0
  151.9616  144.7622  158.2932 C   0  0  0  0  0  0  0  0  0  0  0  0
  151.3466  143.4024  157.9206 C   0  0  0  0  0  0  0  0  0  0  0  0
  151.3195  139.1202  156.4179 N   0  0  0  0  0  0  0  0  0  0  0  0
  148.8090  134.1760  154.3525 H   0  0  0  0  0  0  0  0  0  0  0  0
  149.3822  134.6576  155.9528 H   0  0  0  0  0  0  0  0  0  0  0  0
  150.5133  133.9747  154.7722 H   0  0  0  0  0  0  0  0  0  0  0  0
  149.3032  136.3031  153.6548 H   0  0  0  0  0  0  0  0  0  0  0  0
  151.9592  138.1643  153.5868 H   0  0  0  0  0  0  0  0  0  0  0  0
  150.2178  138.2272  153.4005 H   0  0  0  0  0  0  0  0  0  0  0  0
  150.3690  141.0238  158.7359 H   0  0  0  0  0  0  0  0  0  0  0  0
  151.8263  140.0689  158.8186 H   0  0  0  0  0  0  0  0  0  0  0  0
  152.9488  142.0465  157.5433 H   0  0  0  0  0  0  0  0  0  0  0  0
  153.2539  141.2690  159.9586 H   0  0  0  0  0  0  0  0  0  0  0  0
  153.8705  142.8099  159.4902 H   0  0  0  0  0  0  0  0  0  0  0  0
  151.1082  142.6453  160.7786 H   0  0  0  0  0  0  0  0  0  0  0  0
  152.5535  142.5269  161.7393 H   0  0  0  0  0  0  0  0  0  0  0  0
  151.9637  144.8201  161.7969 H   0  0  0  0  0  0  0  0  0  0  0  0
  153.3940  144.7033  160.8189 H   0  0  0  0  0  0  0  0  0  0  0  0
  150.5244  145.1322  159.8697 H   0  0  0  0  0  0  0  0  0  0  0  0
  151.8359  146.2697  159.8224 H   0  0  0  0  0  0  0  0  0  0  0  0
  151.5610  145.5088  157.6068 H   0  0  0  0  0  0  0  0  0  0  0  0
  153.0409  144.7650  158.1362 H   0  0  0  0  0  0  0  0  0  0  0  0
  151.1917  143.3835  156.8409 H   0  0  0  0  0  0  0  0  0  0  0  0
  150.3478  143.3337  158.3534 H   0  0  0  0  0  0  0  0  0  0  0  0
  1  2  1  0  0  0  0
  1 19  1  0  0  0  0
  1 20  1  0  0  0  0
  1 21  1  0  0  0  0
  2  3  1  0  0  0  0
  2 22  1  0  0  0  0
  3  4  2  0  0  0  0
  3  5  1  0  0  0  0
  5  6  1  0  0  0  0
  5 23  1  0  0  0  0
  5 24  1  0  0  0  0
  6 18  1  0  0  0  0
  6  7  2  0  0  0  0
  7  8  1  0  0  0  0
  8  9  1  0  0  0  0
  9 10  1  0  0  0  0
  9 18  2  0  0  0  0
 10 11  1  0  0  0  0
 10 25  1  0  0  0  0
 10 26  1  0  0  0  0
 11 17  1  0  0  0  0
 11 12  1  0  0  0  0
 11 27  1  0  0  0  0
 12 13  1  0  0  0  0
 12 28  1  0  0  0  0
 12 29  1  0  0  0  0
 13 14  1  0  0  0  0
 13 30  1  0  0  0  0
 13 31  1  0  0  0  0
 14 15  1  0  0  0  0
 14 32  1  0  0  0  0
 14 33  1  0  0  0  0
 15 16  1  0  0  0  0
 15 34  1  0  0  0  0
 15 35  1  0  0  0  0
 16 17  1  0  0  0  0
 16 36  1  0  0  0  0
 16 37  1  0  0  0  0
 17 38  1  0  0  0  0
 17 39  1  0  0  0  0
M  END
> <s_m_source_file>
AV-unprocessed.smi

> <i_m_source_file_index>
879

> <i_lp_mmshare_version>
43012

> <i_f3d_flags>
0

> <s_epik_input>
W0NIM11bTkhdQyg9TylbQ0gyXWMxbm9jKG4xKVtDSDJdW0NIXTJbQ0gyXVtDSDJdW0NIMl1bQ0gyXVtDSDJdW0NIMl0y

> <s_epik_cmdline>
J2VwaWtfcHl0aG9uJywgJy1waCcsICc3LjAnLCAnLXRuJywgJzgnLCAnLW1hJywgJzIwMCcsICctbWV0YWxfYmluZGluZycsICctaW1hZScsICc8aW5maWxlLm1hZT4nLCAnLW9tYWUnLCAnPG91dGZpbGUubWFlPic=

> <r_lp_tautomer_probability>
1

> <r_epik_Ionization_Penalty>
1.02915e-07

> <r_epik_Ionization_Penalty_Charging>
0

> <r_epik_Ionization_Penalty_Neutral>
1.02915e-07

> <r_epik_State_Penalty>
-0

> <r_epik_Charging_Adjusted_Penalty>
0

> <i_epik_Tot_Q>
0

> <i_epik_Tot_abs_Q>
0

> <r_epik_Metal_State_Penalty>
-0

> <b_epik_Metal_Only>
0

> <s_lp_Force_Field>
OPLS_2005

> <r_lp_Energy>
15.7019

> <b_lp_Chiralities_Consistent>
1

> <s_lp_Variant>
AV-unprocessed.smi:879-1

> <Gold.Version>
5.8.1

> <Gold.Id.Protein>
6NUR|6NUR_protein|mol2

> <Gold.PLP.Fitness>
49.1533

> <Gold.PLP.PLP>
-41.7234

> <Gold.PLP.part.hbond>
-3.9089

> <Gold.PLP.part.metal>
0.0000

> <Gold.PLP.part.buried>
-5.0703

> <Gold.PLP.part.nonpolar>
-31.9810

> <Gold.PLP.part.repulsive>
0.2551

> <Gold.PLP.ligand.clash>
0.0000

> <Gold.PLP.ligand.torsion>
0.6718

> <Gold.PLP.Chemscore.Hbond>
2.9120

> <Gold.PLP.Chemscore.CHOScore>
0.0000

> <Gold.PLP.Chemscore.Metal>
0.0000

> <Gold.Chemscore.Hbonds>
donor molecule, donor type, donor heavy atom, donor atom, acceptor molecule, acceptor atom, score
      L1  H     2    22       P1  7948  0.85
      P1  H  7989  7998       L1     7  1.00
      P1  H 10752 10763       L1     4  1.00

> <Gold.PLP.Chemscore.Internal.Correction>
0.0375

> <Gold.Rescore>
     Score         DG    S(hbond)    S(metal)    S(lipo)     H(rot)  DE(clash)    DE(int)     intcor
     17.60     -19.63       2.22        0.00      97.92       1.84       0.03       2.00       ----

> <Gold.Chemscore.Fitness>
17.5994

> <Gold.Chemscore.DG>
-19.6259

> <Gold.Chemscore.ZeroCoef>
-5.4800

> <Gold.Chemscore.Hbond>
2.2154

> <Gold.Chemscore.Metal>
0.0000

> <Gold.Chemscore.Lipo>
97.9201

> <Gold.Chemscore.Internal_Hbond>
0.0000

> <Gold.Chemscore.DEClash>
0.0279

> <Gold.Chemscore.DEInternal>
1.9986

> <Gold.Chemscore.Rot>
1.8399

> <Gold.Chemscore.Internal.Correction>
   9.000000E+99

> <Gold.Chemscore.Hbonds>
donor molecule, donor type, donor heavy atom, donor atom, acceptor molecule, acceptor atom, score
      L1  H     2    22       P1  7948  0.75
      P1  H  7989  7998       L1     7  0.40
      P1  H 10752 10763       L1     4  0.26

> <Gold.Chemscore.Hbond.Weighted>
-7.3993

> <Gold.Chemscore.Metal.Weighted>
-0.0000

> <Gold.Chemscore.Lipo.Weighted>
-11.4567

> <Gold.Chemscore.Internal_Hbond.Weighted>
0.0000

> <Gold.Chemscore.DEClash.Weighted>
0.0279

> <Gold.Chemscore.DEInternal.Weighted>
1.9986

> <Gold.Chemscore.Rot.Weighted>
4.7101

> <Gold.Chemscore.Internal.Correction.Weighted>
   9.000000E+99

> <Gold.Protein.RotatedTorsions>
[ 6907 6896 6895 6894 ] final -100.85 input  -60.11 | X-H torsion
[ 7974 7965 7964 7962 ] final  123.83 input  175.53 | X-H torsion
[ 8008 7997 7996 7995 ] final  -15.98 input   59.86 | X-H torsion
[ 10167 10162 10161 10158 ] final  160.91 input  -65.29 | X-H torsion
[ 10718 10713 10712 10709 ] final   73.57 input   66.30 | X-H torsion
[ 10763 10752 10751 10750 ] final   64.43 input  -60.55 | X-H torsion
[ 11005 11000 10999 10996 ] final  -47.33 input  -57.11 | X-H torsion

> <Gold.Protein.ActiveResidues>
 VAL166  LYS551  ARG553  GLY616  TRP617  ASP618  TYR619  PRO620  LYS621  CYS622 
 ASP623  PHE694  ASN695  SER759  ASP760  ASP761  ALA762  ILE779  LEU786  VAL792 
 PHE793  MET794  SER795  GLU796  ALA797  LYS798  CYS799  TRP800  GLU811  SER814 

> <Gold.Protein.RotatedAtoms>
  150.7132  134.0824  159.3902 H   0  0  0  0  0  0  0  0  0  0  0  0  # atno 6907 bound_to 6896
  151.8808  135.0452  160.0498 H   0  0  0  0  0  0  0  0  0  0  0  0  # atno 6908 bound_to 6896
  152.2569  133.5228  159.5395 H   0  0  0  0  0  0  0  0  0  0  0  0  # atno 6909 bound_to 6896
  145.0914  139.3584  143.4858 H   0  0  0  0  0  0  0  0  0  0  0  0  # atno 7974 bound_to 7965
  154.5088  140.2182  155.9197 H   0  0  0  0  0  0  0  0  0  0  0  0  # atno 8008 bound_to 7997
  156.1527  140.3158  155.8640 H   0  0  0  0  0  0  0  0  0  0  0  0  # atno 8009 bound_to 7997
  155.3908  140.0478  157.3031 H   0  0  0  0  0  0  0  0  0  0  0  0  # atno 8010 bound_to 7997
  139.4844  144.4588  151.8733 H   0  0  0  0  0  0  0  0  0  0  0  0  # atno 10167 bound_to 10162
  157.6553  130.9635  150.1087 H   0  0  0  0  0  0  0  0  0  0  0  0  # atno 10718 bound_to 10713
  153.0055  135.5393  154.6508 H   0  0  0  0  0  0  0  0  0  0  0  0  # atno 10763 bound_to 10752
  154.5741  135.2844  155.0801 H   0  0  0  0  0  0  0  0  0  0  0  0  # atno 10764 bound_to 10752
  154.1955  135.6493  153.5124 H   0  0  0  0  0  0  0  0  0  0  0  0  # atno 10765 bound_to 10752
  141.0634  133.6702  156.3281 H   0  0  0  0  0  0  0  0  0  0  0  0  # atno 11005 bound_to 11000
  146.3531  140.0750  142.8621 LP  0  0  0  0  0  0  0  0  0  0  0  0  # atno 17320 bound_to 7965
  145.1061  140.9376  143.4684 LP  0  0  0  0  0  0  0  0  0  0  0  0  # atno 17321 bound_to 7965
  140.4049  144.2445  150.5891 LP  0  0  0  0  0  0  0  0  0  0  0  0  # atno 17342 bound_to 10162
  140.5022  143.2314  151.8662 LP  0  0  0  0  0  0  0  0  0  0  0  0  # atno 17343 bound_to 10162
  156.1990  130.3659  149.8812 LP  0  0  0  0  0  0  0  0  0  0  0  0  # atno 17370 bound_to 10713
  156.6721  130.8824  151.3564 LP  0  0  0  0  0  0  0  0  0  0  0  0  # atno 17371 bound_to 10713
  140.5823  134.5733  157.5482 LP  0  0  0  0  0  0  0  0  0  0  0  0  # atno 17394 bound_to 11000
  139.9453  134.7713  156.0577 LP  0  0  0  0  0  0  0  0  0  0  0  0  # atno 17395 bound_to 11000

$$$$
