#       Name:                AV-unprocessed.smi:2675
#       Creating user name   scv26
#       Creation time:       Fri Mar 27 14:38:41 2020


#       File generated by GOLD software.
#

@<TRIPOS>MOLECULE
AV-unprocessed.smi:2675
    40    41     1
SMALL
NO_CHARGES


@<TRIPOS>ATOM
      1 ****        -2.9427   3.0859  -1.8007 C.3            1 S1                 0.0000
      2 ****        -2.5024   1.8380  -1.1112 C.2            1 S1                 0.0000
      3 ****        -2.4670   1.7449   0.2549 N.pl3          1 S1                 1.0000
      4 ****        -2.0406   0.5393   0.6326 C.2            1 S1                 0.0000
      5 ****        -1.7966  -0.1525  -0.4861 N.pl3          1 S1                 0.0000
      6 ****        -1.2878  -1.5309  -0.4446 C.3            1 S1                 0.0000
      7 ****         0.2396  -1.5417  -0.3995 C.2            1 S1                 0.0000
      8 ****         0.8805  -1.4674  -1.4463 O.2            1 S1                 0.0000
      9 ****         0.7952  -1.5954   0.8233 N.am           1 S1                 0.0000
     10 ****         2.2166  -1.5186   1.1845 C.3            1 S1                 0.0000
     11 ****         2.3463  -2.2110   2.5511 C.3            1 S1                 0.0000
     12 ****         3.0689  -2.2508   0.2268 C.1            1 S1                 0.0000
     13 ****         3.7388  -2.8255  -0.5218 N.1            1 S1                 0.0000
     14 ****         2.7721  -0.0975   1.3064 C.3            1 S1                 0.0000
     15 ****         1.9235   1.0639   1.7755 C.3            1 S1                 0.0000
     16 ****         2.4387   1.0304   0.3538 C.3            1 S1                 0.0000
     17 ****        -2.0727   0.6214  -1.5922 C.2            1 S1                 0.0000
     18 ****        -1.8966   0.1297  -2.9931 C.3            1 S1                 0.0000
     19 ****        -2.8696   2.9789  -2.8826 H              1 S1                 0.0000
     20 ****        -2.3177   3.9253  -1.4952 H              1 S1                 0.0000
     21 ****        -3.9784   3.3111  -1.5453 H              1 S1                 0.0000
     22 ****        -1.9118   0.1956   1.6436 H              1 S1                 0.0000
     23 ****        -1.7073  -2.0337   0.4284 H              1 S1                 0.0000
     24 ****        -1.6436  -2.0667  -1.3249 H              1 S1                 0.0000
     25 ****         0.1589  -1.6689   1.6036 H              1 S1                 0.0000
     26 ****         3.3823  -2.2240   2.8922 H              1 S1                 0.0000
     27 ****         2.0070  -3.2468   2.5053 H              1 S1                 0.0000
     28 ****         1.7560  -1.7021   3.3144 H              1 S1                 0.0000
     29 ****         3.8018  -0.0878   1.6606 H              1 S1                 0.0000
     30 ****         0.8583   0.9003   1.9242 H              1 S1                 0.0000
     31 ****         2.3828   1.7736   2.4605 H              1 S1                 0.0000
     32 ****         3.2419   1.7181   0.0971 H              1 S1                 0.0000
     33 ****         1.7086   0.8659  -0.4332 H              1 S1                 0.0000
     34 ****        -2.2092   0.8865  -3.7118 H              1 S1                 0.0000
     35 ****        -2.4963  -0.7650  -3.1595 H              1 S1                 0.0000
     36 ****        -0.8499  -0.1091  -3.1819 H              1 S1                 0.0000
     37 ****        -2.7260   2.4876   0.8921 H              1 S1                 0.0000
     38 ****         0.4020  -1.4003  -2.3219 LP             1 S1                 0.0000
     39 ****         1.8801  -1.4741  -1.4221 LP             1 S1                 0.0000
     40 ****         4.3176  -3.3221  -1.1687 LP             1 S1                 0.0000
@<TRIPOS>BOND
    1    1    2 1     
    2    1   19 1     
    3    1   20 1     
    4    1   21 1     
    5    2   17 2     
    6    2    3 1     
    7    3    4 2     
    8    3   37 1     
    9    4    5 1     
   10    4   22 1     
   11    5    6 1     
   12    5   17 1     
   13    6    7 1     
   14    6   23 1     
   15    6   24 1     
   16    7    8 2     
   17    7    9 am    
   18    9   10 1     
   19    9   25 1     
   20   10   11 1     
   21   10   12 1     
   22   10   14 1     
   23   11   26 1     
   24   11   27 1     
   25   11   28 1     
   26   12   13 3     
   27   14   16 1     
   28   14   15 1     
   29   14   29 1     
   30   15   16 1     
   31   15   30 1     
   32   15   31 1     
   33   16   32 1     
   34   16   33 1     
   35   17   18 1     
   36   18   34 1     
   37   18   35 1     
   38   18   36 1     
   39    8   38 1     
   40    8   39 1     
   41   13   40 1     
@<TRIPOS>SUBSTRUCTURE
      1 S1             1
@<TRIPOS>SET
LONE_PAIRS      STATIC     ATOMS    <user>   **** ""
3 38 39 40
DONOR_HYDROGENS      STATIC     ATOMS    <user>   **** ""
2 37 25
ATOM$BLUE        STATIC     ATOMS    COLORGROUP SYSTEM
3 38 39 40
ATOM$RED        STATIC     ATOMS    COLORGROUP SYSTEM
2 37 25
