AV-unprocessed.smi:338|AV-procd|sdf|2377|dock9
  -GOLD-   2262022303D 1   1.00000     0.00000
 Structure written by MMmdl.
 42 44  0  0  0  0  0  0  0  0  2 V2000
  152.8941  130.7097  156.4019 C   0  0  0  0  0  0  0  0  0  0  0  0
  152.7199  132.2066  156.6522 C   0  0  0  0  0  0  0  0  0  0  0  0
  153.4448  132.7538  157.4826 O   0  0  0  0  0  0  0  0  0  0  0  0
  151.6757  132.9268  155.8682 C   0  0  0  0  0  0  0  0  0  0  0  0
  150.7412  132.2331  155.0645 C   0  0  0  0  0  0  0  0  0  0  0  0
  149.7661  132.9403  154.3380 C   0  0  0  0  0  0  0  0  0  0  0  0
  149.7145  134.3441  154.4064 C   0  0  0  0  0  0  0  0  0  0  0  0
  150.6332  135.0589  155.1993 C   0  0  0  0  0  0  0  0  0  0  0  0
  150.5113  136.4319  155.2089 O   0  0  0  0  0  0  0  0  0  0  0  0
  151.3604  137.1797  156.0695 C   0  0  0  0  0  0  0  0  0  0  0  0
  150.8015  138.6037  156.1988 C   0  0  1  0  0  0  0  0  0  0  0  0
  149.4382  138.5255  156.5660 O   0  0  0  0  0  0  0  0  0  0  0  0
  151.5696  139.4455  157.2372 C   0  0  0  0  0  0  0  0  0  0  0  0
  151.1854  140.8623  157.2158 N   0  0  0  0  0  0  0  0  0  0  0  0
  150.3459  141.5299  156.3787 C   0  0  0  0  0  0  0  0  0  0  0  0
  150.3264  142.8342  156.7712 N   0  3  0  0  0  0  0  0  0  0  0  0
  151.1659  143.0017  157.8750 C   0  0  0  0  0  0  0  0  0  0  0  0
  151.4761  144.1336  158.6226 C   0  0  0  0  0  0  0  0  0  0  0  0
  152.3773  143.9575  159.6933 C   0  0  0  0  0  0  0  0  0  0  0  0
  152.9331  142.6948  159.9866 C   0  0  0  0  0  0  0  0  0  0  0  0
  152.6116  141.5537  159.2222 C   0  0  0  0  0  0  0  0  0  0  0  0
  151.7202  141.7375  158.1660 C   0  0  0  0  0  0  0  0  0  0  0  0
  151.6124  134.3389  155.9298 C   0  0  0  0  0  0  0  0  0  0  0  0
  151.9806  130.1710  156.6548 H   0  0  0  0  0  0  0  0  0  0  0  0
  153.7042  130.3121  157.0139 H   0  0  0  0  0  0  0  0  0  0  0  0
  153.1353  130.5223  155.3555 H   0  0  0  0  0  0  0  0  0  0  0  0
  150.7520  131.1560  154.9903 H   0  0  0  0  0  0  0  0  0  0  0  0
  149.0553  132.4043  153.7265 H   0  0  0  0  0  0  0  0  0  0  0  0
  148.9624  134.8779  153.8441 H   0  0  0  0  0  0  0  0  0  0  0  0
  151.3858  136.7059  157.0524 H   0  0  0  0  0  0  0  0  0  0  0  0
  152.3795  137.2103  155.6799 H   0  0  0  0  0  0  0  0  0  0  0  0
  150.8482  139.0890  155.2234 H   0  0  0  0  0  0  0  0  0  0  0  0
  148.9325  139.0365  155.9521 H   0  0  0  0  0  0  0  0  0  0  0  0
  151.3826  139.0697  158.2442 H   0  0  0  0  0  0  0  0  0  0  0  0
  152.6468  139.3806  157.0777 H   0  0  0  0  0  0  0  0  0  0  0  0
  149.7981  141.1027  155.5510 H   0  0  0  0  0  0  0  0  0  0  0  0
  151.0526  145.1020  158.4002 H   0  0  0  0  0  0  0  0  0  0  0  0
  152.6483  144.8082  160.3017 H   0  0  0  0  0  0  0  0  0  0  0  0
  153.6205  142.5991  160.8146 H   0  0  0  0  0  0  0  0  0  0  0  0
  153.0422  140.5903  159.4524 H   0  0  0  0  0  0  0  0  0  0  0  0
  152.3273  134.8624  156.5462 H   0  0  0  0  0  0  0  0  0  0  0  0
  149.7805  143.5546  156.3163 H   0  0  0  0  0  0  0  0  0  0  0  0
  1  2  1  0  0  0  0
  1 24  1  0  0  0  0
  1 25  1  0  0  0  0
  1 26  1  0  0  0  0
  2  3  2  0  0  0  0
  2  4  1  0  0  0  0
  4 23  1  0  0  0  0
  4  5  2  0  0  0  0
  5  6  1  0  0  0  0
  5 27  1  0  0  0  0
  6  7  2  0  0  0  0
  6 28  1  0  0  0  0
  7  8  1  0  0  0  0
  7 29  1  0  0  0  0
  8  9  1  0  0  0  0
  8 23  2  0  0  0  0
  9 10  1  0  0  0  0
 10 11  1  0  0  0  0
 10 30  1  0  0  0  0
 10 31  1  0  0  0  0
 11 12  1  0  0  0  0
 11 13  1  0  0  0  0
 11 32  1  0  0  0  0
 12 33  1  0  0  0  0
 13 14  1  0  0  0  0
 13 34  1  0  0  0  0
 13 35  1  0  0  0  0
 14 22  1  0  0  0  0
 14 15  1  0  0  0  0
 15 16  2  0  0  0  0
 15 36  1  0  0  0  0
 16 17  1  0  0  0  0
 16 42  1  0  0  0  0
 17 22  2  0  0  0  0
 17 18  1  0  0  0  0
 18 19  2  0  0  0  0
 18 37  1  0  0  0  0
 19 20  1  0  0  0  0
 19 38  1  0  0  0  0
 20 21  2  0  0  0  0
 20 39  1  0  0  0  0
 21 22  1  0  0  0  0
 21 40  1  0  0  0  0
 23 41  1  0  0  0  0
M  CHG  1  16   1
M  END
> <s_m_source_file>
AV-unprocessed.smi

> <i_m_source_file_index>
338

> <i_lp_mmshare_version>
43012

> <i_f3d_flags>
0

> <s_epik_input>
W0NIM11DKD1PKWMxW2NIXVtjSF1bY0hdYyhbY0hdMSlPW0NIMl1bQ0BIXShbT0hdKVtDSDJdbihbY0hdbjIpYyhjMjMpW2NIXVtjSF1bY0hdW2NIXTM=

> <s_epik_cmdline>
J2VwaWtfcHl0aG9uJywgJy1waCcsICc3LjAnLCAnLXRuJywgJzgnLCAnLW1hJywgJzIwMCcsICctbWV0YWxfYmluZGluZycsICctaW1hZScsICc8aW5maWxlLm1hZT4nLCAnLW9tYWUnLCAnPG91dGZpbGUubWFlPic=

> <r_lp_tautomer_probability>
0.99995

> <r_epik_Ionization_Penalty>
1.35015

> <r_epik_Ionization_Penalty_Charging>
1.35015

> <r_epik_Ionization_Penalty_Neutral>
2.3993e-06

> <r_epik_State_Penalty>
1.42814

> <r_epik_Charging_Adjusted_Penalty>
2.77829

> <i_epik_Tot_Q>
1

> <i_epik_Tot_abs_Q>
1

> <r_epik_Metal_State_Penalty>
5.46522

> <b_epik_Metal_Only>
0

> <s_lp_Force_Field>
OPLS_2005

> <r_lp_Energy>
25.8652

> <b_lp_Chiralities_Consistent>
1

> <s_lp_Variant>
AV-unprocessed.smi:338-4

> <Gold.Version>
5.8.1

> <Gold.Id.Protein>
6NUR|6NUR_protein|mol2

> <Gold.PLP.Fitness>
52.3684

> <Gold.PLP.PLP>
-43.6605

> <Gold.PLP.part.hbond>
-2.0000

> <Gold.PLP.part.metal>
0.0000

> <Gold.PLP.part.buried>
-5.0581

> <Gold.PLP.part.nonpolar>
-36.7765

> <Gold.PLP.part.repulsive>
0.2056

> <Gold.PLP.ligand.clash>
0.0000

> <Gold.PLP.ligand.torsion>
0.2000

> <Gold.PLP.Chemscore.Hbond>
3.0000

> <Gold.PLP.Chemscore.CHOScore>
0.0000

> <Gold.PLP.Chemscore.Metal>
0.0000

> <Gold.Chemscore.Hbonds>
donor molecule, donor type, donor heavy atom, donor atom, acceptor molecule, acceptor atom, score
      L1  H    16    42       P1  8028  2.00

> <Gold.PLP.Chemscore.Internal.Correction>
0.1079

> <Gold.Rescore>
     Score         DG    S(hbond)    S(metal)    S(lipo)     H(rot)  DE(clash)    DE(int)     intcor
     19.18     -19.49       1.97        0.00     117.93       2.48       0.04       0.28       ----

> <Gold.Chemscore.Fitness>
19.1763

> <Gold.Chemscore.DG>
-19.4929

> <Gold.Chemscore.ZeroCoef>
-5.4800

> <Gold.Chemscore.Hbond>
1.9683

> <Gold.Chemscore.Metal>
0.0000

> <Gold.Chemscore.Lipo>
117.9345

> <Gold.Chemscore.Internal_Hbond>
0.0000

> <Gold.Chemscore.DEClash>
0.0382

> <Gold.Chemscore.DEInternal>
0.2784

> <Gold.Chemscore.Rot>
2.4842

> <Gold.Chemscore.Internal.Correction>
   9.000000E+99

> <Gold.Chemscore.Hbonds>
donor molecule, donor type, donor heavy atom, donor atom, acceptor molecule, acceptor atom, score
      L1  H    16    42       P1  8028  0.99
      P1  H  6896  6907       L1     3  0.04

> <Gold.Chemscore.Hbond.Weighted>
-6.5740

> <Gold.Chemscore.Metal.Weighted>
-0.0000

> <Gold.Chemscore.Lipo.Weighted>
-13.7983

> <Gold.Chemscore.Internal_Hbond.Weighted>
0.0000

> <Gold.Chemscore.DEClash.Weighted>
0.0382

> <Gold.Chemscore.DEInternal.Weighted>
0.2784

> <Gold.Chemscore.Rot.Weighted>
6.3594

> <Gold.Chemscore.Internal.Correction.Weighted>
   9.000000E+99

> <Gold.Protein.RotatedTorsions>
[ 6907 6896 6895 6894 ] final  159.04 input  -60.11 | X-H torsion
[ 7974 7965 7964 7962 ] final -137.29 input  175.53 | X-H torsion
[ 8008 7997 7996 7995 ] final   88.06 input   59.86 | X-H torsion
[ 10167 10162 10161 10158 ] final  126.21 input  -65.29 | X-H torsion
[ 10718 10713 10712 10709 ] final -109.69 input   66.30 | X-H torsion
[ 10763 10752 10751 10750 ] final  145.35 input  -60.55 | X-H torsion
[ 11005 11000 10999 10996 ] final  137.91 input  -57.11 | X-H torsion

> <Gold.Protein.ActiveResidues>
 VAL166  LYS551  ARG553  GLY616  TRP617  ASP618  TYR619  PRO620  LYS621  CYS622 
 ASP623  PHE694  ASN695  SER759  ASP760  ASP761  ALA762  ILE779  LEU786  VAL792 
 PHE793  MET794  SER795  GLU796  ALA797  LYS798  CYS799  TRP800  GLU811  SER814 

> <Gold.Protein.RotatedAtoms>
  151.9915  133.3792  159.4145 H   0  0  0  0  0  0  0  0  0  0  0  0  # atno 6907 bound_to 6896
  150.6921  134.3931  159.5095 H   0  0  0  0  0  0  0  0  0  0  0  0  # atno 6908 bound_to 6896
  152.1665  134.8869  160.0588 H   0  0  0  0  0  0  0  0  0  0  0  0  # atno 6909 bound_to 6896
  144.8855  140.6568  143.5179 H   0  0  0  0  0  0  0  0  0  0  0  0  # atno 7974 bound_to 7965
  155.9830  140.3375  155.6681 H   0  0  0  0  0  0  0  0  0  0  0  0  # atno 8008 bound_to 7997
  155.6523  140.0707  157.2601 H   0  0  0  0  0  0  0  0  0  0  0  0  # atno 8009 bound_to 7997
  154.4197  140.1723  156.1675 H   0  0  0  0  0  0  0  0  0  0  0  0  # atno 8010 bound_to 7997
  139.5643  144.6902  151.3954 H   0  0  0  0  0  0  0  0  0  0  0  0  # atno 10167 bound_to 10162
  156.0550  130.5777  150.8135 H   0  0  0  0  0  0  0  0  0  0  0  0  # atno 10718 bound_to 10713
  154.0040  135.2920  155.3399 H   0  0  0  0  0  0  0  0  0  0  0  0  # atno 10763 bound_to 10752
  154.7143  135.5136  153.8716 H   0  0  0  0  0  0  0  0  0  0  0  0  # atno 10764 bound_to 10752
  153.0753  135.6661  154.0278 H   0  0  0  0  0  0  0  0  0  0  0  0  # atno 10765 bound_to 10752
  140.0147  134.9423  157.0351 H   0  0  0  0  0  0  0  0  0  0  0  0  # atno 11005 bound_to 11000
  145.3877  139.1623  143.4246 LP  0  0  0  0  0  0  0  0  0  0  0  0  # atno 17320 bound_to 7965
  146.3021  140.3964  142.8700 LP  0  0  0  0  0  0  0  0  0  0  0  0  # atno 17321 bound_to 7965
  140.6926  143.7826  150.7278 LP  0  0  0  0  0  0  0  0  0  0  0  0  # atno 17342 bound_to 10162
  140.1313  143.4524  152.2253 LP  0  0  0  0  0  0  0  0  0  0  0  0  # atno 17343 bound_to 10162
  157.5513  131.0944  150.9692 LP  0  0  0  0  0  0  0  0  0  0  0  0  # atno 17370 bound_to 10713
  156.9951  130.5578  149.5306 LP  0  0  0  0  0  0  0  0  0  0  0  0  # atno 17371 bound_to 10713
  140.4492  134.1600  155.7180 LP  0  0  0  0  0  0  0  0  0  0  0  0  # atno 17394 bound_to 11000
  141.1735  133.8562  157.1497 LP  0  0  0  0  0  0  0  0  0  0  0  0  # atno 17395 bound_to 11000

$$$$
