AV-unprocessed.smi:3283|AV-procd|sdf|12569|dock7
  -GOLD-   2272018493D 1   1.00000     0.00000
 Structure written by MMmdl.
 44 45  0  0  0  0  0  0  0  0  2 V2000
  151.5588  145.5339  160.2397 C   0  0  0  0  0  0  0  0  0  0  0  0
  152.0169  144.1210  160.5612 C   0  0  0  0  0  0  0  0  0  0  0  0
  152.4254  143.8195  161.8086 C   0  0  0  0  0  0  0  0  0  0  0  0
  152.9726  142.4738  162.2243 C   0  0  0  0  0  0  0  0  0  0  0  0
  153.4754  141.6880  161.0110 C   0  0  0  0  0  0  0  0  0  0  0  0
  152.4260  141.6564  159.8880 C   0  0  2  0  0  0  0  0  0  0  0  0
  152.9418  140.7795  158.7301 C   0  0  0  0  0  0  0  0  0  0  0  0
  152.0174  143.0865  159.4166 C   0  0  1  0  0  0  0  0  0  0  0  0
  150.6649  143.0301  158.6578 C   0  0  0  0  0  0  0  0  0  0  0  0
  150.8197  143.1958  157.1986 N   0  3  0  0  0  0  0  0  0  0  0  0
  151.1373  141.9488  156.4754 C   0  0  0  0  0  0  0  0  0  0  0  0
  150.2513  141.7713  155.2330 C   0  0  0  0  0  0  0  0  0  0  0  0
  150.3511  140.4107  154.6134 C   0  0  0  0  0  0  0  0  0  0  0  0
  151.4525  139.6257  154.4157 C   0  0  0  0  0  0  0  0  0  0  0  0
  150.9421  138.4640  153.7742 C   0  0  0  0  0  0  0  0  0  0  0  0
  149.6356  138.5232  153.5865 N   0  0  0  0  0  0  0  0  0  0  0  0
  149.2666  139.7133  154.1058 N   0  0  0  0  0  0  0  0  0  0  0  0
  147.8658  140.0905  154.0625 C   0  0  0  0  0  0  0  0  0  0  0  0
  152.0872  145.9161  159.3668 H   0  0  0  0  0  0  0  0  0  0  0  0
  151.7604  146.2133  161.0687 H   0  0  0  0  0  0  0  0  0  0  0  0
  150.4863  145.5642  160.0496 H   0  0  0  0  0  0  0  0  0  0  0  0
  152.3872  144.5700  162.5852 H   0  0  0  0  0  0  0  0  0  0  0  0
  153.7894  142.6224  162.9311 H   0  0  0  0  0  0  0  0  0  0  0  0
  152.1900  141.9242  162.7481 H   0  0  0  0  0  0  0  0  0  0  0  0
  154.3947  142.1431  160.6386 H   0  0  0  0  0  0  0  0  0  0  0  0
  153.7363  140.6751  161.3199 H   0  0  0  0  0  0  0  0  0  0  0  0
  151.5396  141.1715  160.3008 H   0  0  0  0  0  0  0  0  0  0  0  0
  153.8261  141.2183  158.2666 H   0  0  0  0  0  0  0  0  0  0  0  0
  152.1965  140.6372  157.9491 H   0  0  0  0  0  0  0  0  0  0  0  0
  153.2181  139.7865  159.0866 H   0  0  0  0  0  0  0  0  0  0  0  0
  152.7856  143.4265  158.7204 H   0  0  0  0  0  0  0  0  0  0  0  0
  150.1644  142.0762  158.8162 H   0  0  0  0  0  0  0  0  0  0  0  0
  149.9917  143.7961  159.0459 H   0  0  0  0  0  0  0  0  0  0  0  0
  149.9575  143.5697  156.8282 H   0  0  0  0  0  0  0  0  0  0  0  0
  152.1890  141.9545  156.1854 H   0  0  0  0  0  0  0  0  0  0  0  0
  150.9955  141.1030  157.1494 H   0  0  0  0  0  0  0  0  0  0  0  0
  149.2136  141.9501  155.5163 H   0  0  0  0  0  0  0  0  0  0  0  0
  150.4873  142.5435  154.5009 H   0  0  0  0  0  0  0  0  0  0  0  0
  152.4736  139.8490  154.6874 H   0  0  0  0  0  0  0  0  0  0  0  0
  151.4783  137.5879  153.4399 H   0  0  0  0  0  0  0  0  0  0  0  0
  147.5531  140.4839  155.0298 H   0  0  0  0  0  0  0  0  0  0  0  0
  147.2437  139.2259  153.8256 H   0  0  0  0  0  0  0  0  0  0  0  0
  147.7139  140.8504  153.2969 H   0  0  0  0  0  0  0  0  0  0  0  0
  151.5592  143.8628  157.0290 H   0  0  0  0  0  0  0  0  0  0  0  0
  1  2  1  0  0  0  0
  1 19  1  0  0  0  0
  1 20  1  0  0  0  0
  1 21  1  0  0  0  0
  2  8  1  0  0  0  0
  2  3  2  0  0  0  0
  3  4  1  0  0  0  0
  3 22  1  0  0  0  0
  4  5  1  0  0  0  0
  4 23  1  0  0  0  0
  4 24  1  0  0  0  0
  5  6  1  0  0  0  0
  5 25  1  0  0  0  0
  5 26  1  0  0  0  0
  6  7  1  0  0  0  0
  6  8  1  0  0  0  0
  6 27  1  0  0  0  0
  7 28  1  0  0  0  0
  7 29  1  0  0  0  0
  7 30  1  0  0  0  0
  8  9  1  0  0  0  0
  8 31  1  0  0  0  0
  9 10  1  0  0  0  0
  9 32  1  0  0  0  0
  9 33  1  0  0  0  0
 10 11  1  0  0  0  0
 10 34  1  0  0  0  0
 10 44  1  0  0  0  0
 11 12  1  0  0  0  0
 11 35  1  0  0  0  0
 11 36  1  0  0  0  0
 12 13  1  0  0  0  0
 12 37  1  0  0  0  0
 12 38  1  0  0  0  0
 13 17  1  0  0  0  0
 13 14  2  0  0  0  0
 14 15  1  0  0  0  0
 14 39  1  0  0  0  0
 15 16  2  0  0  0  0
 15 40  1  0  0  0  0
 16 17  1  0  0  0  0
 17 18  1  0  0  0  0
 18 41  1  0  0  0  0
 18 42  1  0  0  0  0
 18 43  1  0  0  0  0
M  CHG  1  10   1
M  END
> <s_m_source_file>
AV-unprocessed.smi

> <i_m_source_file_index>
3283

> <i_lp_mmshare_version>
43012

> <i_f3d_flags>
0

> <s_epik_input>
W0NIM11DMT1bQ0hdW0NIMl1bQ0gyXVtDQEBIXShbQ0gzXSlbQ0BIXTFbQ0gyXVtOSF1bQ0gyXVtDSDJdYzJbY0hdW2NIXW5uMltDSDNd

> <s_epik_cmdline>
J2VwaWtfcHl0aG9uJywgJy1waCcsICc3LjAnLCAnLXRuJywgJzgnLCAnLW1hJywgJzIwMCcsICctbWV0YWxfYmluZGluZycsICctaW1hZScsICc8aW5maWxlLm1hZT4nLCAnLW9tYWUnLCAnPG91dGZpbGUubWFlPic=

> <r_lp_tautomer_probability>
1

> <r_epik_Ionization_Penalty>
0.000866911

> <r_epik_Ionization_Penalty_Charging>
0.000836385

> <r_epik_Ionization_Penalty_Neutral>
3.05258e-05

> <r_epik_State_Penalty>
-0

> <r_epik_Charging_Adjusted_Penalty>
0.000836385

> <i_epik_Tot_Q>
1

> <i_epik_Tot_abs_Q>
1

> <r_epik_Metal_State_Penalty>
-0

> <b_epik_Metal_Only>
0

> <s_lp_Force_Field>
OPLS_2005

> <r_lp_Energy>
14.6109

> <b_lp_Chiralities_Consistent>
1

> <s_lp_Variant>
AV-unprocessed.smi:3283-2

> <Gold.Version>
5.8.1

> <Gold.Id.Protein>
6NUR|6NUR_protein|mol2

> <Gold.PLP.Fitness>
51.5591

> <Gold.PLP.PLP>
-46.4754

> <Gold.PLP.part.hbond>
-1.0000

> <Gold.PLP.part.metal>
0.0000

> <Gold.PLP.part.buried>
-3.3243

> <Gold.PLP.part.nonpolar>
-42.1422

> <Gold.PLP.part.repulsive>
1.6275

> <Gold.PLP.ligand.clash>
0.0000

> <Gold.PLP.ligand.torsion>
1.4657

> <Gold.PLP.Chemscore.Hbond>
2.0000

> <Gold.PLP.Chemscore.CHOScore>
0.6563

> <Gold.PLP.Chemscore.Metal>
0.0000

> <Gold.Chemscore.Hbonds>
donor molecule, donor type, donor heavy atom, donor atom, acceptor molecule, acceptor atom, score
      L1  H    10    34       P1  8028  2.00
      L1  C    15    40       P1  7949  0.98

> <Gold.PLP.Chemscore.Internal.Correction>
0.0461

> <Gold.Rescore>
     Score         DG    S(hbond)    S(metal)    S(lipo)     H(rot)  DE(clash)    DE(int)     intcor
     19.39     -21.32       0.99        0.00     139.53       1.48       0.36       1.57       ----

> <Gold.Chemscore.Fitness>
19.3893

> <Gold.Chemscore.DG>
-21.3197

> <Gold.Chemscore.ZeroCoef>
-5.4800

> <Gold.Chemscore.Hbond>
0.9928

> <Gold.Chemscore.Metal>
0.0000

> <Gold.Chemscore.Lipo>
139.5267

> <Gold.Chemscore.Internal_Hbond>
0.0000

> <Gold.Chemscore.DEClash>
0.3622

> <Gold.Chemscore.DEInternal>
1.5682

> <Gold.Chemscore.Rot>
1.4847

> <Gold.Chemscore.Internal.Correction>
   9.000000E+99

> <Gold.Chemscore.Hbonds>
donor molecule, donor type, donor heavy atom, donor atom, acceptor molecule, acceptor atom, score
      L1  H    10    34       P1  8028  0.96

> <Gold.Chemscore.Hbond.Weighted>
-3.3159

> <Gold.Chemscore.Metal.Weighted>
-0.0000

> <Gold.Chemscore.Lipo.Weighted>
-16.3246

> <Gold.Chemscore.Internal_Hbond.Weighted>
0.0000

> <Gold.Chemscore.DEClash.Weighted>
0.3622

> <Gold.Chemscore.DEInternal.Weighted>
1.5682

> <Gold.Chemscore.Rot.Weighted>
3.8008

> <Gold.Chemscore.Internal.Correction.Weighted>
   9.000000E+99

> <Gold.Protein.RotatedTorsions>
[ 6907 6896 6895 6894 ] final   33.78 input  -60.11 | X-H torsion
[ 7974 7965 7964 7962 ] final  167.79 input  175.53 | X-H torsion
[ 8008 7997 7996 7995 ] final   60.97 input   59.86 | X-H torsion
[ 10167 10162 10161 10158 ] final  106.50 input  -65.29 | X-H torsion
[ 10718 10713 10712 10709 ] final -142.85 input   66.30 | X-H torsion
[ 10763 10752 10751 10750 ] final   64.82 input  -60.55 | X-H torsion
[ 11005 11000 10999 10996 ] final -145.92 input  -57.11 | X-H torsion

> <Gold.Protein.ActiveResidues>
 VAL166  LYS551  ARG553  GLY616  TRP617  ASP618  TYR619  PRO620  LYS621  CYS622 
 ASP623  PHE694  ASN695  SER759  ASP760  ASP761  ALA762  ILE779  LEU786  VAL792 
 PHE793  MET794  SER795  GLU796  ALA797  LYS798  CYS799  TRP800  GLU811  SER814 

> <Gold.Protein.RotatedAtoms>
  152.0932  134.9393  160.0571 H   0  0  0  0  0  0  0  0  0  0  0  0  # atno 6907 bound_to 6896
  152.0636  133.4069  159.4437 H   0  0  0  0  0  0  0  0  0  0  0  0  # atno 6908 bound_to 6896
  150.6837  134.3092  159.4782 H   0  0  0  0  0  0  0  0  0  0  0  0  # atno 6909 bound_to 6896
  144.7412  139.8812  143.6396 H   0  0  0  0  0  0  0  0  0  0  0  0  # atno 7974 bound_to 7965
  155.5908  140.3493  155.4566 H   0  0  0  0  0  0  0  0  0  0  0  0  # atno 8008 bound_to 7997
  156.0302  140.1273  157.0290 H   0  0  0  0  0  0  0  0  0  0  0  0  # atno 8009 bound_to 7997
  154.4349  140.1045  156.6075 H   0  0  0  0  0  0  0  0  0  0  0  0  # atno 8010 bound_to 7997
  139.7004  144.7095  151.1195 H   0  0  0  0  0  0  0  0  0  0  0  0  # atno 10167 bound_to 10162
  156.3509  130.7687  151.1840 H   0  0  0  0  0  0  0  0  0  0  0  0  # atno 10718 bound_to 10713
  153.0071  135.5379  154.6570 H   0  0  0  0  0  0  0  0  0  0  0  0  # atno 10763 bound_to 10752
  154.5788  135.2848  155.0756 H   0  0  0  0  0  0  0  0  0  0  0  0  # atno 10764 bound_to 10752
  154.1893  135.6503  153.5108 H   0  0  0  0  0  0  0  0  0  0  0  0  # atno 10765 bound_to 10752
  140.7873  134.3010  157.5025 H   0  0  0  0  0  0  0  0  0  0  0  0  # atno 11005 bound_to 11000
  146.1210  139.4228  143.0228 LP  0  0  0  0  0  0  0  0  0  0  0  0  # atno 17320 bound_to 7965
  145.7305  141.0044  143.1354 LP  0  0  0  0  0  0  0  0  0  0  0  0  # atno 17321 bound_to 7965
  140.7708  143.5432  150.9288 LP  0  0  0  0  0  0  0  0  0  0  0  0  # atno 17342 bound_to 10162
  139.9114  143.6716  152.3114 LP  0  0  0  0  0  0  0  0  0  0  0  0  # atno 17343 bound_to 10162
  157.7461  131.0428  150.4711 LP  0  0  0  0  0  0  0  0  0  0  0  0  # atno 17370 bound_to 10713
  156.4906  130.4094  149.6409 LP  0  0  0  0  0  0  0  0  0  0  0  0  # atno 17371 bound_to 10713
  139.8735  134.9353  156.3631 LP  0  0  0  0  0  0  0  0  0  0  0  0  # atno 17394 bound_to 11000
  140.9424  133.7505  156.0164 LP  0  0  0  0  0  0  0  0  0  0  0  0  # atno 17395 bound_to 11000

$$$$
