AV-unprocessed.smi:1415|AV-procd|sdf|5763|dock5
  -GOLD-   22720 5403D 1   1.00000     0.00000
 Structure written by MMmdl.
 40 41  0  0  0  0  0  0  0  0  1 V2000
  144.8297  137.1270  152.7353 O   0  0  0  0  0  0  0  0  0  0  0  0
  146.0232  136.9157  152.5181 C   0  0  0  0  0  0  0  0  0  0  0  0
  146.9868  137.8187  152.7510 N   0  0  0  0  0  0  0  0  0  0  0  0
  146.7621  139.1572  153.2831 C   0  0  0  0  0  0  0  0  0  0  0  0
  147.8779  140.1307  152.8581 C   0  0  0  0  0  0  0  0  0  0  0  0
  148.2912  140.9850  153.9783 N   0  0  0  0  0  0  0  0  0  0  0  0
  147.3095  141.9818  154.4383 C   0  0  0  0  0  0  0  0  0  0  0  0
  146.7092  141.6706  155.8299 C   0  0  0  0  0  0  0  0  0  0  0  0
  147.6110  140.8880  156.8049 C   0  0  0  0  0  0  0  0  0  0  0  0
  149.0157  141.4893  157.0209 C   0  0  0  0  0  0  0  0  0  0  0  0
  149.8520  141.7619  155.7481 C   0  0  0  0  0  0  0  0  0  0  0  0
  149.5090  140.8497  154.5596 C   0  0  0  0  0  0  0  0  0  0  0  0
  150.3453  140.0280  154.1835 O   0  0  0  0  0  0  0  0  0  0  0  0
  146.5341  135.7739  152.0246 N   0  0  0  0  0  0  0  0  0  0  0  0
  145.8421  134.5870  151.6631 C   0  0  0  0  0  0  0  0  0  0  0  0
  146.6685  133.4867  151.3414 C   0  0  0  0  0  0  0  0  0  0  0  0
  146.0792  132.2624  150.9704 C   0  0  0  0  0  0  0  0  0  0  0  0
  144.6766  132.1694  150.9315 C   0  0  0  0  0  0  0  0  0  0  0  0
  143.9270  133.3118  151.2670 C   0  0  0  0  0  0  0  0  0  0  0  0
  144.4898  134.4860  151.6226 N   0  0  0  0  0  0  0  0  0  0  0  0
  147.9418  137.5646  152.5442 H   0  0  0  0  0  0  0  0  0  0  0  0
  145.8005  139.5120  152.9113 H   0  0  0  0  0  0  0  0  0  0  0  0
  146.6751  139.1131  154.3701 H   0  0  0  0  0  0  0  0  0  0  0  0
  148.7393  139.5767  152.4806 H   0  0  0  0  0  0  0  0  0  0  0  0
  147.5390  140.7328  152.0145 H   0  0  0  0  0  0  0  0  0  0  0  0
  147.7794  142.9654  154.4508 H   0  0  0  0  0  0  0  0  0  0  0  0
  146.4919  142.0909  153.7254 H   0  0  0  0  0  0  0  0  0  0  0  0
  146.3941  142.6057  156.2939 H   0  0  0  0  0  0  0  0  0  0  0  0
  145.7961  141.0910  155.6897 H   0  0  0  0  0  0  0  0  0  0  0  0
  147.1072  140.8173  157.7692 H   0  0  0  0  0  0  0  0  0  0  0  0
  147.7052  139.8567  156.4612 H   0  0  0  0  0  0  0  0  0  0  0  0
  148.9195  142.4220  157.5774 H   0  0  0  0  0  0  0  0  0  0  0  0
  149.5770  140.8179  157.6716 H   0  0  0  0  0  0  0  0  0  0  0  0
  149.7405  142.8015  155.4412 H   0  0  0  0  0  0  0  0  0  0  0  0
  150.9111  141.6552  155.9865 H   0  0  0  0  0  0  0  0  0  0  0  0
  147.5343  135.7502  151.8926 H   0  0  0  0  0  0  0  0  0  0  0  0
  147.7446  133.5757  151.3764 H   0  0  0  0  0  0  0  0  0  0  0  0
  146.6932  131.4099  150.7208 H   0  0  0  0  0  0  0  0  0  0  0  0
  144.1877  131.2478  150.6524 H   0  0  0  0  0  0  0  0  0  0  0  0
  142.8478  133.2825  151.2497 H   0  0  0  0  0  0  0  0  0  0  0  0
  1  2  2  0  0  0  0
  2  3  1  0  0  0  0
  2 14  1  0  0  0  0
  3  4  1  0  0  0  0
  3 21  1  0  0  0  0
  4  5  1  0  0  0  0
  4 22  1  0  0  0  0
  4 23  1  0  0  0  0
  5  6  1  0  0  0  0
  5 24  1  0  0  0  0
  5 25  1  0  0  0  0
  6 12  1  0  0  0  0
  6  7  1  0  0  0  0
  7  8  1  0  0  0  0
  7 26  1  0  0  0  0
  7 27  1  0  0  0  0
  8  9  1  0  0  0  0
  8 28  1  0  0  0  0
  8 29  1  0  0  0  0
  9 10  1  0  0  0  0
  9 30  1  0  0  0  0
  9 31  1  0  0  0  0
 10 11  1  0  0  0  0
 10 32  1  0  0  0  0
 10 33  1  0  0  0  0
 11 12  1  0  0  0  0
 11 34  1  0  0  0  0
 11 35  1  0  0  0  0
 12 13  2  0  0  0  0
 14 15  1  0  0  0  0
 14 36  1  0  0  0  0
 15 20  1  0  0  0  0
 15 16  2  0  0  0  0
 16 17  1  0  0  0  0
 16 37  1  0  0  0  0
 17 18  2  0  0  0  0
 17 38  1  0  0  0  0
 18 19  1  0  0  0  0
 18 39  1  0  0  0  0
 19 20  2  0  0  0  0
 19 40  1  0  0  0  0
M  END
> <s_m_source_file>
AV-unprocessed.smi

> <i_m_source_file_index>
1415

> <i_lp_mmshare_version>
43012

> <i_f3d_flags>
0

> <s_epik_input>
bjFbY0hdW2NIXVtjSF1bY0hdYzFbTkhdQyg9TylbTkhdW0NIMl1bQ0gyXU4yW0NIMl1bQ0gyXVtDSDJdW0NIMl1bQ0gyXUMyPU8=

> <s_epik_cmdline>
J2VwaWtfcHl0aG9uJywgJy1waCcsICc3LjAnLCAnLXRuJywgJzgnLCAnLW1hJywgJzIwMCcsICctbWV0YWxfYmluZGluZycsICctaW1hZScsICc8aW5maWxlLm1hZT4nLCAnLW9tYWUnLCAnPG91dGZpbGUubWFlPic=

> <r_lp_tautomer_probability>
1

> <r_epik_Ionization_Penalty>
4.30218e-05

> <r_epik_Ionization_Penalty_Charging>
0

> <r_epik_Ionization_Penalty_Neutral>
4.30218e-05

> <r_epik_State_Penalty>
-0

> <r_epik_Charging_Adjusted_Penalty>
0

> <i_epik_Tot_Q>
0

> <i_epik_Tot_abs_Q>
0

> <r_epik_Metal_State_Penalty>
-0

> <b_epik_Metal_Only>
0

> <s_lp_Force_Field>
OPLS_2005

> <r_lp_Energy>
23.0834

> <b_lp_Chiralities_Consistent>
1

> <s_lp_Variant>
AV-unprocessed.smi:1415-1

> <Gold.Version>
5.8.1

> <Gold.Id.Protein>
6NUR|6NUR_protein|mol2

> <Gold.PLP.Fitness>
44.2557

> <Gold.PLP.PLP>
-33.6651

> <Gold.PLP.part.hbond>
-3.0000

> <Gold.PLP.part.metal>
0.0000

> <Gold.PLP.part.buried>
0.1157

> <Gold.PLP.part.nonpolar>
-31.8305

> <Gold.PLP.part.repulsive>
1.2345

> <Gold.PLP.ligand.clash>
0.0000

> <Gold.PLP.ligand.torsion>
0.5758

> <Gold.PLP.Chemscore.Hbond>
2.9120

> <Gold.PLP.Chemscore.CHOScore>
1.0000

> <Gold.PLP.Chemscore.Metal>
0.0000

> <Gold.Chemscore.Hbonds>
donor molecule, donor type, donor heavy atom, donor atom, acceptor molecule, acceptor atom, score
      L1  H     3    21       P1  7948  0.86
      L1  H    14    36       P1  7948  0.84
      P1  H  7989  7998       L1    13  1.00
      L1  C    19    40       P1 10186  0.46

> <Gold.PLP.Chemscore.Internal.Correction>
0.0062

> <Gold.Rescore>
     Score         DG    S(hbond)    S(metal)    S(lipo)     H(rot)  DE(clash)    DE(int)     intcor
     14.79     -18.05       2.80        0.00      61.88       1.57       1.48       1.78       ----

> <Gold.Chemscore.Fitness>
14.7855

> <Gold.Chemscore.DG>
-18.0459

> <Gold.Chemscore.ZeroCoef>
-5.4800

> <Gold.Chemscore.Hbond>
2.8004

> <Gold.Chemscore.Metal>
0.0000

> <Gold.Chemscore.Lipo>
61.8780

> <Gold.Chemscore.Internal_Hbond>
0.0000

> <Gold.Chemscore.DEClash>
1.4795

> <Gold.Chemscore.DEInternal>
1.7809

> <Gold.Chemscore.Rot>
1.5731

> <Gold.Chemscore.Internal.Correction>
   9.000000E+99

> <Gold.Chemscore.Hbonds>
donor molecule, donor type, donor heavy atom, donor atom, acceptor molecule, acceptor atom, score
      L1  H     3    21       P1  7948  0.85
      L1  H    14    36       P1  7948  0.82
      P1  H  7989  7998       L1    13  0.64

> <Gold.Chemscore.Hbond.Weighted>
-9.3532

> <Gold.Chemscore.Metal.Weighted>
-0.0000

> <Gold.Chemscore.Lipo.Weighted>
-7.2397

> <Gold.Chemscore.Internal_Hbond.Weighted>
0.0000

> <Gold.Chemscore.DEClash.Weighted>
1.4795

> <Gold.Chemscore.DEInternal.Weighted>
1.7809

> <Gold.Chemscore.Rot.Weighted>
4.0271

> <Gold.Chemscore.Internal.Correction.Weighted>
   9.000000E+99

> <Gold.Protein.RotatedTorsions>
[ 6907 6896 6895 6894 ] final  -49.57 input  -60.11 | X-H torsion
[ 7974 7965 7964 7962 ] final  -50.41 input  175.53 | X-H torsion
[ 8008 7997 7996 7995 ] final   27.61 input   59.86 | X-H torsion
[ 10167 10162 10161 10158 ] final  -21.33 input  -65.29 | X-H torsion
[ 10718 10713 10712 10709 ] final -177.80 input   66.30 | X-H torsion
[ 10763 10752 10751 10750 ] final -144.20 input  -60.55 | X-H torsion
[ 11005 11000 10999 10996 ] final   -3.20 input  -57.11 | X-H torsion

> <Gold.Protein.ActiveResidues>
 VAL166  LYS551  ARG553  GLY616  TRP617  ASP618  TYR619  PRO620  LYS621  CYS622 
 ASP623  PHE694  ASN695  SER759  ASP760  ASP761  ALA762  ILE779  LEU786  VAL792 
 PHE793  MET794  SER795  GLU796  ALA797  LYS798  CYS799  TRP800  GLU811  SER814 

> <Gold.Protein.RotatedAtoms>
  150.8792  134.8180  159.7212 H   0  0  0  0  0  0  0  0  0  0  0  0  # atno 6907 bound_to 6896
  152.4767  134.4823  159.9679 H   0  0  0  0  0  0  0  0  0  0  0  0  # atno 6908 bound_to 6896
  151.4900  133.3488  159.2887 H   0  0  0  0  0  0  0  0  0  0  0  0  # atno 6909 bound_to 6896
  145.9301  140.7757  142.9604 H   0  0  0  0  0  0  0  0  0  0  0  0  # atno 7974 bound_to 7965
  155.0457  140.3174  155.4709 H   0  0  0  0  0  0  0  0  0  0  0  0  # atno 8008 bound_to 7997
  156.2845  140.2155  156.5525 H   0  0  0  0  0  0  0  0  0  0  0  0  # atno 8009 bound_to 7997
  154.7253  140.0486  157.0664 H   0  0  0  0  0  0  0  0  0  0  0  0  # atno 8010 bound_to 7997
  140.7281  143.4638  151.0342 H   0  0  0  0  0  0  0  0  0  0  0  0  # atno 10167 bound_to 10162
  156.8348  130.9666  151.3104 H   0  0  0  0  0  0  0  0  0  0  0  0  # atno 10718 bound_to 10713
  154.8438  135.3447  154.6309 H   0  0  0  0  0  0  0  0  0  0  0  0  # atno 10763 bound_to 10752
  153.6919  135.6974  153.5092 H   0  0  0  0  0  0  0  0  0  0  0  0  # atno 10764 bound_to 10752
  153.2589  135.4329  155.0829 H   0  0  0  0  0  0  0  0  0  0  0  0  # atno 10765 bound_to 10752
  140.6668  133.9272  155.8469 H   0  0  0  0  0  0  0  0  0  0  0  0  # atno 11005 bound_to 11000
  144.6764  140.2113  143.7376 LP  0  0  0  0  0  0  0  0  0  0  0  0  # atno 17320 bound_to 7965
  145.8437  139.2142  143.1812 LP  0  0  0  0  0  0  0  0  0  0  0  0  # atno 17321 bound_to 7965
  139.8325  143.7672  152.3180 LP  0  0  0  0  0  0  0  0  0  0  0  0  # atno 17342 bound_to 10162
  139.7793  144.7450  151.0112 LP  0  0  0  0  0  0  0  0  0  0  0  0  # atno 17343 bound_to 10162
  157.6387  130.8788  149.9408 LP  0  0  0  0  0  0  0  0  0  0  0  0  # atno 17370 bound_to 10713
  156.0914  130.3663  150.0389 LP  0  0  0  0  0  0  0  0  0  0  0  0  # atno 17371 bound_to 10713
  141.0423  134.0603  157.3887 LP  0  0  0  0  0  0  0  0  0  0  0  0  # atno 17394 bound_to 11000
  139.8995  135.0159  156.7197 LP  0  0  0  0  0  0  0  0  0  0  0  0  # atno 17395 bound_to 11000

$$$$
