AV-unprocessed.smi:2377|AV-procd|sdf|9445|dock2
  -GOLD-   2272013 73D 1   1.00000     0.00000
 Structure written by MMmdl.
 24 24  0  0  0  0  0  0  0  0  2 V2000
  146.6751  139.1593  151.9070 C   0  0  0  0  0  0  0  0  0  0  0  0
  147.9288  138.7732  152.5804 N   0  3  0  0  0  0  0  0  0  0  0  0
  147.9513  139.0775  154.0252 C   0  0  0  0  0  0  0  0  0  0  0  0
  149.0517  140.0961  154.3714 C   0  0  2  0  0  0  0  0  0  0  0  0
  149.1690  141.0201  153.3064 O   0  0  0  0  0  0  0  0  0  0  0  0
  150.3711  139.3997  154.6631 C   0  0  0  0  0  0  0  0  0  0  0  0
  151.2939  139.9275  155.5929 C   0  0  0  0  0  0  0  0  0  0  0  0
  152.5041  139.2427  155.8150 C   0  0  0  0  0  0  0  0  0  0  0  0
  152.7454  138.0561  155.0947 C   0  0  0  0  0  0  0  0  0  0  0  0
  151.8740  137.5431  154.1999 N   0  0  0  0  0  0  0  0  0  0  0  0
  150.7156  138.2049  153.9937 C   0  0  0  0  0  0  0  0  0  0  0  0
  146.7269  138.9047  150.8484 H   0  0  0  0  0  0  0  0  0  0  0  0
  146.5041  140.2330  151.9924 H   0  0  0  0  0  0  0  0  0  0  0  0
  145.8240  138.6351  152.3430 H   0  0  0  0  0  0  0  0  0  0  0  0
  148.0643  137.7784  152.4659 H   0  0  0  0  0  0  0  0  0  0  0  0
  146.9767  139.4786  154.3078 H   0  0  0  0  0  0  0  0  0  0  0  0
  148.0935  138.1556  154.5913 H   0  0  0  0  0  0  0  0  0  0  0  0
  148.7556  140.6583  155.2583 H   0  0  0  0  0  0  0  0  0  0  0  0
  148.8836  140.5989  152.5092 H   0  0  0  0  0  0  0  0  0  0  0  0
  151.0820  140.8422  156.1269 H   0  0  0  0  0  0  0  0  0  0  0  0
  153.2306  139.6178  156.5208 H   0  0  0  0  0  0  0  0  0  0  0  0
  153.6632  137.5056  155.2397 H   0  0  0  0  0  0  0  0  0  0  0  0
  150.0446  137.7668  153.2695 H   0  0  0  0  0  0  0  0  0  0  0  0
  148.6970  139.2563  152.1371 H   0  0  0  0  0  0  0  0  0  0  0  0
  1  2  1  0  0  0  0
  1 12  1  0  0  0  0
  1 13  1  0  0  0  0
  1 14  1  0  0  0  0
  2  3  1  0  0  0  0
  2 15  1  0  0  0  0
  2 24  1  0  0  0  0
  3  4  1  0  0  0  0
  3 16  1  0  0  0  0
  3 17  1  0  0  0  0
  4  5  1  0  0  0  0
  4  6  1  0  0  0  0
  4 18  1  0  0  0  0
  5 19  1  0  0  0  0
  6 11  1  0  0  0  0
  6  7  2  0  0  0  0
  7  8  1  0  0  0  0
  7 20  1  0  0  0  0
  8  9  2  0  0  0  0
  8 21  1  0  0  0  0
  9 10  1  0  0  0  0
  9 22  1  0  0  0  0
 10 11  2  0  0  0  0
 11 23  1  0  0  0  0
M  CHG  1   2   1
M  END
> <s_m_source_file>
AV-unprocessed.smi

> <i_m_source_file_index>
2377

> <i_lp_mmshare_version>
43012

> <i_f3d_flags>
0

> <s_epik_input>
W0NIM11bTkhdW0NIMl1bQ0BIXShbT0hdKWMxW2NIXVtjSF1bY0hdbltjSF0x

> <s_epik_cmdline>
J2VwaWtfcHl0aG9uJywgJy1waCcsICc3LjAnLCAnLXRuJywgJzgnLCAnLW1hJywgJzIwMCcsICctbWV0YWxfYmluZGluZycsICctaW1hZScsICc8aW5maWxlLm1hZT4nLCAnLW9tYWUnLCAnPG91dGZpbGUubWFlPic=

> <r_epik_Ionization_Penalty>
0.00990913

> <r_epik_Ionization_Penalty_Charging>
0.00939893

> <r_epik_Ionization_Penalty_Neutral>
0.000510194

> <r_epik_State_Penalty>
0.00713549

> <r_epik_Charging_Adjusted_Penalty>
0.0165344

> <i_epik_Tot_Q>
1

> <i_epik_Tot_abs_Q>
1

> <r_epik_Metal_State_Penalty>
0.00716299

> <b_epik_Metal_Only>
0

> <s_lp_Force_Field>
OPLS_2005

> <r_lp_Energy>
6.48909

> <b_lp_Chiralities_Consistent>
1

> <s_lp_Variant>
AV-unprocessed.smi:2377-1

> <Gold.Version>
5.8.1

> <Gold.Id.Protein>
6NUR|6NUR_protein|mol2

> <Gold.PLP.Fitness>
42.6626

> <Gold.PLP.PLP>
-27.2948

> <Gold.PLP.part.hbond>
-5.0358

> <Gold.PLP.part.metal>
0.0000

> <Gold.PLP.part.buried>
0.6523

> <Gold.PLP.part.nonpolar>
-22.5106

> <Gold.PLP.part.repulsive>
0.2145

> <Gold.PLP.ligand.clash>
0.0000

> <Gold.PLP.ligand.torsion>
1.4221

> <Gold.PLP.Chemscore.Hbond>
4.9935

> <Gold.PLP.Chemscore.CHOScore>
1.0727

> <Gold.PLP.Chemscore.Metal>
0.0000

> <Gold.Chemscore.Hbonds>
donor molecule, donor type, donor heavy atom, donor atom, acceptor molecule, acceptor atom, score
      L1  H     2    15       P1  7948  2.00
      L1  H     2    24       P1  7957  1.00
      L1  H     5    19       P1  7957  0.72
      P1  H  8011  8017       L1     5  0.45
      P1  H 10752 10765       L1    10  0.34
      L1  C    11    23       P1  7948  1.00
      L1  C    11    23       P1  7949  0.03

> <Gold.PLP.Chemscore.Internal.Correction>
0.0133

> <Gold.Rescore>
     Score         DG    S(hbond)    S(metal)    S(lipo)     H(rot)  DE(clash)    DE(int)     intcor
     16.12     -17.44       3.05        0.00      59.63       2.03       0.18       1.14       ----

> <Gold.Chemscore.Fitness>
16.1191

> <Gold.Chemscore.DG>
-17.4389

> <Gold.Chemscore.ZeroCoef>
-5.4800

> <Gold.Chemscore.Hbond>
3.0511

> <Gold.Chemscore.Metal>
0.0000

> <Gold.Chemscore.Lipo>
59.6257

> <Gold.Chemscore.Internal_Hbond>
0.0000

> <Gold.Chemscore.DEClash>
0.1839

> <Gold.Chemscore.DEInternal>
1.1359

> <Gold.Chemscore.Rot>
2.0344

> <Gold.Chemscore.Internal.Correction>
   9.000000E+99

> <Gold.Chemscore.Hbonds>
donor molecule, donor type, donor heavy atom, donor atom, acceptor molecule, acceptor atom, score
      L1  H     2    15       P1  7948  0.98
      L1  H     2    24       P1  7957  0.93
      L1  H     5    19       P1  7957  0.71
      P1  H  8011  8017       L1     5  0.02
      P1  H 10752 10765       L1    10  0.01

> <Gold.Chemscore.Hbond.Weighted>
-10.1907

> <Gold.Chemscore.Metal.Weighted>
-0.0000

> <Gold.Chemscore.Lipo.Weighted>
-6.9762

> <Gold.Chemscore.Internal_Hbond.Weighted>
0.0000

> <Gold.Chemscore.DEClash.Weighted>
0.1839

> <Gold.Chemscore.DEInternal.Weighted>
1.1359

> <Gold.Chemscore.Rot.Weighted>
5.2080

> <Gold.Chemscore.Internal.Correction.Weighted>
   9.000000E+99

> <Gold.Protein.RotatedTorsions>
[ 6907 6896 6895 6894 ] final   11.63 input  -60.11 | X-H torsion
[ 7974 7965 7964 7962 ] final  -57.34 input  175.53 | X-H torsion
[ 8008 7997 7996 7995 ] final  -41.77 input   59.86 | X-H torsion
[ 10167 10162 10161 10158 ] final    3.99 input  -65.29 | X-H torsion
[ 10718 10713 10712 10709 ] final  154.37 input   66.30 | X-H torsion
[ 10763 10752 10751 10750 ] final  157.29 input  -60.55 | X-H torsion
[ 11005 11000 10999 10996 ] final   33.26 input  -57.11 | X-H torsion

> <Gold.Protein.ActiveResidues>
 VAL166  LYS551  ARG553  GLY616  TRP617  ASP618  TYR619  PRO620  LYS621  CYS622 
 ASP623  PHE694  ASN695  SER759  ASP760  ASP761  ALA762  ILE779  LEU786  VAL792 
 PHE793  MET794  SER795  GLU796  ALA797  LYS798  CYS799  TRP800  GLU811  SER814 

> <Gold.Protein.RotatedAtoms>
  151.7574  135.0818  160.0340 H   0  0  0  0  0  0  0  0  0  0  0  0  # atno 6907 bound_to 6896
  152.3376  133.6025  159.5862 H   0  0  0  0  0  0  0  0  0  0  0  0  # atno 6908 bound_to 6896
  150.7459  133.9688  159.3581 H   0  0  0  0  0  0  0  0  0  0  0  0  # atno 6909 bound_to 6896
  145.8522  140.8344  142.9979 H   0  0  0  0  0  0  0  0  0  0  0  0  # atno 7974 bound_to 7965
  154.4002  140.1491  156.3246 H   0  0  0  0  0  0  0  0  0  0  0  0  # atno 8008 bound_to 7997
  155.8499  140.3458  155.5665 H   0  0  0  0  0  0  0  0  0  0  0  0  # atno 8009 bound_to 7997
  155.7996  140.0868  157.1955 H   0  0  0  0  0  0  0  0  0  0  0  0  # atno 8010 bound_to 7997
  140.6557  143.7432  150.7650 H   0  0  0  0  0  0  0  0  0  0  0  0  # atno 10167 bound_to 10162
  157.2325  131.0742  151.1844 H   0  0  0  0  0  0  0  0  0  0  0  0  # atno 10718 bound_to 10713
  154.1980  135.2791  155.3000 H   0  0  0  0  0  0  0  0  0  0  0  0  # atno 10763 bound_to 10752
  154.5877  135.5569  153.7251 H   0  0  0  0  0  0  0  0  0  0  0  0  # atno 10764 bound_to 10752
  153.0095  135.6360  154.2118 H   0  0  0  0  0  0  0  0  0  0  0  0  # atno 10765 bound_to 10752
  140.2650  134.3148  155.7845 H   0  0  0  0  0  0  0  0  0  0  0  0  # atno 11005 bound_to 11000
  144.6729  140.0971  143.7462 LP  0  0  0  0  0  0  0  0  0  0  0  0  # atno 17320 bound_to 7965
  145.9344  139.2627  143.1306 LP  0  0  0  0  0  0  0  0  0  0  0  0  # atno 17321 bound_to 7965
  140.1091  143.4716  152.2380 LP  0  0  0  0  0  0  0  0  0  0  0  0  # atno 17342 bound_to 10162
  139.5780  144.7497  151.3714 LP  0  0  0  0  0  0  0  0  0  0  0  0  # atno 17343 bound_to 10162
  157.3463  130.7059  149.6412 LP  0  0  0  0  0  0  0  0  0  0  0  0  # atno 17370 bound_to 10713
  155.9674  130.4265  150.4703 LP  0  0  0  0  0  0  0  0  0  0  0  0  # atno 17371 bound_to 10713
  141.2185  133.7432  156.9245 LP  0  0  0  0  0  0  0  0  0  0  0  0  # atno 17394 bound_to 11000
  140.1428  134.9282  157.2490 LP  0  0  0  0  0  0  0  0  0  0  0  0  # atno 17395 bound_to 11000

$$$$
