AV-unprocessed.smi:560|AV-procd|sdf|2929|dock6
  -GOLD-   2262023423D 1   1.00000     0.00000
 Structure written by MMmdl.
 42 43  0  0  0  0  0  0  0  0  2 V2000
  147.3751  142.3513  154.2858 C   0  0  0  0  0  0  0  0  0  0  0  0
  147.6439  141.2068  155.2842 C   0  0  1  0  0  0  0  0  0  0  0  0
  146.8572  139.9258  154.9578 C   0  0  0  0  0  0  0  0  0  0  0  0
  146.2568  139.3098  155.8395 O   0  0  0  0  0  0  0  0  0  0  0  0
  146.8754  139.5288  153.6750 N   0  0  0  0  0  0  0  0  0  0  0  0
  146.1798  138.3606  153.1451 C   0  0  2  0  0  0  0  0  0  0  0  0
  146.6561  137.0724  153.8417 C   0  0  0  0  0  0  0  0  0  0  0  0
  146.0092  135.8270  153.2126 C   0  0  0  0  0  0  0  0  0  0  0  0
  146.2771  135.7631  151.7532 N   0  3  1  0  0  0  0  0  0  0  0  0
  145.7905  134.5001  151.1408 C   0  0  0  0  0  0  0  0  0  0  0  0
  144.2832  134.5107  150.8647 C   0  0  0  0  0  0  0  0  0  0  0  0
  143.9046  134.4421  149.5865 N   0  0  0  0  0  0  0  0  0  0  0  0
  143.4718  134.5943  151.7853 O   0  0  0  0  0  0  0  0  0  0  0  0
  145.7828  136.9802  151.0546 C   0  0  0  0  0  0  0  0  0  0  0  0
  146.4288  138.2502  151.6322 C   0  0  0  0  0  0  0  0  0  0  0  0
  149.0683  140.9168  155.4083 N   0  0  0  0  0  0  0  0  0  0  0  0
  150.0419  141.6858  156.0137 C   0  0  0  0  0  0  0  0  0  0  0  0
  151.2220  141.0058  155.9172 C   0  0  0  0  0  0  0  0  0  0  0  0
  150.8673  139.8090  155.2350 C   0  0  0  0  0  0  0  0  0  0  0  0
  149.5791  139.7546  154.9390 N   0  0  0  0  0  0  0  0  0  0  0  0
  146.3148  142.6052  154.2539 H   0  0  0  0  0  0  0  0  0  0  0  0
  147.6841  142.0920  153.2721 H   0  0  0  0  0  0  0  0  0  0  0  0
  147.9166  143.2524  154.5745 H   0  0  0  0  0  0  0  0  0  0  0  0
  147.2995  141.5472  156.2620 H   0  0  0  0  0  0  0  0  0  0  0  0
  147.3933  140.0913  153.0156 H   0  0  0  0  0  0  0  0  0  0  0  0
  145.1067  138.4800  153.3078 H   0  0  0  0  0  0  0  0  0  0  0  0
  147.7417  136.9917  153.7700 H   0  0  0  0  0  0  0  0  0  0  0  0
  146.4193  137.1078  154.9058 H   0  0  0  0  0  0  0  0  0  0  0  0
  146.4057  134.9353  153.6999 H   0  0  0  0  0  0  0  0  0  0  0  0
  144.9319  135.8321  153.3867 H   0  0  0  0  0  0  0  0  0  0  0  0
  146.2812  134.3458  150.1787 H   0  0  0  0  0  0  0  0  0  0  0  0
  146.0597  133.6498  151.7701 H   0  0  0  0  0  0  0  0  0  0  0  0
  142.9239  134.4405  149.3454 H   0  0  0  0  0  0  0  0  0  0  0  0
  144.6044  134.3868  148.8599 H   0  0  0  0  0  0  0  0  0  0  0  0
  146.0065  136.9203  149.9891 H   0  0  0  0  0  0  0  0  0  0  0  0
  144.6968  137.0379  151.1448 H   0  0  0  0  0  0  0  0  0  0  0  0
  146.0316  139.1295  151.1229 H   0  0  0  0  0  0  0  0  0  0  0  0
  147.5011  138.2337  151.4305 H   0  0  0  0  0  0  0  0  0  0  0  0
  149.8167  142.6441  156.4581 H   0  0  0  0  0  0  0  0  0  0  0  0
  152.1909  141.3150  156.2803 H   0  0  0  0  0  0  0  0  0  0  0  0
  151.5018  138.9821  154.9516 H   0  0  0  0  0  0  0  0  0  0  0  0
  147.2820  135.7523  151.6495 H   0  0  0  0  0  0  0  0  0  0  0  0
  1  2  1  0  0  0  0
  1 21  1  0  0  0  0
  1 22  1  0  0  0  0
  1 23  1  0  0  0  0
  2  3  1  0  0  0  0
  2 16  1  0  0  0  0
  2 24  1  0  0  0  0
  3  4  2  0  0  0  0
  3  5  1  0  0  0  0
  5  6  1  0  0  0  0
  5 25  1  0  0  0  0
  6 15  1  0  0  0  0
  6  7  1  0  0  0  0
  6 26  1  0  0  0  0
  7  8  1  0  0  0  0
  7 27  1  0  0  0  0
  7 28  1  0  0  0  0
  8  9  1  0  0  0  0
  8 29  1  0  0  0  0
  8 30  1  0  0  0  0
  9 10  1  0  0  0  0
  9 14  1  0  0  0  0
  9 42  1  0  0  0  0
 10 11  1  0  0  0  0
 10 31  1  0  0  0  0
 10 32  1  0  0  0  0
 11 12  1  0  0  0  0
 11 13  2  0  0  0  0
 12 33  1  0  0  0  0
 12 34  1  0  0  0  0
 14 15  1  0  0  0  0
 14 35  1  0  0  0  0
 14 36  1  0  0  0  0
 15 37  1  0  0  0  0
 15 38  1  0  0  0  0
 16 20  1  0  0  0  0
 16 17  1  0  0  0  0
 17 18  2  0  0  0  0
 17 39  1  0  0  0  0
 18 19  1  0  0  0  0
 18 40  1  0  0  0  0
 19 20  2  0  0  0  0
 19 41  1  0  0  0  0
M  CHG  1   9   1
M  END
> <s_m_source_file>
AV-unprocessed.smi

> <i_m_source_file_index>
560

> <i_lp_mmshare_version>
43012

> <i_f3d_flags>
0

> <s_epik_input>
bjFbY0hdW2NIXVtjSF1uMVtDQEhdKFtDSDNdKUMoPU8pW05IXVtDSF0yW0NIMl1bQ0gyXU4oW0NIMl1bQ0gyXTIpW0NIMl1DKD1PKVtOSDJd

> <s_epik_cmdline>
J2VwaWtfcHl0aG9uJywgJy1waCcsICc3LjAnLCAnLXRuJywgJzgnLCAnLW1hJywgJzIwMCcsICctbWV0YWxfYmluZGluZycsICctaW1hZScsICc8aW5maWxlLm1hZT4nLCAnLW9tYWUnLCAnPG91dGZpbGUubWFlPic=

> <r_lp_tautomer_probability>
1

> <r_epik_Ionization_Penalty>
1.02943

> <r_epik_Ionization_Penalty_Charging>
1.02936

> <r_epik_Ionization_Penalty_Neutral>
7.4537e-05

> <r_epik_State_Penalty>
1.08036

> <r_epik_Charging_Adjusted_Penalty>
2.10972

> <i_epik_Tot_Q>
1

> <i_epik_Tot_abs_Q>
1

> <r_epik_Metal_State_Penalty>
1.09347

> <b_epik_Metal_Only>
0

> <s_lp_Force_Field>
OPLS_2005

> <r_lp_Energy>
15.5023

> <b_lp_Chiralities_Consistent>
1

> <s_lp_Variant>
AV-unprocessed.smi:560-4

> <Gold.Version>
5.8.1

> <Gold.Id.Protein>
6NUR|6NUR_protein|mol2

> <Gold.PLP.Fitness>
42.5663

> <Gold.PLP.PLP>
-29.2462

> <Gold.PLP.part.hbond>
-3.0000

> <Gold.PLP.part.metal>
0.0000

> <Gold.PLP.part.buried>
3.2009

> <Gold.PLP.part.nonpolar>
-29.0756

> <Gold.PLP.part.repulsive>
0.4707

> <Gold.PLP.ligand.clash>
0.0000

> <Gold.PLP.ligand.torsion>
0.9115

> <Gold.PLP.Chemscore.Hbond>
4.0000

> <Gold.PLP.Chemscore.CHOScore>
1.0000

> <Gold.PLP.Chemscore.Metal>
0.0000

> <Gold.Chemscore.Hbonds>
donor molecule, donor type, donor heavy atom, donor atom, acceptor molecule, acceptor atom, score
      L1  H     9    42       P1  7948  2.00
      L1  H    12    33       P1 10186  1.00
      L1  H    12    34       P1  7921  1.00
      L1  C    17    39       P1  8028  1.00

> <Gold.PLP.Chemscore.Internal.Correction>
0.1431

> <Gold.Rescore>
     Score         DG    S(hbond)    S(metal)    S(lipo)     H(rot)  DE(clash)    DE(int)     intcor
     13.95     -16.90       2.97        0.00      68.08       2.52       1.74       1.20       ----

> <Gold.Chemscore.Fitness>
13.9537

> <Gold.Chemscore.DG>
-16.8992

> <Gold.Chemscore.ZeroCoef>
-5.4800

> <Gold.Chemscore.Hbond>
2.9689

> <Gold.Chemscore.Metal>
0.0000

> <Gold.Chemscore.Lipo>
68.0778

> <Gold.Chemscore.Internal_Hbond>
0.0000

> <Gold.Chemscore.DEClash>
1.7425

> <Gold.Chemscore.DEInternal>
1.2030

> <Gold.Chemscore.Rot>
2.5243

> <Gold.Chemscore.Internal.Correction>
   9.000000E+99

> <Gold.Chemscore.Hbonds>
donor molecule, donor type, donor heavy atom, donor atom, acceptor molecule, acceptor atom, score
      L1  H     9    42       P1  7948  1.00
      L1  H    12    33       P1 10186  0.99
      L1  H    12    34       P1  7921  0.96

> <Gold.Chemscore.Hbond.Weighted>
-9.9163

> <Gold.Chemscore.Metal.Weighted>
-0.0000

> <Gold.Chemscore.Lipo.Weighted>
-7.9651

> <Gold.Chemscore.Internal_Hbond.Weighted>
0.0000

> <Gold.Chemscore.DEClash.Weighted>
1.7425

> <Gold.Chemscore.DEInternal.Weighted>
1.2030

> <Gold.Chemscore.Rot.Weighted>
6.4622

> <Gold.Chemscore.Internal.Correction.Weighted>
   9.000000E+99

> <Gold.Protein.RotatedTorsions>
[ 6907 6896 6895 6894 ] final  103.08 input  -60.11 | X-H torsion
[ 7974 7965 7964 7962 ] final -177.36 input  175.53 | X-H torsion
[ 8008 7997 7996 7995 ] final   69.61 input   59.86 | X-H torsion
[ 10167 10162 10161 10158 ] final  -27.78 input  -65.29 | X-H torsion
[ 10718 10713 10712 10709 ] final  171.00 input   66.30 | X-H torsion
[ 10763 10752 10751 10750 ] final  148.65 input  -60.55 | X-H torsion
[ 11005 11000 10999 10996 ] final  -45.84 input  -57.11 | X-H torsion

> <Gold.Protein.ActiveResidues>
 VAL166  LYS551  ARG553  GLY616  TRP617  ASP618  TYR619  PRO620  LYS621  CYS622 
 ASP623  PHE694  ASN695  SER759  ASP760  ASP761  ALA762  ILE779  LEU786  VAL792 
 PHE793  MET794  SER795  GLU796  ALA797  LYS798  CYS799  TRP800  GLU811  SER814 

> <Gold.Protein.RotatedAtoms>
  152.5305  133.9878  159.7836 H   0  0  0  0  0  0  0  0  0  0  0  0  # atno 6907 bound_to 6896
  151.0120  133.5948  159.2688 H   0  0  0  0  0  0  0  0  0  0  0  0  # atno 6908 bound_to 6896
  151.3019  135.0777  159.9295 H   0  0  0  0  0  0  0  0  0  0  0  0  # atno 6909 bound_to 6896
  144.7127  140.1031  143.6415 H   0  0  0  0  0  0  0  0  0  0  0  0  # atno 7974 bound_to 7965
  155.7262  140.3492  155.5038 H   0  0  0  0  0  0  0  0  0  0  0  0  # atno 8008 bound_to 7997
  155.9224  140.1069  157.1218 H   0  0  0  0  0  0  0  0  0  0  0  0  # atno 8009 bound_to 7997
  154.4072  140.1247  156.4683 H   0  0  0  0  0  0  0  0  0  0  0  0  # atno 8010 bound_to 7997
  140.7275  143.4065  151.1177 H   0  0  0  0  0  0  0  0  0  0  0  0  # atno 10167 bound_to 10162
  157.0000  131.0173  151.2833 H   0  0  0  0  0  0  0  0  0  0  0  0  # atno 10718 bound_to 10713
  154.0583  135.2876  155.3329 H   0  0  0  0  0  0  0  0  0  0  0  0  # atno 10763 bound_to 10752
  154.6825  135.5258  153.8285 H   0  0  0  0  0  0  0  0  0  0  0  0  # atno 10764 bound_to 10752
  153.0533  135.6585  154.0774 H   0  0  0  0  0  0  0  0  0  0  0  0  # atno 10765 bound_to 10752
  141.0541  133.6732  156.3070 H   0  0  0  0  0  0  0  0  0  0  0  0  # atno 11005 bound_to 11000
  145.9521  139.2740  143.1206 LP  0  0  0  0  0  0  0  0  0  0  0  0  # atno 17320 bound_to 7965
  145.9312  140.9047  143.0355 LP  0  0  0  0  0  0  0  0  0  0  0  0  # atno 17321 bound_to 7965
  139.7692  143.8520  152.3117 LP  0  0  0  0  0  0  0  0  0  0  0  0  # atno 17342 bound_to 10162
  139.8432  144.7200  150.9305 LP  0  0  0  0  0  0  0  0  0  0  0  0  # atno 17343 bound_to 10162
  157.5397  130.8112  149.8014 LP  0  0  0  0  0  0  0  0  0  0  0  0  # atno 17370 bound_to 10713
  156.0175  130.3808  150.2066 LP  0  0  0  0  0  0  0  0  0  0  0  0  # atno 17371 bound_to 10713
  140.5998  134.5566  157.5515 LP  0  0  0  0  0  0  0  0  0  0  0  0  # atno 17394 bound_to 11000
  139.9375  134.7848  156.0765 LP  0  0  0  0  0  0  0  0  0  0  0  0  # atno 17395 bound_to 11000

$$$$
