AV-unprocessed.smi:3112|AV-procd|sdf|11839|dock2
  -GOLD-   2272017213D 1   1.00000     0.00000
 Structure written by MMmdl.
 37 37  0  0  0  0  0  0  0  0  2 V2000
  144.4644  137.3598  154.0210 C   0  0  0  0  0  0  0  0  0  0  0  0
  144.8306  137.6746  152.5640 C   0  0  0  0  0  0  0  0  0  0  0  0
  146.3480  137.7685  152.3204 C   0  0  1  0  0  0  0  0  0  0  0  0
  146.5738  138.1432  150.9753 O   0  0  0  0  0  0  0  0  0  0  0  0
  147.0120  138.8150  153.2302 C   0  0  0  0  0  0  0  0  0  0  0  0
  148.4854  138.7405  153.1413 N   0  3  0  0  0  0  0  0  0  0  0  0
  149.2180  139.1931  154.3469 C   0  0  1  0  0  0  0  0  0  0  0  0
  150.6224  138.5669  154.3458 C   0  0  0  0  0  0  0  0  0  0  0  0
  149.2652  140.7427  154.4525 C   0  0  2  0  0  0  0  0  0  0  0  0
  150.2038  141.2624  155.5572 C   0  0  0  0  0  0  0  0  0  0  0  0
  147.9414  141.3511  154.5423 N   0  0  0  0  0  0  0  0  0  0  0  0
  147.3479  142.2300  153.6587 C   0  0  0  0  0  0  0  0  0  0  0  0
  146.1041  142.5195  154.1413 C   0  0  0  0  0  0  0  0  0  0  0  0
  146.0213  141.7594  155.3406 C   0  0  0  0  0  0  0  0  0  0  0  0
  147.1190  141.0592  155.5759 N   0  0  0  0  0  0  0  0  0  0  0  0
  143.3822  137.3394  154.1511 H   0  0  0  0  0  0  0  0  0  0  0  0
  144.8650  138.1136  154.6994 H   0  0  0  0  0  0  0  0  0  0  0  0
  144.8514  136.3888  154.3307 H   0  0  0  0  0  0  0  0  0  0  0  0
  144.3913  136.9243  151.9051 H   0  0  0  0  0  0  0  0  0  0  0  0
  144.3657  138.6235  152.2939 H   0  0  0  0  0  0  0  0  0  0  0  0
  146.8017  136.7917  152.4950 H   0  0  0  0  0  0  0  0  0  0  0  0
  145.7549  138.4313  150.6007 H   0  0  0  0  0  0  0  0  0  0  0  0
  146.6634  139.8156  152.9723 H   0  0  0  0  0  0  0  0  0  0  0  0
  146.7261  138.6385  154.2680 H   0  0  0  0  0  0  0  0  0  0  0  0
  148.7334  137.7780  152.9637 H   0  0  0  0  0  0  0  0  0  0  0  0
  148.7047  138.8101  155.2306 H   0  0  0  0  0  0  0  0  0  0  0  0
  151.1927  138.8791  155.2211 H   0  0  0  0  0  0  0  0  0  0  0  0
  151.1919  138.8487  153.4595 H   0  0  0  0  0  0  0  0  0  0  0  0
  150.5642  137.4782  154.3651 H   0  0  0  0  0  0  0  0  0  0  0  0
  149.6937  141.0975  153.5137 H   0  0  0  0  0  0  0  0  0  0  0  0
  151.2085  140.8551  155.4411 H   0  0  0  0  0  0  0  0  0  0  0  0
  149.8498  140.9976  156.5539 H   0  0  0  0  0  0  0  0  0  0  0  0
  150.2851  142.3492  155.5180 H   0  0  0  0  0  0  0  0  0  0  0  0
  147.8542  142.5729  152.7683 H   0  0  0  0  0  0  0  0  0  0  0  0
  145.3657  143.1752  153.7039 H   0  0  0  0  0  0  0  0  0  0  0  0
  145.2017  141.6940  156.0409 H   0  0  0  0  0  0  0  0  0  0  0  0
  148.7943  139.2976  152.3562 H   0  0  0  0  0  0  0  0  0  0  0  0
  1  2  1  0  0  0  0
  1 16  1  0  0  0  0
  1 17  1  0  0  0  0
  1 18  1  0  0  0  0
  2  3  1  0  0  0  0
  2 19  1  0  0  0  0
  2 20  1  0  0  0  0
  3  4  1  0  0  0  0
  3  5  1  0  0  0  0
  3 21  1  0  0  0  0
  4 22  1  0  0  0  0
  5  6  1  0  0  0  0
  5 23  1  0  0  0  0
  5 24  1  0  0  0  0
  6  7  1  0  0  0  0
  6 25  1  0  0  0  0
  6 37  1  0  0  0  0
  7  8  1  0  0  0  0
  7  9  1  0  0  0  0
  7 26  1  0  0  0  0
  8 27  1  0  0  0  0
  8 28  1  0  0  0  0
  8 29  1  0  0  0  0
  9 10  1  0  0  0  0
  9 11  1  0  0  0  0
  9 30  1  0  0  0  0
 10 31  1  0  0  0  0
 10 32  1  0  0  0  0
 10 33  1  0  0  0  0
 11 15  1  0  0  0  0
 11 12  1  0  0  0  0
 12 13  2  0  0  0  0
 12 34  1  0  0  0  0
 13 14  1  0  0  0  0
 13 35  1  0  0  0  0
 14 15  2  0  0  0  0
 14 36  1  0  0  0  0
M  CHG  1   6   1
M  END
> <s_m_source_file>
AV-unprocessed.smi

> <i_m_source_file_index>
3112

> <i_lp_mmshare_version>
43012

> <i_f3d_flags>
0

> <s_epik_input>
W0NIM11bQ0gyXVtDQEhdKFtPSF0pW0NIMl1bTkhdW0NASF0oW0NIM10pW0NASF0oW0NIM10pbjFbY0hdW2NIXVtjSF1uMQ==

> <s_epik_cmdline>
J2VwaWtfcHl0aG9uJywgJy1waCcsICc3LjAnLCAnLXRuJywgJzgnLCAnLW1hJywgJzIwMCcsICctbWV0YWxfYmluZGluZycsICctaW1hZScsICc8aW5maWxlLm1hZT4nLCAnLW9tYWUnLCAnPG91dGZpbGUubWFlPic=

> <r_lp_tautomer_probability>
1

> <r_epik_Ionization_Penalty>
0.0154842

> <r_epik_Ionization_Penalty_Charging>
0.0154724

> <r_epik_Ionization_Penalty_Neutral>
1.17979e-05

> <r_epik_State_Penalty>
0.0121607

> <r_epik_Charging_Adjusted_Penalty>
0.0276331

> <i_epik_Tot_Q>
1

> <i_epik_Tot_abs_Q>
1

> <r_epik_Metal_State_Penalty>
0.0121863

> <b_epik_Metal_Only>
0

> <s_lp_Force_Field>
OPLS_2005

> <r_lp_Energy>
13.0282

> <b_lp_Chiralities_Consistent>
1

> <s_lp_Variant>
AV-unprocessed.smi:3112-4

> <Gold.Version>
5.8.1

> <Gold.Id.Protein>
6NUR|6NUR_protein|mol2

> <Gold.PLP.Fitness>
44.3346

> <Gold.PLP.PLP>
-30.2172

> <Gold.PLP.part.hbond>
-4.5267

> <Gold.PLP.part.metal>
0.0000

> <Gold.PLP.part.buried>
-2.6725

> <Gold.PLP.part.nonpolar>
-23.7357

> <Gold.PLP.part.repulsive>
0.1240

> <Gold.PLP.ligand.clash>
0.0000

> <Gold.PLP.ligand.torsion>
0.5239

> <Gold.PLP.Chemscore.Hbond>
5.0000

> <Gold.PLP.Chemscore.CHOScore>
0.0000

> <Gold.PLP.Chemscore.Metal>
0.0000

> <Gold.Chemscore.Hbonds>
donor molecule, donor type, donor heavy atom, donor atom, acceptor molecule, acceptor atom, score
      L1  H     4    22       P1 10171  0.99
      L1  H     6    25       P1  7948  2.00
      L1  H     6    37       P1  7957  1.00
      P1  H  7954  7966       L1     4  1.00

> <Gold.PLP.Chemscore.Internal.Correction>
0.1652

> <Gold.Rescore>
     Score         DG    S(hbond)    S(metal)    S(lipo)     H(rot)  DE(clash)    DE(int)     intcor
     18.21     -19.98       3.90        0.00      65.22       2.41       0.24       1.52       ----

> <Gold.Chemscore.Fitness>
18.2150

> <Gold.Chemscore.DG>
-19.9766

> <Gold.Chemscore.ZeroCoef>
-5.4800

> <Gold.Chemscore.Hbond>
3.9019

> <Gold.Chemscore.Metal>
0.0000

> <Gold.Chemscore.Lipo>
65.2227

> <Gold.Chemscore.Internal_Hbond>
0.0000

> <Gold.Chemscore.DEClash>
0.2427

> <Gold.Chemscore.DEInternal>
1.5189

> <Gold.Chemscore.Rot>
2.4089

> <Gold.Chemscore.Internal.Correction>
   9.000000E+99

> <Gold.Chemscore.Hbonds>
donor molecule, donor type, donor heavy atom, donor atom, acceptor molecule, acceptor atom, score
      L1  H     4    22       P1 10171  0.92
      L1  H     6    25       P1  7948  0.97
      L1  H     6    37       P1  7957  0.99
      P1  H  7954  7966       L1     4  0.97

> <Gold.Chemscore.Hbond.Weighted>
-13.0322

> <Gold.Chemscore.Metal.Weighted>
-0.0000

> <Gold.Chemscore.Lipo.Weighted>
-7.6311

> <Gold.Chemscore.Internal_Hbond.Weighted>
0.0000

> <Gold.Chemscore.DEClash.Weighted>
0.2427

> <Gold.Chemscore.DEInternal.Weighted>
1.5189

> <Gold.Chemscore.Rot.Weighted>
6.1667

> <Gold.Chemscore.Internal.Correction.Weighted>
   9.000000E+99

> <Gold.Protein.RotatedTorsions>
[ 6907 6896 6895 6894 ] final    6.47 input  -60.11 | X-H torsion
[ 7974 7965 7964 7962 ] final -114.77 input  175.53 | X-H torsion
[ 8008 7997 7996 7995 ] final   29.99 input   59.86 | X-H torsion
[ 10167 10162 10161 10158 ] final  -39.71 input  -65.29 | X-H torsion
[ 10718 10713 10712 10709 ] final -168.59 input   66.30 | X-H torsion
[ 10763 10752 10751 10750 ] final  -34.43 input  -60.55 | X-H torsion
[ 11005 11000 10999 10996 ] final  166.00 input  -57.11 | X-H torsion

> <Gold.Protein.ActiveResidues>
 VAL166  LYS551  ARG553  GLY616  TRP617  ASP618  TYR619  PRO620  LYS621  CYS622 
 ASP623  PHE694  ASN695  SER759  ASP760  ASP761  ALA762  ILE779  LEU786  VAL792 
 PHE793  MET794  SER795  GLU796  ALA797  LYS798  CYS799  TRP800  GLU811  SER814 

> <Gold.Protein.RotatedAtoms>
  151.6742  135.0971  160.0203 H   0  0  0  0  0  0  0  0  0  0  0  0  # atno 6907 bound_to 6896
  152.3874  133.6625  159.6218 H   0  0  0  0  0  0  0  0  0  0  0  0  # atno 6908 bound_to 6896
  150.7796  133.8929  159.3360 H   0  0  0  0  0  0  0  0  0  0  0  0  # atno 6909 bound_to 6896
  145.1162  140.8642  143.3840 H   0  0  0  0  0  0  0  0  0  0  0  0  # atno 7974 bound_to 7965
  155.0832  140.3212  155.4595 H   0  0  0  0  0  0  0  0  0  0  0  0  # atno 8008 bound_to 7997
  156.2762  140.2091  156.5906 H   0  0  0  0  0  0  0  0  0  0  0  0  # atno 8009 bound_to 7997
  154.6962  140.0511  157.0400 H   0  0  0  0  0  0  0  0  0  0  0  0  # atno 8010 bound_to 7997
  140.7056  143.3197  151.2821 H   0  0  0  0  0  0  0  0  0  0  0  0  # atno 10167 bound_to 10162
  156.6992  130.9190  151.3078 H   0  0  0  0  0  0  0  0  0  0  0  0  # atno 10718 bound_to 10713
  153.8466  135.6853  153.4797 H   0  0  0  0  0  0  0  0  0  0  0  0  # atno 10763 bound_to 10752
  153.1422  135.4652  154.9511 H   0  0  0  0  0  0  0  0  0  0  0  0  # atno 10764 bound_to 10752
  154.7821  135.3272  154.7914 H   0  0  0  0  0  0  0  0  0  0  0  0  # atno 10765 bound_to 10752
  140.2619  134.7895  157.3598 H   0  0  0  0  0  0  0  0  0  0  0  0  # atno 11005 bound_to 11000
  145.0791  139.2973  143.5793 LP  0  0  0  0  0  0  0  0  0  0  0  0  # atno 17320 bound_to 7965
  146.3523  140.0291  142.8652 LP  0  0  0  0  0  0  0  0  0  0  0  0  # atno 17321 bound_to 7965
  139.6648  144.0125  152.2715 LP  0  0  0  0  0  0  0  0  0  0  0  0  # atno 17342 bound_to 10162
  139.9704  144.6497  150.7994 LP  0  0  0  0  0  0  0  0  0  0  0  0  # atno 17343 bound_to 10162
  157.6979  130.9302  150.0699 LP  0  0  0  0  0  0  0  0  0  0  0  0  # atno 17370 bound_to 10713
  156.1741  130.3647  149.9125 LP  0  0  0  0  0  0  0  0  0  0  0  0  # atno 17371 bound_to 10713
  140.1456  134.4916  155.7999 LP  0  0  0  0  0  0  0  0  0  0  0  0  # atno 17394 bound_to 11000
  141.2189  133.6842  156.7287 LP  0  0  0  0  0  0  0  0  0  0  0  0  # atno 17395 bound_to 11000

$$$$
