AV-unprocessed.smi:921|AV-procd|sdf|4169|dock7
  -GOLD-   22720 2 73D 1   1.00000     0.00000
 Structure written by MMmdl.
 39 41  0  0  0  0  0  0  0  0  1 V2000
  150.6568  135.8890  154.9314 N   0  0  0  0  0  0  0  0  0  0  0  0
  151.6346  136.5316  155.5762 C   0  0  0  0  0  0  0  0  0  0  0  0
  152.1732  136.0659  156.5782 O   0  0  0  0  0  0  0  0  0  0  0  0
  152.0634  137.8950  155.0202 C   0  0  0  0  0  0  0  0  0  0  0  0
  150.8502  138.7781  154.8564 C   0  0  0  0  0  0  0  0  0  0  0  0
  149.7974  138.3982  154.1248 N   0  0  0  0  0  0  0  0  0  0  0  0
  148.9354  139.4696  154.2371 C   0  0  0  0  0  0  0  0  0  0  0  0
  147.6548  139.6816  153.6780 C   0  0  0  0  0  0  0  0  0  0  0  0
  146.9508  140.8753  153.9397 C   0  0  0  0  0  0  0  0  0  0  0  0
  147.5156  141.8705  154.7634 C   0  0  0  0  0  0  0  0  0  0  0  0
  148.7894  141.6773  155.3316 C   0  0  0  0  0  0  0  0  0  0  0  0
  149.4883  140.4843  155.0659 C   0  0  0  0  0  0  0  0  0  0  0  0
  150.7274  139.9906  155.4631 N   0  0  0  0  0  0  0  0  0  0  0  0
  151.6512  140.6798  156.3568 C   0  0  0  0  0  0  0  0  0  0  0  0
  151.3321  140.4457  157.8464 C   0  0  2  0  0  0  0  0  0  0  0  0
  149.9379  140.2966  158.0262 O   0  0  0  0  0  0  0  0  0  0  0  0
  151.9100  141.5574  158.7114 C   0  0  0  0  0  0  0  0  0  0  0  0
  151.5204  142.8991  158.5001 C   0  0  0  0  0  0  0  0  0  0  0  0
  152.0605  143.9310  159.2916 C   0  0  0  0  0  0  0  0  0  0  0  0
  151.6804  145.2138  159.0832 F   0  0  0  0  0  0  0  0  0  0  0  0
  152.9970  143.6294  160.2980 C   0  0  0  0  0  0  0  0  0  0  0  0
  153.3952  142.2959  160.5097 C   0  0  0  0  0  0  0  0  0  0  0  0
  152.8569  141.2620  159.7185 C   0  0  0  0  0  0  0  0  0  0  0  0
  153.2595  139.9857  159.9306 F   0  0  0  0  0  0  0  0  0  0  0  0
  150.3545  134.9827  155.2575 H   0  0  0  0  0  0  0  0  0  0  0  0
  150.2327  136.3033  154.1142 H   0  0  0  0  0  0  0  0  0  0  0  0
  152.7708  138.3802  155.6937 H   0  0  0  0  0  0  0  0  0  0  0  0
  152.5800  137.7296  154.0776 H   0  0  0  0  0  0  0  0  0  0  0  0
  147.2137  138.9249  153.0463 H   0  0  0  0  0  0  0  0  0  0  0  0
  145.9729  141.0278  153.5070 H   0  0  0  0  0  0  0  0  0  0  0  0
  146.9700  142.7819  154.9594 H   0  0  0  0  0  0  0  0  0  0  0  0
  149.2244  142.4376  155.9632 H   0  0  0  0  0  0  0  0  0  0  0  0
  152.6541  140.3084  156.1425 H   0  0  0  0  0  0  0  0  0  0  0  0
  151.6845  141.7418  156.1177 H   0  0  0  0  0  0  0  0  0  0  0  0
  151.7776  139.4990  158.1537 H   0  0  0  0  0  0  0  0  0  0  0  0
  149.5703  141.1391  158.2453 H   0  0  0  0  0  0  0  0  0  0  0  0
  150.8072  143.1425  157.7261 H   0  0  0  0  0  0  0  0  0  0  0  0
  153.4122  144.4203  160.9051 H   0  0  0  0  0  0  0  0  0  0  0  0
  154.1168  142.0657  161.2793 H   0  0  0  0  0  0  0  0  0  0  0  0
  1  2  1  0  0  0  0
  1 25  1  0  0  0  0
  1 26  1  0  0  0  0
  2  3  2  0  0  0  0
  2  4  1  0  0  0  0
  4  5  1  0  0  0  0
  4 27  1  0  0  0  0
  4 28  1  0  0  0  0
  5 13  1  0  0  0  0
  5  6  2  0  0  0  0
  6  7  1  0  0  0  0
  7 12  2  0  0  0  0
  7  8  1  0  0  0  0
  8  9  2  0  0  0  0
  8 29  1  0  0  0  0
  9 10  1  0  0  0  0
  9 30  1  0  0  0  0
 10 11  2  0  0  0  0
 10 31  1  0  0  0  0
 11 12  1  0  0  0  0
 11 32  1  0  0  0  0
 12 13  1  0  0  0  0
 13 14  1  0  0  0  0
 14 15  1  0  0  0  0
 14 33  1  0  0  0  0
 14 34  1  0  0  0  0
 15 16  1  0  0  0  0
 15 17  1  0  0  0  0
 15 35  1  0  0  0  0
 16 36  1  0  0  0  0
 17 23  1  0  0  0  0
 17 18  2  0  0  0  0
 18 19  1  0  0  0  0
 18 37  1  0  0  0  0
 19 20  1  0  0  0  0
 19 21  2  0  0  0  0
 21 22  1  0  0  0  0
 21 38  1  0  0  0  0
 22 23  2  0  0  0  0
 22 39  1  0  0  0  0
 23 24  1  0  0  0  0
M  END
> <s_m_source_file>
AV-unprocessed.smi

> <i_m_source_file_index>
921

> <i_lp_mmshare_version>
43012

> <i_f3d_flags>
0

> <s_epik_input>
W2NIXTFbY0hdW2NIXVtjSF1jKGMxMiluKGMobjIpW0NIMl1DKD1PKVtOSDJdKVtDSDJdW0NASF0oW09IXSljM1tjSF1jKEYpW2NIXVtjSF1jM0Y=

> <s_epik_cmdline>
J2VwaWtfcHl0aG9uJywgJy1waCcsICc3LjAnLCAnLXRuJywgJzgnLCAnLW1hJywgJzIwMCcsICctbWV0YWxfYmluZGluZycsICctaW1hZScsICc8aW5maWxlLm1hZT4nLCAnLW9tYWUnLCAnPG91dGZpbGUubWFlPic=

> <r_epik_Ionization_Penalty>
0.0366909

> <r_epik_Ionization_Penalty_Charging>
0

> <r_epik_Ionization_Penalty_Neutral>
0.0366909

> <r_epik_State_Penalty>
0.0306642

> <r_epik_Charging_Adjusted_Penalty>
0.0306642

> <i_epik_Tot_Q>
0

> <i_epik_Tot_abs_Q>
0

> <r_epik_Metal_State_Penalty>
0.028853

> <b_epik_Metal_Only>
0

> <s_lp_Force_Field>
OPLS_2005

> <r_lp_Energy>
14.0365

> <b_lp_Chiralities_Consistent>
1

> <s_lp_Variant>
AV-unprocessed.smi:921-1

> <Gold.Version>
5.8.1

> <Gold.Id.Protein>
6NUR|6NUR_protein|mol2

> <Gold.PLP.Fitness>
55.4244

> <Gold.PLP.PLP>
-51.2999

> <Gold.PLP.part.hbond>
-2.9213

> <Gold.PLP.part.metal>
0.0000

> <Gold.PLP.part.buried>
0.2292

> <Gold.PLP.part.nonpolar>
-50.0076

> <Gold.PLP.part.repulsive>
1.4372

> <Gold.PLP.ligand.clash>
0.0000

> <Gold.PLP.ligand.torsion>
0.7057

> <Gold.PLP.Chemscore.Hbond>
1.8320

> <Gold.PLP.Chemscore.CHOScore>
0.0000

> <Gold.PLP.Chemscore.Metal>
0.0000

> <Gold.PLP.Chemscore.Internal.Correction>
0.0399

> <Gold.Rescore>
     Score         DG    S(hbond)    S(metal)    S(lipo)     H(rot)  DE(clash)    DE(int)     intcor
     11.42     -14.58       1.22        0.00     111.08       3.11       0.83       2.33       ----

> <Gold.Chemscore.Fitness>
11.4185

> <Gold.Chemscore.DG>
-14.5776

> <Gold.Chemscore.ZeroCoef>
-5.4800

> <Gold.Chemscore.Hbond>
1.2182

> <Gold.Chemscore.Metal>
0.0000

> <Gold.Chemscore.Lipo>
111.0761

> <Gold.Chemscore.Internal_Hbond>
0.0000

> <Gold.Chemscore.DEClash>
0.8251

> <Gold.Chemscore.DEInternal>
2.3340

> <Gold.Chemscore.Rot>
3.1121

> <Gold.Chemscore.Internal.Correction>
   9.000000E+99

> <Gold.Chemscore.Hbond.Weighted>
-4.0687

> <Gold.Chemscore.Metal.Weighted>
-0.0000

> <Gold.Chemscore.Lipo.Weighted>
-12.9959

> <Gold.Chemscore.Internal_Hbond.Weighted>
0.0000

> <Gold.Chemscore.DEClash.Weighted>
0.8251

> <Gold.Chemscore.DEInternal.Weighted>
2.3340

> <Gold.Chemscore.Rot.Weighted>
7.9670

> <Gold.Chemscore.Internal.Correction.Weighted>
   9.000000E+99

> <Gold.Protein.RotatedTorsions>
[ 6907 6896 6895 6894 ] final  157.37 input  -60.11 | X-H torsion
[ 7974 7965 7964 7962 ] final -155.29 input  175.53 | X-H torsion
[ 8008 7997 7996 7995 ] final   -6.37 input   59.86 | X-H torsion
[ 10167 10162 10161 10158 ] final  152.16 input  -65.29 | X-H torsion
[ 10718 10713 10712 10709 ] final  105.50 input   66.30 | X-H torsion
[ 10763 10752 10751 10750 ] final -134.32 input  -60.55 | X-H torsion
[ 11005 11000 10999 10996 ] final  -59.79 input  -57.11 | X-H torsion

> <Gold.Protein.ActiveResidues>
 VAL166  LYS551  ARG553  GLY616  TRP617  ASP618  TYR619  PRO620  LYS621  CYS622 
 ASP623  PHE694  ASN695  SER759  ASP760  ASP761  ALA762  ILE779  LEU786  VAL792 
 PHE793  MET794  SER795  GLU796  ALA797  LYS798  CYS799  TRP800  GLU811  SER814 

> <Gold.Protein.RotatedAtoms>
  152.0161  133.3880  159.4239 H   0  0  0  0  0  0  0  0  0  0  0  0  # atno 6907 bound_to 6896
  150.6894  134.3677  159.4987 H   0  0  0  0  0  0  0  0  0  0  0  0  # atno 6908 bound_to 6896
  152.1444  134.9037  160.0602 H   0  0  0  0  0  0  0  0  0  0  0  0  # atno 6909 bound_to 6896
  144.7647  140.4269  143.5951 H   0  0  0  0  0  0  0  0  0  0  0  0  # atno 7974 bound_to 7965
  154.5944  140.2434  155.7876 H   0  0  0  0  0  0  0  0  0  0  0  0  # atno 8008 bound_to 7997
  156.2269  140.2979  156.0043 H   0  0  0  0  0  0  0  0  0  0  0  0  # atno 8009 bound_to 7997
  155.2318  140.0404  157.2953 H   0  0  0  0  0  0  0  0  0  0  0  0  # atno 8010 bound_to 7997
  139.4835  144.5381  151.7610 H   0  0  0  0  0  0  0  0  0  0  0  0  # atno 10167 bound_to 10162
  157.6703  131.0829  150.5865 H   0  0  0  0  0  0  0  0  0  0  0  0  # atno 10718 bound_to 10713
  154.8721  135.3738  154.4717 H   0  0  0  0  0  0  0  0  0  0  0  0  # atno 10763 bound_to 10752
  153.5377  135.7027  153.5657 H   0  0  0  0  0  0  0  0  0  0  0  0  # atno 10764 bound_to 10752
  153.3833  135.3991  155.1836 H   0  0  0  0  0  0  0  0  0  0  0  0  # atno 10765 bound_to 10752
  141.1262  133.6618  156.5124 H   0  0  0  0  0  0  0  0  0  0  0  0  # atno 11005 bound_to 11000
  145.6507  139.1564  143.2863 LP  0  0  0  0  0  0  0  0  0  0  0  0  # atno 17320 bound_to 7965
  146.1744  140.6596  142.9218 LP  0  0  0  0  0  0  0  0  0  0  0  0  # atno 17321 bound_to 7965
  140.4917  144.1301  150.5951 LP  0  0  0  0  0  0  0  0  0  0  0  0  # atno 17342 bound_to 10162
  140.4164  143.2632  151.9770 LP  0  0  0  0  0  0  0  0  0  0  0  0  # atno 17343 bound_to 10162
  156.6166  130.4394  149.5838 LP  0  0  0  0  0  0  0  0  0  0  0  0  # atno 17370 bound_to 10713
  156.2388  130.6839  151.1536 LP  0  0  0  0  0  0  0  0  0  0  0  0  # atno 17371 bound_to 10713
  140.4358  134.7060  157.4966 LP  0  0  0  0  0  0  0  0  0  0  0  0  # atno 17394 bound_to 11000
  140.0263  134.6473  155.9169 LP  0  0  0  0  0  0  0  0  0  0  0  0  # atno 17395 bound_to 11000

$$$$
