AV-unprocessed.smi:119|AV-procd|sdf|1136|dock1
  -GOLD-   2262018263D 1   1.00000     0.00000
 Structure written by MMmdl.
 51 54  0  0  0  0  0  0  0  0  1 V2000
  154.0873  136.9207  158.8607 C   0  0  0  0  0  0  0  0  0  0  0  0
  153.4594  138.2411  158.3961 C   0  0  1  0  0  0  0  0  0  0  0  0
  152.4193  138.0010  157.2865 C   0  0  0  0  0  0  0  0  0  0  0  0
  151.9356  139.2802  156.5788 C   0  0  0  0  0  0  0  0  0  0  0  0
  151.0638  140.1064  157.4244 N   0  0  0  0  0  0  0  0  0  0  0  0
  149.7172  139.9404  157.5031 C   0  0  0  0  0  0  0  0  0  0  0  0
  149.0185  140.6245  158.2558 O   0  0  0  0  0  0  0  0  0  0  0  0
  149.0352  138.8655  156.6273 C   0  0  0  0  0  0  0  0  0  0  0  0
  148.8015  137.5859  157.3336 N   0  0  0  0  0  0  0  0  0  0  0  0
  149.4159  136.4135  156.8301 C   0  0  0  0  0  0  0  0  0  0  0  0
  150.1260  136.4461  155.8237 O   0  0  0  0  0  0  0  0  0  0  0  0
  149.1514  135.1933  157.5823 C   0  0  0  0  0  0  0  0  0  0  0  0
  149.6792  134.0291  157.1669 F   0  0  0  0  0  0  0  0  0  0  0  0
  148.3791  135.2095  158.6885 C   0  0  0  0  0  0  0  0  0  0  0  0
  147.7923  136.3643  159.1790 N   0  0  0  0  0  0  0  0  0  0  0  0
  146.9573  136.3990  160.4443 C   0  0  1  0  0  0  0  0  0  0  0  0
  146.5880  135.0361  161.0366 C   0  0  0  0  0  0  0  0  0  0  0  0
  146.2816  135.4480  162.4575 C   0  0  0  0  0  0  0  0  0  0  0  0
  147.3728  136.4873  162.7142 C   0  0  0  0  0  0  0  0  0  0  0  0
  147.6899  137.0478  161.4405 O   0  0  0  0  0  0  0  0  0  0  0  0
  148.0014  137.5866  158.5011 C   0  0  0  0  0  0  0  0  0  0  0  0
  147.4989  138.6315  158.9216 O   0  0  0  0  0  0  0  0  0  0  0  0
  151.7017  141.1162  158.1958 C   0  0  0  0  0  0  0  0  0  0  0  0
  151.5250  142.4725  157.8397 C   0  0  0  0  0  0  0  0  0  0  0  0
  152.1458  143.4907  158.5878 C   0  0  0  0  0  0  0  0  0  0  0  0
  152.9476  143.1599  159.6962 C   0  0  0  0  0  0  0  0  0  0  0  0
  153.1282  141.8111  160.0563 C   0  0  0  0  0  0  0  0  0  0  0  0
  152.5130  140.7870  159.3091 C   0  0  0  0  0  0  0  0  0  0  0  0
  152.7479  139.1120  159.8211 S   0  0  0  0  0  0  0  0  0  0  0  0
  154.5800  136.4063  158.0350 H   0  0  0  0  0  0  0  0  0  0  0  0
  153.3346  136.2476  159.2725 H   0  0  0  0  0  0  0  0  0  0  0  0
  154.8377  137.0941  159.6325 H   0  0  0  0  0  0  0  0  0  0  0  0
  154.2598  138.8678  158.0010 H   0  0  0  0  0  0  0  0  0  0  0  0
  152.8687  137.3582  156.5289 H   0  0  0  0  0  0  0  0  0  0  0  0
  151.5759  137.4380  157.6870 H   0  0  0  0  0  0  0  0  0  0  0  0
  152.8011  139.8707  156.2741 H   0  0  0  0  0  0  0  0  0  0  0  0
  151.4449  139.0214  155.6412 H   0  0  0  0  0  0  0  0  0  0  0  0
  148.0950  139.2685  156.2494 H   0  0  0  0  0  0  0  0  0  0  0  0
  149.6305  138.6897  155.7318 H   0  0  0  0  0  0  0  0  0  0  0  0
  148.2229  134.2618  159.1765 H   0  0  0  0  0  0  0  0  0  0  0  0
  146.0676  136.9794  160.1904 H   0  0  0  0  0  0  0  0  0  0  0  0
  145.7534  134.5751  160.5080 H   0  0  0  0  0  0  0  0  0  0  0  0
  147.4457  134.3644  161.0546 H   0  0  0  0  0  0  0  0  0  0  0  0
  145.2953  135.9112  162.5113 H   0  0  0  0  0  0  0  0  0  0  0  0
  146.3094  134.6169  163.1627 H   0  0  0  0  0  0  0  0  0  0  0  0
  147.0512  137.2560  163.4175 H   0  0  0  0  0  0  0  0  0  0  0  0
  148.2692  136.0137  163.1164 H   0  0  0  0  0  0  0  0  0  0  0  0
  150.9102  142.7350  156.9909 H   0  0  0  0  0  0  0  0  0  0  0  0
  152.0049  144.5254  158.3121 H   0  0  0  0  0  0  0  0  0  0  0  0
  153.4221  143.9408  160.2718 H   0  0  0  0  0  0  0  0  0  0  0  0
  153.7409  141.5639  160.9111 H   0  0  0  0  0  0  0  0  0  0  0  0
  1  2  1  0  0  0  0
  1 30  1  0  0  0  0
  1 31  1  0  0  0  0
  1 32  1  0  0  0  0
  2 29  1  0  0  0  0
  2  3  1  0  0  0  0
  2 33  1  0  0  0  0
  3  4  1  0  0  0  0
  3 34  1  0  0  0  0
  3 35  1  0  0  0  0
  4  5  1  0  0  0  0
  4 36  1  0  0  0  0
  4 37  1  0  0  0  0
  5  6  1  0  0  0  0
  5 23  1  0  0  0  0
  6  7  2  0  0  0  0
  6  8  1  0  0  0  0
  8  9  1  0  0  0  0
  8 38  1  0  0  0  0
  8 39  1  0  0  0  0
  9 21  1  0  0  0  0
  9 10  1  0  0  0  0
 10 11  2  0  0  0  0
 10 12  1  0  0  0  0
 12 13  1  0  0  0  0
 12 14  2  0  0  0  0
 14 15  1  0  0  0  0
 14 40  1  0  0  0  0
 15 16  1  0  0  0  0
 15 21  1  0  0  0  0
 16 20  1  0  0  0  0
 16 17  1  0  0  0  0
 16 41  1  0  0  0  0
 17 18  1  0  0  0  0
 17 42  1  0  0  0  0
 17 43  1  0  0  0  0
 18 19  1  0  0  0  0
 18 44  1  0  0  0  0
 18 45  1  0  0  0  0
 19 20  1  0  0  0  0
 19 46  1  0  0  0  0
 19 47  1  0  0  0  0
 21 22  2  0  0  0  0
 23 28  2  0  0  0  0
 23 24  1  0  0  0  0
 24 25  2  0  0  0  0
 24 48  1  0  0  0  0
 25 26  1  0  0  0  0
 25 49  1  0  0  0  0
 26 27  2  0  0  0  0
 26 50  1  0  0  0  0
 27 28  1  0  0  0  0
 27 51  1  0  0  0  0
 28 29  1  0  0  0  0
M  END
> <s_m_source_file>
AV-unprocessed.smi

> <i_m_source_file_index>
119

> <i_lp_mmshare_version>
43012

> <i_f3d_flags>
0

> <s_epik_input>
W2NIXTFbY0hdW2NIXVtjSF1jKGMxMilTW0NASF0oW0NIM10pW0NIMl1bQ0gyXU4yQyg9TylbQ0gyXW4zYyg9TyljKEYpW2NIXW4oYzM9TylbQ0BASF00W0NIMl1bQ0gyXVtDSDJdTzQ=

> <s_epik_cmdline>
J2VwaWtfcHl0aG9uJywgJy1waCcsICc3LjAnLCAnLXRuJywgJzgnLCAnLW1hJywgJzIwMCcsICctbWV0YWxfYmluZGluZycsICctaW1hZScsICc8aW5maWxlLm1hZT4nLCAnLW9tYWUnLCAnPG91dGZpbGUubWFlPic=

> <r_lp_tautomer_probability>
1

> <r_epik_Ionization_Penalty>
1.68882e-06

> <r_epik_Ionization_Penalty_Charging>
3.67303e-09

> <r_epik_Ionization_Penalty_Neutral>
1.68515e-06

> <r_epik_State_Penalty>
-0

> <r_epik_Charging_Adjusted_Penalty>
3.67303e-09

> <i_epik_Tot_Q>
0

> <i_epik_Tot_abs_Q>
0

> <r_epik_Metal_State_Penalty>
-0

> <b_epik_Metal_Only>
0

> <s_epik_Chemistry_Notes>
This compound contains an acetal/aminal-like group ( X-CH(R)-Y where X, Y are N, S, or O) that may be acid/base labile, releasing an aldehyde.

> <s_lp_Force_Field>
OPLS_2005

> <r_lp_Energy>
51.7973

> <b_lp_Chiralities_Consistent>
1

> <s_lp_Variant>
AV-unprocessed.smi:119-4

> <Gold.Version>
5.8.1

> <Gold.Id.Protein>
6NUR|6NUR_protein|mol2

> <Gold.PLP.Fitness>
46.2715

> <Gold.PLP.PLP>
-43.7915

> <Gold.PLP.part.hbond>
-3.2502

> <Gold.PLP.part.metal>
0.0000

> <Gold.PLP.part.buried>
-6.2112

> <Gold.PLP.part.nonpolar>
-36.3157

> <Gold.PLP.part.repulsive>
0.0838

> <Gold.PLP.ligand.clash>
0.0000

> <Gold.PLP.ligand.torsion>
0.5307

> <Gold.PLP.Chemscore.Hbond>
1.1760

> <Gold.PLP.Chemscore.CHOScore>
0.0000

> <Gold.PLP.Chemscore.Metal>
0.0000

> <Gold.Chemscore.Hbonds>
donor molecule, donor type, donor heavy atom, donor atom, acceptor molecule, acceptor atom, score
      P1  H  6931  6943       L1    20  1.00
      P1  H  6934  6947       L1    20  0.64

> <Gold.PLP.Chemscore.Internal.Correction>
0.0135

> <Gold.Rescore>
     Score         DG    S(hbond)    S(metal)    S(lipo)     H(rot)  DE(clash)    DE(int)     intcor
     13.79     -18.30       0.98        0.00     114.96       1.53       0.04       4.48       ----

> <Gold.Chemscore.Fitness>
13.7859

> <Gold.Chemscore.DG>
-18.2988

> <Gold.Chemscore.ZeroCoef>
-5.4800

> <Gold.Chemscore.Hbond>
0.9809

> <Gold.Chemscore.Metal>
0.0000

> <Gold.Chemscore.Lipo>
114.9632

> <Gold.Chemscore.Internal_Hbond>
0.0000

> <Gold.Chemscore.DEClash>
0.0360

> <Gold.Chemscore.DEInternal>
4.4768

> <Gold.Chemscore.Rot>
1.5266

> <Gold.Chemscore.Internal.Correction>
   9.000000E+99

> <Gold.Chemscore.Hbonds>
donor molecule, donor type, donor heavy atom, donor atom, acceptor molecule, acceptor atom, score
      P1  H  6931  6943       L1    20  0.29
      P1  H  6934  6947       L1    20  0.14

> <Gold.Chemscore.Hbond.Weighted>
-3.2762

> <Gold.Chemscore.Metal.Weighted>
-0.0000

> <Gold.Chemscore.Lipo.Weighted>
-13.4507

> <Gold.Chemscore.Internal_Hbond.Weighted>
0.0000

> <Gold.Chemscore.DEClash.Weighted>
0.0360

> <Gold.Chemscore.DEInternal.Weighted>
4.4768

> <Gold.Chemscore.Rot.Weighted>
3.9081

> <Gold.Chemscore.Internal.Correction.Weighted>
   9.000000E+99

> <Gold.Protein.RotatedTorsions>
[ 6907 6896 6895 6894 ] final -122.08 input  -60.11 | X-H torsion
[ 7974 7965 7964 7962 ] final   79.10 input  175.53 | X-H torsion
[ 8008 7997 7996 7995 ] final  122.03 input   59.86 | X-H torsion
[ 10167 10162 10161 10158 ] final   67.58 input  -65.29 | X-H torsion
[ 10718 10713 10712 10709 ] final   58.29 input   66.30 | X-H torsion
[ 10763 10752 10751 10750 ] final -171.83 input  -60.55 | X-H torsion
[ 11005 11000 10999 10996 ] final   45.75 input  -57.11 | X-H torsion

> <Gold.Protein.ActiveResidues>
 VAL166  LYS551  ARG553  GLY616  TRP617  ASP618  TYR619  PRO620  LYS621  CYS622 
 ASP623  PHE694  ASN695  SER759  ASP760  ASP761  ALA762  ILE779  LEU786  VAL792 
 PHE793  MET794  SER795  GLU796  ALA797  LYS798  CYS799  TRP800  GLU811  SER814 

> <Gold.Protein.RotatedAtoms>
  150.8542  133.7740  159.3014 H   0  0  0  0  0  0  0  0  0  0  0  0  # atno 6907 bound_to 6896
  151.5403  135.1067  159.9934 H   0  0  0  0  0  0  0  0  0  0  0  0  # atno 6908 bound_to 6896
  152.4577  133.7713  159.6856 H   0  0  0  0  0  0  0  0  0  0  0  0  # atno 6909 bound_to 6896
  145.6686  139.2490  143.1881 H   0  0  0  0  0  0  0  0  0  0  0  0  # atno 7974 bound_to 7965
  156.2711  140.2795  156.1403 H   0  0  0  0  0  0  0  0  0  0  0  0  # atno 8008 bound_to 7997
  155.0961  140.0389  157.2700 H   0  0  0  0  0  0  0  0  0  0  0  0  # atno 8009 bound_to 7997
  154.6852  140.2617  155.6874 H   0  0  0  0  0  0  0  0  0  0  0  0  # atno 8010 bound_to 7997
  140.0880  144.5013  150.7117 H   0  0  0  0  0  0  0  0  0  0  0  0  # atno 10167 bound_to 10162
  157.5584  130.8817  149.9072 H   0  0  0  0  0  0  0  0  0  0  0  0  # atno 10718 bound_to 10713
  154.6261  135.2881  155.0271 H   0  0  0  0  0  0  0  0  0  0  0  0  # atno 10763 bound_to 10752
  154.1448  135.6513  153.4954 H   0  0  0  0  0  0  0  0  0  0  0  0  # atno 10764 bound_to 10752
  153.0258  135.5341  154.7069 H   0  0  0  0  0  0  0  0  0  0  0  0  # atno 10765 bound_to 10752
  140.1431  134.4558  155.8435 H   0  0  0  0  0  0  0  0  0  0  0  0  # atno 11005 bound_to 11000
  146.1064  140.7481  142.9524 LP  0  0  0  0  0  0  0  0  0  0  0  0  # atno 17320 bound_to 7965
  144.7064  140.3869  143.7114 LP  0  0  0  0  0  0  0  0  0  0  0  0  # atno 17321 bound_to 7965
  140.7043  143.2457  151.4772 LP  0  0  0  0  0  0  0  0  0  0  0  0  # atno 17342 bound_to 10162
  139.5741  144.1860  152.1878 LP  0  0  0  0  0  0  0  0  0  0  0  0  # atno 17343 bound_to 10162
  156.0640  130.3695  150.0920 LP  0  0  0  0  0  0  0  0  0  0  0  0  # atno 17370 bound_to 10713
  156.9086  130.9644  151.3566 LP  0  0  0  0  0  0  0  0  0  0  0  0  # atno 17371 bound_to 10713
  141.2189  133.6841  156.7283 LP  0  0  0  0  0  0  0  0  0  0  0  0  # atno 17394 bound_to 11000
  140.2697  134.8401  157.3836 LP  0  0  0  0  0  0  0  0  0  0  0  0  # atno 17395 bound_to 11000

$$$$
