AV-unprocessed.smi:123|AV-procd|sdf|1146|dock2
  -GOLD-   2262018283D 1   1.00000     0.00000
 Structure written by MMmdl.
 43 45  0  0  0  0  0  0  0  0  1 V2000
  146.2505  137.8907  159.1113 C   0  0  0  0  0  0  0  0  0  0  0  0
  147.3559  136.8291  159.1790 C   0  0  1  0  0  0  0  0  0  0  0  0
  148.6174  137.4214  158.7440 N   0  0  0  0  0  0  0  0  0  0  0  0
  149.7231  136.7356  158.4166 C   0  0  0  0  0  0  0  0  0  0  0  0
  149.7831  135.5052  158.4371 O   0  0  0  0  0  0  0  0  0  0  0  0
  150.9366  137.5839  158.0061 C   0  0  0  0  0  0  0  0  0  0  0  0
  150.5802  138.9491  157.5601 N   0  0  0  0  0  0  0  0  0  0  0  0
  149.9229  139.1060  156.3150 C   0  0  0  0  0  0  0  0  0  0  0  0
  149.6303  138.1325  155.6190 O   0  0  0  0  0  0  0  0  0  0  0  0
  149.6381  140.4810  155.9234 C   0  0  0  0  0  0  0  0  0  0  0  0
  149.0294  140.7270  154.7510 F   0  0  0  0  0  0  0  0  0  0  0  0
  149.9809  141.5144  156.7193 C   0  0  0  0  0  0  0  0  0  0  0  0
  150.6040  141.3493  157.9410 N   0  0  0  0  0  0  0  0  0  0  0  0
  150.9930  142.5782  158.7343 C   0  0  1  0  0  0  0  0  0  0  0  0
  152.4747  142.6120  159.1380 C   0  0  0  0  0  0  0  0  0  0  0  0
  152.7720  144.0931  159.0434 C   0  0  0  0  0  0  0  0  0  0  0  0
  151.9005  144.5181  157.8666 C   0  0  0  0  0  0  0  0  0  0  0  0
  150.7242  143.7206  157.9736 O   0  0  0  0  0  0  0  0  0  0  0  0
  150.9464  140.0470  158.3759 C   0  0  0  0  0  0  0  0  0  0  0  0
  151.5551  139.8666  159.4315 O   0  0  0  0  0  0  0  0  0  0  0  0
  147.4756  136.2271  160.5446 C   0  0  0  0  0  0  0  0  0  0  0  0
  147.3231  134.9559  161.0254 C   0  0  0  0  0  0  0  0  0  0  0  0
  147.5639  135.0242  162.4253 C   0  0  0  0  0  0  0  0  0  0  0  0
  147.8406  136.3338  162.6964 C   0  0  0  0  0  0  0  0  0  0  0  0
  147.7871  137.0819  161.5614 O   0  0  0  0  0  0  0  0  0  0  0  0
  145.2842  137.4661  159.3848 H   0  0  0  0  0  0  0  0  0  0  0  0
  146.1575  138.2982  158.1042 H   0  0  0  0  0  0  0  0  0  0  0  0
  146.4526  138.7205  159.7897 H   0  0  0  0  0  0  0  0  0  0  0  0
  147.0907  136.0384  158.4748 H   0  0  0  0  0  0  0  0  0  0  0  0
  148.6559  138.4294  158.7029 H   0  0  0  0  0  0  0  0  0  0  0  0
  151.6352  137.6138  158.8438 H   0  0  0  0  0  0  0  0  0  0  0  0
  151.4843  137.0518  157.2265 H   0  0  0  0  0  0  0  0  0  0  0  0
  149.7514  142.5133  156.3781 H   0  0  0  0  0  0  0  0  0  0  0  0
  150.3375  142.5944  159.6059 H   0  0  0  0  0  0  0  0  0  0  0  0
  152.6161  142.2022  160.1382 H   0  0  0  0  0  0  0  0  0  0  0  0
  153.0947  142.0511  158.4401 H   0  0  0  0  0  0  0  0  0  0  0  0
  152.4447  144.5995  159.9525 H   0  0  0  0  0  0  0  0  0  0  0  0
  153.8297  144.3093  158.8916 H   0  0  0  0  0  0  0  0  0  0  0  0
  151.6621  145.5816  157.8855 H   0  0  0  0  0  0  0  0  0  0  0  0
  152.4009  144.3041  156.9221 H   0  0  0  0  0  0  0  0  0  0  0  0
  147.0725  134.0839  160.4397 H   0  0  0  0  0  0  0  0  0  0  0  0
  147.5376  134.2178  163.1431 H   0  0  0  0  0  0  0  0  0  0  0  0
  148.0838  136.8781  163.5969 H   0  0  0  0  0  0  0  0  0  0  0  0
  1  2  1  0  0  0  0
  1 26  1  0  0  0  0
  1 27  1  0  0  0  0
  1 28  1  0  0  0  0
  2  3  1  0  0  0  0
  2 21  1  0  0  0  0
  2 29  1  0  0  0  0
  3  4  1  0  0  0  0
  3 30  1  0  0  0  0
  4  5  2  0  0  0  0
  4  6  1  0  0  0  0
  6  7  1  0  0  0  0
  6 31  1  0  0  0  0
  6 32  1  0  0  0  0
  7 19  1  0  0  0  0
  7  8  1  0  0  0  0
  8  9  2  0  0  0  0
  8 10  1  0  0  0  0
 10 11  1  0  0  0  0
 10 12  2  0  0  0  0
 12 13  1  0  0  0  0
 12 33  1  0  0  0  0
 13 14  1  0  0  0  0
 13 19  1  0  0  0  0
 14 18  1  0  0  0  0
 14 15  1  0  0  0  0
 14 34  1  0  0  0  0
 15 16  1  0  0  0  0
 15 35  1  0  0  0  0
 15 36  1  0  0  0  0
 16 17  1  0  0  0  0
 16 37  1  0  0  0  0
 16 38  1  0  0  0  0
 17 18  1  0  0  0  0
 17 39  1  0  0  0  0
 17 40  1  0  0  0  0
 19 20  2  0  0  0  0
 21 25  1  0  0  0  0
 21 22  2  0  0  0  0
 22 23  1  0  0  0  0
 22 41  1  0  0  0  0
 23 24  2  0  0  0  0
 23 42  1  0  0  0  0
 24 25  1  0  0  0  0
 24 43  1  0  0  0  0
M  END
> <s_m_source_file>
AV-unprocessed.smi

> <i_m_source_file_index>
123

> <i_lp_mmshare_version>
43012

> <i_f3d_flags>
0

> <s_epik_input>
bzFbY0hdW2NIXVtjSF1jMVtDQEhdKFtDSDNdKVtOSF1DKD1PKVtDSDJdbjJjKD1PKWMoRilbY0hdbihjMj1PKVtDQEBIXTNbQ0gyXVtDSDJdW0NIMl1PMw==

> <s_epik_cmdline>
J2VwaWtfcHl0aG9uJywgJy1waCcsICc3LjAnLCAnLXRuJywgJzgnLCAnLW1hJywgJzIwMCcsICctbWV0YWxfYmluZGluZycsICctaW1hZScsICc8aW5maWxlLm1hZT4nLCAnLW9tYWUnLCAnPG91dGZpbGUubWFlPic=

> <r_lp_tautomer_probability>
1

> <r_epik_Ionization_Penalty>
2.31906e-08

> <r_epik_Ionization_Penalty_Charging>
3.85846e-09

> <r_epik_Ionization_Penalty_Neutral>
1.93321e-08

> <r_epik_State_Penalty>
-0

> <r_epik_Charging_Adjusted_Penalty>
3.85846e-09

> <i_epik_Tot_Q>
0

> <i_epik_Tot_abs_Q>
0

> <r_epik_Metal_State_Penalty>
-0

> <b_epik_Metal_Only>
0

> <s_epik_Chemistry_Notes>
This compound contains an acetal/aminal-like group ( X-CH(R)-Y where X, Y are N, S, or O) that may be acid/base labile, releasing an aldehyde.

> <s_lp_Force_Field>
OPLS_2005

> <r_lp_Energy>
16.2808

> <b_lp_Chiralities_Consistent>
1

> <s_lp_Variant>
AV-unprocessed.smi:123-4

> <Gold.Version>
5.8.1

> <Gold.Id.Protein>
6NUR|6NUR_protein|mol2

> <Gold.PLP.Fitness>
51.8015

> <Gold.PLP.PLP>
-41.9460

> <Gold.PLP.part.hbond>
-3.2353

> <Gold.PLP.part.metal>
0.0000

> <Gold.PLP.part.buried>
-5.2564

> <Gold.PLP.part.nonpolar>
-35.0010

> <Gold.PLP.part.repulsive>
0.3699

> <Gold.PLP.ligand.clash>
0.0000

> <Gold.PLP.ligand.torsion>
0.6604

> <Gold.PLP.Chemscore.Hbond>
2.6920

> <Gold.PLP.Chemscore.CHOScore>
1.0000

> <Gold.PLP.Chemscore.Metal>
0.0000

> <Gold.Chemscore.Hbonds>
donor molecule, donor type, donor heavy atom, donor atom, acceptor molecule, acceptor atom, score
      P1  H  6896  6909       L1     5  0.98
      P1  H  6931  6943       L1    25  1.00
      P1  H  6934  6947       L1    25  0.57
      L1  C    12    33       P1  8028  1.00

> <Gold.PLP.Chemscore.Internal.Correction>
0.1004

> <Gold.Rescore>
     Score         DG    S(hbond)    S(metal)    S(lipo)     H(rot)  DE(clash)    DE(int)     intcor
     14.43     -15.98       1.96        0.00      82.62       2.23       0.33       1.22       ----

> <Gold.Chemscore.Fitness>
14.4292

> <Gold.Chemscore.DG>
-15.9807

> <Gold.Chemscore.ZeroCoef>
-5.4800

> <Gold.Chemscore.Hbond>
1.9625

> <Gold.Chemscore.Metal>
0.0000

> <Gold.Chemscore.Lipo>
82.6208

> <Gold.Chemscore.Internal_Hbond>
0.0000

> <Gold.Chemscore.DEClash>
0.3319

> <Gold.Chemscore.DEInternal>
1.2196

> <Gold.Chemscore.Rot>
2.2347

> <Gold.Chemscore.Internal.Correction>
   9.000000E+99

> <Gold.Chemscore.Hbonds>
donor molecule, donor type, donor heavy atom, donor atom, acceptor molecule, acceptor atom, score
      P1  H  6896  6909       L1     5  0.93
      P1  H  6931  6943       L1    25  0.25
      P1  H  6934  6947       L1    25  0.34

> <Gold.Chemscore.Hbond.Weighted>
-6.5549

> <Gold.Chemscore.Metal.Weighted>
-0.0000

> <Gold.Chemscore.Lipo.Weighted>
-9.6666

> <Gold.Chemscore.Internal_Hbond.Weighted>
0.0000

> <Gold.Chemscore.DEClash.Weighted>
0.3319

> <Gold.Chemscore.DEInternal.Weighted>
1.2196

> <Gold.Chemscore.Rot.Weighted>
5.7208

> <Gold.Chemscore.Internal.Correction.Weighted>
   9.000000E+99

> <Gold.Protein.RotatedTorsions>
[ 6907 6896 6895 6894 ] final   36.51 input  -60.11 | X-H torsion
[ 7974 7965 7964 7962 ] final  152.15 input  175.53 | X-H torsion
[ 8008 7997 7996 7995 ] final   99.33 input   59.86 | X-H torsion
[ 10167 10162 10161 10158 ] final   63.92 input  -65.29 | X-H torsion
[ 10718 10713 10712 10709 ] final   11.81 input   66.30 | X-H torsion
[ 10763 10752 10751 10750 ] final -138.48 input  -60.55 | X-H torsion
[ 11005 11000 10999 10996 ] final  179.43 input  -57.11 | X-H torsion

> <Gold.Protein.ActiveResidues>
 VAL166  LYS551  ARG553  GLY616  TRP617  ASP618  TYR619  PRO620  LYS621  CYS622 
 ASP623  PHE694  ASN695  SER759  ASP760  ASP761  ALA762  ILE779  LEU786  VAL792 
 PHE793  MET794  SER795  GLU796  ALA797  LYS798  CYS799  TRP800  GLU811  SER814 

> <Gold.Protein.RotatedAtoms>
  152.1307  134.9137  160.0558 H   0  0  0  0  0  0  0  0  0  0  0  0  # atno 6907 bound_to 6896
  152.0242  133.3906  159.4279 H   0  0  0  0  0  0  0  0  0  0  0  0  # atno 6908 bound_to 6896
  150.6856  134.3513  159.4954 H   0  0  0  0  0  0  0  0  0  0  0  0  # atno 6909 bound_to 6896
  144.8242  139.6631  143.6087 H   0  0  0  0  0  0  0  0  0  0  0  0  # atno 7974 bound_to 7965
  156.1094  140.3230  155.8052 H   0  0  0  0  0  0  0  0  0  0  0  0  # atno 8008 bound_to 7997
  155.4698  140.0546  157.2998 H   0  0  0  0  0  0  0  0  0  0  0  0  # atno 8009 bound_to 7997
  154.4750  140.2028  155.9915 H   0  0  0  0  0  0  0  0  0  0  0  0  # atno 8010 bound_to 7997
  140.1278  144.4672  150.6883 H   0  0  0  0  0  0  0  0  0  0  0  0  # atno 10167 bound_to 10162
  157.0010  130.6079  149.5696 H   0  0  0  0  0  0  0  0  0  0  0  0  # atno 10718 bound_to 10713
  154.8635  135.3611  154.5392 H   0  0  0  0  0  0  0  0  0  0  0  0  # atno 10763 bound_to 10752
  153.6015  135.7012  153.5387 H   0  0  0  0  0  0  0  0  0  0  0  0  # atno 10764 bound_to 10752
  153.3287  135.4130  155.1438 H   0  0  0  0  0  0  0  0  0  0  0  0  # atno 10765 bound_to 10752
  140.4061  134.6734  157.4589 H   0  0  0  0  0  0  0  0  0  0  0  0  # atno 11005 bound_to 11000
  146.2548  139.6278  142.9402 LP  0  0  0  0  0  0  0  0  0  0  0  0  # atno 17320 bound_to 7965
  145.5037  141.0437  143.2526 LP  0  0  0  0  0  0  0  0  0  0  0  0  # atno 17321 bound_to 7965
  140.6835  143.2338  151.5322 LP  0  0  0  0  0  0  0  0  0  0  0  0  # atno 17342 bound_to 10162
  139.5535  144.2334  152.1572 LP  0  0  0  0  0  0  0  0  0  0  0  0  # atno 17343 bound_to 10162
  156.0171  130.5265  150.8167 LP  0  0  0  0  0  0  0  0  0  0  0  0  # atno 17370 bound_to 10713
  157.5390  131.0940  150.9853 LP  0  0  0  0  0  0  0  0  0  0  0  0  # atno 17371 bound_to 10713
  140.0301  134.6419  155.9118 LP  0  0  0  0  0  0  0  0  0  0  0  0  # atno 17394 bound_to 11000
  141.1839  133.6551  156.5133 LP  0  0  0  0  0  0  0  0  0  0  0  0  # atno 17395 bound_to 11000

$$$$
