AV-unprocessed.smi:549|AV-procd|sdf|2893|dock1
  -GOLD-   2262023383D 1   1.00000     0.00000
 Structure written by MMmdl.
 44 45  0  0  0  0  0  0  0  0  2 V2000
  152.0717  143.7488  158.1051 C   0  0  0  0  0  0  0  0  0  0  0  0
  151.0923  143.4899  157.0634 N   0  0  0  0  0  0  0  0  0  0  0  0
  150.8906  142.1893  156.5840 C   0  0  0  0  0  0  0  0  0  0  0  0
  151.5875  141.0500  157.0508 C   0  0  0  0  0  0  0  0  0  0  0  0
  151.2994  139.7867  156.4945 C   0  0  0  0  0  0  0  0  0  0  0  0
  150.3290  139.6714  155.4761 C   0  0  0  0  0  0  0  0  0  0  0  0
  150.0649  138.3739  154.9580 N   0  0  0  0  0  0  0  0  0  0  0  0
  150.5263  137.1873  155.3900 C   0  0  0  0  0  0  0  0  0  0  0  0
  151.2548  137.0199  156.3675 O   0  0  0  0  0  0  0  0  0  0  0  0
  150.0749  136.1828  154.6253 N   0  0  0  0  0  0  0  0  0  0  0  0
  150.3868  134.7703  154.8253 C   0  0  0  0  0  0  0  0  0  0  0  0
  149.3740  133.8991  154.0680 C   0  0  0  0  0  0  0  0  0  0  0  0
  149.6385  132.4009  154.3004 C   0  0  0  0  0  0  0  0  0  0  0  0
  149.6824  132.0713  155.7392 N   0  0  0  0  0  0  0  0  0  0  0  0
  148.3060  131.3300  156.5040 S   0  0  0  0  0  0  0  0  0  0  0  0
  146.8627  132.2204  155.7914 C   0  0  0  0  0  0  0  0  0  0  0  0
  148.2451  129.9290  156.0599 O   0  0  0  0  0  0  0  0  0  0  0  0
  148.3704  131.6370  157.9411 O   0  0  0  0  0  0  0  0  0  0  0  0
  150.6089  132.9026  156.5340 C   0  0  0  0  0  0  0  0  0  0  0  0
  150.3532  134.4046  156.3190 C   0  0  0  0  0  0  0  0  0  0  0  0
  149.6570  140.8451  155.0553 C   0  0  0  0  0  0  0  0  0  0  0  0
  149.9616  142.0358  155.6155 N   0  3  0  0  0  0  0  0  0  0  0  0
  152.0796  144.8109  158.3503 H   0  0  0  0  0  0  0  0  0  0  0  0
  153.0720  143.4681  157.7743 H   0  0  0  0  0  0  0  0  0  0  0  0
  151.8303  143.1929  159.0115 H   0  0  0  0  0  0  0  0  0  0  0  0
  150.5759  144.2640  156.6708 H   0  0  0  0  0  0  0  0  0  0  0  0
  152.3349  141.1258  157.8265 H   0  0  0  0  0  0  0  0  0  0  0  0
  151.8265  138.9126  156.8486 H   0  0  0  0  0  0  0  0  0  0  0  0
  149.4174  138.3403  154.1841 H   0  0  0  0  0  0  0  0  0  0  0  0
  149.4763  136.4086  153.8444 H   0  0  0  0  0  0  0  0  0  0  0  0
  151.3827  134.5640  154.4277 H   0  0  0  0  0  0  0  0  0  0  0  0
  148.3607  134.1498  154.3805 H   0  0  0  0  0  0  0  0  0  0  0  0
  149.4244  134.1136  152.9998 H   0  0  0  0  0  0  0  0  0  0  0  0
  148.8831  131.7995  153.7953 H   0  0  0  0  0  0  0  0  0  0  0  0
  150.5961  132.1270  153.8561 H   0  0  0  0  0  0  0  0  0  0  0  0
  145.9478  131.8169  156.2247 H   0  0  0  0  0  0  0  0  0  0  0  0
  146.8343  132.0784  154.7126 H   0  0  0  0  0  0  0  0  0  0  0  0
  146.9267  133.2809  156.0280 H   0  0  0  0  0  0  0  0  0  0  0  0
  150.5327  132.6522  157.5918 H   0  0  0  0  0  0  0  0  0  0  0  0
  151.6296  132.6616  156.2347 H   0  0  0  0  0  0  0  0  0  0  0  0
  151.1049  134.9773  156.8633 H   0  0  0  0  0  0  0  0  0  0  0  0
  149.3913  134.6838  156.7479 H   0  0  0  0  0  0  0  0  0  0  0  0
  148.8816  140.8863  154.3056 H   0  0  0  0  0  0  0  0  0  0  0  0
  149.4593  142.8617  155.2889 H   0  0  0  0  0  0  0  0  0  0  0  0
  1  2  1  0  0  0  0
  1 23  1  0  0  0  0
  1 24  1  0  0  0  0
  1 25  1  0  0  0  0
  2  3  1  0  0  0  0
  2 26  1  0  0  0  0
  3 22  1  0  0  0  0
  3  4  2  0  0  0  0
  4  5  1  0  0  0  0
  4 27  1  0  0  0  0
  5  6  2  0  0  0  0
  5 28  1  0  0  0  0
  6  7  1  0  0  0  0
  6 21  1  0  0  0  0
  7  8  1  0  0  0  0
  7 29  1  0  0  0  0
  8  9  2  0  0  0  0
  8 10  1  0  0  0  0
 10 11  1  0  0  0  0
 10 30  1  0  0  0  0
 11 20  1  0  0  0  0
 11 12  1  0  0  0  0
 11 31  1  0  0  0  0
 12 13  1  0  0  0  0
 12 32  1  0  0  0  0
 12 33  1  0  0  0  0
 13 14  1  0  0  0  0
 13 34  1  0  0  0  0
 13 35  1  0  0  0  0
 14 15  1  0  0  0  0
 14 19  1  0  0  0  0
 15 16  1  0  0  0  0
 15 17  2  0  0  0  0
 15 18  2  0  0  0  0
 16 36  1  0  0  0  0
 16 37  1  0  0  0  0
 16 38  1  0  0  0  0
 19 20  1  0  0  0  0
 19 39  1  0  0  0  0
 19 40  1  0  0  0  0
 20 41  1  0  0  0  0
 20 42  1  0  0  0  0
 21 22  2  0  0  0  0
 21 43  1  0  0  0  0
 22 44  1  0  0  0  0
M  CHG  1  22   1
M  END
> <s_m_source_file>
AV-unprocessed.smi

> <i_m_source_file_index>
549

> <i_lp_mmshare_version>
43012

> <i_f3d_flags>
0

> <s_epik_input>
W0NIM11bTkhdYzFbY0hdW2NIXWMoW2NIXW4xKVtOSF1DKD1PKVtOSF1bQ0hdMltDSDJdW0NIMl1OKFMoPU8pKD1PKVtDSDNdKVtDSDJdW0NIMl0y

> <s_epik_cmdline>
J2VwaWtfcHl0aG9uJywgJy1waCcsICc3LjAnLCAnLXRuJywgJzgnLCAnLW1hJywgJzIwMCcsICctbWV0YWxfYmluZGluZycsICctaW1hZScsICc8aW5maWxlLm1hZT4nLCAnLW9tYWUnLCAnPG91dGZpbGUubWFlPic=

> <r_lp_tautomer_probability>
0.999994

> <r_epik_Ionization_Penalty>
0.450019

> <r_epik_Ionization_Penalty_Charging>
0.449999

> <r_epik_Ionization_Penalty_Neutral>
1.96337e-05

> <r_epik_State_Penalty>
0.452724

> <r_epik_Charging_Adjusted_Penalty>
0.902724

> <i_epik_Tot_Q>
1

> <i_epik_Tot_abs_Q>
1

> <r_epik_Metal_State_Penalty>
0.680753

> <b_epik_Metal_Only>
0

> <s_lp_Force_Field>
OPLS_2005

> <r_lp_Energy>
8.99887

> <b_lp_Chiralities_Consistent>
1

> <s_lp_Variant>
AV-unprocessed.smi:549-2

> <Gold.Version>
5.8.1

> <Gold.Id.Protein>
6NUR|6NUR_protein|mol2

> <Gold.PLP.Fitness>
45.8304

> <Gold.PLP.PLP>
-32.2800

> <Gold.PLP.part.hbond>
-3.0758

> <Gold.PLP.part.metal>
0.0000

> <Gold.PLP.part.buried>
-4.8971

> <Gold.PLP.part.nonpolar>
-24.7998

> <Gold.PLP.part.repulsive>
0.2684

> <Gold.PLP.ligand.clash>
0.0000

> <Gold.PLP.ligand.torsion>
1.3553

> <Gold.PLP.Chemscore.Hbond>
4.7360

> <Gold.PLP.Chemscore.CHOScore>
0.0000

> <Gold.PLP.Chemscore.Metal>
0.0000

> <Gold.Chemscore.Hbonds>
donor molecule, donor type, donor heavy atom, donor atom, acceptor molecule, acceptor atom, score
      L1  H     2    26       P1  8028  1.76
      L1  H    10    30       P1  7948  0.99
      L1  H    22    44       P1  8028  1.92

> <Gold.PLP.Chemscore.Internal.Correction>
2.0530

> <Gold.Rescore>
     Score         DG    S(hbond)    S(metal)    S(lipo)     H(rot)  DE(clash)    DE(int)     intcor
     15.20     -19.25       2.63        0.00      64.56       1.00       0.01       4.04       ----

> <Gold.Chemscore.Fitness>
15.1991

> <Gold.Chemscore.DG>
-19.2491

> <Gold.Chemscore.ZeroCoef>
-5.4800

> <Gold.Chemscore.Hbond>
2.6273

> <Gold.Chemscore.Metal>
0.0000

> <Gold.Chemscore.Lipo>
64.5621

> <Gold.Chemscore.Internal_Hbond>
0.0000

> <Gold.Chemscore.DEClash>
0.0081

> <Gold.Chemscore.DEInternal>
4.0418

> <Gold.Chemscore.Rot>
1.0000

> <Gold.Chemscore.Internal.Correction>
   9.000000E+99

> <Gold.Chemscore.Hbonds>
donor molecule, donor type, donor heavy atom, donor atom, acceptor molecule, acceptor atom, score
      L1  H     2    26       P1  8028  0.83
      L1  H    10    30       P1  7948  0.69
      L1  H    22    44       P1  8028  0.90

> <Gold.Chemscore.Hbond.Weighted>
-8.7753

> <Gold.Chemscore.Metal.Weighted>
-0.0000

> <Gold.Chemscore.Lipo.Weighted>
-7.5538

> <Gold.Chemscore.Internal_Hbond.Weighted>
0.0000

> <Gold.Chemscore.DEClash.Weighted>
0.0081

> <Gold.Chemscore.DEInternal.Weighted>
4.0418

> <Gold.Chemscore.Rot.Weighted>
2.5600

> <Gold.Chemscore.Internal.Correction.Weighted>
   9.000000E+99

> <Gold.Protein.RotatedTorsions>
[ 6907 6896 6895 6894 ] final  149.02 input  -60.11 | X-H torsion
[ 7974 7965 7964 7962 ] final  172.81 input  175.53 | X-H torsion
[ 8008 7997 7996 7995 ] final -136.44 input   59.86 | X-H torsion
[ 10167 10162 10161 10158 ] final  127.59 input  -65.29 | X-H torsion
[ 10718 10713 10712 10709 ] final -101.51 input   66.30 | X-H torsion
[ 10763 10752 10751 10750 ] final   60.47 input  -60.55 | X-H torsion
[ 11005 11000 10999 10996 ] final  150.85 input  -57.11 | X-H torsion

> <Gold.Protein.ActiveResidues>
 VAL166  LYS551  ARG553  GLY616  TRP617  ASP618  TYR619  PRO620  LYS621  CYS622 
 ASP623  PHE694  ASN695  SER759  ASP760  ASP761  ALA762  ILE779  LEU786  VAL792 
 PHE793  MET794  SER795  GLU796  ALA797  LYS798  CYS799  TRP800  GLU811  SER814 

> <Gold.Protein.RotatedAtoms>
  152.1337  133.4423  159.4732 H   0  0  0  0  0  0  0  0  0  0  0  0  # atno 6907 bound_to 6896
  150.6880  134.2389  159.4474 H   0  0  0  0  0  0  0  0  0  0  0  0  # atno 6908 bound_to 6896
  152.0275  134.9786  160.0622 H   0  0  0  0  0  0  0  0  0  0  0  0  # atno 6909 bound_to 6896
  144.7259  139.9554  143.6433 H   0  0  0  0  0  0  0  0  0  0  0  0  # atno 7974 bound_to 7965
  155.3953  140.0502  157.3039 H   0  0  0  0  0  0  0  0  0  0  0  0  # atno 8008 bound_to 7997
  154.5016  140.2159  155.9295 H   0  0  0  0  0  0  0  0  0  0  0  0  # atno 8009 bound_to 7997
  156.1475  140.3142  155.8598 H   0  0  0  0  0  0  0  0  0  0  0  0  # atno 8010 bound_to 7997
  139.5570  144.6856  151.4152 H   0  0  0  0  0  0  0  0  0  0  0  0  # atno 10167 bound_to 10162
  156.0197  130.5377  150.6974 H   0  0  0  0  0  0  0  0  0  0  0  0  # atno 10718 bound_to 10713
  152.9922  135.5535  154.5879 H   0  0  0  0  0  0  0  0  0  0  0  0  # atno 10763 bound_to 10752
  154.5247  135.2810  155.1234 H   0  0  0  0  0  0  0  0  0  0  0  0  # atno 10764 bound_to 10752
  154.2574  135.6387  153.5315 H   0  0  0  0  0  0  0  0  0  0  0  0  # atno 10765 bound_to 10752
  140.1168  134.8889  157.2015 H   0  0  0  0  0  0  0  0  0  0  0  0  # atno 11005 bound_to 11000
  146.0679  139.3669  143.0541 LP  0  0  0  0  0  0  0  0  0  0  0  0  # atno 17320 bound_to 7965
  145.8007  140.9772  143.1000 LP  0  0  0  0  0  0  0  0  0  0  0  0  # atno 17321 bound_to 7965
  140.6845  143.8006  150.7166 LP  0  0  0  0  0  0  0  0  0  0  0  0  # atno 17342 bound_to 10162
  140.1469  143.4391  152.2157 LP  0  0  0  0  0  0  0  0  0  0  0  0  # atno 17343 bound_to 10162
  157.4642  131.0886  151.0713 LP  0  0  0  0  0  0  0  0  0  0  0  0  # atno 17370 bound_to 10713
  157.1192  130.6054  149.5501 LP  0  0  0  0  0  0  0  0  0  0  0  0  # atno 17371 bound_to 10713
  140.3018  134.3123  155.7288 LP  0  0  0  0  0  0  0  0  0  0  0  0  # atno 17394 bound_to 11000
  141.2143  133.7597  156.9652 LP  0  0  0  0  0  0  0  0  0  0  0  0  # atno 17395 bound_to 11000

$$$$
