AV-unprocessed.smi:446|AV-procd|sdf|2593|dock7
  -GOLD-   2262022593D 1   1.00000     0.00000
 Structure written by MMmdl.
 35 37  0  0  0  0  0  0  0  0  1 V2000
  154.7719  140.0864  160.8277 C   0  0  0  0  0  0  0  0  0  0  0  0
  153.9354  141.2919  160.5379 C   0  0  0  0  0  0  0  0  0  0  0  0
  153.7166  141.7223  159.2950 N   0  0  0  0  0  0  0  0  0  0  0  0
  152.9103  142.8264  159.4941 C   0  0  0  0  0  0  0  0  0  0  0  0
  152.3352  143.7248  158.5667 C   0  0  0  0  0  0  0  0  0  0  0  0
  151.5316  144.7945  159.0133 C   0  0  0  0  0  0  0  0  0  0  0  0
  151.2915  144.9812  160.3902 C   0  0  0  0  0  0  0  0  0  0  0  0
  151.8561  144.0988  161.3312 C   0  0  0  0  0  0  0  0  0  0  0  0
  152.6585  143.0337  160.8801 C   0  0  0  0  0  0  0  0  0  0  0  0
  153.3505  142.0143  161.5253 N   0  0  0  0  0  0  0  0  0  0  0  0
  153.4108  141.7978  162.9645 C   0  0  0  0  0  0  0  0  0  0  0  0
  154.8316  141.9932  163.5304 C   0  0  2  0  0  0  0  0  0  0  0  0
  155.4723  140.7401  163.6720 O   0  0  0  0  0  0  0  0  0  0  0  0
  154.8060  142.7772  164.8330 C   0  0  0  0  0  0  0  0  0  0  0  0
  155.2371  142.1659  166.0301 C   0  0  0  0  0  0  0  0  0  0  0  0
  155.2222  142.8859  167.2407 C   0  0  0  0  0  0  0  0  0  0  0  0
  154.7785  144.2221  167.2608 C   0  0  0  0  0  0  0  0  0  0  0  0
  154.7639  144.9138  168.4246 F   0  0  0  0  0  0  0  0  0  0  0  0
  154.3514  144.8387  166.0691 C   0  0  0  0  0  0  0  0  0  0  0  0
  154.3664  144.1196  164.8581 C   0  0  0  0  0  0  0  0  0  0  0  0
  155.2024  139.6889  159.9080 H   0  0  0  0  0  0  0  0  0  0  0  0
  154.1623  139.3074  161.2858 H   0  0  0  0  0  0  0  0  0  0  0  0
  155.5872  140.3426  161.5041 H   0  0  0  0  0  0  0  0  0  0  0  0
  152.5130  143.5902  157.5101 H   0  0  0  0  0  0  0  0  0  0  0  0
  151.0968  145.4747  158.2956 H   0  0  0  0  0  0  0  0  0  0  0  0
  150.6739  145.8022  160.7238 H   0  0  0  0  0  0  0  0  0  0  0  0
  151.6756  144.2383  162.3867 H   0  0  0  0  0  0  0  0  0  0  0  0
  152.7254  142.5034  163.4357 H   0  0  0  0  0  0  0  0  0  0  0  0
  153.0334  140.8039  163.2050 H   0  0  0  0  0  0  0  0  0  0  0  0
  155.4216  142.5590  162.8083 H   0  0  0  0  0  0  0  0  0  0  0  0
  155.1049  140.1429  163.0383 H   0  0  0  0  0  0  0  0  0  0  0  0
  155.5821  141.1421  166.0248 H   0  0  0  0  0  0  0  0  0  0  0  0
  155.5520  142.4128  168.1539 H   0  0  0  0  0  0  0  0  0  0  0  0
  154.0133  145.8642  166.0835 H   0  0  0  0  0  0  0  0  0  0  0  0
  154.0409  144.6027  163.9484 H   0  0  0  0  0  0  0  0  0  0  0  0
  1  2  1  0  0  0  0
  1 21  1  0  0  0  0
  1 22  1  0  0  0  0
  1 23  1  0  0  0  0
  2 10  1  0  0  0  0
  2  3  2  0  0  0  0
  3  4  1  0  0  0  0
  4  9  2  0  0  0  0
  4  5  1  0  0  0  0
  5  6  2  0  0  0  0
  5 24  1  0  0  0  0
  6  7  1  0  0  0  0
  6 25  1  0  0  0  0
  7  8  2  0  0  0  0
  7 26  1  0  0  0  0
  8  9  1  0  0  0  0
  8 27  1  0  0  0  0
  9 10  1  0  0  0  0
 10 11  1  0  0  0  0
 11 12  1  0  0  0  0
 11 28  1  0  0  0  0
 11 29  1  0  0  0  0
 12 13  1  0  0  0  0
 12 14  1  0  0  0  0
 12 30  1  0  0  0  0
 13 31  1  0  0  0  0
 14 20  1  0  0  0  0
 14 15  2  0  0  0  0
 15 16  1  0  0  0  0
 15 32  1  0  0  0  0
 16 17  2  0  0  0  0
 16 33  1  0  0  0  0
 17 18  1  0  0  0  0
 17 19  1  0  0  0  0
 19 20  2  0  0  0  0
 19 34  1  0  0  0  0
 20 35  1  0  0  0  0
M  END
> <s_m_source_file>
AV-unprocessed.smi

> <i_m_source_file_index>
446

> <i_lp_mmshare_version>
43012

> <i_f3d_flags>
0

> <s_epik_input>
W2NIXTFbY0hdW2NIXVtjSF1jKGMxMiluKGMobjIpW0NIM10pW0NIMl1bQ0BIXShbT0hdKWMzW2NIXVtjSF1jKEYpW2NIXVtjSF0z

> <s_epik_cmdline>
J2VwaWtfcHl0aG9uJywgJy1waCcsICc3LjAnLCAnLXRuJywgJzgnLCAnLW1hJywgJzIwMCcsICctbWV0YWxfYmluZGluZycsICctaW1hZScsICc8aW5maWxlLm1hZT4nLCAnLW9tYWUnLCAnPG91dGZpbGUubWFlPic=

> <r_epik_Ionization_Penalty>
0.129663

> <r_epik_Ionization_Penalty_Charging>
0

> <r_epik_Ionization_Penalty_Neutral>
0.129663

> <r_epik_State_Penalty>
0.119073

> <r_epik_Charging_Adjusted_Penalty>
0.119073

> <i_epik_Tot_Q>
0

> <i_epik_Tot_abs_Q>
0

> <r_epik_Metal_State_Penalty>
0.000131867

> <b_epik_Metal_Only>
0

> <s_lp_Force_Field>
OPLS_2005

> <r_lp_Energy>
11.4063

> <b_lp_Chiralities_Consistent>
1

> <s_lp_Variant>
AV-unprocessed.smi:446-1

> <Gold.Version>
5.8.1

> <Gold.Id.Protein>
6NUR|6NUR_protein|mol2

> <Gold.PLP.Fitness>
53.1370

> <Gold.PLP.PLP>
-54.4727

> <Gold.PLP.part.hbond>
0.0000

> <Gold.PLP.part.metal>
0.0000

> <Gold.PLP.part.buried>
-1.8427

> <Gold.PLP.part.nonpolar>
-53.2891

> <Gold.PLP.part.repulsive>
0.0000

> <Gold.PLP.ligand.clash>
0.0000

> <Gold.PLP.ligand.torsion>
0.6790

> <Gold.PLP.Chemscore.Hbond>
0.0000

> <Gold.PLP.Chemscore.CHOScore>
0.0000

> <Gold.PLP.Chemscore.Metal>
0.0000

> <Gold.PLP.Chemscore.Internal.Correction>
0.0223

> <Gold.Rescore>
     Score         DG    S(hbond)    S(metal)    S(lipo)     H(rot)  DE(clash)    DE(int)     intcor
     16.02     -19.23       0.00        0.00     156.73       1.79       2.51       0.69       ----

> <Gold.Chemscore.Fitness>
16.0222

> <Gold.Chemscore.DG>
-19.2280

> <Gold.Chemscore.ZeroCoef>
-5.4800

> <Gold.Chemscore.Hbond>
0.0000

> <Gold.Chemscore.Metal>
0.0000

> <Gold.Chemscore.Lipo>
156.7270

> <Gold.Chemscore.Internal_Hbond>
0.0000

> <Gold.Chemscore.DEClash>
2.5123

> <Gold.Chemscore.DEInternal>
0.6934

> <Gold.Chemscore.Rot>
1.7926

> <Gold.Chemscore.Internal.Correction>
   9.000000E+99

> <Gold.Chemscore.Hbond.Weighted>
-0.0000

> <Gold.Chemscore.Metal.Weighted>
-0.0000

> <Gold.Chemscore.Lipo.Weighted>
-18.3371

> <Gold.Chemscore.Internal_Hbond.Weighted>
0.0000

> <Gold.Chemscore.DEClash.Weighted>
2.5123

> <Gold.Chemscore.DEInternal.Weighted>
0.6934

> <Gold.Chemscore.Rot.Weighted>
4.5890

> <Gold.Chemscore.Internal.Correction.Weighted>
   9.000000E+99

> <Gold.Protein.RotatedTorsions>
[ 6907 6896 6895 6894 ] final   72.23 input  -60.11 | X-H torsion
[ 7974 7965 7964 7962 ] final   36.83 input  175.53 | X-H torsion
[ 8008 7997 7996 7995 ] final   52.29 input   59.86 | X-H torsion
[ 10167 10162 10161 10158 ] final   95.76 input  -65.29 | X-H torsion
[ 10718 10713 10712 10709 ] final   -0.47 input   66.30 | X-H torsion
[ 10763 10752 10751 10750 ] final   48.93 input  -60.55 | X-H torsion
[ 11005 11000 10999 10996 ] final -151.21 input  -57.11 | X-H torsion

> <Gold.Protein.ActiveResidues>
 VAL166  LYS551  ARG553  GLY616  TRP617  ASP618  TYR619  PRO620  LYS621  CYS622 
 ASP623  PHE694  ASN695  SER759  ASP760  ASP761  ALA762  ILE779  LEU786  VAL792 
 PHE793  MET794  SER795  GLU796  ALA797  LYS798  CYS799  TRP800  GLU811  SER814 

> <Gold.Protein.RotatedAtoms>
  152.4856  134.4602  159.9602 H   0  0  0  0  0  0  0  0  0  0  0  0  # atno 6907 bound_to 6896
  151.4599  133.3589  159.2815 H   0  0  0  0  0  0  0  0  0  0  0  0  # atno 6908 bound_to 6896
  150.8964  134.8397  159.7390 H   0  0  0  0  0  0  0  0  0  0  0  0  # atno 6909 bound_to 6896
  146.1182  139.5968  142.9307 H   0  0  0  0  0  0  0  0  0  0  0  0  # atno 7974 bound_to 7965
  155.4494  140.3457  155.4299 H   0  0  0  0  0  0  0  0  0  0  0  0  # atno 8008 bound_to 7997
  156.1230  140.1492  156.9207 H   0  0  0  0  0  0  0  0  0  0  0  0  # atno 8009 bound_to 7997
  154.4837  140.0862  156.7416 H   0  0  0  0  0  0  0  0  0  0  0  0  # atno 8010 bound_to 7997
  139.7958  144.6834  150.9830 H   0  0  0  0  0  0  0  0  0  0  0  0  # atno 10167 bound_to 10162
  156.8199  130.5453  149.5698 H   0  0  0  0  0  0  0  0  0  0  0  0  # atno 10718 bound_to 10713
  152.9789  135.5928  154.4006 H   0  0  0  0  0  0  0  0  0  0  0  0  # atno 10763 bound_to 10752
  154.3652  135.2767  155.2299 H   0  0  0  0  0  0  0  0  0  0  0  0  # atno 10764 bound_to 10752
  154.4279  135.6043  153.6105 H   0  0  0  0  0  0  0  0  0  0  0  0  # atno 10765 bound_to 10752
  140.7320  134.3610  157.5165 H   0  0  0  0  0  0  0  0  0  0  0  0  # atno 11005 bound_to 11000
  145.5522  141.0412  143.2272 LP  0  0  0  0  0  0  0  0  0  0  0  0  # atno 17320 bound_to 7965
  144.7572  139.7044  143.7249 LP  0  0  0  0  0  0  0  0  0  0  0  0  # atno 17321 bound_to 7965
  140.7820  143.4333  151.0662 LP  0  0  0  0  0  0  0  0  0  0  0  0  # atno 17342 bound_to 10162
  139.8007  143.8088  152.3162 LP  0  0  0  0  0  0  0  0  0  0  0  0  # atno 17343 bound_to 10162
  156.0995  130.5958  150.9869 LP  0  0  0  0  0  0  0  0  0  0  0  0  # atno 17370 bound_to 10713
  157.6462  131.0903  150.8148 LP  0  0  0  0  0  0  0  0  0  0  0  0  # atno 17371 bound_to 10713
  139.8824  134.9025  156.2833 LP  0  0  0  0  0  0  0  0  0  0  0  0  # atno 17394 bound_to 11000
  140.9912  133.7207  156.0817 LP  0  0  0  0  0  0  0  0  0  0  0  0  # atno 17395 bound_to 11000

$$$$
