AV-unprocessed.smi:1458|AV-procd|sdf|5921|dock2
  -GOLD-   22720 6 03D 1   1.00000     0.00000
 Structure written by MMmdl.
 46 47  0  0  0  0  0  0  0  0  1 V2000
  146.6542  132.9396  151.5040 C   0  0  0  0  0  0  0  0  0  0  0  0
  147.3061  133.4362  152.6592 O   0  0  0  0  0  0  0  0  0  0  0  0
  148.5017  132.7319  152.9531 C   0  0  0  0  0  0  0  0  0  0  0  0
  149.1434  133.3303  154.2127 C   0  0  0  0  0  0  0  0  0  0  0  0
  149.3606  134.7661  154.0734 N   0  0  0  0  0  0  0  0  0  0  0  0
  149.9089  135.5567  155.0062 C   0  0  0  0  0  0  0  0  0  0  0  0
  150.2893  135.1497  156.1038 O   0  0  0  0  0  0  0  0  0  0  0  0
  150.0038  136.8247  154.5714 N   0  0  0  0  0  0  0  0  0  0  0  0
  150.4698  137.9692  155.2728 C   0  0  0  0  0  0  0  0  0  0  0  0
  150.7161  139.2265  154.6743 C   0  0  0  0  0  0  0  0  0  0  0  0
  151.2087  140.2768  155.4726 C   0  0  0  0  0  0  0  0  0  0  0  0
  151.4532  140.0480  156.8473 C   0  0  0  0  0  0  0  0  0  0  0  0
  151.9601  141.0843  157.6617 N   0  0  0  0  0  0  0  0  0  0  0  0
  152.3925  140.6764  158.9960 C   0  0  0  0  0  0  0  0  0  0  0  0
  153.1889  141.8066  159.6755 C   0  0  2  0  0  0  0  0  0  0  0  0
  153.5528  141.4624  161.1236 C   0  0  0  0  0  0  0  0  0  0  0  0
  152.4041  142.9959  159.6832 O   0  0  0  0  0  0  0  0  0  0  0  0
  152.0867  143.4457  158.3690 C   0  0  2  0  0  0  0  0  0  0  0  0
  151.3271  144.7713  158.4854 C   0  0  0  0  0  0  0  0  0  0  0  0
  151.2557  142.3651  157.6526 C   0  0  0  0  0  0  0  0  0  0  0  0
  151.2153  138.8407  157.4163 N   0  0  0  0  0  0  0  0  0  0  0  0
  150.7452  137.8363  156.6479 C   0  0  0  0  0  0  0  0  0  0  0  0
  145.7435  133.5105  151.3236 H   0  0  0  0  0  0  0  0  0  0  0  0
  146.3761  131.8920  151.6269 H   0  0  0  0  0  0  0  0  0  0  0  0
  147.2902  133.0325  150.6226 H   0  0  0  0  0  0  0  0  0  0  0  0
  148.2730  131.6789  153.1246 H   0  0  0  0  0  0  0  0  0  0  0  0
  149.1931  132.7809  152.1100 H   0  0  0  0  0  0  0  0  0  0  0  0
  148.5012  133.1571  155.0766 H   0  0  0  0  0  0  0  0  0  0  0  0
  150.0890  132.8294  154.4264 H   0  0  0  0  0  0  0  0  0  0  0  0
  149.0853  135.1833  153.1963 H   0  0  0  0  0  0  0  0  0  0  0  0
  149.7408  136.9843  153.6099 H   0  0  0  0  0  0  0  0  0  0  0  0
  150.5532  139.4036  153.6228 H   0  0  0  0  0  0  0  0  0  0  0  0
  151.3858  141.2425  155.0232 H   0  0  0  0  0  0  0  0  0  0  0  0
  151.5101  140.4303  159.5882 H   0  0  0  0  0  0  0  0  0  0  0  0
  153.0101  139.7800  158.9614 H   0  0  0  0  0  0  0  0  0  0  0  0
  154.1109  141.9905  159.1211 H   0  0  0  0  0  0  0  0  0  0  0  0
  154.1667  140.5627  161.1705 H   0  0  0  0  0  0  0  0  0  0  0  0
  152.6596  141.2901  161.7246 H   0  0  0  0  0  0  0  0  0  0  0  0
  154.1153  142.2732  161.5869 H   0  0  0  0  0  0  0  0  0  0  0  0
  153.0121  143.6235  157.8180 H   0  0  0  0  0  0  0  0  0  0  0  0
  151.0725  145.1649  157.5010 H   0  0  0  0  0  0  0  0  0  0  0  0
  151.9288  145.5219  158.9981 H   0  0  0  0  0  0  0  0  0  0  0  0
  150.4005  144.6467  159.0467 H   0  0  0  0  0  0  0  0  0  0  0  0
  151.0636  142.6788  156.6256 H   0  0  0  0  0  0  0  0  0  0  0  0
  150.2890  142.2471  158.1448 H   0  0  0  0  0  0  0  0  0  0  0  0
  150.5831  136.8942  157.1513 H   0  0  0  0  0  0  0  0  0  0  0  0
  1  2  1  0  0  0  0
  1 23  1  0  0  0  0
  1 24  1  0  0  0  0
  1 25  1  0  0  0  0
  2  3  1  0  0  0  0
  3  4  1  0  0  0  0
  3 26  1  0  0  0  0
  3 27  1  0  0  0  0
  4  5  1  0  0  0  0
  4 28  1  0  0  0  0
  4 29  1  0  0  0  0
  5  6  1  0  0  0  0
  5 30  1  0  0  0  0
  6  7  2  0  0  0  0
  6  8  1  0  0  0  0
  8  9  1  0  0  0  0
  8 31  1  0  0  0  0
  9 22  1  0  0  0  0
  9 10  2  0  0  0  0
 10 11  1  0  0  0  0
 10 32  1  0  0  0  0
 11 12  2  0  0  0  0
 11 33  1  0  0  0  0
 12 13  1  0  0  0  0
 12 21  1  0  0  0  0
 13 20  1  0  0  0  0
 13 14  1  0  0  0  0
 14 15  1  0  0  0  0
 14 34  1  0  0  0  0
 14 35  1  0  0  0  0
 15 16  1  0  0  0  0
 15 17  1  0  0  0  0
 15 36  1  0  0  0  0
 16 37  1  0  0  0  0
 16 38  1  0  0  0  0
 16 39  1  0  0  0  0
 17 18  1  0  0  0  0
 18 19  1  0  0  0  0
 18 20  1  0  0  0  0
 18 40  1  0  0  0  0
 19 41  1  0  0  0  0
 19 42  1  0  0  0  0
 19 43  1  0  0  0  0
 20 44  1  0  0  0  0
 20 45  1  0  0  0  0
 21 22  2  0  0  0  0
 22 46  1  0  0  0  0
M  END
> <s_m_source_file>
AV-unprocessed.smi

> <i_m_source_file_index>
1458

> <i_lp_mmshare_version>
43012

> <i_f3d_flags>
0

> <s_epik_input>
W0NIM11PW0NIMl1bQ0gyXVtOSF1DKD1PKVtOSF1jMVtjSF1bY0hdYyhuW2NIXTEpTjJbQ0gyXVtDQEBIXShbQ0gzXSlPW0NAQEhdKFtDSDNdKVtDSDJdMg==

> <s_epik_cmdline>
J2VwaWtfcHl0aG9uJywgJy1waCcsICc3LjAnLCAnLXRuJywgJzgnLCAnLW1hJywgJzIwMCcsICctbWV0YWxfYmluZGluZycsICctaW1hZScsICc8aW5maWxlLm1hZT4nLCAnLW9tYWUnLCAnPG91dGZpbGUubWFlPic=

> <r_lp_tautomer_probability>
1

> <r_epik_Ionization_Penalty>
0.00266072

> <r_epik_Ionization_Penalty_Charging>
0

> <r_epik_Ionization_Penalty_Neutral>
0.00266072

> <r_epik_State_Penalty>
0.00182795

> <r_epik_Charging_Adjusted_Penalty>
0.00182795

> <i_epik_Tot_Q>
0

> <i_epik_Tot_abs_Q>
0

> <r_epik_Metal_State_Penalty>
-0

> <b_epik_Metal_Only>
0

> <s_lp_Force_Field>
OPLS_2005

> <r_lp_Energy>
18.5375

> <b_lp_Chiralities_Consistent>
1

> <s_lp_Variant>
AV-unprocessed.smi:1458-1

> <Gold.Version>
5.8.1

> <Gold.Id.Protein>
6NUR|6NUR_protein|mol2

> <Gold.PLP.Fitness>
46.7471

> <Gold.PLP.PLP>
-40.8245

> <Gold.PLP.part.hbond>
-2.0000

> <Gold.PLP.part.metal>
0.0000

> <Gold.PLP.part.buried>
-4.0797

> <Gold.PLP.part.nonpolar>
-35.2002

> <Gold.PLP.part.repulsive>
0.2379

> <Gold.PLP.ligand.clash>
0.0000

> <Gold.PLP.ligand.torsion>
0.1773

> <Gold.PLP.Chemscore.Hbond>
1.9833

> <Gold.PLP.Chemscore.CHOScore>
0.0000

> <Gold.PLP.Chemscore.Metal>
0.0000

> <Gold.Chemscore.Hbonds>
donor molecule, donor type, donor heavy atom, donor atom, acceptor molecule, acceptor atom, score
      L1  H     5    30       P1  7948  0.95
      L1  H     8    31       P1  7948  0.98

> <Gold.PLP.Chemscore.Internal.Correction>
0.3273

> <Gold.Rescore>
     Score         DG    S(hbond)    S(metal)    S(lipo)     H(rot)  DE(clash)    DE(int)     intcor
     16.84     -18.61       1.68        0.00      99.56       1.62       0.16       1.60       ----

> <Gold.Chemscore.Fitness>
16.8443

> <Gold.Chemscore.DG>
-18.6060

> <Gold.Chemscore.ZeroCoef>
-5.4800

> <Gold.Chemscore.Hbond>
1.6844

> <Gold.Chemscore.Metal>
0.0000

> <Gold.Chemscore.Lipo>
99.5626

> <Gold.Chemscore.Internal_Hbond>
0.0000

> <Gold.Chemscore.DEClash>
0.1623

> <Gold.Chemscore.DEInternal>
1.5994

> <Gold.Chemscore.Rot>
1.6206

> <Gold.Chemscore.Internal.Correction>
   9.000000E+99

> <Gold.Chemscore.Hbonds>
donor molecule, donor type, donor heavy atom, donor atom, acceptor molecule, acceptor atom, score
      L1  H     5    30       P1  7948  0.21
      L1  H     8    31       P1  7948  0.57

> <Gold.Chemscore.Hbond.Weighted>
-5.6258

> <Gold.Chemscore.Metal.Weighted>
-0.0000

> <Gold.Chemscore.Lipo.Weighted>
-11.6488

> <Gold.Chemscore.Internal_Hbond.Weighted>
0.0000

> <Gold.Chemscore.DEClash.Weighted>
0.1623

> <Gold.Chemscore.DEInternal.Weighted>
1.5994

> <Gold.Chemscore.Rot.Weighted>
4.1486

> <Gold.Chemscore.Internal.Correction.Weighted>
   9.000000E+99

> <Gold.Protein.RotatedTorsions>
[ 6907 6896 6895 6894 ] final -118.72 input  -60.11 | X-H torsion
[ 7974 7965 7964 7962 ] final  -27.28 input  175.53 | X-H torsion
[ 8008 7997 7996 7995 ] final  150.07 input   59.86 | X-H torsion
[ 10167 10162 10161 10158 ] final  -42.95 input  -65.29 | X-H torsion
[ 10718 10713 10712 10709 ] final  118.75 input   66.30 | X-H torsion
[ 10763 10752 10751 10750 ] final -119.55 input  -60.55 | X-H torsion
[ 11005 11000 10999 10996 ] final  -29.54 input  -57.11 | X-H torsion

> <Gold.Protein.ActiveResidues>
 VAL166  LYS551  ARG553  GLY616  TRP617  ASP618  TYR619  PRO620  LYS621  CYS622 
 ASP623  PHE694  ASN695  SER759  ASP760  ASP761  ALA762  ILE779  LEU786  VAL792 
 PHE793  MET794  SER795  GLU796  ALA797  LYS798  CYS799  TRP800  GLU811  SER814 

> <Gold.Protein.RotatedAtoms>
  150.8244  133.8198  159.3124 H   0  0  0  0  0  0  0  0  0  0  0  0  # atno 6907 bound_to 6896
  151.5946  135.1049  160.0056 H   0  0  0  0  0  0  0  0  0  0  0  0  # atno 6908 bound_to 6896
  152.4330  133.7270  159.6622 H   0  0  0  0  0  0  0  0  0  0  0  0  # atno 6909 bound_to 6896
  146.1368  140.5132  142.8669 H   0  0  0  0  0  0  0  0  0  0  0  0  # atno 7974 bound_to 7965
  156.2730  140.2085  156.5958 H   0  0  0  0  0  0  0  0  0  0  0  0  # atno 8008 bound_to 7997
  154.6946  140.0527  157.0421 H   0  0  0  0  0  0  0  0  0  0  0  0  # atno 8009 bound_to 7997
  155.0819  140.3187  155.4602 H   0  0  0  0  0  0  0  0  0  0  0  0  # atno 8010 bound_to 7997
  140.6951  143.3009  151.3283 H   0  0  0  0  0  0  0  0  0  0  0  0  # atno 10167 bound_to 10162
  157.6008  131.1051  150.7801 H   0  0  0  0  0  0  0  0  0  0  0  0  # atno 10718 bound_to 10713
  154.8620  135.4234  154.2317 H   0  0  0  0  0  0  0  0  0  0  0  0  # atno 10763 bound_to 10752
  153.3301  135.6987  153.6961 H   0  0  0  0  0  0  0  0  0  0  0  0  # atno 10764 bound_to 10752
  153.5981  135.3542  155.2909 H   0  0  0  0  0  0  0  0  0  0  0  0  # atno 10765 bound_to 10752
  140.9305  133.7341  156.0930 H   0  0  0  0  0  0  0  0  0  0  0  0  # atno 11005 bound_to 11000
  144.7749  140.5717  143.6645 LP  0  0  0  0  0  0  0  0  0  0  0  0  # atno 17320 bound_to 7965
  145.5137  139.1478  143.3590 LP  0  0  0  0  0  0  0  0  0  0  0  0  # atno 17321 bound_to 7965
  139.6397  144.0563  152.2544 LP  0  0  0  0  0  0  0  0  0  0  0  0  # atno 17342 bound_to 10162
  140.0064  144.6256  150.7685 LP  0  0  0  0  0  0  0  0  0  0  0  0  # atno 17343 bound_to 10162
  156.8200  130.4981  149.5344 LP  0  0  0  0  0  0  0  0  0  0  0  0  # atno 17370 bound_to 10713
  156.1081  130.6020  151.0004 LP  0  0  0  0  0  0  0  0  0  0  0  0  # atno 17371 bound_to 10713
  140.7868  134.3662  157.5474 LP  0  0  0  0  0  0  0  0  0  0  0  0  # atno 17394 bound_to 11000
  139.8795  134.9116  156.3040 LP  0  0  0  0  0  0  0  0  0  0  0  0  # atno 17395 bound_to 11000

$$$$
