#       Name:                AV-unprocessed.smi:1006
#       Creating user name   scv26
#       Creation time:       Fri Mar 27 02:32:08 2020


#       File generated by GOLD software.
#

@<TRIPOS>MOLECULE
AV-unprocessed.smi:1006
    50    52     1
SMALL
NO_CHARGES


@<TRIPOS>ATOM
      1 ****        -3.1627  -0.2623   0.5457 C.3            1 S1                 0.0000
      2 ****        -2.8317   1.1904   0.8156 C.ar           1 S1                 0.0000
      3 ****        -3.8450   2.1583   0.9831 C.ar           1 S1                 0.0000
      4 ****        -3.4114   3.4776   1.2321 C.ar           1 S1                 0.0000
      5 ****        -4.3308   4.5079   1.4120 N.pl3          1 S1                 0.0000
      6 ****        -2.1007   3.7952   1.3059 N.ar           1 S1                 0.0000
      7 ****        -1.2332   2.7952   1.1321 C.ar           1 S1                 0.0000
      8 ****         0.4909   3.2554   1.2296 S.3            1 S1                 0.0000
      9 ****         1.3340   1.6688   0.9430 C.3            1 S1                 0.0000
     10 ****         2.8680   1.8014   0.9250 C.3            1 S1                 0.0000
     11 ****         3.3111   2.2853   2.1766 O.3            1 S1                 0.0000
     12 ****         3.5968   0.4703   0.6490 C.3            1 S1                 0.0000
     13 ****         3.1886  -0.1466  -0.6006 N.pl3          1 S1                 0.0000
     14 ****         3.6891   0.0994  -1.8263 C.2            1 S1                 0.0000
     15 ****         3.1604  -0.5715  -2.8457 N.2            1 S1                 0.0000
     16 ****         2.2044  -1.3427  -2.2070 C.ar           1 S1                 0.0000
     17 ****         1.2817  -2.2766  -2.7272 C.ar           1 S1                 0.0000
     18 ****         0.3779  -2.9536  -1.8776 C.ar           1 S1                 0.0000
     19 ****        -0.5986  -3.9482  -2.4803 C.3            1 S1                 0.0000
     20 ****         0.3887  -2.7002  -0.4825 C.ar           1 S1                 0.0000
     21 ****        -0.5759  -3.4111   0.4499 C.3            1 S1                 0.0000
     22 ****         1.3066  -1.7738   0.0542 C.ar           1 S1                 0.0000
     23 ****         2.1995  -1.1044  -0.8017 C.ar           1 S1                 0.0000
     24 ****        -1.5223   1.5121   0.8932 N.ar           1 S1                 0.0000
     25 ****        -3.3326  -0.7900   1.4841 H              1 S1                 0.0000
     26 ****        -2.3487  -0.7577   0.0150 H              1 S1                 0.0000
     27 ****        -4.0629  -0.3455  -0.0635 H              1 S1                 0.0000
     28 ****        -4.8927   1.9016   0.9239 H              1 S1                 0.0000
     29 ****        -5.3260   4.3432   1.3700 H              1 S1                 0.0000
     30 ****        -4.0287   5.4550   1.5893 H              1 S1                 0.0000
     31 ****         1.0278   0.9554   1.7092 H              1 S1                 0.0000
     32 ****         0.9856   1.2867  -0.0162 H              1 S1                 0.0000
     33 ****         3.1535   2.5285   0.1638 H              1 S1                 0.0000
     34 ****         2.8825   3.1107   2.3457 H              1 S1                 0.0000
     35 ****         4.6756   0.6293   0.6175 H              1 S1                 0.0000
     36 ****         3.4117  -0.2385   1.4571 H              1 S1                 0.0000
     37 ****         4.4837   0.8153  -1.9788 H              1 S1                 0.0000
     38 ****         1.2719  -2.4671  -3.7903 H              1 S1                 0.0000
     39 ****        -0.4746  -4.9310  -2.0246 H              1 S1                 0.0000
     40 ****        -0.4444  -4.0571  -3.5544 H              1 S1                 0.0000
     41 ****        -1.6253  -3.6184  -2.3204 H              1 S1                 0.0000
     42 ****        -0.4785  -3.0489   1.4737 H              1 S1                 0.0000
     43 ****        -0.3816  -4.4838   0.4524 H              1 S1                 0.0000
     44 ****        -1.6065  -3.2459   0.1353 H              1 S1                 0.0000
     45 ****         1.3235  -1.5692   1.1144 H              1 S1                 0.0000
     46 ****        -1.7956   4.7312   1.4816 LP             1 S1                 0.0000
     47 ****         4.3022   2.4172   2.1561 LP             1 S1                 0.0000
     48 ****         3.0769   1.6297   2.8944 LP             1 S1                 0.0000
     49 ****         3.3924  -0.5298  -3.8176 LP             1 S1                 0.0000
     50 ****        -0.8050   0.8250   0.7777 LP             1 S1                 0.0000
@<TRIPOS>BOND
    1    1    2 1     
    2    1   25 1     
    3    1   26 1     
    4    1   27 1     
    5    2   24 ar    
    6    2    3 ar    
    7    3    4 ar    
    8    3   28 1     
    9    4    5 1     
   10    4    6 ar    
   11    5   29 1     
   12    5   30 1     
   13    6    7 ar    
   14    7    8 1     
   15    7   24 ar    
   16    8    9 1     
   17    9   10 1     
   18    9   31 1     
   19    9   32 1     
   20   10   11 1     
   21   10   12 1     
   22   10   33 1     
   23   11   34 1     
   24   12   13 1     
   25   12   35 1     
   26   12   36 1     
   27   13   23 1     
   28   13   14 1     
   29   14   15 2     
   30   14   37 1     
   31   15   16 1     
   32   16   23 ar    
   33   16   17 ar    
   34   17   18 ar    
   35   17   38 1     
   36   18   19 1     
   37   18   20 ar    
   38   19   39 1     
   39   19   40 1     
   40   19   41 1     
   41   20   21 1     
   42   20   22 ar    
   43   21   42 1     
   44   21   43 1     
   45   21   44 1     
   46   22   23 ar    
   47   22   45 1     
   48    6   46 1     
   49   11   47 1     
   50   11   48 1     
   51   15   49 1     
   52   24   50 1     
@<TRIPOS>SUBSTRUCTURE
      1 S1             1
@<TRIPOS>SET
LONE_PAIRS      STATIC     ATOMS    <user>   **** ""
5 46 47 48 49 50
DONOR_HYDROGENS      STATIC     ATOMS    <user>   **** ""
3 29 30 34
ATOM$BLUE        STATIC     ATOMS    COLORGROUP SYSTEM
5 46 47 48 49 50
ATOM$RED        STATIC     ATOMS    COLORGROUP SYSTEM
3 29 30 34
