AV-unprocessed.smi:467|AV-procd|sdf|2647|dock3
  -GOLD-   2262023 53D 1   1.00000     0.00000
 Structure written by MMmdl.
 45 47  0  0  0  0  0  0  0  0  2 V2000
  153.0777  142.9244  161.5166 C   0  0  0  0  0  0  0  0  0  0  0  0
  152.5377  142.4602  160.1746 C   0  0  0  0  0  0  0  0  0  0  0  0
  152.7263  141.1102  159.8025 C   0  0  0  0  0  0  0  0  0  0  0  0
  152.2254  140.7168  158.5674 C   0  0  0  0  0  0  0  0  0  0  0  0
  152.2534  139.4782  157.9234 N   0  3  0  0  0  0  0  0  0  0  0  0
  151.6336  139.5804  156.7155 C   0  0  0  0  0  0  0  0  0  0  0  0
  151.2078  140.8654  156.5791 N   0  0  0  0  0  0  0  0  0  0  0  0
  150.4899  141.4969  155.4627 C   0  0  0  0  0  0  0  0  0  0  0  0
  149.4813  140.5442  154.7880 C   0  0  2  0  0  0  0  0  0  0  0  0
  150.1486  139.7523  153.8264 O   0  0  0  0  0  0  0  0  0  0  0  0
  148.3430  141.2950  154.0685 C   0  0  0  0  0  0  0  0  0  0  0  0
  147.4447  142.0582  154.9356 N   0  0  0  0  0  0  0  0  0  0  0  0
  146.8326  141.2350  155.9773 C   0  0  0  0  0  0  0  0  0  0  0  0
  145.8642  142.0454  156.8569 C   0  0  0  0  0  0  0  0  0  0  0  0
  144.8710  142.6570  156.0409 O   0  0  0  0  0  0  0  0  0  0  0  0
  145.4285  143.5083  155.0455 C   0  0  0  0  0  0  0  0  0  0  0  0
  146.3890  142.6986  154.1576 C   0  0  0  0  0  0  0  0  0  0  0  0
  151.5538  141.6122  157.7120 C   0  0  0  0  0  0  0  0  0  0  0  0
  151.3571  142.9454  158.0653 C   0  0  0  0  0  0  0  0  0  0  0  0
  151.8609  143.3658  159.3172 C   0  0  0  0  0  0  0  0  0  0  0  0
  151.6639  144.8154  159.7271 C   0  0  0  0  0  0  0  0  0  0  0  0
  153.6081  142.1231  162.0321 H   0  0  0  0  0  0  0  0  0  0  0  0
  152.2639  143.2557  162.1621 H   0  0  0  0  0  0  0  0  0  0  0  0
  153.7749  143.7520  161.3846 H   0  0  0  0  0  0  0  0  0  0  0  0
  153.2403  140.4147  160.4497 H   0  0  0  0  0  0  0  0  0  0  0  0
  151.5043  138.7857  155.9947 H   0  0  0  0  0  0  0  0  0  0  0  0
  149.9666  142.3602  155.8751 H   0  0  0  0  0  0  0  0  0  0  0  0
  151.2081  141.8931  154.7445 H   0  0  0  0  0  0  0  0  0  0  0  0
  149.0742  139.8570  155.5293 H   0  0  0  0  0  0  0  0  0  0  0  0
  149.6883  139.8270  153.0047 H   0  0  0  0  0  0  0  0  0  0  0  0
  148.7962  141.9731  153.3438 H   0  0  0  0  0  0  0  0  0  0  0  0
  147.7560  140.5855  153.4826 H   0  0  0  0  0  0  0  0  0  0  0  0
  146.2948  140.4017  155.5223 H   0  0  0  0  0  0  0  0  0  0  0  0
  147.5986  140.8010  156.6185 H   0  0  0  0  0  0  0  0  0  0  0  0
  145.3778  141.3950  157.5839 H   0  0  0  0  0  0  0  0  0  0  0  0
  146.4027  142.8095  157.4199 H   0  0  0  0  0  0  0  0  0  0  0  0
  144.6223  143.9307  154.4455 H   0  0  0  0  0  0  0  0  0  0  0  0
  145.9488  144.3426  155.5187 H   0  0  0  0  0  0  0  0  0  0  0  0
  146.8290  143.3595  153.4099 H   0  0  0  0  0  0  0  0  0  0  0  0
  145.8217  141.9434  153.6109 H   0  0  0  0  0  0  0  0  0  0  0  0
  150.8463  143.6375  157.4129 H   0  0  0  0  0  0  0  0  0  0  0  0
  151.1091  145.3721  158.9712 H   0  0  0  0  0  0  0  0  0  0  0  0
  152.6267  145.3085  159.8634 H   0  0  0  0  0  0  0  0  0  0  0  0
  151.1066  144.8779  160.6620 H   0  0  0  0  0  0  0  0  0  0  0  0
  152.6661  138.6252  158.2788 H   0  0  0  0  0  0  0  0  0  0  0  0
  1  2  1  0  0  0  0
  1 22  1  0  0  0  0
  1 23  1  0  0  0  0
  1 24  1  0  0  0  0
  2 20  1  0  0  0  0
  2  3  2  0  0  0  0
  3  4  1  0  0  0  0
  3 25  1  0  0  0  0
  4 18  2  0  0  0  0
  4  5  1  0  0  0  0
  5  6  2  0  0  0  0
  5 45  1  0  0  0  0
  6  7  1  0  0  0  0
  6 26  1  0  0  0  0
  7  8  1  0  0  0  0
  7 18  1  0  0  0  0
  8  9  1  0  0  0  0
  8 27  1  0  0  0  0
  8 28  1  0  0  0  0
  9 10  1  0  0  0  0
  9 11  1  0  0  0  0
  9 29  1  0  0  0  0
 10 30  1  0  0  0  0
 11 12  1  0  0  0  0
 11 31  1  0  0  0  0
 11 32  1  0  0  0  0
 12 17  1  0  0  0  0
 12 13  1  0  0  0  0
 13 14  1  0  0  0  0
 13 33  1  0  0  0  0
 13 34  1  0  0  0  0
 14 15  1  0  0  0  0
 14 35  1  0  0  0  0
 14 36  1  0  0  0  0
 15 16  1  0  0  0  0
 16 17  1  0  0  0  0
 16 37  1  0  0  0  0
 16 38  1  0  0  0  0
 17 39  1  0  0  0  0
 17 40  1  0  0  0  0
 18 19  1  0  0  0  0
 19 20  2  0  0  0  0
 19 41  1  0  0  0  0
 20 21  1  0  0  0  0
 21 42  1  0  0  0  0
 21 43  1  0  0  0  0
 21 44  1  0  0  0  0
M  CHG  1   5   1
M  END
> <s_m_source_file>
AV-unprocessed.smi

> <i_m_source_file_index>
467

> <i_lp_mmshare_version>
43012

> <i_f3d_flags>
0

> <s_epik_input>
W0NIM11jKFtjSF0xKWMoW0NIM10pW2NIXWMoYzEyKW4oW2NIXW4yKVtDSDJdW0NASF0oW09IXSlbQ0gyXU4zW0NIMl1bQ0gyXU9bQ0gyXVtDSDJdMw==

> <s_epik_cmdline>
J2VwaWtfcHl0aG9uJywgJy1waCcsICc3LjAnLCAnLXRuJywgJzgnLCAnLW1hJywgJzIwMCcsICctbWV0YWxfYmluZGluZycsICctaW1hZScsICc8aW5maWxlLm1hZT4nLCAnLW9tYWUnLCAnPG91dGZpbGUubWFlPic=

> <r_epik_Ionization_Penalty>
1.42557

> <r_epik_Ionization_Penalty_Charging>
1.21121

> <r_epik_Ionization_Penalty_Neutral>
0.214359

> <r_epik_State_Penalty>
1.47019

> <r_epik_Charging_Adjusted_Penalty>
2.68141

> <i_epik_Tot_Q>
1

> <i_epik_Tot_abs_Q>
1

> <r_epik_Metal_State_Penalty>
5.48819

> <b_epik_Metal_Only>
0

> <s_lp_Force_Field>
OPLS_2005

> <r_lp_Energy>
33.4521

> <b_lp_Chiralities_Consistent>
1

> <s_lp_Variant>
AV-unprocessed.smi:467-5

> <Gold.Version>
5.8.1

> <Gold.Id.Protein>
6NUR|6NUR_protein|mol2

> <Gold.PLP.Fitness>
49.9033

> <Gold.PLP.PLP>
-45.3776

> <Gold.PLP.part.hbond>
-2.0000

> <Gold.PLP.part.metal>
0.0000

> <Gold.PLP.part.buried>
-5.6860

> <Gold.PLP.part.nonpolar>
-36.9009

> <Gold.PLP.part.repulsive>
0.5623

> <Gold.PLP.ligand.clash>
0.0000

> <Gold.PLP.ligand.torsion>
0.6318

> <Gold.PLP.Chemscore.Hbond>
1.9280

> <Gold.PLP.Chemscore.CHOScore>
0.0000

> <Gold.PLP.Chemscore.Metal>
0.0000

> <Gold.Chemscore.Hbonds>
donor molecule, donor type, donor heavy atom, donor atom, acceptor molecule, acceptor atom, score
      L1  H    10    30       P1  7957  1.00
      P1  H  7989  7998       L1    10  0.88

> <Gold.PLP.Chemscore.Internal.Correction>
0.0052

> <Gold.Rescore>
     Score         DG    S(hbond)    S(metal)    S(lipo)     H(rot)  DE(clash)    DE(int)     intcor
     16.49     -17.45       1.00        0.00     119.19       2.08       0.27       0.69       ----

> <Gold.Chemscore.Fitness>
16.4872

> <Gold.Chemscore.DG>
-17.4508

> <Gold.Chemscore.ZeroCoef>
-5.4800

> <Gold.Chemscore.Hbond>
1.0039

> <Gold.Chemscore.Metal>
0.0000

> <Gold.Chemscore.Lipo>
119.1911

> <Gold.Chemscore.Internal_Hbond>
0.0000

> <Gold.Chemscore.DEClash>
0.2727

> <Gold.Chemscore.DEInternal>
0.6909

> <Gold.Chemscore.Rot>
2.0811

> <Gold.Chemscore.Internal.Correction>
   9.000000E+99

> <Gold.Chemscore.Hbonds>
donor molecule, donor type, donor heavy atom, donor atom, acceptor molecule, acceptor atom, score
      L1  H    10    30       P1  7957  0.97
      P1  H  7989  7998       L1    10  0.05

> <Gold.Chemscore.Hbond.Weighted>
-3.3530

> <Gold.Chemscore.Metal.Weighted>
-0.0000

> <Gold.Chemscore.Lipo.Weighted>
-13.9454

> <Gold.Chemscore.Internal_Hbond.Weighted>
0.0000

> <Gold.Chemscore.DEClash.Weighted>
0.2727

> <Gold.Chemscore.DEInternal.Weighted>
0.6909

> <Gold.Chemscore.Rot.Weighted>
5.3275

> <Gold.Chemscore.Internal.Correction.Weighted>
   9.000000E+99

> <Gold.Protein.RotatedTorsions>
[ 6907 6896 6895 6894 ] final   95.15 input  -60.11 | X-H torsion
[ 7974 7965 7964 7962 ] final  -60.83 input  175.53 | X-H torsion
[ 8008 7997 7996 7995 ] final  113.25 input   59.86 | X-H torsion
[ 10167 10162 10161 10158 ] final  113.12 input  -65.29 | X-H torsion
[ 10718 10713 10712 10709 ] final   70.85 input   66.30 | X-H torsion
[ 10763 10752 10751 10750 ] final  -32.93 input  -60.55 | X-H torsion
[ 11005 11000 10999 10996 ] final -106.34 input  -57.11 | X-H torsion

> <Gold.Protein.ActiveResidues>
 VAL166  LYS551  ARG553  GLY616  TRP617  ASP618  TYR619  PRO620  LYS621  CYS622 
 ASP623  PHE694  ASN695  SER759  ASP760  ASP761  ALA762  ILE779  LEU786  VAL792 
 PHE793  MET794  SER795  GLU796  ALA797  LYS798  CYS799  TRP800  GLU811  SER814 

> <Gold.Protein.RotatedAtoms>
  152.5445  134.1084  159.8347 H   0  0  0  0  0  0  0  0  0  0  0  0  # atno 6907 bound_to 6896
  151.1153  133.5135  159.2611 H   0  0  0  0  0  0  0  0  0  0  0  0  # atno 6908 bound_to 6896
  151.1838  135.0382  159.8858 H   0  0  0  0  0  0  0  0  0  0  0  0  # atno 6909 bound_to 6896
  145.8108  140.8600  143.0183 H   0  0  0  0  0  0  0  0  0  0  0  0  # atno 7974 bound_to 7965
  156.2246  140.2983  156.0035 H   0  0  0  0  0  0  0  0  0  0  0  0  # atno 8008 bound_to 7997
  155.2391  140.0421  157.2989 H   0  0  0  0  0  0  0  0  0  0  0  0  # atno 8009 bound_to 7997
  154.5895  140.2397  155.7949 H   0  0  0  0  0  0  0  0  0  0  0  0  # atno 8010 bound_to 7997
  139.6484  144.7127  151.2096 H   0  0  0  0  0  0  0  0  0  0  0  0  # atno 10167 bound_to 10162
  157.6421  130.9498  150.0707 H   0  0  0  0  0  0  0  0  0  0  0  0  # atno 10718 bound_to 10713
  153.8218  135.6873  153.4826 H   0  0  0  0  0  0  0  0  0  0  0  0  # atno 10763 bound_to 10752
  153.1564  135.4597  154.9709 H   0  0  0  0  0  0  0  0  0  0  0  0  # atno 10764 bound_to 10752
  154.7924  135.3306  154.7689 H   0  0  0  0  0  0  0  0  0  0  0  0  # atno 10765 bound_to 10752
  141.1009  133.8885  157.1844 H   0  0  0  0  0  0  0  0  0  0  0  0  # atno 11005 bound_to 11000
  144.6757  140.0392  143.7481 LP  0  0  0  0  0  0  0  0  0  0  0  0  # atno 17320 bound_to 7965
  145.9779  139.2919  143.1059 LP  0  0  0  0  0  0  0  0  0  0  0  0  # atno 17321 bound_to 7965
  140.7526  143.6191  150.8531 LP  0  0  0  0  0  0  0  0  0  0  0  0  # atno 17342 bound_to 10162
  139.9836  143.5924  152.2934 LP  0  0  0  0  0  0  0  0  0  0  0  0  # atno 17343 bound_to 10162
  156.1712  130.3646  149.9162 LP  0  0  0  0  0  0  0  0  0  0  0  0  # atno 17370 bound_to 10713
  156.7137  130.8980  151.3612 LP  0  0  0  0  0  0  0  0  0  0  0  0  # atno 17371 bound_to 10713
  139.9861  135.0081  156.9865 LP  0  0  0  0  0  0  0  0  0  0  0  0  # atno 17394 bound_to 11000
  140.5023  134.1085  155.7253 LP  0  0  0  0  0  0  0  0  0  0  0  0  # atno 17395 bound_to 11000

$$$$
