AV-unprocessed.smi:3157|AV-procd|sdf|12037|dock5
  -GOLD-   2272017453D 1   1.00000     0.00000
 Structure written by MMmdl.
 40 41  0  0  0  0  0  0  0  0  2 V2000
  148.7057  140.8206  157.2971 C   0  0  0  0  0  0  0  0  0  0  0  0
  150.1593  141.3005  157.1206 C   0  0  2  0  0  0  0  0  0  0  0  0
  150.2872  142.6977  157.5983 N   0  3  0  0  0  0  0  0  0  0  0  0
  151.6712  143.1839  157.7745 C   0  0  0  0  0  0  0  0  0  0  0  0
  151.9015  143.6853  159.2090 C   0  0  0  0  0  0  0  0  0  0  0  0
  151.6014  142.6321  160.2780 C   0  0  0  0  0  0  0  0  0  0  0  0
  151.4067  143.4260  161.5741 C   0  0  0  0  0  0  0  0  0  0  0  0
  151.0064  144.8476  161.1510 C   0  0  0  0  0  0  0  0  0  0  0  0
  150.9995  144.8542  159.6181 C   0  0  0  0  0  0  0  0  0  0  0  0
  150.6458  141.2023  155.6510 C   0  0  2  0  0  0  0  0  0  0  0  0
  149.6137  141.7048  154.6240 C   0  0  0  0  0  0  0  0  0  0  0  0
  151.0367  139.8340  155.3282 N   0  0  0  0  0  0  0  0  0  0  0  0
  151.9873  139.0373  155.9360 C   0  0  0  0  0  0  0  0  0  0  0  0
  152.0201  137.8517  155.2598 C   0  0  0  0  0  0  0  0  0  0  0  0
  151.0492  138.0205  154.2341 C   0  0  0  0  0  0  0  0  0  0  0  0
  150.4711  139.2101  154.2712 N   0  0  0  0  0  0  0  0  0  0  0  0
  148.5959  139.7670  157.0419 H   0  0  0  0  0  0  0  0  0  0  0  0
  148.0214  141.3899  156.6671 H   0  0  0  0  0  0  0  0  0  0  0  0
  148.3686  140.9248  158.3281 H   0  0  0  0  0  0  0  0  0  0  0  0
  150.8085  140.6703  157.7309 H   0  0  0  0  0  0  0  0  0  0  0  0
  149.8479  143.2936  156.9103 H   0  0  0  0  0  0  0  0  0  0  0  0
  152.3840  142.3957  157.5320 H   0  0  0  0  0  0  0  0  0  0  0  0
  151.8464  144.0001  157.0722 H   0  0  0  0  0  0  0  0  0  0  0  0
  152.9431  143.9917  159.3214 H   0  0  0  0  0  0  0  0  0  0  0  0
  150.6766  142.1068  160.0340 H   0  0  0  0  0  0  0  0  0  0  0  0
  152.3913  141.8852  160.3629 H   0  0  0  0  0  0  0  0  0  0  0  0
  150.6562  142.9632  162.2160 H   0  0  0  0  0  0  0  0  0  0  0  0
  152.3402  143.4599  162.1371 H   0  0  0  0  0  0  0  0  0  0  0  0
  150.0337  145.1335  161.5528 H   0  0  0  0  0  0  0  0  0  0  0  0
  151.7376  145.5638  161.5278 H   0  0  0  0  0  0  0  0  0  0  0  0
  151.3355  145.8069  159.2073 H   0  0  0  0  0  0  0  0  0  0  0  0
  149.9826  144.6830  159.2618 H   0  0  0  0  0  0  0  0  0  0  0  0
  151.5328  141.8304  155.5439 H   0  0  0  0  0  0  0  0  0  0  0  0
  149.4385  142.7759  154.7202 H   0  0  0  0  0  0  0  0  0  0  0  0
  148.6548  141.1981  154.7362 H   0  0  0  0  0  0  0  0  0  0  0  0
  149.9625  141.5333  153.6048 H   0  0  0  0  0  0  0  0  0  0  0  0
  152.5562  139.3750  156.7898 H   0  0  0  0  0  0  0  0  0  0  0  0
  152.6442  136.9946  155.4653 H   0  0  0  0  0  0  0  0  0  0  0  0
  150.7530  137.3213  153.4660 H   0  0  0  0  0  0  0  0  0  0  0  0
  149.7827  142.7942  158.4679 H   0  0  0  0  0  0  0  0  0  0  0  0
  1  2  1  0  0  0  0
  1 17  1  0  0  0  0
  1 18  1  0  0  0  0
  1 19  1  0  0  0  0
  2  3  1  0  0  0  0
  2 10  1  0  0  0  0
  2 20  1  0  0  0  0
  3  4  1  0  0  0  0
  3 21  1  0  0  0  0
  3 40  1  0  0  0  0
  4  5  1  0  0  0  0
  4 22  1  0  0  0  0
  4 23  1  0  0  0  0
  5  9  1  0  0  0  0
  5  6  1  0  0  0  0
  5 24  1  0  0  0  0
  6  7  1  0  0  0  0
  6 25  1  0  0  0  0
  6 26  1  0  0  0  0
  7  8  1  0  0  0  0
  7 27  1  0  0  0  0
  7 28  1  0  0  0  0
  8  9  1  0  0  0  0
  8 29  1  0  0  0  0
  8 30  1  0  0  0  0
  9 31  1  0  0  0  0
  9 32  1  0  0  0  0
 10 11  1  0  0  0  0
 10 12  1  0  0  0  0
 10 33  1  0  0  0  0
 11 34  1  0  0  0  0
 11 35  1  0  0  0  0
 11 36  1  0  0  0  0
 12 16  1  0  0  0  0
 12 13  1  0  0  0  0
 13 14  2  0  0  0  0
 13 37  1  0  0  0  0
 14 15  1  0  0  0  0
 14 38  1  0  0  0  0
 15 16  2  0  0  0  0
 15 39  1  0  0  0  0
M  CHG  1   3   1
M  END
> <s_m_source_file>
AV-unprocessed.smi

> <i_m_source_file_index>
3157

> <i_lp_mmshare_version>
43012

> <i_f3d_flags>
0

> <s_epik_input>
bjFbY0hdW2NIXVtjSF1uMVtDQEBIXShbQ0gzXSlbQ0BIXShbQ0gzXSlbTkhdW0NIMl1bQ0hdMltDSDJdW0NIMl1bQ0gyXVtDSDJdMg==

> <s_epik_cmdline>
J2VwaWtfcHl0aG9uJywgJy1waCcsICc3LjAnLCAnLXRuJywgJzgnLCAnLW1hJywgJzIwMCcsICctbWV0YWxfYmluZGluZycsICctaW1hZScsICc8aW5maWxlLm1hZT4nLCAnLW9tYWUnLCAnPG91dGZpbGUubWFlPic=

> <r_lp_tautomer_probability>
1

> <r_epik_Ionization_Penalty>
0.00132192

> <r_epik_Ionization_Penalty_Charging>
0.0013111

> <r_epik_Ionization_Penalty_Neutral>
1.08112e-05

> <r_epik_State_Penalty>
-0

> <r_epik_Charging_Adjusted_Penalty>
0.0013111

> <i_epik_Tot_Q>
1

> <i_epik_Tot_abs_Q>
1

> <r_epik_Metal_State_Penalty>
-0

> <b_epik_Metal_Only>
0

> <s_lp_Force_Field>
OPLS_2005

> <r_lp_Energy>
31.0944

> <b_lp_Chiralities_Consistent>
1

> <s_lp_Variant>
AV-unprocessed.smi:3157-1

> <Gold.Version>
5.8.1

> <Gold.Id.Protein>
6NUR|6NUR_protein|mol2

> <Gold.PLP.Fitness>
50.6036

> <Gold.PLP.PLP>
-42.5193

> <Gold.PLP.part.hbond>
-1.0217

> <Gold.PLP.part.metal>
0.0000

> <Gold.PLP.part.buried>
-1.7523

> <Gold.PLP.part.nonpolar>
-39.9190

> <Gold.PLP.part.repulsive>
0.1850

> <Gold.PLP.ligand.clash>
0.0000

> <Gold.PLP.ligand.torsion>
0.8188

> <Gold.PLP.Chemscore.Hbond>
2.0000

> <Gold.PLP.Chemscore.CHOScore>
1.1964

> <Gold.PLP.Chemscore.Metal>
0.0000

> <Gold.Chemscore.Hbonds>
donor molecule, donor type, donor heavy atom, donor atom, acceptor molecule, acceptor atom, score
      L1  H     3    21       P1  8028  1.56
      L1  C    15    39       P1  7948  0.34
      L1  C    15    39       P1  7949  0.79

> <Gold.PLP.Chemscore.Internal.Correction>
0.1327

> <Gold.Rescore>
     Score         DG    S(hbond)    S(metal)    S(lipo)     H(rot)  DE(clash)    DE(int)     intcor
     17.33     -18.60       0.98        0.00     117.10       1.50       0.16       1.11       ----

> <Gold.Chemscore.Fitness>
17.3334

> <Gold.Chemscore.DG>
-18.6013

> <Gold.Chemscore.ZeroCoef>
-5.4800

> <Gold.Chemscore.Hbond>
0.9799

> <Gold.Chemscore.Metal>
0.0000

> <Gold.Chemscore.Lipo>
117.0966

> <Gold.Chemscore.Internal_Hbond>
0.0000

> <Gold.Chemscore.DEClash>
0.1574

> <Gold.Chemscore.DEInternal>
1.1105

> <Gold.Chemscore.Rot>
1.5047

> <Gold.Chemscore.Internal.Correction>
   9.000000E+99

> <Gold.Chemscore.Hbonds>
donor molecule, donor type, donor heavy atom, donor atom, acceptor molecule, acceptor atom, score
      L1  H     3    21       P1  8028  0.77

> <Gold.Chemscore.Hbond.Weighted>
-3.2730

> <Gold.Chemscore.Metal.Weighted>
-0.0000

> <Gold.Chemscore.Lipo.Weighted>
-13.7003

> <Gold.Chemscore.Internal_Hbond.Weighted>
0.0000

> <Gold.Chemscore.DEClash.Weighted>
0.1574

> <Gold.Chemscore.DEInternal.Weighted>
1.1105

> <Gold.Chemscore.Rot.Weighted>
3.8520

> <Gold.Chemscore.Internal.Correction.Weighted>
   9.000000E+99

> <Gold.Protein.RotatedTorsions>
[ 6907 6896 6895 6894 ] final   -8.89 input  -60.11 | X-H torsion
[ 7974 7965 7964 7962 ] final   20.08 input  175.53 | X-H torsion
[ 8008 7997 7996 7995 ] final  137.27 input   59.86 | X-H torsion
[ 10167 10162 10161 10158 ] final  -25.76 input  -65.29 | X-H torsion
[ 10718 10713 10712 10709 ] final  156.43 input   66.30 | X-H torsion
[ 10763 10752 10751 10750 ] final   75.65 input  -60.55 | X-H torsion
[ 11005 11000 10999 10996 ] final -112.51 input  -57.11 | X-H torsion

> <Gold.Protein.ActiveResidues>
 VAL166  LYS551  ARG553  GLY616  TRP617  ASP618  TYR619  PRO620  LYS621  CYS622 
 ASP623  PHE694  ASN695  SER759  ASP760  ASP761  ALA762  ILE779  LEU786  VAL792 
 PHE793  MET794  SER795  GLU796  ALA797  LYS798  CYS799  TRP800  GLU811  SER814 

> <Gold.Protein.RotatedAtoms>
  151.4265  135.1004  159.9629 H   0  0  0  0  0  0  0  0  0  0  0  0  # atno 6907 bound_to 6896
  152.4971  133.8658  159.7283 H   0  0  0  0  0  0  0  0  0  0  0  0  # atno 6908 bound_to 6896
  150.9185  133.6851  159.2865 H   0  0  0  0  0  0  0  0  0  0  0  0  # atno 6909 bound_to 6896
  146.2125  139.8221  142.8677 H   0  0  0  0  0  0  0  0  0  0  0  0  # atno 7974 bound_to 7965
  156.3002  140.2423  156.3882 H   0  0  0  0  0  0  0  0  0  0  0  0  # atno 8008 bound_to 7997
  154.8638  140.0419  157.1701 H   0  0  0  0  0  0  0  0  0  0  0  0  # atno 8009 bound_to 7997
  154.8868  140.2957  155.5397 H   0  0  0  0  0  0  0  0  0  0  0  0  # atno 8010 bound_to 7997
  140.7285  143.4237  151.0911 H   0  0  0  0  0  0  0  0  0  0  0  0  # atno 10167 bound_to 10162
  157.2050  131.0685  151.2003 H   0  0  0  0  0  0  0  0  0  0  0  0  # atno 10718 bound_to 10713
  153.0669  135.4981  154.8220 H   0  0  0  0  0  0  0  0  0  0  0  0  # atno 10763 bound_to 10752
  154.6967  135.2994  154.9403 H   0  0  0  0  0  0  0  0  0  0  0  0  # atno 10764 bound_to 10752
  154.0140  135.6750  153.4820 H   0  0  0  0  0  0  0  0  0  0  0  0  # atno 10765 bound_to 10752
  141.0671  133.9441  157.2558 H   0  0  0  0  0  0  0  0  0  0  0  0  # atno 11005 bound_to 11000
  145.3085  141.0213  143.3568 LP  0  0  0  0  0  0  0  0  0  0  0  0  # atno 17320 bound_to 7965
  144.8953  139.4720  143.6658 LP  0  0  0  0  0  0  0  0  0  0  0  0  # atno 17321 bound_to 7965
  139.7885  143.8252  152.3148 LP  0  0  0  0  0  0  0  0  0  0  0  0  # atno 17342 bound_to 10162
  139.8228  144.7288  150.9551 LP  0  0  0  0  0  0  0  0  0  0  0  0  # atno 17343 bound_to 10162
  157.3729  130.7190  149.6577 LP  0  0  0  0  0  0  0  0  0  0  0  0  # atno 17370 bound_to 10713
  155.9696  130.4194  150.4372 LP  0  0  0  0  0  0  0  0  0  0  0  0  # atno 17371 bound_to 10713
  139.9487  135.0179  156.8928 LP  0  0  0  0  0  0  0  0  0  0  0  0  # atno 17394 bound_to 11000
  140.5751  134.0406  155.7444 LP  0  0  0  0  0  0  0  0  0  0  0  0  # atno 17395 bound_to 11000

$$$$
