AV-unprocessed.smi:1539|AV-procd|sdf|6196|dock1
  -GOLD-   22720 6363D 1   1.00000     0.00000
 Structure written by MMmdl.
 42 43  0  0  0  0  0  0  0  0  2 V2000
  149.4434  136.6660  156.7003 C   0  0  0  0  0  0  0  0  0  0  0  0
  148.8054  137.9012  156.0601 C   0  0  0  0  0  0  0  0  0  0  0  0
  147.7666  138.3400  156.5543 O   0  0  0  0  0  0  0  0  0  0  0  0
  149.3894  138.4611  154.9723 N   0  0  0  0  0  0  0  0  0  0  0  0
  150.6553  137.9465  154.4282 C   0  0  0  0  0  0  0  0  0  0  0  0
  151.8724  138.5730  155.1416 C   0  0  0  0  0  0  0  0  0  0  0  0
  151.9160  140.1148  155.0500 C   0  0  0  0  0  0  0  0  0  0  0  0
  150.7370  140.7300  155.6893 N   0  0  0  0  0  0  0  0  0  0  0  0
  150.6177  140.9888  157.0178 C   0  0  0  0  0  0  0  0  0  0  0  0
  149.5415  141.2273  157.5679 O   0  0  0  0  0  0  0  0  0  0  0  0
  151.7728  140.9466  157.7050 N   0  0  0  0  0  0  0  0  0  0  0  0
  151.8999  141.1523  159.1424 C   0  0  0  0  0  0  0  0  0  0  0  0
  153.0324  142.1381  159.4727 C   0  0  0  0  0  0  0  0  0  0  0  0
  152.5112  143.4140  159.9641 N   0  0  0  0  0  0  0  0  0  0  0  0
  152.2743  144.5489  159.2322 C   0  0  0  0  0  0  0  0  0  0  0  0
  151.7877  145.4842  160.1088 C   0  0  0  0  0  0  0  0  0  0  0  0
  151.7482  144.8808  161.3373 N   0  3  0  0  0  0  0  0  0  0  0  0
  152.1871  143.6207  161.2469 C   0  0  0  0  0  0  0  0  0  0  0  0
  149.6239  140.9738  154.7534 C   0  0  0  0  0  0  0  0  0  0  0  0
  148.9000  139.6772  154.2986 C   0  0  0  0  0  0  0  0  0  0  0  0
  149.5978  135.8775  155.9635 H   0  0  0  0  0  0  0  0  0  0  0  0
  148.8004  136.2648  157.4843 H   0  0  0  0  0  0  0  0  0  0  0  0
  150.4022  136.9197  157.1527 H   0  0  0  0  0  0  0  0  0  0  0  0
  150.6972  136.8592  154.5113 H   0  0  0  0  0  0  0  0  0  0  0  0
  150.7204  138.1490  153.3586 H   0  0  0  0  0  0  0  0  0  0  0  0
  151.8842  138.2620  156.1868 H   0  0  0  0  0  0  0  0  0  0  0  0
  152.7838  138.1675  154.7017 H   0  0  0  0  0  0  0  0  0  0  0  0
  152.8414  140.4926  155.4869 H   0  0  0  0  0  0  0  0  0  0  0  0
  151.9683  140.4065  154.0003 H   0  0  0  0  0  0  0  0  0  0  0  0
  152.6182  140.7354  157.1945 H   0  0  0  0  0  0  0  0  0  0  0  0
  150.9516  141.5051  159.5517 H   0  0  0  0  0  0  0  0  0  0  0  0
  152.0974  140.1862  159.6079 H   0  0  0  0  0  0  0  0  0  0  0  0
  153.7019  141.7238  160.2281 H   0  0  0  0  0  0  0  0  0  0  0  0
  153.6367  142.3495  158.5893 H   0  0  0  0  0  0  0  0  0  0  0  0
  152.4644  144.6041  158.1696 H   0  0  0  0  0  0  0  0  0  0  0  0
  151.4749  146.5069  159.9542 H   0  0  0  0  0  0  0  0  0  0  0  0
  152.2642  142.9113  162.0518 H   0  0  0  0  0  0  0  0  0  0  0  0
  148.8871  141.6573  155.1772 H   0  0  0  0  0  0  0  0  0  0  0  0
  150.0028  141.5033  153.8784 H   0  0  0  0  0  0  0  0  0  0  0  0
  149.0347  139.5613  153.2226 H   0  0  0  0  0  0  0  0  0  0  0  0
  147.8227  139.7994  154.4077 H   0  0  0  0  0  0  0  0  0  0  0  0
  151.4329  145.3222  162.1922 H   0  0  0  0  0  0  0  0  0  0  0  0
  1  2  1  0  0  0  0
  1 21  1  0  0  0  0
  1 22  1  0  0  0  0
  1 23  1  0  0  0  0
  2  3  2  0  0  0  0
  2  4  1  0  0  0  0
  4 20  1  0  0  0  0
  4  5  1  0  0  0  0
  5  6  1  0  0  0  0
  5 24  1  0  0  0  0
  5 25  1  0  0  0  0
  6  7  1  0  0  0  0
  6 26  1  0  0  0  0
  6 27  1  0  0  0  0
  7  8  1  0  0  0  0
  7 28  1  0  0  0  0
  7 29  1  0  0  0  0
  8  9  1  0  0  0  0
  8 19  1  0  0  0  0
  9 10  2  0  0  0  0
  9 11  1  0  0  0  0
 11 12  1  0  0  0  0
 11 30  1  0  0  0  0
 12 13  1  0  0  0  0
 12 31  1  0  0  0  0
 12 32  1  0  0  0  0
 13 14  1  0  0  0  0
 13 33  1  0  0  0  0
 13 34  1  0  0  0  0
 14 18  1  0  0  0  0
 14 15  1  0  0  0  0
 15 16  2  0  0  0  0
 15 35  1  0  0  0  0
 16 17  1  0  0  0  0
 16 36  1  0  0  0  0
 17 18  2  0  0  0  0
 17 42  1  0  0  0  0
 18 37  1  0  0  0  0
 19 20  1  0  0  0  0
 19 38  1  0  0  0  0
 19 39  1  0  0  0  0
 20 40  1  0  0  0  0
 20 41  1  0  0  0  0
M  CHG  1  17   1
M  END
> <s_m_source_file>
AV-unprocessed.smi

> <i_m_source_file_index>
1539

> <i_lp_mmshare_version>
43012

> <i_f3d_flags>
0

> <s_epik_input>
W0NIM11DKD1PKU4xW0NIMl1bQ0gyXVtDSDJdTihbQ0gyXVtDSDJdMSlDKD1PKVtOSF1bQ0gyXVtDSDJdbjJbY0hdW2NIXW5bY0hdMg==

> <s_epik_cmdline>
J2VwaWtfcHl0aG9uJywgJy1waCcsICc3LjAnLCAnLXRuJywgJzgnLCAnLW1hJywgJzIwMCcsICctbWV0YWxfYmluZGluZycsICctaW1hZScsICc8aW5maWxlLm1hZT4nLCAnLW9tYWUnLCAnPG91dGZpbGUubWFlPic=

> <r_lp_tautomer_probability>
1

> <r_epik_Ionization_Penalty>
0.254079

> <r_epik_Ionization_Penalty_Charging>
0

> <r_epik_Ionization_Penalty_Neutral>
0.254079

> <r_epik_State_Penalty>
0.245493

> <r_epik_Charging_Adjusted_Penalty>
0.245493

> <i_epik_Tot_Q>
1

> <i_epik_Tot_abs_Q>
1

> <r_epik_Metal_State_Penalty>
0.535648

> <b_epik_Metal_Only>
0

> <s_lp_Force_Field>
OPLS_2005

> <r_lp_Energy>
43.2206

> <b_lp_Chiralities_Consistent>
1

> <s_lp_Variant>
AV-unprocessed.smi:1539-1

> <Gold.Version>
5.8.1

> <Gold.Id.Protein>
6NUR|6NUR_protein|mol2

> <Gold.PLP.Fitness>
40.2048

> <Gold.PLP.PLP>
-41.8833

> <Gold.PLP.part.hbond>
-1.0000

> <Gold.PLP.part.metal>
0.0000

> <Gold.PLP.part.buried>
-0.4681

> <Gold.PLP.part.nonpolar>
-40.0895

> <Gold.PLP.part.repulsive>
0.2126

> <Gold.PLP.ligand.clash>
0.0000

> <Gold.PLP.ligand.torsion>
0.8497

> <Gold.PLP.Chemscore.Hbond>
0.0000

> <Gold.PLP.Chemscore.CHOScore>
0.0000

> <Gold.PLP.Chemscore.Metal>
0.0000

> <Gold.PLP.Chemscore.Internal.Correction>
0.0209

> <Gold.Rescore>
     Score         DG    S(hbond)    S(metal)    S(lipo)     H(rot)  DE(clash)    DE(int)     intcor
      9.64     -10.65       0.00        0.00      81.46       1.70       0.15       0.86       ----

> <Gold.Chemscore.Fitness>
9.6379

> <Gold.Chemscore.DG>
-10.6500

> <Gold.Chemscore.ZeroCoef>
-5.4800

> <Gold.Chemscore.Hbond>
0.0000

> <Gold.Chemscore.Metal>
0.0000

> <Gold.Chemscore.Lipo>
81.4642

> <Gold.Chemscore.Internal_Hbond>
0.0000

> <Gold.Chemscore.DEClash>
0.1501

> <Gold.Chemscore.DEInternal>
0.8620

> <Gold.Chemscore.Rot>
1.7036

> <Gold.Chemscore.Internal.Correction>
   9.000000E+99

> <Gold.Chemscore.Hbond.Weighted>
-0.0000

> <Gold.Chemscore.Metal.Weighted>
-0.0000

> <Gold.Chemscore.Lipo.Weighted>
-9.5313

> <Gold.Chemscore.Internal_Hbond.Weighted>
0.0000

> <Gold.Chemscore.DEClash.Weighted>
0.1501

> <Gold.Chemscore.DEInternal.Weighted>
0.8620

> <Gold.Chemscore.Rot.Weighted>
4.3613

> <Gold.Chemscore.Internal.Correction.Weighted>
   9.000000E+99

> <Gold.Protein.RotatedTorsions>
[ 6907 6896 6895 6894 ] final -172.49 input  -60.11 | X-H torsion
[ 7974 7965 7964 7962 ] final  -79.23 input  175.53 | X-H torsion
[ 8008 7997 7996 7995 ] final   32.00 input   59.86 | X-H torsion
[ 10167 10162 10161 10158 ] final  113.26 input  -65.29 | X-H torsion
[ 10718 10713 10712 10709 ] final   53.53 input   66.30 | X-H torsion
[ 10763 10752 10751 10750 ] final   77.48 input  -60.55 | X-H torsion
[ 11005 11000 10999 10996 ] final -113.80 input  -57.11 | X-H torsion

> <Gold.Protein.ActiveResidues>
 VAL166  LYS551  ARG553  GLY616  TRP617  ASP618  TYR619  PRO620  LYS621  CYS622 
 ASP623  PHE694  ASN695  SER759  ASP760  ASP761  ALA762  ILE779  LEU786  VAL792 
 PHE793  MET794  SER795  GLU796  ALA797  LYS798  CYS799  TRP800  GLU811  SER814 

> <Gold.Protein.RotatedAtoms>
  151.5408  133.3433  159.2934 H   0  0  0  0  0  0  0  0  0  0  0  0  # atno 6907 bound_to 6896
  150.8537  134.7872  159.7039 H   0  0  0  0  0  0  0  0  0  0  0  0  # atno 6908 bound_to 6896
  152.4576  134.5265  159.9850 H   0  0  0  0  0  0  0  0  0  0  0  0  # atno 6909 bound_to 6896
  145.5760  140.9457  143.1370 H   0  0  0  0  0  0  0  0  0  0  0  0  # atno 7974 bound_to 7965
  155.1154  140.3243  155.4511 H   0  0  0  0  0  0  0  0  0  0  0  0  # atno 8008 bound_to 7997
  156.2678  140.2036  156.6226 H   0  0  0  0  0  0  0  0  0  0  0  0  # atno 8009 bound_to 7997
  154.6724  140.0535  157.0166 H   0  0  0  0  0  0  0  0  0  0  0  0  # atno 8010 bound_to 7997
  139.6474  144.7127  151.2115 H   0  0  0  0  0  0  0  0  0  0  0  0  # atno 10167 bound_to 10162
  157.5176  130.8543  149.8515 H   0  0  0  0  0  0  0  0  0  0  0  0  # atno 10718 bound_to 10713
  153.0801  135.4913  154.8486 H   0  0  0  0  0  0  0  0  0  0  0  0  # atno 10763 bound_to 10752
  154.7140  135.3025  154.9155 H   0  0  0  0  0  0  0  0  0  0  0  0  # atno 10764 bound_to 10752
  153.9840  135.6786  153.4804 H   0  0  0  0  0  0  0  0  0  0  0  0  # atno 10765 bound_to 10752
  141.0592  133.9563  157.2699 H   0  0  0  0  0  0  0  0  0  0  0  0  # atno 11005 bound_to 11000
  144.7416  139.7434  143.7308 LP  0  0  0  0  0  0  0  0  0  0  0  0  # atno 17320 bound_to 7965
  146.1750  139.4917  142.9903 LP  0  0  0  0  0  0  0  0  0  0  0  0  # atno 17321 bound_to 7965
  140.7521  143.6207  150.8516 LP  0  0  0  0  0  0  0  0  0  0  0  0  # atno 17342 bound_to 10162
  139.9852  143.5908  152.2929 LP  0  0  0  0  0  0  0  0  0  0  0  0  # atno 17343 bound_to 10162
  156.0331  130.3759  150.1634 LP  0  0  0  0  0  0  0  0  0  0  0  0  # atno 17370 bound_to 10713
  156.9823  130.9868  151.3434 LP  0  0  0  0  0  0  0  0  0  0  0  0  # atno 17371 bound_to 10713
  139.9417  135.0190  156.8728 LP  0  0  0  0  0  0  0  0  0  0  0  0  # atno 17394 bound_to 11000
  140.5903  134.0268  155.7497 LP  0  0  0  0  0  0  0  0  0  0  0  0  # atno 17395 bound_to 11000

$$$$
