AV-unprocessed.smi:314|AV-procd|sdf|2315|dock2
  -GOLD-   2262022223D 1   1.00000     0.00000
 Structure written by MMmdl.
 48 49  0  0  0  0  0  0  0  0  1 V2000
  146.8057  128.3649  152.6880 C   0  0  0  0  0  0  0  0  0  0  0  0
  147.7818  128.7825  153.6360 O   0  0  0  0  0  0  0  0  0  0  0  0
  148.1292  130.1174  153.6739 C   0  0  0  0  0  0  0  0  0  0  0  0
  147.3029  131.0482  153.0133 C   0  0  0  0  0  0  0  0  0  0  0  0
  147.6546  132.4108  153.0465 C   0  0  0  0  0  0  0  0  0  0  0  0
  148.8250  132.8017  153.7269 C   0  0  0  0  0  0  0  0  0  0  0  0
  149.1509  134.1839  153.7627 N   0  0  0  0  0  0  0  0  0  0  0  0
  149.8962  134.8357  154.6714 C   0  0  0  0  0  0  0  0  0  0  0  0
  150.4935  134.3080  155.6097 O   0  0  0  0  0  0  0  0  0  0  0  0
  149.9299  136.1522  154.4202 N   0  0  0  0  0  0  0  0  0  0  0  0
  150.6612  137.1345  155.2131 C   0  0  0  0  0  0  0  0  0  0  0  0
  150.7115  138.5085  154.5128 C   0  0  0  0  0  0  0  0  0  0  0  0
  151.4134  139.5999  155.3384 C   0  0  0  0  0  0  0  0  0  0  0  0
  152.5626  139.4022  155.7362 O   0  0  0  0  0  0  0  0  0  0  0  0
  150.7417  140.7431  155.6156 N   0  0  0  0  0  0  0  0  0  0  0  0
  151.2629  141.7888  156.4973 C   0  0  0  0  0  0  0  0  0  0  0  0
  150.3917  141.8216  157.7684 C   0  0  1  0  0  0  0  0  0  0  0  0
  150.8175  142.9350  158.7309 C   0  0  0  0  0  0  0  0  0  0  0  0
  149.0260  142.0466  157.4074 O   0  0  0  0  0  0  0  0  0  0  0  0
  148.4728  141.1249  156.4620 C   0  0  2  0  0  0  0  0  0  0  0  0
  148.2019  139.7528  157.1059 C   0  0  0  0  0  0  0  0  0  0  0  0
  149.3709  141.0643  155.2083 C   0  0  0  0  0  0  0  0  0  0  0  0
  149.5815  131.7930  154.3716 C   0  0  0  0  0  0  0  0  0  0  0  0
  149.2476  130.4855  154.3465 N   0  0  0  0  0  0  0  0  0  0  0  0
  146.6355  127.2937  152.7935 H   0  0  0  0  0  0  0  0  0  0  0  0
  147.1392  128.5477  151.6654 H   0  0  0  0  0  0  0  0  0  0  0  0
  145.8515  128.8688  152.8490 H   0  0  0  0  0  0  0  0  0  0  0  0
  146.4158  130.7224  152.4908 H   0  0  0  0  0  0  0  0  0  0  0  0
  147.0349  133.1429  152.5495 H   0  0  0  0  0  0  0  0  0  0  0  0
  148.8113  134.7322  152.9862 H   0  0  0  0  0  0  0  0  0  0  0  0
  149.4166  136.5001  153.6235 H   0  0  0  0  0  0  0  0  0  0  0  0
  150.2020  137.2180  156.2001 H   0  0  0  0  0  0  0  0  0  0  0  0
  151.6713  136.7544  155.3693 H   0  0  0  0  0  0  0  0  0  0  0  0
  151.2173  138.4131  153.5512 H   0  0  0  0  0  0  0  0  0  0  0  0
  149.6918  138.8365  154.3101 H   0  0  0  0  0  0  0  0  0  0  0  0
  152.3088  141.6327  156.7653 H   0  0  0  0  0  0  0  0  0  0  0  0
  151.2253  142.7506  155.9837 H   0  0  0  0  0  0  0  0  0  0  0  0
  150.4767  140.8695  158.2933 H   0  0  0  0  0  0  0  0  0  0  0  0
  151.8502  142.8005  159.0535 H   0  0  0  0  0  0  0  0  0  0  0  0
  150.1893  142.9404  159.6221 H   0  0  0  0  0  0  0  0  0  0  0  0
  150.7377  143.9153  158.2606 H   0  0  0  0  0  0  0  0  0  0  0  0
  147.5076  141.5350  156.1631 H   0  0  0  0  0  0  0  0  0  0  0  0
  147.6928  139.0905  156.4053 H   0  0  0  0  0  0  0  0  0  0  0  0
  147.5637  139.8558  157.9836 H   0  0  0  0  0  0  0  0  0  0  0  0
  149.1175  139.2515  157.4181 H   0  0  0  0  0  0  0  0  0  0  0  0
  149.3734  142.0374  154.7150 H   0  0  0  0  0  0  0  0  0  0  0  0
  148.9526  140.3754  154.4760 H   0  0  0  0  0  0  0  0  0  0  0  0
  150.4664  132.0220  154.9449 H   0  0  0  0  0  0  0  0  0  0  0  0
  1  2  1  0  0  0  0
  1 25  1  0  0  0  0
  1 26  1  0  0  0  0
  1 27  1  0  0  0  0
  2  3  1  0  0  0  0
  3 24  1  0  0  0  0
  3  4  2  0  0  0  0
  4  5  1  0  0  0  0
  4 28  1  0  0  0  0
  5  6  2  0  0  0  0
  5 29  1  0  0  0  0
  6  7  1  0  0  0  0
  6 23  1  0  0  0  0
  7  8  1  0  0  0  0
  7 30  1  0  0  0  0
  8  9  2  0  0  0  0
  8 10  1  0  0  0  0
 10 11  1  0  0  0  0
 10 31  1  0  0  0  0
 11 12  1  0  0  0  0
 11 32  1  0  0  0  0
 11 33  1  0  0  0  0
 12 13  1  0  0  0  0
 12 34  1  0  0  0  0
 12 35  1  0  0  0  0
 13 14  2  0  0  0  0
 13 15  1  0  0  0  0
 15 22  1  0  0  0  0
 15 16  1  0  0  0  0
 16 17  1  0  0  0  0
 16 36  1  0  0  0  0
 16 37  1  0  0  0  0
 17 18  1  0  0  0  0
 17 19  1  0  0  0  0
 17 38  1  0  0  0  0
 18 39  1  0  0  0  0
 18 40  1  0  0  0  0
 18 41  1  0  0  0  0
 19 20  1  0  0  0  0
 20 21  1  0  0  0  0
 20 22  1  0  0  0  0
 20 42  1  0  0  0  0
 21 43  1  0  0  0  0
 21 44  1  0  0  0  0
 21 45  1  0  0  0  0
 22 46  1  0  0  0  0
 22 47  1  0  0  0  0
 23 24  2  0  0  0  0
 23 48  1  0  0  0  0
M  END
> <s_m_source_file>
AV-unprocessed.smi

> <i_m_source_file_index>
314

> <i_lp_mmshare_version>
43012

> <i_f3d_flags>
0

> <s_epik_input>
W0NIM11PYzFbY0hdW2NIXWMoW2NIXW4xKVtOSF1DKD1PKVtOSF1bQ0gyXVtDSDJdQyg9TylOMltDSDJdW0NAQEhdKFtDSDNdKU9bQ0BASF0oW0NIM10pW0NIMl0y

> <s_epik_cmdline>
J2VwaWtfcHl0aG9uJywgJy1waCcsICc3LjAnLCAnLXRuJywgJzgnLCAnLW1hJywgJzIwMCcsICctbWV0YWxfYmluZGluZycsICctaW1hZScsICc8aW5maWxlLm1hZT4nLCAnLW9tYWUnLCAnPG91dGZpbGUubWFlPic=

> <r_lp_tautomer_probability>
1

> <r_epik_Ionization_Penalty>
8.55977e-05

> <r_epik_Ionization_Penalty_Charging>
0

> <r_epik_Ionization_Penalty_Neutral>
8.55977e-05

> <r_epik_State_Penalty>
-0

> <r_epik_Charging_Adjusted_Penalty>
0

> <i_epik_Tot_Q>
0

> <i_epik_Tot_abs_Q>
0

> <r_epik_Metal_State_Penalty>
-0

> <b_epik_Metal_Only>
0

> <s_lp_Force_Field>
OPLS_2005

> <r_lp_Energy>
24.1988

> <b_lp_Chiralities_Consistent>
1

> <s_lp_Variant>
AV-unprocessed.smi:314-3

> <Gold.Version>
5.8.1

> <Gold.Id.Protein>
6NUR|6NUR_protein|mol2

> <Gold.PLP.Fitness>
46.4872

> <Gold.PLP.PLP>
-38.7687

> <Gold.PLP.part.hbond>
-3.3786

> <Gold.PLP.part.metal>
0.0000

> <Gold.PLP.part.buried>
-3.9546

> <Gold.PLP.part.nonpolar>
-31.1032

> <Gold.PLP.part.repulsive>
0.3654

> <Gold.PLP.ligand.clash>
0.0622

> <Gold.PLP.ligand.torsion>
0.3803

> <Gold.PLP.Chemscore.Hbond>
2.8384

> <Gold.PLP.Chemscore.CHOScore>
0.0000

> <Gold.PLP.Chemscore.Metal>
0.0000

> <Gold.Chemscore.Hbonds>
donor molecule, donor type, donor heavy atom, donor atom, acceptor molecule, acceptor atom, score
      L1  H     7    30       P1  7948  0.80
      L1  H    10    31       P1  7948  0.91
      P1  H  7997  8010       L1    14  1.00

> <Gold.PLP.Chemscore.Internal.Correction>
0.0261

> <Gold.Rescore>
     Score         DG    S(hbond)    S(metal)    S(lipo)     H(rot)  DE(clash)    DE(int)     intcor
     15.34     -17.07       2.30        0.00      72.87       1.81       0.19       1.54       ----

> <Gold.Chemscore.Fitness>
15.3389

> <Gold.Chemscore.DG>
-17.0703

> <Gold.Chemscore.ZeroCoef>
-5.4800

> <Gold.Chemscore.Hbond>
2.3023

> <Gold.Chemscore.Metal>
0.0000

> <Gold.Chemscore.Lipo>
72.8702

> <Gold.Chemscore.Internal_Hbond>
0.0000

> <Gold.Chemscore.DEClash>
0.1889

> <Gold.Chemscore.DEInternal>
1.5424

> <Gold.Chemscore.Rot>
1.8067

> <Gold.Chemscore.Internal.Correction>
   9.000000E+99

> <Gold.Chemscore.Hbonds>
donor molecule, donor type, donor heavy atom, donor atom, acceptor molecule, acceptor atom, score
      L1  H     7    30       P1  7948  0.11
      L1  H    10    31       P1  7948  0.72
      P1  H  7997  8010       L1    14  0.96

> <Gold.Chemscore.Hbond.Weighted>
-7.6896

> <Gold.Chemscore.Metal.Weighted>
-0.0000

> <Gold.Chemscore.Lipo.Weighted>
-8.5258

> <Gold.Chemscore.Internal_Hbond.Weighted>
0.0000

> <Gold.Chemscore.DEClash.Weighted>
0.1889

> <Gold.Chemscore.DEInternal.Weighted>
1.5424

> <Gold.Chemscore.Rot.Weighted>
4.6252

> <Gold.Chemscore.Internal.Correction.Weighted>
   9.000000E+99

> <Gold.Protein.RotatedTorsions>
[ 6907 6896 6895 6894 ] final -112.24 input  -60.11 | X-H torsion
[ 7974 7965 7964 7962 ] final  130.40 input  175.53 | X-H torsion
[ 8008 7997 7996 7995 ] final   77.80 input   59.86 | X-H torsion
[ 10167 10162 10161 10158 ] final   60.70 input  -65.29 | X-H torsion
[ 10718 10713 10712 10709 ] final   67.94 input   66.30 | X-H torsion
[ 10763 10752 10751 10750 ] final  129.20 input  -60.55 | X-H torsion
[ 11005 11000 10999 10996 ] final   10.57 input  -57.11 | X-H torsion

> <Gold.Protein.ActiveResidues>
 VAL166  LYS551  ARG553  GLY616  TRP617  ASP618  TYR619  PRO620  LYS621  CYS622 
 ASP623  PHE694  ASN695  SER759  ASP760  ASP761  ALA762  ILE779  LEU786  VAL792 
 PHE793  MET794  SER795  GLU796  ALA797  LYS798  CYS799  TRP800  GLU811  SER814 

> <Gold.Protein.RotatedAtoms>
  150.7745  133.9118  159.3371 H   0  0  0  0  0  0  0  0  0  0  0  0  # atno 6907 bound_to 6896
  151.6996  135.0930  160.0258 H   0  0  0  0  0  0  0  0  0  0  0  0  # atno 6908 bound_to 6896
  152.3776  133.6464  159.6171 H   0  0  0  0  0  0  0  0  0  0  0  0  # atno 6909 bound_to 6896
  145.0183  139.4155  143.5210 H   0  0  0  0  0  0  0  0  0  0  0  0  # atno 7974 bound_to 7965
  155.8467  140.3460  155.5667 H   0  0  0  0  0  0  0  0  0  0  0  0  # atno 8008 bound_to 7997
  155.8082  140.0895  157.1938 H   0  0  0  0  0  0  0  0  0  0  0  0  # atno 8009 bound_to 7997
  154.4006  140.1453  156.3342 H   0  0  0  0  0  0  0  0  0  0  0  0  # atno 8010 bound_to 7997
  140.1628  144.4354  150.6700 H   0  0  0  0  0  0  0  0  0  0  0  0  # atno 10167 bound_to 10162
  157.6260  130.9347  150.0310 H   0  0  0  0  0  0  0  0  0  0  0  0  # atno 10718 bound_to 10713
  153.7380  135.3228  155.3298 H   0  0  0  0  0  0  0  0  0  0  0  0  # atno 10763 bound_to 10752
  154.8304  135.4538  154.1055 H   0  0  0  0  0  0  0  0  0  0  0  0  # atno 10764 bound_to 10752
  153.2222  135.6949  153.8068 H   0  0  0  0  0  0  0  0  0  0  0  0  # atno 10765 bound_to 10752
  140.5130  134.0633  155.7823 H   0  0  0  0  0  0  0  0  0  0  0  0  # atno 11005 bound_to 11000
  146.3481  139.9667  142.8711 LP  0  0  0  0  0  0  0  0  0  0  0  0  # atno 17320 bound_to 7965
  145.1929  140.9820  143.4200 LP  0  0  0  0  0  0  0  0  0  0  0  0  # atno 17321 bound_to 7965
  140.6632  143.2259  151.5806 LP  0  0  0  0  0  0  0  0  0  0  0  0  # atno 17342 bound_to 10162
  139.5373  144.2745  152.1278 LP  0  0  0  0  0  0  0  0  0  0  0  0  # atno 17343 bound_to 10162
  156.1432  130.3642  149.9550 LP  0  0  0  0  0  0  0  0  0  0  0  0  # atno 17370 bound_to 10713
  156.7586  130.9142  151.3640 LP  0  0  0  0  0  0  0  0  0  0  0  0  # atno 17371 bound_to 10713
  141.1375  133.9195  157.2400 LP  0  0  0  0  0  0  0  0  0  0  0  0  # atno 17394 bound_to 11000
  139.9648  135.0145  156.9358 LP  0  0  0  0  0  0  0  0  0  0  0  0  # atno 17395 bound_to 11000

$$$$
