#       Name:                AV-unprocessed.smi:48
#       Creating user name   scv26
#       Creation time:       Thu Mar 26 16:32:46 2020


#       File generated by GOLD software.
#

@<TRIPOS>MOLECULE
AV-unprocessed.smi:48
    41    43     1
SMALL
NO_CHARGES


@<TRIPOS>ATOM
      1 ****        -3.4675   1.4268  -1.9141 O.3            1 S1                 0.0000
      2 ****        -3.2234   0.0560  -1.6822 C.3            1 S1                 0.0000
      3 ****        -1.7637  -0.1486  -1.2422 C.3            1 S1                 0.0000
      4 ****        -1.6070   0.0820   0.1533 O.3            1 S1                 0.0000
      5 ****        -0.4294  -0.5186   0.6035 C.3            1 S1                 0.0000
      6 ****         0.6124   0.5463   0.7733 N.pl3          1 S1                 0.0000
      7 ****         0.6551   1.7954   0.2612 C.2            1 S1                 0.0000
      8 ****         1.7104   2.5485   0.5704 N.2            1 S1                 0.0000
      9 ****         2.4332   1.6916   1.3840 C.ar           1 S1                 0.0000
     10 ****         3.6641   1.8260   2.0709 C.ar           1 S1                 0.0000
     11 ****         4.5770   3.2877   1.9814 Cl             1 S1                 0.0000
     12 ****         4.1117   0.7777   2.8033 N.ar           1 S1                 0.0000
     13 ****         3.3834  -0.3449   2.8554 C.ar           1 S1                 0.0000
     14 ****         2.2134  -0.6169   2.2656 N.ar           1 S1                 0.0000
     15 ****         1.7667   0.4424   1.5283 C.ar           1 S1                 0.0000
     16 ****        -0.0276  -1.5843  -0.4458 C.3            1 S1                 0.0000
     17 ****         1.1643  -1.2818  -1.1518 O.3            1 S1                 0.0000
     18 ****        -1.2130  -1.5709  -1.4042 C.3            1 S1                 0.0000
     19 ****        -2.1739  -2.5368  -1.0177 O.3            1 S1                 0.0000
     20 ****        -1.1102   0.5314  -1.7922 H              1 S1                 0.0000
     21 ****        -0.5742  -0.9234   1.6059 H              1 S1                 0.0000
     22 ****         0.0982  -2.5518   0.0423 H              1 S1                 0.0000
     23 ****        -0.9236  -1.7801  -2.4351 H              1 S1                 0.0000
     24 ****        -4.3704   1.5319  -2.1727 H              1 S1                 0.0000
     25 ****        -3.9220  -0.3322  -0.9401 H              1 S1                 0.0000
     26 ****        -3.4125  -0.4718  -2.6174 H              1 S1                 0.0000
     27 ****        -0.1291   2.1779  -0.3754 H              1 S1                 0.0000
     28 ****         3.7972  -1.1405   3.4571 H              1 S1                 0.0000
     29 ****         1.0665  -0.4329  -1.5552 H              1 S1                 0.0000
     30 ****        -2.9075  -2.4870  -1.6112 H              1 S1                 0.0000
     31 ****        -2.8675   1.7576  -2.6425 LP             1 S1                 0.0000
     32 ****        -3.2937   1.9464  -1.0775 LP             1 S1                 0.0000
     33 ****        -2.3866  -0.3075   0.6437 LP             1 S1                 0.0000
     34 ****        -1.5638   1.0664   0.3242 LP             1 S1                 0.0000
     35 ****         1.9239   3.4842   0.2895 LP             1 S1                 0.0000
     36 ****         4.9773   0.8417   3.3000 LP             1 S1                 0.0000
     37 ****         1.7274  -1.4863   2.3537 LP             1 S1                 0.0000
     38 ****         1.3241  -1.9735  -1.8560 LP             1 S1                 0.0000
     39 ****         1.9375  -1.2669  -0.5177 LP             1 S1                 0.0000
     40 ****        -2.4821  -2.3506  -0.0847 LP             1 S1                 0.0000
     41 ****        -1.7687  -3.4501  -1.0588 LP             1 S1                 0.0000
@<TRIPOS>BOND
    1    1    2 1     
    2    1   24 1     
    3    2    3 1     
    4    2   25 1     
    5    2   26 1     
    6    3   20 1     
    7    3   18 1     
    8    3    4 1     
    9    4    5 1     
   10    5   21 1     
   11    5    6 1     
   12    5   16 1     
   13    6   15 1     
   14    6    7 1     
   15    7    8 2     
   16    7   27 1     
   17    8    9 1     
   18    9   15 ar    
   19    9   10 ar    
   20   10   11 1     
   21   10   12 ar    
   22   12   13 ar    
   23   13   14 ar    
   24   13   28 1     
   25   14   15 ar    
   26   16   22 1     
   27   16   17 1     
   28   16   18 1     
   29   17   29 1     
   30   18   23 1     
   31   18   19 1     
   32   19   30 1     
   33    1   31 1     
   34    1   32 1     
   35    4   33 1     
   36    4   34 1     
   37    8   35 1     
   38   12   36 1     
   39   14   37 1     
   40   17   38 1     
   41   17   39 1     
   42   19   40 1     
   43   19   41 1     
@<TRIPOS>SUBSTRUCTURE
      1 S1             1
@<TRIPOS>SET
LONE_PAIRS      STATIC     ATOMS    <user>   **** ""
11 31 32 33 34 35 36 37 38 39 40 41
DONOR_HYDROGENS      STATIC     ATOMS    <user>   **** ""
3 24 29 30
ATOM$BLUE        STATIC     ATOMS    COLORGROUP SYSTEM
11 31 32 33 34 35 36 37 38 39 40 41
ATOM$RED        STATIC     ATOMS    COLORGROUP SYSTEM
3 24 29 30
