AV-unprocessed.smi:652|AV-procd|sdf|3196|dock5
  -GOLD-   22720 0123D 1   1.00000     0.00000
 Structure written by MMmdl.
 47 48  0  0  0  0  0  0  0  0  1 V2000
  147.3121  134.5607  161.1155 C   0  0  0  0  0  0  0  0  0  0  0  0
  147.7495  136.0169  161.3398 C   0  0  0  0  0  0  0  0  0  0  0  0
  146.8856  136.7123  162.4001 C   0  0  0  0  0  0  0  0  0  0  0  0
  147.6797  136.7663  160.0892 N   0  0  0  0  0  0  0  0  0  0  0  0
  148.4454  136.5496  159.0084 C   0  0  0  0  0  0  0  0  0  0  0  0
  149.3234  135.6879  158.9601 O   0  0  0  0  0  0  0  0  0  0  0  0
  148.1761  137.4416  157.7924 C   0  0  0  0  0  0  0  0  0  0  0  0
  149.0322  137.0691  156.5635 C   0  0  0  0  0  0  0  0  0  0  0  0
  150.2070  137.9108  156.3246 N   0  0  0  0  0  0  0  0  0  0  0  0
  150.7697  137.7237  154.9902 C   0  0  0  0  0  0  0  0  0  0  0  0
  151.9859  138.6332  154.7528 C   0  0  0  0  0  0  0  0  0  0  0  0
  151.6117  139.9884  154.9716 O   0  0  0  0  0  0  0  0  0  0  0  0
  151.1169  140.2283  156.2871 C   0  0  1  0  0  0  0  0  0  0  0  0
  150.7519  141.7162  156.4246 C   0  0  0  0  0  0  0  0  0  0  0  0
  150.2706  142.0490  157.7608 N   0  0  0  0  0  0  0  0  0  0  0  0
  150.9255  143.0056  158.5501 C   0  0  0  0  0  0  0  0  0  0  0  0
  152.0212  143.7022  158.0020 C   0  0  0  0  0  0  0  0  0  0  0  0
  152.6634  144.6531  158.8140 C   0  0  0  0  0  0  0  0  0  0  0  0
  152.1618  144.8340  160.1156 C   0  0  0  0  0  0  0  0  0  0  0  0
  151.1084  144.1344  160.5935 N   0  0  0  0  0  0  0  0  0  0  0  0
  150.4995  143.2292  159.8191 N   0  0  0  0  0  0  0  0  0  0  0  0
  149.8908  139.3220  156.5141 C   0  0  0  0  0  0  0  0  0  0  0  0
  147.3572  133.9915  162.0443 H   0  0  0  0  0  0  0  0  0  0  0  0
  147.9580  134.0600  160.3934 H   0  0  0  0  0  0  0  0  0  0  0  0
  146.2896  134.5059  160.7406 H   0  0  0  0  0  0  0  0  0  0  0  0
  148.7802  136.0188  161.6990 H   0  0  0  0  0  0  0  0  0  0  0  0
  146.9398  136.1874  163.3543 H   0  0  0  0  0  0  0  0  0  0  0  0
  145.8379  136.7484  162.0994 H   0  0  0  0  0  0  0  0  0  0  0  0
  147.2199  137.7365  162.5694 H   0  0  0  0  0  0  0  0  0  0  0  0
  146.9839  137.4960  160.0355 H   0  0  0  0  0  0  0  0  0  0  0  0
  147.1160  137.4173  157.5376 H   0  0  0  0  0  0  0  0  0  0  0  0
  148.3889  138.4720  158.0785 H   0  0  0  0  0  0  0  0  0  0  0  0
  149.3416  136.0266  156.6488 H   0  0  0  0  0  0  0  0  0  0  0  0
  148.3858  137.1103  155.6855 H   0  0  0  0  0  0  0  0  0  0  0  0
  151.0753  136.6871  154.8499 H   0  0  0  0  0  0  0  0  0  0  0  0
  150.0102  137.9326  154.2351 H   0  0  0  0  0  0  0  0  0  0  0  0
  152.8082  138.3622  155.4168 H   0  0  0  0  0  0  0  0  0  0  0  0
  152.3489  138.5240  153.7310 H   0  0  0  0  0  0  0  0  0  0  0  0
  151.8892  139.9768  157.0168 H   0  0  0  0  0  0  0  0  0  0  0  0
  151.5879  142.3517  156.1300 H   0  0  0  0  0  0  0  0  0  0  0  0
  149.9420  141.9485  155.7328 H   0  0  0  0  0  0  0  0  0  0  0  0
  149.6614  141.3866  158.2182 H   0  0  0  0  0  0  0  0  0  0  0  0
  152.3585  143.5169  156.9928 H   0  0  0  0  0  0  0  0  0  0  0  0
  153.5074  145.2222  158.4536 H   0  0  0  0  0  0  0  0  0  0  0  0
  152.6135  145.5497  160.7865 H   0  0  0  0  0  0  0  0  0  0  0  0
  149.0908  139.6154  155.8322 H   0  0  0  0  0  0  0  0  0  0  0  0
  149.5112  139.4792  157.5244 H   0  0  0  0  0  0  0  0  0  0  0  0
  1  2  1  0  0  0  0
  1 23  1  0  0  0  0
  1 24  1  0  0  0  0
  1 25  1  0  0  0  0
  2  3  1  0  0  0  0
  2  4  1  0  0  0  0
  2 26  1  0  0  0  0
  3 27  1  0  0  0  0
  3 28  1  0  0  0  0
  3 29  1  0  0  0  0
  4  5  1  0  0  0  0
  4 30  1  0  0  0  0
  5  6  2  0  0  0  0
  5  7  1  0  0  0  0
  7  8  1  0  0  0  0
  7 31  1  0  0  0  0
  7 32  1  0  0  0  0
  8  9  1  0  0  0  0
  8 33  1  0  0  0  0
  8 34  1  0  0  0  0
  9 22  1  0  0  0  0
  9 10  1  0  0  0  0
 10 11  1  0  0  0  0
 10 35  1  0  0  0  0
 10 36  1  0  0  0  0
 11 12  1  0  0  0  0
 11 37  1  0  0  0  0
 11 38  1  0  0  0  0
 12 13  1  0  0  0  0
 13 14  1  0  0  0  0
 13 22  1  0  0  0  0
 13 39  1  0  0  0  0
 14 15  1  0  0  0  0
 14 40  1  0  0  0  0
 14 41  1  0  0  0  0
 15 16  1  0  0  0  0
 15 42  1  0  0  0  0
 16 21  1  0  0  0  0
 16 17  2  0  0  0  0
 17 18  1  0  0  0  0
 17 43  1  0  0  0  0
 18 19  2  0  0  0  0
 18 44  1  0  0  0  0
 19 20  1  0  0  0  0
 19 45  1  0  0  0  0
 20 21  2  0  0  0  0
 22 46  1  0  0  0  0
 22 47  1  0  0  0  0
M  END
> <s_m_source_file>
AV-unprocessed.smi

> <i_m_source_file_index>
652

> <i_lp_mmshare_version>
43012

> <i_f3d_flags>
0

> <s_epik_input>
W0NIM11bQ0hdKFtDSDNdKVtOSF1DKD1PKVtDSDJdW0NIMl1OMVtDSDJdW0NIMl1PW0NASF0oW0NIMl0xKVtDSDJdW05IXWMyW2NIXVtjSF1bY0hdbm4y

> <s_epik_cmdline>
J2VwaWtfcHl0aG9uJywgJy1waCcsICc3LjAnLCAnLXRuJywgJzgnLCAnLW1hJywgJzIwMCcsICctbWV0YWxfYmluZGluZycsICctaW1hZScsICc8aW5maWxlLm1hZT4nLCAnLW9tYWUnLCAnPG91dGZpbGUubWFlPic=

> <r_lp_tautomer_probability>
0.999978

> <r_epik_Ionization_Penalty>
0.428793

> <r_epik_Ionization_Penalty_Charging>
0

> <r_epik_Ionization_Penalty_Neutral>
0.428793

> <r_epik_State_Penalty>
0.437051

> <r_epik_Charging_Adjusted_Penalty>
0.437051

> <i_epik_Tot_Q>
0

> <i_epik_Tot_abs_Q>
0

> <r_epik_Metal_State_Penalty>
0.432371

> <b_epik_Metal_Only>
0

> <s_lp_Force_Field>
OPLS_2005

> <r_lp_Energy>
21.7245

> <b_lp_Chiralities_Consistent>
1

> <s_lp_Variant>
AV-unprocessed.smi:652-5

> <Gold.Version>
5.8.1

> <Gold.Id.Protein>
6NUR|6NUR_protein|mol2

> <Gold.PLP.Fitness>
48.4150

> <Gold.PLP.PLP>
-43.2109

> <Gold.PLP.part.hbond>
-2.7676

> <Gold.PLP.part.metal>
0.0000

> <Gold.PLP.part.buried>
-7.1515

> <Gold.PLP.part.nonpolar>
-34.1643

> <Gold.PLP.part.repulsive>
0.5369

> <Gold.PLP.ligand.clash>
0.0000

> <Gold.PLP.ligand.torsion>
0.4849

> <Gold.PLP.Chemscore.Hbond>
2.0000

> <Gold.PLP.Chemscore.CHOScore>
0.0000

> <Gold.PLP.Chemscore.Metal>
0.0000

> <Gold.Chemscore.Hbonds>
donor molecule, donor type, donor heavy atom, donor atom, acceptor molecule, acceptor atom, score
      P1  H  6896  6907       L1     6  1.00
      P1  H  7989  7998       L1    12  1.00

> <Gold.PLP.Chemscore.Internal.Correction>
0.1740

> <Gold.Rescore>
     Score         DG    S(hbond)    S(metal)    S(lipo)     H(rot)  DE(clash)    DE(int)     intcor
     17.54     -18.06       1.98        0.00      99.20       2.20       0.04       0.48       ----

> <Gold.Chemscore.Fitness>
17.5406

> <Gold.Chemscore.DG>
-18.0637

> <Gold.Chemscore.ZeroCoef>
-5.4800

> <Gold.Chemscore.Hbond>
1.9798

> <Gold.Chemscore.Metal>
0.0000

> <Gold.Chemscore.Lipo>
99.2008

> <Gold.Chemscore.Internal_Hbond>
0.0000

> <Gold.Chemscore.DEClash>
0.0440

> <Gold.Chemscore.DEInternal>
0.4791

> <Gold.Chemscore.Rot>
2.2013

> <Gold.Chemscore.Internal.Correction>
   9.000000E+99

> <Gold.Chemscore.Hbonds>
donor molecule, donor type, donor heavy atom, donor atom, acceptor molecule, acceptor atom, score
      P1  H  6896  6907       L1     6  1.00
      P1  H  7989  7998       L1    12  0.76

> <Gold.Chemscore.Hbond.Weighted>
-6.6126

> <Gold.Chemscore.Metal.Weighted>
-0.0000

> <Gold.Chemscore.Lipo.Weighted>
-11.6065

> <Gold.Chemscore.Internal_Hbond.Weighted>
0.0000

> <Gold.Chemscore.DEClash.Weighted>
0.0440

> <Gold.Chemscore.DEInternal.Weighted>
0.4791

> <Gold.Chemscore.Rot.Weighted>
5.6354

> <Gold.Chemscore.Internal.Correction.Weighted>
   9.000000E+99

> <Gold.Protein.RotatedTorsions>
[ 6907 6896 6895 6894 ] final  -71.47 input  -60.11 | X-H torsion
[ 7974 7965 7964 7962 ] final   15.73 input  175.53 | X-H torsion
[ 8008 7997 7996 7995 ] final  -80.57 input   59.86 | X-H torsion
[ 10167 10162 10161 10158 ] final   40.80 input  -65.29 | X-H torsion
[ 10718 10713 10712 10709 ] final   43.23 input   66.30 | X-H torsion
[ 10763 10752 10751 10750 ] final  175.09 input  -60.55 | X-H torsion
[ 11005 11000 10999 10996 ] final   26.75 input  -57.11 | X-H torsion

> <Gold.Protein.ActiveResidues>
 VAL166  LYS551  ARG553  GLY616  TRP617  ASP618  TYR619  PRO620  LYS621  CYS622 
 ASP623  PHE694  ASN695  SER759  ASP760  ASP761  ALA762  ILE779  LEU786  VAL792 
 PHE793  MET794  SER795  GLU796  ALA797  LYS798  CYS799  TRP800  GLU811  SER814 

> <Gold.Protein.RotatedAtoms>
  150.7211  134.5303  159.5696 H   0  0  0  0  0  0  0  0  0  0  0  0  # atno 6907 bound_to 6896
  152.2838  134.7796  160.0400 H   0  0  0  0  0  0  0  0  0  0  0  0  # atno 6908 bound_to 6896
  151.8434  133.3392  159.3687 H   0  0  0  0  0  0  0  0  0  0  0  0  # atno 6909 bound_to 6896
  146.2270  139.8851  142.8564 H   0  0  0  0  0  0  0  0  0  0  0  0  # atno 7974 bound_to 7965
  154.5896  140.0661  156.9220 H   0  0  0  0  0  0  0  0  0  0  0  0  # atno 8008 bound_to 7997
  155.2318  140.3338  155.4284 H   0  0  0  0  0  0  0  0  0  0  0  0  # atno 8009 bound_to 7997
  156.2247  140.1814  156.7377 H   0  0  0  0  0  0  0  0  0  0  0  0  # atno 8010 bound_to 7997
  140.3706  144.2110  150.6133 H   0  0  0  0  0  0  0  0  0  0  0  0  # atno 10167 bound_to 10162
  157.4136  130.7928  149.7452 H   0  0  0  0  0  0  0  0  0  0  0  0  # atno 10718 bound_to 10713
  154.4629  135.2768  155.1700 H   0  0  0  0  0  0  0  0  0  0  0  0  # atno 10763 bound_to 10752
  154.3480  135.6156  153.5632 H   0  0  0  0  0  0  0  0  0  0  0  0  # atno 10764 bound_to 10752
  152.9856  135.5804  154.4995 H   0  0  0  0  0  0  0  0  0  0  0  0  # atno 10765 bound_to 10752
  140.3336  134.2410  155.7699 H   0  0  0  0  0  0  0  0  0  0  0  0  # atno 11005 bound_to 11000
  145.2474  141.0031  143.3901 LP  0  0  0  0  0  0  0  0  0  0  0  0  # atno 17320 bound_to 7965
  144.9403  139.4197  143.6452 LP  0  0  0  0  0  0  0  0  0  0  0  0  # atno 17321 bound_to 7965
  140.5037  143.2310  151.8640 LP  0  0  0  0  0  0  0  0  0  0  0  0  # atno 17342 bound_to 10162
  139.4804  144.5030  151.9035 LP  0  0  0  0  0  0  0  0  0  0  0  0  # atno 17343 bound_to 10162
  155.9858  130.3980  150.3243 LP  0  0  0  0  0  0  0  0  0  0  0  0  # atno 17370 bound_to 10713
  157.1384  131.0290  151.2939 LP  0  0  0  0  0  0  0  0  0  0  0  0  # atno 17371 bound_to 10713
  141.2057  133.7853  157.0219 LP  0  0  0  0  0  0  0  0  0  0  0  0  # atno 17394 bound_to 11000
  140.0839  134.9632  157.1669 LP  0  0  0  0  0  0  0  0  0  0  0  0  # atno 17395 bound_to 11000

$$$$
