AV-unprocessed.smi:2879|AV-procd|sdf|11049|dock5
  -GOLD-   2272015513D 1   1.00000     0.00000
 Structure written by MMmdl.
 44 45  0  0  0  0  0  0  0  0  1 V2000
  145.7982  142.7810  153.8463 C   0  0  0  0  0  0  0  0  0  0  0  0
  147.0269  141.9828  154.1197 C   0  0  0  0  0  0  0  0  0  0  0  0
  147.2772  140.6433  154.0189 C   0  0  0  0  0  0  0  0  0  0  0  0
  148.6401  140.5070  154.4172 C   0  0  0  0  0  0  0  0  0  0  0  0
  149.4619  139.2470  154.4932 C   0  0  0  0  0  0  0  0  0  0  0  0
  150.7580  139.5023  155.2650 C   0  0  0  0  0  0  0  0  0  0  0  0
  151.8383  139.5049  154.6751 O   0  0  0  0  0  0  0  0  0  0  0  0
  150.6369  139.7120  156.5839 N   0  0  0  0  0  0  0  0  0  0  0  0
  151.7433  140.0070  157.4840 C   0  0  0  0  0  0  0  0  0  0  0  0
  151.4687  141.2746  158.3156 C   0  0  0  0  0  0  0  0  0  0  0  0
  150.7922  142.3890  157.4894 C   0  0  0  0  0  0  0  0  0  0  0  0
  150.5429  143.6531  158.3321 C   0  0  0  0  0  0  0  0  0  0  0  0
  151.8214  144.2058  159.0081 C   0  0  0  0  0  0  0  0  0  0  0  0
  152.7799  144.8131  157.9605 C   0  0  0  0  0  0  0  0  0  0  0  0
  151.4236  145.3242  159.9908 C   0  0  0  0  0  0  0  0  0  0  0  0
  152.5137  143.0677  159.7971 C   0  0  0  0  0  0  0  0  0  0  0  0
  152.7655  141.8049  158.9538 C   0  0  0  0  0  0  0  0  0  0  0  0
  149.1880  141.6699  154.7449 N   0  0  0  0  0  0  0  0  0  0  0  0
  148.1964  142.5603  154.5571 N   0  0  0  0  0  0  0  0  0  0  0  0
  148.3295  143.5466  154.7303 H   0  0  0  0  0  0  0  0  0  0  0  0
  145.0111  142.1537  153.4273 H   0  0  0  0  0  0  0  0  0  0  0  0
  146.0050  143.5805  153.1346 H   0  0  0  0  0  0  0  0  0  0  0  0
  145.4175  143.2323  154.7628 H   0  0  0  0  0  0  0  0  0  0  0  0
  146.5904  139.8720  153.7026 H   0  0  0  0  0  0  0  0  0  0  0  0
  148.9069  138.4443  154.9810 H   0  0  0  0  0  0  0  0  0  0  0  0
  149.7011  138.8920  153.4899 H   0  0  0  0  0  0  0  0  0  0  0  0
  149.7100  139.6950  156.9849 H   0  0  0  0  0  0  0  0  0  0  0  0
  151.8930  139.1510  158.1437 H   0  0  0  0  0  0  0  0  0  0  0  0
  152.6621  140.1307  156.9081 H   0  0  0  0  0  0  0  0  0  0  0  0
  150.7910  140.9997  159.1257 H   0  0  0  0  0  0  0  0  0  0  0  0
  151.4052  142.6322  156.6214 H   0  0  0  0  0  0  0  0  0  0  0  0
  149.8382  142.0400  157.0931 H   0  0  0  0  0  0  0  0  0  0  0  0
  150.0846  144.4224  157.7095 H   0  0  0  0  0  0  0  0  0  0  0  0
  149.8049  143.4117  159.0985 H   0  0  0  0  0  0  0  0  0  0  0  0
  153.6732  145.2216  158.4342 H   0  0  0  0  0  0  0  0  0  0  0  0
  152.3011  145.6259  157.4134 H   0  0  0  0  0  0  0  0  0  0  0  0
  153.1120  144.0824  157.2245 H   0  0  0  0  0  0  0  0  0  0  0  0
  152.2963  145.7366  160.4981 H   0  0  0  0  0  0  0  0  0  0  0  0
  150.7420  144.9581  160.7596 H   0  0  0  0  0  0  0  0  0  0  0  0
  150.9240  146.1460  159.4763 H   0  0  0  0  0  0  0  0  0  0  0  0
  153.4567  143.4208  160.2166 H   0  0  0  0  0  0  0  0  0  0  0  0
  151.8931  142.7900  160.6504 H   0  0  0  0  0  0  0  0  0  0  0  0
  153.2052  141.0342  159.5878 H   0  0  0  0  0  0  0  0  0  0  0  0
  153.5043  142.0128  158.1796 H   0  0  0  0  0  0  0  0  0  0  0  0
  1  2  1  0  0  0  0
  1 21  1  0  0  0  0
  1 22  1  0  0  0  0
  1 23  1  0  0  0  0
  2 19  1  0  0  0  0
  2  3  2  0  0  0  0
  3  4  1  0  0  0  0
  3 24  1  0  0  0  0
  4  5  1  0  0  0  0
  4 18  2  0  0  0  0
  5  6  1  0  0  0  0
  5 25  1  0  0  0  0
  5 26  1  0  0  0  0
  6  7  2  0  0  0  0
  6  8  1  0  0  0  0
  8  9  1  0  0  0  0
  8 27  1  0  0  0  0
  9 10  1  0  0  0  0
  9 28  1  0  0  0  0
  9 29  1  0  0  0  0
 10 17  1  0  0  0  0
 10 11  1  0  0  0  0
 10 30  1  0  0  0  0
 11 12  1  0  0  0  0
 11 31  1  0  0  0  0
 11 32  1  0  0  0  0
 12 13  1  0  0  0  0
 12 33  1  0  0  0  0
 12 34  1  0  0  0  0
 13 14  1  0  0  0  0
 13 15  1  0  0  0  0
 13 16  1  0  0  0  0
 14 35  1  0  0  0  0
 14 36  1  0  0  0  0
 14 37  1  0  0  0  0
 15 38  1  0  0  0  0
 15 39  1  0  0  0  0
 15 40  1  0  0  0  0
 16 17  1  0  0  0  0
 16 41  1  0  0  0  0
 16 42  1  0  0  0  0
 17 43  1  0  0  0  0
 17 44  1  0  0  0  0
 18 19  1  0  0  0  0
 19 20  1  0  0  0  0
M  END
> <s_m_source_file>
AV-unprocessed.smi

> <i_m_source_file_index>
2879

> <i_lp_mmshare_version>
43012

> <i_f3d_flags>
0

> <s_epik_input>
W0NIM11jMVtjSF1jKG5bbkhdMSlbQ0gyXUMoPU8pW05IXVtDSDJdW0NIXShbQ0gyXVtDSDJdMilbQ0gyXVtDSDJdQzIoW0NIM10pW0NIM10=

> <s_epik_cmdline>
J2VwaWtfcHl0aG9uJywgJy1waCcsICc3LjAnLCAnLXRuJywgJzgnLCAnLW1hJywgJzIwMCcsICctbWV0YWxfYmluZGluZycsICctaW1hZScsICc8aW5maWxlLm1hZT4nLCAnLW9tYWUnLCAnPG91dGZpbGUubWFlPic=

> <r_lp_tautomer_probability>
0.5

> <r_epik_Ionization_Penalty>
7.93509e-05

> <r_epik_Ionization_Penalty_Charging>
0

> <r_epik_Ionization_Penalty_Neutral>
7.93509e-05

> <r_epik_State_Penalty>
0.41068

> <r_epik_Charging_Adjusted_Penalty>
0.41068

> <i_epik_Tot_Q>
0

> <i_epik_Tot_abs_Q>
0

> <r_epik_Metal_State_Penalty>
0.4107

> <b_epik_Metal_Only>
0

> <s_lp_Force_Field>
OPLS_2005

> <r_lp_Energy>
12.5825

> <b_lp_Chiralities_Consistent>
1

> <s_lp_Variant>
AV-unprocessed.smi:2879-1

> <Gold.Version>
5.8.1

> <Gold.Id.Protein>
6NUR|6NUR_protein|mol2

> <Gold.PLP.Fitness>
53.2165

> <Gold.PLP.PLP>
-48.0750

> <Gold.PLP.part.hbond>
-2.2477

> <Gold.PLP.part.metal>
0.0000

> <Gold.PLP.part.buried>
-8.1813

> <Gold.PLP.part.nonpolar>
-40.2134

> <Gold.PLP.part.repulsive>
1.0368

> <Gold.PLP.ligand.clash>
0.0000

> <Gold.PLP.ligand.torsion>
0.4273

> <Gold.PLP.Chemscore.Hbond>
1.9920

> <Gold.PLP.Chemscore.CHOScore>
0.0000

> <Gold.PLP.Chemscore.Metal>
0.0000

> <Gold.Chemscore.Hbonds>
donor molecule, donor type, donor heavy atom, donor atom, acceptor molecule, acceptor atom, score
      L1  H    19    20       P1  8028  1.00
      P1  H  7989  7998       L1     7  1.00

> <Gold.PLP.Chemscore.Internal.Correction>
0.0202

> <Gold.Rescore>
     Score         DG    S(hbond)    S(metal)    S(lipo)     H(rot)  DE(clash)    DE(int)     intcor
     21.21     -21.70       1.70        0.00     124.12       1.55       0.08       0.41       ----

> <Gold.Chemscore.Fitness>
21.2137

> <Gold.Chemscore.DG>
-21.7014

> <Gold.Chemscore.ZeroCoef>
-5.4800

> <Gold.Chemscore.Hbond>
1.6960

> <Gold.Chemscore.Metal>
0.0000

> <Gold.Chemscore.Lipo>
124.1188

> <Gold.Chemscore.Internal_Hbond>
0.0000

> <Gold.Chemscore.DEClash>
0.0806

> <Gold.Chemscore.DEInternal>
0.4071

> <Gold.Chemscore.Rot>
1.5489

> <Gold.Chemscore.Internal.Correction>
   9.000000E+99

> <Gold.Chemscore.Hbonds>
donor molecule, donor type, donor heavy atom, donor atom, acceptor molecule, acceptor atom, score
      L1  H    19    20       P1  8028  0.90
      P1  H  7989  7998       L1     7  0.42

> <Gold.Chemscore.Hbond.Weighted>
-5.6647

> <Gold.Chemscore.Metal.Weighted>
-0.0000

> <Gold.Chemscore.Lipo.Weighted>
-14.5219

> <Gold.Chemscore.Internal_Hbond.Weighted>
0.0000

> <Gold.Chemscore.DEClash.Weighted>
0.0806

> <Gold.Chemscore.DEInternal.Weighted>
0.4071

> <Gold.Chemscore.Rot.Weighted>
3.9652

> <Gold.Chemscore.Internal.Correction.Weighted>
   9.000000E+99

> <Gold.Protein.RotatedTorsions>
[ 6907 6896 6895 6894 ] final   54.60 input  -60.11 | X-H torsion
[ 7974 7965 7964 7962 ] final -113.16 input  175.53 | X-H torsion
[ 8008 7997 7996 7995 ] final   86.68 input   59.86 | X-H torsion
[ 10167 10162 10161 10158 ] final -111.98 input  -65.29 | X-H torsion
[ 10718 10713 10712 10709 ] final   42.53 input   66.30 | X-H torsion
[ 10763 10752 10751 10750 ] final  -81.82 input  -60.55 | X-H torsion
[ 11005 11000 10999 10996 ] final   17.54 input  -57.11 | X-H torsion

> <Gold.Protein.ActiveResidues>
 VAL166  LYS551  ARG553  GLY616  TRP617  ASP618  TYR619  PRO620  LYS621  CYS622 
 ASP623  PHE694  ASN695  SER759  ASP760  ASP761  ALA762  ILE779  LEU786  VAL792 
 PHE793  MET794  SER795  GLU796  ALA797  LYS798  CYS799  TRP800  GLU811  SER814 

> <Gold.Protein.RotatedAtoms>
  152.3455  134.7077  160.0251 H   0  0  0  0  0  0  0  0  0  0  0  0  # atno 6907 bound_to 6896
  151.7448  133.3318  159.3383 H   0  0  0  0  0  0  0  0  0  0  0  0  # atno 6908 bound_to 6896
  150.7506  134.6179  159.6165 H   0  0  0  0  0  0  0  0  0  0  0  0  # atno 6909 bound_to 6896
  145.1354  140.8748  143.3733 H   0  0  0  0  0  0  0  0  0  0  0  0  # atno 7974 bound_to 7965
  155.9658  140.3389  155.6531 H   0  0  0  0  0  0  0  0  0  0  0  0  # atno 8008 bound_to 7997
  155.6739  140.0730  157.2528 H   0  0  0  0  0  0  0  0  0  0  0  0  # atno 8009 bound_to 7997
  154.4154  140.1686  156.1896 H   0  0  0  0  0  0  0  0  0  0  0  0  # atno 8010 bound_to 7997
  140.1277  143.4388  152.1649 H   0  0  0  0  0  0  0  0  0  0  0  0  # atno 10167 bound_to 10162
  157.4059  130.7886  149.7388 H   0  0  0  0  0  0  0  0  0  0  0  0  # atno 10718 bound_to 10713
  154.5682  135.5613  153.7070 H   0  0  0  0  0  0  0  0  0  0  0  0  # atno 10763 bound_to 10752
  153.0040  135.6290  154.2151 H   0  0  0  0  0  0  0  0  0  0  0  0  # atno 10764 bound_to 10752
  154.2090  135.2874  155.2945 H   0  0  0  0  0  0  0  0  0  0  0  0  # atno 10765 bound_to 10752
  140.4348  134.1382  155.7684 H   0  0  0  0  0  0  0  0  0  0  0  0  # atno 11005 bound_to 11000
  145.0590  139.3120  143.5890 LP  0  0  0  0  0  0  0  0  0  0  0  0  # atno 17320 bound_to 7965
  146.3510  140.0025  142.8675 LP  0  0  0  0  0  0  0  0  0  0  0  0  # atno 17321 bound_to 7965
  139.5536  144.7356  151.4361 LP  0  0  0  0  0  0  0  0  0  0  0  0  # atno 17342 bound_to 10162
  140.6835  143.8026  150.7154 LP  0  0  0  0  0  0  0  0  0  0  0  0  # atno 17343 bound_to 10162
  155.9836  130.3999  150.3353 LP  0  0  0  0  0  0  0  0  0  0  0  0  # atno 17370 bound_to 10713
  157.1486  131.0315  151.2895 LP  0  0  0  0  0  0  0  0  0  0  0  0  # atno 17371 bound_to 10713
  141.1730  133.8570  157.1510 LP  0  0  0  0  0  0  0  0  0  0  0  0  # atno 17394 bound_to 11000
  140.0109  134.9988  157.0394 LP  0  0  0  0  0  0  0  0  0  0  0  0  # atno 17395 bound_to 11000

$$$$
