#       Name:                AV-unprocessed.smi:2802
#       Creating user name   scv26
#       Creation time:       Fri Mar 27 15:23:55 2020


#       File generated by GOLD software.
#

@<TRIPOS>MOLECULE
AV-unprocessed.smi:2802
    52    53     1
SMALL
NO_CHARGES


@<TRIPOS>ATOM
      1 ****        -2.8287  -2.1661   3.0703 C.3            1 S1                 0.0000
      2 ****        -2.4813  -1.4110   1.7786 C.3            1 S1                 0.0000
      3 ****        -3.0191   0.0291   1.8198 C.3            1 S1                 0.0000
      4 ****        -2.7233   0.8312   0.5334 C.3            1 S1                 0.0000
      5 ****        -3.6430   0.3800  -0.6233 C.3            1 S1                 0.0000
      6 ****        -3.0505   2.3155   0.8015 C.3            1 S1                 0.0000
      7 ****        -1.2154   0.7282   0.1635 C.3            1 S1                 0.0000
      8 ****        -0.5292  -0.6747   0.2344 C.3            1 S1                 0.0000
      9 ****        -0.8238  -1.5466  -1.0211 C.3            1 S1                 0.0000
     10 ****        -0.0585  -2.7370  -1.0391 O.3            1 S1                 0.0000
     11 ****         0.9249  -0.4741   0.3580 N.am           1 S1                 0.0000
     12 ****         1.7645   0.1399  -0.4950 C.2            1 S1                 0.0000
     13 ****         1.4043   0.6668  -1.5485 O.2            1 S1                 0.0000
     14 ****         3.2380   0.1492  -0.0703 C.3            1 S1                 0.0000
     15 ****         4.1591   0.6183  -1.1849 C.ar           1 S1                 0.0000
     16 ****         4.5394   1.9725  -1.2893 C.ar           1 S1                 0.0000
     17 ****         5.3934   2.3581  -2.3403 C.ar           1 S1                 0.0000
     18 ****         5.8314   1.3703  -3.2452 C.ar           1 S1                 0.0000
     19 ****         5.4739   0.0710  -3.1555 N.ar           1 S1                 0.0000
     20 ****         4.6546  -0.2904  -2.1446 C.ar           1 S1                 0.0000
     21 ****        -0.9618  -1.3978   1.5364 C.3            1 S1                 0.0000
     22 ****        -2.3790  -1.6902   3.9423 H              1 S1                 0.0000
     23 ****        -2.4718  -3.1956   3.0319 H              1 S1                 0.0000
     24 ****        -3.9071  -2.1987   3.2284 H              1 S1                 0.0000
     25 ****        -2.9632  -1.9488   0.9632 H              1 S1                 0.0000
     26 ****        -4.0933   0.0188   2.0094 H              1 S1                 0.0000
     27 ****        -2.5718   0.5392   2.6745 H              1 S1                 0.0000
     28 ****        -3.3798   0.8784  -1.5567 H              1 S1                 0.0000
     29 ****        -4.6844   0.6239  -0.4107 H              1 S1                 0.0000
     30 ****        -3.6174  -0.6902  -0.8036 H              1 S1                 0.0000
     31 ****        -2.8591   2.9294  -0.0794 H              1 S1                 0.0000
     32 ****        -2.4514   2.7210   1.6176 H              1 S1                 0.0000
     33 ****        -4.0981   2.4505   1.0735 H              1 S1                 0.0000
     34 ****        -1.0574   1.1767  -0.8179 H              1 S1                 0.0000
     35 ****        -0.6778   1.3779   0.8569 H              1 S1                 0.0000
     36 ****        -1.8652  -1.8487  -1.0685 H              1 S1                 0.0000
     37 ****        -0.6223  -0.9947  -1.9391 H              1 S1                 0.0000
     38 ****        -0.2645  -3.2140  -1.8285 H              1 S1                 0.0000
     39 ****         1.3425  -0.8697   1.1876 H              1 S1                 0.0000
     40 ****         3.3548   0.7959   0.8002 H              1 S1                 0.0000
     41 ****         3.5324  -0.8547   0.2391 H              1 S1                 0.0000
     42 ****         4.1821   2.7041  -0.5793 H              1 S1                 0.0000
     43 ****         5.7043   3.3863  -2.4514 H              1 S1                 0.0000
     44 ****         6.4869   1.6314  -4.0629 H              1 S1                 0.0000
     45 ****         4.3849  -1.3355  -2.1016 H              1 S1                 0.0000
     46 ****        -0.4931  -0.9057   2.3910 H              1 S1                 0.0000
     47 ****        -0.5786  -2.4190   1.5459 H              1 S1                 0.0000
     48 ****        -0.2830  -3.2945  -0.2398 LP             1 S1                 0.0000
     49 ****         0.9157  -2.5119  -1.0255 LP             1 S1                 0.0000
     50 ****         0.4392   0.6527  -1.8102 LP             1 S1                 0.0000
     51 ****         2.0769   1.1087  -2.1421 LP             1 S1                 0.0000
     52 ****         5.8053  -0.6021  -3.8167 LP             1 S1                 0.0000
@<TRIPOS>BOND
    1    1    2 1     
    2    1   22 1     
    3    1   23 1     
    4    1   24 1     
    5    2   21 1     
    6    2    3 1     
    7    2   25 1     
    8    3    4 1     
    9    3   26 1     
   10    3   27 1     
   11    4    5 1     
   12    4    6 1     
   13    4    7 1     
   14    5   28 1     
   15    5   29 1     
   16    5   30 1     
   17    6   31 1     
   18    6   32 1     
   19    6   33 1     
   20    7    8 1     
   21    7   34 1     
   22    7   35 1     
   23    8    9 1     
   24    8   11 1     
   25    8   21 1     
   26    9   10 1     
   27    9   36 1     
   28    9   37 1     
   29   10   38 1     
   30   11   12 am    
   31   11   39 1     
   32   12   13 2     
   33   12   14 1     
   34   14   15 1     
   35   14   40 1     
   36   14   41 1     
   37   15   20 ar    
   38   15   16 ar    
   39   16   17 ar    
   40   16   42 1     
   41   17   18 ar    
   42   17   43 1     
   43   18   19 ar    
   44   18   44 1     
   45   19   20 ar    
   46   20   45 1     
   47   21   46 1     
   48   21   47 1     
   49   10   48 1     
   50   10   49 1     
   51   13   50 1     
   52   13   51 1     
   53   19   52 1     
@<TRIPOS>SUBSTRUCTURE
      1 S1             1
@<TRIPOS>SET
LONE_PAIRS      STATIC     ATOMS    <user>   **** ""
5 48 49 50 51 52
DONOR_HYDROGENS      STATIC     ATOMS    <user>   **** ""
2 38 39
ATOM$BLUE        STATIC     ATOMS    COLORGROUP SYSTEM
5 48 49 50 51 52
ATOM$RED        STATIC     ATOMS    COLORGROUP SYSTEM
2 38 39
