AV-unprocessed.smi:2079|AV-procd|sdf|8481|dock3
  -GOLD-   2272011183D 1   1.00000     0.00000
 Structure written by MMmdl.
 41 42  0  0  0  0  0  0  0  0  3 V2000
  146.9583  136.0902  162.9057 C   0  0  0  0  0  0  0  0  0  0  0  0
  147.5488  135.9435  161.5452 C   0  0  0  0  0  0  0  0  0  0  0  0
  147.9976  134.8635  160.8392 C   0  0  0  0  0  0  0  0  0  0  0  0
  148.4280  135.4350  159.6107 C   0  0  0  0  0  0  0  0  0  0  0  0
  148.9692  134.7705  158.5783 N   0  5  0  0  0  0  0  0  0  0  0  0
  148.9797  135.3223  157.3439 C   0  0  0  0  0  0  0  0  0  0  0  0
  149.3798  136.4508  157.0484 O   0  0  0  0  0  0  0  0  0  0  0  0
  148.4902  134.5166  156.3909 N   0  0  0  0  0  0  0  0  0  0  0  0
  148.3722  134.8458  154.9760 C   0  0  0  0  0  0  0  0  0  0  0  0
  147.7703  133.6738  154.1776 C   0  0  0  0  0  0  0  0  0  0  0  0
  147.1639  134.0919  152.8850 N   0  3  2  0  0  0  0  0  0  0  0  0
  146.0806  135.0938  153.0768 C   0  0  0  0  0  0  0  0  0  0  0  0
  145.6161  135.6823  151.7349 C   0  0  0  0  0  0  0  0  0  0  0  0
  145.1739  134.5768  150.7702 C   0  0  0  0  0  0  0  0  0  0  0  0
  146.3010  133.5483  150.6048 C   0  0  0  0  0  0  0  0  0  0  0  0
  146.7766  132.9804  151.9592 C   0  0  2  0  0  0  0  0  0  0  0  0
  145.7567  131.9940  152.5678 C   0  0  0  0  0  0  0  0  0  0  0  0
  148.2683  136.7472  159.5798 N   0  0  0  0  0  0  0  0  0  0  0  0
  147.6998  137.0808  160.8148 O   0  0  0  0  0  0  0  0  0  0  0  0
  147.7375  136.0683  163.6674 H   0  0  0  0  0  0  0  0  0  0  0  0
  146.2589  135.2802  163.1122 H   0  0  0  0  0  0  0  0  0  0  0  0
  146.4193  137.0332  162.9997 H   0  0  0  0  0  0  0  0  0  0  0  0
  148.0139  133.8298  161.1495 H   0  0  0  0  0  0  0  0  0  0  0  0
  148.1781  133.5995  156.6763 H   0  0  0  0  0  0  0  0  0  0  0  0
  147.7747  135.7500  154.8484 H   0  0  0  0  0  0  0  0  0  0  0  0
  149.3767  135.0797  154.6262 H   0  0  0  0  0  0  0  0  0  0  0  0
  148.5154  132.8946  154.0162 H   0  0  0  0  0  0  0  0  0  0  0  0
  146.9872  133.2146  154.7824 H   0  0  0  0  0  0  0  0  0  0  0  0
  145.2414  134.6418  153.6065 H   0  0  0  0  0  0  0  0  0  0  0  0
  146.4418  135.9063  153.7083 H   0  0  0  0  0  0  0  0  0  0  0  0
  144.7970  136.3834  151.8984 H   0  0  0  0  0  0  0  0  0  0  0  0
  146.4287  136.2556  151.2865 H   0  0  0  0  0  0  0  0  0  0  0  0
  144.2727  134.0917  151.1466 H   0  0  0  0  0  0  0  0  0  0  0  0
  144.9128  135.0062  149.8026 H   0  0  0  0  0  0  0  0  0  0  0  0
  145.9768  132.7407  149.9476 H   0  0  0  0  0  0  0  0  0  0  0  0
  147.1433  134.0250  150.1015 H   0  0  0  0  0  0  0  0  0  0  0  0
  147.6751  132.4069  151.7343 H   0  0  0  0  0  0  0  0  0  0  0  0
  145.4949  131.2192  151.8466 H   0  0  0  0  0  0  0  0  0  0  0  0
  144.8304  132.4847  152.8651 H   0  0  0  0  0  0  0  0  0  0  0  0
  146.1591  131.4829  153.4420 H   0  0  0  0  0  0  0  0  0  0  0  0
  147.8982  134.5923  152.4047 H   0  0  0  0  0  0  0  0  0  0  0  0
  1  2  1  0  0  0  0
  1 20  1  0  0  0  0
  1 21  1  0  0  0  0
  1 22  1  0  0  0  0
  2 19  1  0  0  0  0
  2  3  2  0  0  0  0
  3  4  1  0  0  0  0
  3 23  1  0  0  0  0
  4  5  1  0  0  0  0
  4 18  2  0  0  0  0
  5  6  1  0  0  0  0
  6  7  2  0  0  0  0
  6  8  1  0  0  0  0
  8  9  1  0  0  0  0
  8 24  1  0  0  0  0
  9 10  1  0  0  0  0
  9 25  1  0  0  0  0
  9 26  1  0  0  0  0
 10 11  1  0  0  0  0
 10 27  1  0  0  0  0
 10 28  1  0  0  0  0
 11 16  1  0  0  0  0
 11 12  1  0  0  0  0
 11 41  1  0  0  0  0
 12 13  1  0  0  0  0
 12 29  1  0  0  0  0
 12 30  1  0  0  0  0
 13 14  1  0  0  0  0
 13 31  1  0  0  0  0
 13 32  1  0  0  0  0
 14 15  1  0  0  0  0
 14 33  1  0  0  0  0
 14 34  1  0  0  0  0
 15 16  1  0  0  0  0
 15 35  1  0  0  0  0
 15 36  1  0  0  0  0
 16 17  1  0  0  0  0
 16 37  1  0  0  0  0
 17 38  1  0  0  0  0
 17 39  1  0  0  0  0
 17 40  1  0  0  0  0
 18 19  1  0  0  0  0
M  CHG  1   5  -1
M  CHG  1  11   1
M  END
> <s_m_source_file>
AV-unprocessed.smi

> <i_m_source_file_index>
2079

> <i_lp_mmshare_version>
43012

> <i_f3d_flags>
0

> <s_epik_input>
W0NIM11jMVtjSF1jKG5vMSlbTkhdQyg9TylbTkhdW0NIMl1bQ0gyXU4yW0NIMl1bQ0gyXVtDSDJdW0NIMl1bQ0BIXTJbQ0gzXQ==

> <s_epik_cmdline>
J2VwaWtfcHl0aG9uJywgJy1waCcsICc3LjAnLCAnLXRuJywgJzgnLCAnLW1hJywgJzIwMCcsICctbWV0YWxfYmluZGluZycsICctaW1hZScsICc8aW5maWxlLm1hZT4nLCAnLW9tYWUnLCAnPG91dGZpbGUubWFlPic=

> <r_epik_Ionization_Penalty>
6.22371

> <r_epik_Ionization_Penalty_Charging>
6.22362

> <r_epik_Ionization_Penalty_Neutral>
9.40454e-05

> <r_epik_State_Penalty>
6.22363

> <r_epik_Charging_Adjusted_Penalty>
12.4472

> <i_epik_Tot_Q>
0

> <i_epik_Tot_abs_Q>
2

> <r_epik_Metal_State_Penalty>
2.16675

> <b_epik_Metal_Only>
1

> <s_lp_Force_Field>
OPLS_2005

> <r_lp_Energy>
7.26358

> <b_lp_Chiralities_Consistent>
1

> <s_lp_Variant>
AV-unprocessed.smi:2079-7

> <Gold.Version>
5.8.1

> <Gold.Id.Protein>
6NUR|6NUR_protein|mol2

> <Gold.PLP.Fitness>
43.4354

> <Gold.PLP.PLP>
-27.4116

> <Gold.PLP.part.hbond>
-4.0000

> <Gold.PLP.part.metal>
0.0000

> <Gold.PLP.part.buried>
-3.8561

> <Gold.PLP.part.nonpolar>
-20.3007

> <Gold.PLP.part.repulsive>
0.0166

> <Gold.PLP.ligand.clash>
0.0000

> <Gold.PLP.ligand.torsion>
0.6779

> <Gold.PLP.Chemscore.Hbond>
5.7600

> <Gold.PLP.Chemscore.CHOScore>
0.0000

> <Gold.PLP.Chemscore.Metal>
0.0000

> <Gold.Chemscore.Hbonds>
donor molecule, donor type, donor heavy atom, donor atom, acceptor molecule, acceptor atom, score
      L1  H    11    41       P1  7948  2.00
      P1  H  6896  6909       L1     5  2.00
      P1  H  6931  6943       L1    19  0.77
      P1  H  6934  6947       L1    19  0.93

> <Gold.PLP.Chemscore.Internal.Correction>
0.0996

> <Gold.Rescore>
     Score         DG    S(hbond)    S(metal)    S(lipo)     H(rot)  DE(clash)    DE(int)     intcor
     14.65     -16.88       2.37        0.00      63.56       1.54       0.12       2.11       ----

> <Gold.Chemscore.Fitness>
14.6512

> <Gold.Chemscore.DG>
-16.8809

> <Gold.Chemscore.ZeroCoef>
-5.4800

> <Gold.Chemscore.Hbond>
2.3679

> <Gold.Chemscore.Metal>
0.0000

> <Gold.Chemscore.Lipo>
63.5636

> <Gold.Chemscore.Internal_Hbond>
0.0000

> <Gold.Chemscore.DEClash>
0.1177

> <Gold.Chemscore.DEInternal>
2.1121

> <Gold.Chemscore.Rot>
1.5409

> <Gold.Chemscore.Internal.Correction>
   9.000000E+99

> <Gold.Chemscore.Hbonds>
donor molecule, donor type, donor heavy atom, donor atom, acceptor molecule, acceptor atom, score
      L1  H    11    41       P1  7948  0.53
      P1  H  6896  6909       L1     5  0.29
      P1  H  6931  6943       L1    19  0.29
      P1  H  6934  6947       L1    19  0.70

> <Gold.Chemscore.Hbond.Weighted>
-7.9086

> <Gold.Chemscore.Metal.Weighted>
-0.0000

> <Gold.Chemscore.Lipo.Weighted>
-7.4369

> <Gold.Chemscore.Internal_Hbond.Weighted>
0.0000

> <Gold.Chemscore.DEClash.Weighted>
0.1177

> <Gold.Chemscore.DEInternal.Weighted>
2.1121

> <Gold.Chemscore.Rot.Weighted>
3.9446

> <Gold.Chemscore.Internal.Correction.Weighted>
   9.000000E+99

> <Gold.Protein.RotatedTorsions>
[ 6907 6896 6895 6894 ] final   20.79 input  -60.11 | X-H torsion
[ 7974 7965 7964 7962 ] final -109.61 input  175.53 | X-H torsion
[ 8008 7997 7996 7995 ] final  149.78 input   59.86 | X-H torsion
[ 10167 10162 10161 10158 ] final  121.63 input  -65.29 | X-H torsion
[ 10718 10713 10712 10709 ] final   65.08 input   66.30 | X-H torsion
[ 10763 10752 10751 10750 ] final  143.05 input  -60.55 | X-H torsion
[ 11005 11000 10999 10996 ] final  -51.15 input  -57.11 | X-H torsion

> <Gold.Protein.ActiveResidues>
 VAL166  LYS551  ARG553  GLY616  TRP617  ASP618  TYR619  PRO620  LYS621  CYS622 
 ASP623  PHE694  ASN695  SER759  ASP760  ASP761  ALA762  ILE779  LEU786  VAL792 
 PHE793  MET794  SER795  GLU796  ALA797  LYS798  CYS799  TRP800  GLU811  SER814 

> <Gold.Protein.RotatedAtoms>
  151.9018  135.0375  160.0506 H   0  0  0  0  0  0  0  0  0  0  0  0  # atno 6907 bound_to 6896
  152.2352  133.5086  159.5247 H   0  0  0  0  0  0  0  0  0  0  0  0  # atno 6908 bound_to 6896
  150.7037  134.1079  159.4032 H   0  0  0  0  0  0  0  0  0  0  0  0  # atno 6909 bound_to 6896
  145.1784  140.8959  143.3494 H   0  0  0  0  0  0  0  0  0  0  0  0  # atno 7974 bound_to 7965
  156.2741  140.2092  156.5913 H   0  0  0  0  0  0  0  0  0  0  0  0  # atno 8008 bound_to 7997
  154.6980  140.0523  157.0453 H   0  0  0  0  0  0  0  0  0  0  0  0  # atno 8009 bound_to 7997
  155.0774  140.3183  155.4615 H   0  0  0  0  0  0  0  0  0  0  0  0  # atno 8010 bound_to 7997
  139.5908  144.7024  151.3295 H   0  0  0  0  0  0  0  0  0  0  0  0  # atno 10167 bound_to 10162
  157.6082  130.9194  149.9929 H   0  0  0  0  0  0  0  0  0  0  0  0  # atno 10718 bound_to 10713
  153.9659  135.2955  155.3430 H   0  0  0  0  0  0  0  0  0  0  0  0  # atno 10763 bound_to 10752
  154.7349  135.5051  153.9028 H   0  0  0  0  0  0  0  0  0  0  0  0  # atno 10764 bound_to 10752
  153.0923  135.6711  153.9940 H   0  0  0  0  0  0  0  0  0  0  0  0  # atno 10765 bound_to 10752
  141.0855  133.6643  156.3836 H   0  0  0  0  0  0  0  0  0  0  0  0  # atno 11005 bound_to 11000
  145.0161  139.3466  143.6096 LP  0  0  0  0  0  0  0  0  0  0  0  0  # atno 17320 bound_to 7965
  146.3457  139.9443  142.8737 LP  0  0  0  0  0  0  0  0  0  0  0  0  # atno 17321 bound_to 7965
  140.7171  143.7237  150.7676 LP  0  0  0  0  0  0  0  0  0  0  0  0  # atno 17342 bound_to 10162
  140.0792  143.4985  152.2539 LP  0  0  0  0  0  0  0  0  0  0  0  0  # atno 17343 bound_to 10162
  156.1175  130.3647  149.9943 LP  0  0  0  0  0  0  0  0  0  0  0  0  # atno 17370 bound_to 10713
  156.8030  130.9297  151.3645 LP  0  0  0  0  0  0  0  0  0  0  0  0  # atno 17371 bound_to 10713
  140.5372  134.6156  157.5368 LP  0  0  0  0  0  0  0  0  0  0  0  0  # atno 17394 bound_to 11000
  139.9673  134.7351  156.0112 LP  0  0  0  0  0  0  0  0  0  0  0  0  # atno 17395 bound_to 11000

$$$$
