AV-unprocessed.smi:1423|AV-procd|sdf|5795|dock7
  -GOLD-   22720 5443D 1   1.00000     0.00000
 Structure written by MMmdl.
 44 45  0  0  0  0  0  0  0  0  2 V2000
  151.9621  140.4713  158.1577 C   0  0  0  0  0  0  0  0  0  0  0  0
  152.1447  140.2362  156.7658 O   0  0  0  0  0  0  0  0  0  0  0  0
  151.4409  139.2052  156.1778 C   0  0  0  0  0  0  0  0  0  0  0  0
  151.1020  138.0858  156.9633 C   0  0  0  0  0  0  0  0  0  0  0  0
  150.3891  137.0266  156.3699 C   0  0  0  0  0  0  0  0  0  0  0  0
  150.0285  137.1241  155.0043 C   0  0  0  0  0  0  0  0  0  0  0  0
  149.3310  136.1191  154.2795 N   0  0  0  0  0  0  0  0  0  0  0  0
  148.9765  134.8846  154.6760 C   0  0  0  0  0  0  0  0  0  0  0  0
  149.1434  134.4196  155.8030 O   0  0  0  0  0  0  0  0  0  0  0  0
  148.3912  134.2050  153.6790 N   0  0  0  0  0  0  0  0  0  0  0  0
  147.8927  132.8358  153.7750 C   0  0  2  0  0  0  0  0  0  0  0  0
  149.0567  131.8271  153.8047 C   0  0  0  0  0  0  0  0  0  0  0  0
  148.5409  130.3783  153.7949 C   0  0  0  0  0  0  0  0  0  0  0  0
  147.6656  130.1315  152.6212 N   0  3  1  0  0  0  0  0  0  0  0  0
  147.2680  128.7058  152.4948 C   0  0  0  0  0  0  0  0  0  0  0  0
  148.3996  127.8180  151.9669 C   0  0  0  0  0  0  0  0  0  0  0  0
  149.5087  127.7503  152.7065 N   0  0  0  0  0  0  0  0  0  0  0  0
  148.2844  127.2140  150.9018 O   0  0  0  0  0  0  0  0  0  0  0  0
  146.5074  131.0643  152.5997 C   0  0  0  0  0  0  0  0  0  0  0  0
  146.9768  132.5285  152.5791 C   0  0  0  0  0  0  0  0  0  0  0  0
  150.4226  138.2840  154.3050 C   0  0  0  0  0  0  0  0  0  0  0  0
  151.1070  139.3021  154.8672 N   0  0  0  0  0  0  0  0  0  0  0  0
  152.5830  141.3122  158.4658 H   0  0  0  0  0  0  0  0  0  0  0  0
  152.2587  139.6058  158.7518 H   0  0  0  0  0  0  0  0  0  0  0  0
  150.9259  140.7249  158.3862 H   0  0  0  0  0  0  0  0  0  0  0  0
  151.3899  138.0365  158.0032 H   0  0  0  0  0  0  0  0  0  0  0  0
  150.1509  136.1634  156.9707 H   0  0  0  0  0  0  0  0  0  0  0  0
  149.0504  136.3820  153.3462 H   0  0  0  0  0  0  0  0  0  0  0  0
  148.2860  134.6677  152.7879 H   0  0  0  0  0  0  0  0  0  0  0  0
  147.3070  132.7331  154.6907 H   0  0  0  0  0  0  0  0  0  0  0  0
  149.7062  131.9847  152.9424 H   0  0  0  0  0  0  0  0  0  0  0  0
  149.6746  131.9872  154.6891 H   0  0  0  0  0  0  0  0  0  0  0  0
  149.3926  129.6976  153.7697 H   0  0  0  0  0  0  0  0  0  0  0  0
  147.9907  130.1663  154.7130 H   0  0  0  0  0  0  0  0  0  0  0  0
  146.9950  128.3113  153.4745 H   0  0  0  0  0  0  0  0  0  0  0  0
  146.3821  128.6178  151.8636 H   0  0  0  0  0  0  0  0  0  0  0  0
  150.2855  127.1777  152.4087 H   0  0  0  0  0  0  0  0  0  0  0  0
  149.5664  128.2729  153.5692 H   0  0  0  0  0  0  0  0  0  0  0  0
  145.8887  130.8757  151.7221 H   0  0  0  0  0  0  0  0  0  0  0  0
  145.8780  130.8849  153.4728 H   0  0  0  0  0  0  0  0  0  0  0  0
  146.1115  133.1928  152.5902 H   0  0  0  0  0  0  0  0  0  0  0  0
  147.5052  132.7245  151.6447 H   0  0  0  0  0  0  0  0  0  0  0  0
  150.1811  138.4011  153.2584 H   0  0  0  0  0  0  0  0  0  0  0  0
  148.2234  130.3363  151.8040 H   0  0  0  0  0  0  0  0  0  0  0  0
  1  2  1  0  0  0  0
  1 23  1  0  0  0  0
  1 24  1  0  0  0  0
  1 25  1  0  0  0  0
  2  3  1  0  0  0  0
  3 22  1  0  0  0  0
  3  4  2  0  0  0  0
  4  5  1  0  0  0  0
  4 26  1  0  0  0  0
  5  6  2  0  0  0  0
  5 27  1  0  0  0  0
  6  7  1  0  0  0  0
  6 21  1  0  0  0  0
  7  8  1  0  0  0  0
  7 28  1  0  0  0  0
  8  9  2  0  0  0  0
  8 10  1  0  0  0  0
 10 11  1  0  0  0  0
 10 29  1  0  0  0  0
 11 20  1  0  0  0  0
 11 12  1  0  0  0  0
 11 30  1  0  0  0  0
 12 13  1  0  0  0  0
 12 31  1  0  0  0  0
 12 32  1  0  0  0  0
 13 14  1  0  0  0  0
 13 33  1  0  0  0  0
 13 34  1  0  0  0  0
 14 15  1  0  0  0  0
 14 19  1  0  0  0  0
 14 44  1  0  0  0  0
 15 16  1  0  0  0  0
 15 35  1  0  0  0  0
 15 36  1  0  0  0  0
 16 17  1  0  0  0  0
 16 18  2  0  0  0  0
 17 37  1  0  0  0  0
 17 38  1  0  0  0  0
 19 20  1  0  0  0  0
 19 39  1  0  0  0  0
 19 40  1  0  0  0  0
 20 41  1  0  0  0  0
 20 42  1  0  0  0  0
 21 22  2  0  0  0  0
 21 43  1  0  0  0  0
M  CHG  1  14   1
M  END
> <s_m_source_file>
AV-unprocessed.smi

> <i_m_source_file_index>
1423

> <i_lp_mmshare_version>
43012

> <i_f3d_flags>
0

> <s_epik_input>
W0NIM11PYzFbY0hdW2NIXWMoW2NIXW4xKVtOSF1DKD1PKVtOSF1bQ0hdMltDSDJdW0NIMl1OKFtDSDJdW0NIMl0yKVtDSDJdQyg9TylbTkgyXQ==

> <s_epik_cmdline>
J2VwaWtfcHl0aG9uJywgJy1waCcsICc3LjAnLCAnLXRuJywgJzgnLCAnLW1hJywgJzIwMCcsICctbWV0YWxfYmluZGluZycsICctaW1hZScsICc8aW5maWxlLm1hZT4nLCAnLW9tYWUnLCAnPG91dGZpbGUubWFlPic=

> <r_lp_tautomer_probability>
1

> <r_epik_Ionization_Penalty>
0.838963

> <r_epik_Ionization_Penalty_Charging>
0.838844

> <r_epik_Ionization_Penalty_Neutral>
0.0001192

> <r_epik_State_Penalty>
0.8734

> <r_epik_Charging_Adjusted_Penalty>
1.71224

> <i_epik_Tot_Q>
1

> <i_epik_Tot_abs_Q>
1

> <r_epik_Metal_State_Penalty>
0.890706

> <b_epik_Metal_Only>
0

> <s_lp_Force_Field>
OPLS_2005

> <r_lp_Energy>
16.4152

> <b_lp_Chiralities_Consistent>
1

> <s_lp_Variant>
AV-unprocessed.smi:1423-2

> <Gold.Version>
5.8.1

> <Gold.Id.Protein>
6NUR|6NUR_protein|mol2

> <Gold.PLP.Fitness>
49.4136

> <Gold.PLP.PLP>
-32.3343

> <Gold.PLP.part.hbond>
-5.8381

> <Gold.PLP.part.metal>
0.0000

> <Gold.PLP.part.buried>
-2.0031

> <Gold.PLP.part.nonpolar>
-23.0789

> <Gold.PLP.part.repulsive>
0.4428

> <Gold.PLP.ligand.clash>
0.0000

> <Gold.PLP.ligand.torsion>
0.7302

> <Gold.PLP.Chemscore.Hbond>
5.3670

> <Gold.PLP.Chemscore.CHOScore>
0.8063

> <Gold.PLP.Chemscore.Metal>
0.0000

> <Gold.Chemscore.Hbonds>
donor molecule, donor type, donor heavy atom, donor atom, acceptor molecule, acceptor atom, score
      L1  H     7    28       P1  7948  0.86
      L1  H    10    29       P1  7948  0.80
      L1  H    14    44       P1 10747  1.00
      L1  H    17    37       P1 10737  0.59
      P1  H  7989  7998       L1    22  0.71
      P1  H  7997  8008       L1     2  0.49
      L1  C    21    43       P1  7948  0.24
      L1  C    21    43       P1  7957  0.57

> <Gold.PLP.Chemscore.Internal.Correction>
0.0199

> <Gold.Rescore>
     Score         DG    S(hbond)    S(metal)    S(lipo)     H(rot)  DE(clash)    DE(int)     intcor
     17.95     -20.16       4.08        0.00      59.92       2.33       0.08       2.12       ----

> <Gold.Chemscore.Fitness>
17.9547

> <Gold.Chemscore.DG>
-20.1573

> <Gold.Chemscore.ZeroCoef>
-5.4800

> <Gold.Chemscore.Hbond>
4.0792

> <Gold.Chemscore.Metal>
0.0000

> <Gold.Chemscore.Lipo>
59.9152

> <Gold.Chemscore.Internal_Hbond>
0.0000

> <Gold.Chemscore.DEClash>
0.0814

> <Gold.Chemscore.DEInternal>
2.1212

> <Gold.Chemscore.Rot>
2.3271

> <Gold.Chemscore.Internal.Correction>
   9.000000E+99

> <Gold.Chemscore.Hbonds>
donor molecule, donor type, donor heavy atom, donor atom, acceptor molecule, acceptor atom, score
      L1  H     7    28       P1  7948  0.81
      L1  H    10    29       P1  7948  0.40
      L1  H    14    44       P1 10747  0.96
      L1  H    17    37       P1 10737  0.59
      P1  H  7989  7998       L1    22  0.62
      P1  H  7997  8008       L1     2  0.28

> <Gold.Chemscore.Hbond.Weighted>
-13.6246

> <Gold.Chemscore.Metal.Weighted>
-0.0000

> <Gold.Chemscore.Lipo.Weighted>
-7.0101

> <Gold.Chemscore.Internal_Hbond.Weighted>
0.0000

> <Gold.Chemscore.DEClash.Weighted>
0.0814

> <Gold.Chemscore.DEInternal.Weighted>
2.1212

> <Gold.Chemscore.Rot.Weighted>
5.9573

> <Gold.Chemscore.Internal.Correction.Weighted>
   9.000000E+99

> <Gold.Protein.RotatedTorsions>
[ 6907 6896 6895 6894 ] final   94.54 input  -60.11 | X-H torsion
[ 7974 7965 7964 7962 ] final   63.05 input  175.53 | X-H torsion
[ 8008 7997 7996 7995 ] final  -41.27 input   59.86 | X-H torsion
[ 10167 10162 10161 10158 ] final   88.19 input  -65.29 | X-H torsion
[ 10718 10713 10712 10709 ] final   53.80 input   66.30 | X-H torsion
[ 10763 10752 10751 10750 ] final  -96.56 input  -60.55 | X-H torsion
[ 11005 11000 10999 10996 ] final  -70.92 input  -57.11 | X-H torsion

> <Gold.Protein.ActiveResidues>
 VAL166  LYS551  ARG553  GLY616  TRP617  ASP618  TYR619  PRO620  LYS621  CYS622 
 ASP623  PHE694  ASN695  SER759  ASP760  ASP761  ALA762  ILE779  LEU786  VAL792 
 PHE793  MET794  SER795  GLU796  ALA797  LYS798  CYS799  TRP800  GLU811  SER814 

> <Gold.Protein.RotatedAtoms>
  152.5449  134.1177  159.8385 H   0  0  0  0  0  0  0  0  0  0  0  0  # atno 6907 bound_to 6896
  151.1237  133.5079  159.2608 H   0  0  0  0  0  0  0  0  0  0  0  0  # atno 6908 bound_to 6896
  151.1751  135.0345  159.8823 H   0  0  0  0  0  0  0  0  0  0  0  0  # atno 6909 bound_to 6896
  145.8663  139.3348  143.0789 H   0  0  0  0  0  0  0  0  0  0  0  0  # atno 7974 bound_to 7965
  154.4005  140.1503  156.3164 H   0  0  0  0  0  0  0  0  0  0  0  0  # atno 8008 bound_to 7997
  155.8569  140.3455  155.5709 H   0  0  0  0  0  0  0  0  0  0  0  0  # atno 8009 bound_to 7997
  155.7923  140.0858  157.1993 H   0  0  0  0  0  0  0  0  0  0  0  0  # atno 8010 bound_to 7997
  139.8697  144.6499  150.8963 H   0  0  0  0  0  0  0  0  0  0  0  0  # atno 10167 bound_to 10162
  157.5200  130.8558  149.8546 H   0  0  0  0  0  0  0  0  0  0  0  0  # atno 10718 bound_to 10713
  154.7250  135.5079  153.8872 H   0  0  0  0  0  0  0  0  0  0  0  0  # atno 10763 bound_to 10752
  153.0897  135.6655  153.9887 H   0  0  0  0  0  0  0  0  0  0  0  0  # atno 10764 bound_to 10752
  153.9702  135.3039  155.3407 H   0  0  0  0  0  0  0  0  0  0  0  0  # atno 10765 bound_to 10752
  141.1583  133.6803  156.6826 H   0  0  0  0  0  0  0  0  0  0  0  0  # atno 11005 bound_to 11000
  145.9190  140.9128  143.0415 LP  0  0  0  0  0  0  0  0  0  0  0  0  # atno 17320 bound_to 7965
  144.6726  140.1263  143.7446 LP  0  0  0  0  0  0  0  0  0  0  0  0  # atno 17321 bound_to 7965
  140.7762  143.3674  151.1714 LP  0  0  0  0  0  0  0  0  0  0  0  0  # atno 17342 bound_to 10162
  139.7295  143.9095  152.3014 LP  0  0  0  0  0  0  0  0  0  0  0  0  # atno 17343 bound_to 10162
  156.0347  130.3755  150.1593 LP  0  0  0  0  0  0  0  0  0  0  0  0  # atno 17370 bound_to 10713
  156.9781  130.9855  151.3443 LP  0  0  0  0  0  0  0  0  0  0  0  0  # atno 17371 bound_to 10713
  140.3091  134.8101  157.4161 LP  0  0  0  0  0  0  0  0  0  0  0  0  # atno 17394 bound_to 11000
  140.1194  134.5239  155.8196 LP  0  0  0  0  0  0  0  0  0  0  0  0  # atno 17395 bound_to 11000

$$$$
