AV-unprocessed.smi:2152|AV-procd|sdf|8763|dock8
  -GOLD-   2272011543D 1   1.00000     0.00000
 Structure written by MMmdl.
 41 42  0  0  0  0  0  0  0  0  1 V2000
  151.4558  144.9301  158.7702 C   0  0  0  0  0  0  0  0  0  0  0  0
  152.3773  144.1378  159.7138 C   0  0  1  0  0  0  0  0  0  0  0  0
  151.8728  144.1854  161.1713 C   0  0  0  0  0  0  0  0  0  0  0  0
  152.8193  143.4369  162.1234 C   0  0  0  0  0  0  0  0  0  0  0  0
  153.0382  141.9862  161.6690 C   0  0  0  0  0  0  0  0  0  0  0  0
  153.5442  141.9289  160.2174 C   0  0  0  0  0  0  0  0  0  0  0  0
  152.6087  142.6797  159.2441 C   0  0  1  0  0  0  0  0  0  0  0  0
  151.3393  141.9694  159.0861 N   0  0  0  0  0  0  0  0  0  0  0  0
  150.8152  141.5528  157.9239 C   0  0  0  0  0  0  0  0  0  0  0  0
  151.3460  141.7523  156.8307 O   0  0  0  0  0  0  0  0  0  0  0  0
  149.4763  140.8099  158.0181 C   0  0  0  0  0  0  0  0  0  0  0  0
  148.4601  141.3491  157.1052 N   0  0  0  0  0  0  0  0  0  0  0  0
  148.6888  141.3375  155.7411 C   0  0  0  0  0  0  0  0  0  0  0  0
  147.8030  141.8022  154.8334 C   0  0  0  0  0  0  0  0  0  0  0  0
  146.5230  142.3565  155.2554 C   0  0  0  0  0  0  0  0  0  0  0  0
  145.6762  142.7820  154.4684 O   0  0  0  0  0  0  0  0  0  0  0  0
  146.3167  142.3648  156.6539 N   0  0  0  0  0  0  0  0  0  0  0  0
  145.0503  142.8934  157.1157 C   0  0  0  0  0  0  0  0  0  0  0  0
  147.2445  141.8708  157.6007 C   0  0  0  0  0  0  0  0  0  0  0  0
  147.0208  141.8810  158.8136 O   0  0  0  0  0  0  0  0  0  0  0  0
  150.4424  144.5283  158.7614 H   0  0  0  0  0  0  0  0  0  0  0  0
  151.8324  144.9097  157.7471 H   0  0  0  0  0  0  0  0  0  0  0  0
  151.3913  145.9749  159.0750 H   0  0  0  0  0  0  0  0  0  0  0  0
  153.3474  144.6370  159.6940 H   0  0  0  0  0  0  0  0  0  0  0  0
  151.7759  145.2215  161.4976 H   0  0  0  0  0  0  0  0  0  0  0  0
  150.8744  143.7510  161.2350 H   0  0  0  0  0  0  0  0  0  0  0  0
  153.7783  143.9547  162.1656 H   0  0  0  0  0  0  0  0  0  0  0  0
  152.4154  143.4521  163.1361 H   0  0  0  0  0  0  0  0  0  0  0  0
  153.7532  141.4953  162.3296 H   0  0  0  0  0  0  0  0  0  0  0  0
  152.1051  141.4280  161.7576 H   0  0  0  0  0  0  0  0  0  0  0  0
  154.5385  142.3747  160.1708 H   0  0  0  0  0  0  0  0  0  0  0  0
  153.6670  140.8905  159.9074 H   0  0  0  0  0  0  0  0  0  0  0  0
  153.0955  142.7191  158.2678 H   0  0  0  0  0  0  0  0  0  0  0  0
  150.8281  141.7671  159.9330 H   0  0  0  0  0  0  0  0  0  0  0  0
  149.6233  139.7462  157.8215 H   0  0  0  0  0  0  0  0  0  0  0  0
  149.1266  140.8728  159.0495 H   0  0  0  0  0  0  0  0  0  0  0  0
  149.6221  140.9316  155.3782 H   0  0  0  0  0  0  0  0  0  0  0  0
  148.0430  141.7603  153.7810 H   0  0  0  0  0  0  0  0  0  0  0  0
  145.0380  143.0013  158.1998 H   0  0  0  0  0  0  0  0  0  0  0  0
  144.2774  142.1942  156.7922 H   0  0  0  0  0  0  0  0  0  0  0  0
  144.9150  143.8760  156.6600 H   0  0  0  0  0  0  0  0  0  0  0  0
  1  2  1  0  0  0  0
  1 21  1  0  0  0  0
  1 22  1  0  0  0  0
  1 23  1  0  0  0  0
  2  7  1  0  0  0  0
  2  3  1  0  0  0  0
  2 24  1  0  0  0  0
  3  4  1  0  0  0  0
  3 25  1  0  0  0  0
  3 26  1  0  0  0  0
  4  5  1  0  0  0  0
  4 27  1  0  0  0  0
  4 28  1  0  0  0  0
  5  6  1  0  0  0  0
  5 29  1  0  0  0  0
  5 30  1  0  0  0  0
  6  7  1  0  0  0  0
  6 31  1  0  0  0  0
  6 32  1  0  0  0  0
  7  8  1  0  0  0  0
  7 33  1  0  0  0  0
  8  9  1  0  0  0  0
  8 34  1  0  0  0  0
  9 10  2  0  0  0  0
  9 11  1  0  0  0  0
 11 12  1  0  0  0  0
 11 35  1  0  0  0  0
 11 36  1  0  0  0  0
 12 19  1  0  0  0  0
 12 13  1  0  0  0  0
 13 14  2  0  0  0  0
 13 37  1  0  0  0  0
 14 15  1  0  0  0  0
 14 38  1  0  0  0  0
 15 16  2  0  0  0  0
 15 17  1  0  0  0  0
 17 18  1  0  0  0  0
 17 19  1  0  0  0  0
 18 39  1  0  0  0  0
 18 40  1  0  0  0  0
 18 41  1  0  0  0  0
 19 20  2  0  0  0  0
M  END
> <s_m_source_file>
AV-unprocessed.smi

> <i_m_source_file_index>
2152

> <i_lp_mmshare_version>
43012

> <i_f3d_flags>
0

> <s_epik_input>
W0NIM11bQ0BASF0xW0NIMl1bQ0gyXVtDSDJdW0NIMl1bQ0BIXTFbTkhdQyg9TylbQ0gyXW4yW2NIXVtjSF1jKD1PKW4oW0NIM10pYzI9Tw==

> <s_epik_cmdline>
J2VwaWtfcHl0aG9uJywgJy1waCcsICc3LjAnLCAnLXRuJywgJzgnLCAnLW1hJywgJzIwMCcsICctbWV0YWxfYmluZGluZycsICctaW1hZScsICc8aW5maWxlLm1hZT4nLCAnLW9tYWUnLCAnPG91dGZpbGUubWFlPic=

> <r_lp_tautomer_probability>
1

> <r_epik_Ionization_Penalty>
3.20555e-08

> <r_epik_Ionization_Penalty_Charging>
1.30086e-08

> <r_epik_Ionization_Penalty_Neutral>
1.90469e-08

> <r_epik_State_Penalty>
-0

> <r_epik_Charging_Adjusted_Penalty>
1.30086e-08

> <i_epik_Tot_Q>
0

> <i_epik_Tot_abs_Q>
0

> <r_epik_Metal_State_Penalty>
-0

> <b_epik_Metal_Only>
0

> <s_lp_Force_Field>
OPLS_2005

> <r_lp_Energy>
17.5723

> <b_lp_Chiralities_Consistent>
1

> <s_lp_Variant>
AV-unprocessed.smi:2152-2

> <Gold.Version>
5.8.1

> <Gold.Id.Protein>
6NUR|6NUR_protein|mol2

> <Gold.PLP.Fitness>
42.8933

> <Gold.PLP.PLP>
-42.0121

> <Gold.PLP.part.hbond>
-1.0000

> <Gold.PLP.part.metal>
0.0000

> <Gold.PLP.part.buried>
-5.9604

> <Gold.PLP.part.nonpolar>
-35.8528

> <Gold.PLP.part.repulsive>
0.4266

> <Gold.PLP.ligand.clash>
0.0000

> <Gold.PLP.ligand.torsion>
0.1240

> <Gold.PLP.Chemscore.Hbond>
0.3731

> <Gold.PLP.Chemscore.CHOScore>
0.0000

> <Gold.PLP.Chemscore.Metal>
0.0000

> <Gold.Chemscore.Hbonds>
donor molecule, donor type, donor heavy atom, donor atom, acceptor molecule, acceptor atom, score
      P1  H  6934  6946       L1    20  0.41

> <Gold.PLP.Chemscore.Internal.Correction>
0.0100

> <Gold.Rescore>
     Score         DG    S(hbond)    S(metal)    S(lipo)     H(rot)  DE(clash)    DE(int)     intcor
     13.70     -15.07       0.61        0.00      97.84       1.52       0.07       1.29       ----

> <Gold.Chemscore.Fitness>
13.7025

> <Gold.Chemscore.DG>
-15.0675

> <Gold.Chemscore.ZeroCoef>
-5.4800

> <Gold.Chemscore.Hbond>
0.6115

> <Gold.Chemscore.Metal>
0.0000

> <Gold.Chemscore.Lipo>
97.8367

> <Gold.Chemscore.Internal_Hbond>
0.0000

> <Gold.Chemscore.DEClash>
0.0735

> <Gold.Chemscore.DEInternal>
1.2914

> <Gold.Chemscore.Rot>
1.5242

> <Gold.Chemscore.Internal.Correction>
   9.000000E+99

> <Gold.Chemscore.Hbonds>
donor molecule, donor type, donor heavy atom, donor atom, acceptor molecule, acceptor atom, score
      P1  H  6934  6946       L1    20  0.42

> <Gold.Chemscore.Hbond.Weighted>
-2.0425

> <Gold.Chemscore.Metal.Weighted>
-0.0000

> <Gold.Chemscore.Lipo.Weighted>
-11.4469

> <Gold.Chemscore.Internal_Hbond.Weighted>
0.0000

> <Gold.Chemscore.DEClash.Weighted>
0.0735

> <Gold.Chemscore.DEInternal.Weighted>
1.2914

> <Gold.Chemscore.Rot.Weighted>
3.9019

> <Gold.Chemscore.Internal.Correction.Weighted>
   9.000000E+99

> <Gold.Protein.RotatedTorsions>
[ 6907 6896 6895 6894 ] final  129.98 input  -60.11 | X-H torsion
[ 7974 7965 7964 7962 ] final   86.17 input  175.53 | X-H torsion
[ 8008 7997 7996 7995 ] final -113.71 input   59.86 | X-H torsion
[ 10167 10162 10161 10158 ] final   38.26 input  -65.29 | X-H torsion
[ 10718 10713 10712 10709 ] final  -89.91 input   66.30 | X-H torsion
[ 10763 10752 10751 10750 ] final  130.47 input  -60.55 | X-H torsion
[ 11005 11000 10999 10996 ] final -141.22 input  -57.11 | X-H torsion

> <Gold.Protein.ActiveResidues>
 VAL166  LYS551  ARG553  GLY616  TRP617  ASP618  TYR619  PRO620  LYS621  CYS622 
 ASP623  PHE694  ASN695  SER759  ASP760  ASP761  ALA762  ILE779  LEU786  VAL792 
 PHE793  MET794  SER795  GLU796  ALA797  LYS798  CYS799  TRP800  GLU811  SER814 

> <Gold.Protein.RotatedAtoms>
  152.3571  133.6251  159.5987 H   0  0  0  0  0  0  0  0  0  0  0  0  # atno 6907 bound_to 6896
  150.7576  133.9482  159.3486 H   0  0  0  0  0  0  0  0  0  0  0  0  # atno 6908 bound_to 6896
  151.7326  135.0872  160.0354 H   0  0  0  0  0  0  0  0  0  0  0  0  # atno 6909 bound_to 6896
  145.5758  139.2319  143.2380 H   0  0  0  0  0  0  0  0  0  0  0  0  # atno 7974 bound_to 7965
  155.0249  140.0393  157.2452 H   0  0  0  0  0  0  0  0  0  0  0  0  # atno 8008 bound_to 7997
  154.7346  140.2737  155.6403 H   0  0  0  0  0  0  0  0  0  0  0  0  # atno 8009 bound_to 7997
  156.2850  140.2677  156.2056 H   0  0  0  0  0  0  0  0  0  0  0  0  # atno 8010 bound_to 7997
  140.3953  144.1797  150.6132 H   0  0  0  0  0  0  0  0  0  0  0  0  # atno 10167 bound_to 10162
  155.9986  130.4890  150.5243 H   0  0  0  0  0  0  0  0  0  0  0  0  # atno 10718 bound_to 10713
  153.7586  135.3199  155.3333 H   0  0  0  0  0  0  0  0  0  0  0  0  # atno 10763 bound_to 10752
  154.8238  135.4584  154.0860 H   0  0  0  0  0  0  0  0  0  0  0  0  # atno 10764 bound_to 10752
  153.2084  135.6932  153.8227 H   0  0  0  0  0  0  0  0  0  0  0  0  # atno 10765 bound_to 10752
  140.8346  134.2476  157.4840 H   0  0  0  0  0  0  0  0  0  0  0  0  # atno 11005 bound_to 11000
  146.1752  140.6584  142.9215 LP  0  0  0  0  0  0  0  0  0  0  0  0  # atno 17320 bound_to 7965
  144.7416  140.4958  143.6865 LP  0  0  0  0  0  0  0  0  0  0  0  0  # atno 17321 bound_to 7965
  140.4796  143.2383  151.8973 LP  0  0  0  0  0  0  0  0  0  0  0  0  # atno 17342 bound_to 10162
  139.4787  144.5283  151.8703 LP  0  0  0  0  0  0  0  0  0  0  0  0  # atno 17343 bound_to 10162
  157.3201  131.0680  151.1938 LP  0  0  0  0  0  0  0  0  0  0  0  0  # atno 17370 bound_to 10713
  157.2855  130.6770  149.6087 LP  0  0  0  0  0  0  0  0  0  0  0  0  # atno 17371 bound_to 10713
  139.8704  134.9604  156.4362 LP  0  0  0  0  0  0  0  0  0  0  0  0  # atno 17394 bound_to 11000
  140.8961  133.7813  155.9627 LP  0  0  0  0  0  0  0  0  0  0  0  0  # atno 17395 bound_to 11000

$$$$
