AV-unprocessed.smi:2310|AV-procd|sdf|9260|dock4
  -GOLD-   2272012483D 1   1.00000     0.00000
 Structure written by MMmdl.
 45 46  0  0  0  0  0  0  0  0  3 V2000
  148.9055  133.8324  155.1833 C   0  0  0  0  0  0  0  0  0  0  0  0
  150.2044  134.6610  155.1518 C   0  0  0  0  0  0  0  0  0  0  0  0
  151.0315  134.6251  156.4569 C   0  0  1  0  0  0  0  0  0  0  0  0
  151.8375  133.3178  156.5958 C   0  0  0  0  0  0  0  0  0  0  0  0
  151.0962  132.0876  156.2629 C   0  0  0  0  0  0  0  0  0  0  0  0
  150.5150  131.1190  156.0055 N   0  0  0  0  0  0  0  0  0  0  0  0
  151.9477  135.7709  156.4920 N   0  5  0  0  0  0  0  0  0  0  0  0
  151.9715  136.7203  157.4650 C   0  0  0  0  0  0  0  0  0  0  0  0
  151.7932  136.5632  158.6785 O   0  0  0  0  0  0  0  0  0  0  0  0
  152.2551  137.9394  156.9746 N   0  0  0  0  0  0  0  0  0  0  0  0
  152.3535  139.1748  157.6706 C   0  0  0  0  0  0  0  0  0  0  0  0
  152.9566  139.2871  158.9465 C   0  0  0  0  0  0  0  0  0  0  0  0
  152.9950  140.5386  159.5927 C   0  0  0  0  0  0  0  0  0  0  0  0
  152.4179  141.6682  158.9672 C   0  0  0  0  0  0  0  0  0  0  0  0
  152.4228  142.9503  159.5482 N   0  0  0  0  0  0  0  0  0  0  0  0
  151.8468  144.1030  158.8675 C   0  0  0  0  0  0  0  0  0  0  0  0
  151.4051  145.0595  159.9810 C   0  0  0  0  0  0  0  0  0  0  0  0
  152.2437  144.6388  161.1880 C   0  0  0  0  0  0  0  0  0  0  0  0
  152.4076  143.1326  160.9899 C   0  0  0  0  0  0  0  0  0  0  0  0
  151.8401  141.5098  157.7530 N   0  3  0  0  0  0  0  0  0  0  0  0
  151.7787  140.3311  157.0940 C   0  0  0  0  0  0  0  0  0  0  0  0
  151.0918  140.3192  155.7407 C   0  0  0  0  0  0  0  0  0  0  0  0
  148.4006  133.8874  154.2188 H   0  0  0  0  0  0  0  0  0  0  0  0
  148.2017  134.1978  155.9332 H   0  0  0  0  0  0  0  0  0  0  0  0
  149.0960  132.7770  155.3861 H   0  0  0  0  0  0  0  0  0  0  0  0
  150.8241  134.2829  154.3381 H   0  0  0  0  0  0  0  0  0  0  0  0
  149.9655  135.6921  154.8877 H   0  0  0  0  0  0  0  0  0  0  0  0
  150.3271  134.6557  157.2899 H   0  0  0  0  0  0  0  0  0  0  0  0
  152.7321  133.3496  155.9732 H   0  0  0  0  0  0  0  0  0  0  0  0
  152.1807  133.2094  157.6247 H   0  0  0  0  0  0  0  0  0  0  0  0
  152.5057  137.9650  155.9970 H   0  0  0  0  0  0  0  0  0  0  0  0
  153.3787  138.4277  159.4455 H   0  0  0  0  0  0  0  0  0  0  0  0
  153.4636  140.6117  160.5626 H   0  0  0  0  0  0  0  0  0  0  0  0
  152.6147  144.5629  158.2447 H   0  0  0  0  0  0  0  0  0  0  0  0
  151.0048  143.8327  158.2291 H   0  0  0  0  0  0  0  0  0  0  0  0
  151.5370  146.1087  159.7156 H   0  0  0  0  0  0  0  0  0  0  0  0
  150.3486  144.9012  160.2003 H   0  0  0  0  0  0  0  0  0  0  0  0
  153.2192  145.1257  161.1463 H   0  0  0  0  0  0  0  0  0  0  0  0
  151.7794  144.8933  162.1411 H   0  0  0  0  0  0  0  0  0  0  0  0
  151.5607  142.5933  161.4164 H   0  0  0  0  0  0  0  0  0  0  0  0
  153.3237  142.7651  161.4531 H   0  0  0  0  0  0  0  0  0  0  0  0
  150.2331  139.6477  155.7575 H   0  0  0  0  0  0  0  0  0  0  0  0
  151.7813  139.9756  154.9692 H   0  0  0  0  0  0  0  0  0  0  0  0
  150.7410  141.3134  155.4622 H   0  0  0  0  0  0  0  0  0  0  0  0
  151.4253  142.3279  157.3074 H   0  0  0  0  0  0  0  0  0  0  0  0
  1  2  1  0  0  0  0
  1 23  1  0  0  0  0
  1 24  1  0  0  0  0
  1 25  1  0  0  0  0
  2  3  1  0  0  0  0
  2 26  1  0  0  0  0
  2 27  1  0  0  0  0
  3  4  1  0  0  0  0
  3  7  1  0  0  0  0
  3 28  1  0  0  0  0
  4  5  1  0  0  0  0
  4 29  1  0  0  0  0
  4 30  1  0  0  0  0
  5  6  3  0  0  0  0
  7  8  1  0  0  0  0
  8  9  2  0  0  0  0
  8 10  1  0  0  0  0
 10 11  1  0  0  0  0
 10 31  1  0  0  0  0
 11 21  1  0  0  0  0
 11 12  2  0  0  0  0
 12 13  1  0  0  0  0
 12 32  1  0  0  0  0
 13 14  2  0  0  0  0
 13 33  1  0  0  0  0
 14 15  1  0  0  0  0
 14 20  1  0  0  0  0
 15 19  1  0  0  0  0
 15 16  1  0  0  0  0
 16 17  1  0  0  0  0
 16 34  1  0  0  0  0
 16 35  1  0  0  0  0
 17 18  1  0  0  0  0
 17 36  1  0  0  0  0
 17 37  1  0  0  0  0
 18 19  1  0  0  0  0
 18 38  1  0  0  0  0
 18 39  1  0  0  0  0
 19 40  1  0  0  0  0
 19 41  1  0  0  0  0
 20 21  2  0  0  0  0
 20 45  1  0  0  0  0
 21 22  1  0  0  0  0
 22 42  1  0  0  0  0
 22 43  1  0  0  0  0
 22 44  1  0  0  0  0
M  CHG  1   7  -1
M  CHG  1  20   1
M  END
> <s_m_source_file>
AV-unprocessed.smi

> <i_m_source_file_index>
2310

> <i_lp_mmshare_version>
43012

> <i_f3d_flags>
0

> <s_epik_input>
TiNDW0NIMl1bQ0BASF0oW0NIMl1bQ0gzXSlbTkhdQyg9TylbTkhdYzFbY0hdW2NIXWMobmMxW0NIM10pTjJbQ0gyXVtDSDJdW0NIMl1bQ0gyXTI=

> <s_epik_cmdline>
J2VwaWtfcHl0aG9uJywgJy1waCcsICc3LjAnLCAnLXRuJywgJzgnLCAnLW1hJywgJzIwMCcsICctbWV0YWxfYmluZGluZycsICctaW1hZScsICc8aW5maWxlLm1hZT4nLCAnLW9tYWUnLCAnPG91dGZpbGUubWFlPic=

> <r_lp_tautomer_probability>
0.999994

> <r_epik_Ionization_Penalty>
7.34515

> <r_epik_Ionization_Penalty_Charging>
7.34514

> <r_epik_Ionization_Penalty_Neutral>
2.56118e-06

> <r_epik_State_Penalty>
6.99243

> <r_epik_Charging_Adjusted_Penalty>
14.3376

> <i_epik_Tot_Q>
0

> <i_epik_Tot_abs_Q>
2

> <r_epik_Metal_State_Penalty>
3.10684

> <b_epik_Metal_Only>
1

> <s_lp_Force_Field>
OPLS_2005

> <r_lp_Energy>
34.805

> <b_lp_Chiralities_Consistent>
1

> <s_lp_Variant>
AV-unprocessed.smi:2310-6

> <Gold.Version>
5.8.1

> <Gold.Id.Protein>
6NUR|6NUR_protein|mol2

> <Gold.PLP.Fitness>
48.1630

> <Gold.PLP.PLP>
-41.7426

> <Gold.PLP.part.hbond>
-2.0000

> <Gold.PLP.part.metal>
0.0000

> <Gold.PLP.part.buried>
-3.2301

> <Gold.PLP.part.nonpolar>
-35.6612

> <Gold.PLP.part.repulsive>
0.1741

> <Gold.PLP.ligand.clash>
0.0000

> <Gold.PLP.ligand.torsion>
1.0705

> <Gold.PLP.Chemscore.Hbond>
2.7520

> <Gold.PLP.Chemscore.CHOScore>
0.0000

> <Gold.PLP.Chemscore.Metal>
0.0000

> <Gold.Chemscore.Hbonds>
donor molecule, donor type, donor heavy atom, donor atom, acceptor molecule, acceptor atom, score
      P1  H  6896  6908       L1     9  0.67
      P1  H 10752 10764       L1     7  2.00

> <Gold.PLP.Chemscore.Internal.Correction>
0.3053

> <Gold.Rescore>
     Score         DG    S(hbond)    S(metal)    S(lipo)     H(rot)  DE(clash)    DE(int)     intcor
     15.68     -18.07       1.52        0.00      95.96       1.45       0.09       2.30       ----

> <Gold.Chemscore.Fitness>
15.6779

> <Gold.Chemscore.DG>
-18.0698

> <Gold.Chemscore.ZeroCoef>
-5.4800

> <Gold.Chemscore.Hbond>
1.5186

> <Gold.Chemscore.Metal>
0.0000

> <Gold.Chemscore.Lipo>
95.9639

> <Gold.Chemscore.Internal_Hbond>
0.0000

> <Gold.Chemscore.DEClash>
0.0907

> <Gold.Chemscore.DEInternal>
2.3012

> <Gold.Chemscore.Rot>
1.4492

> <Gold.Chemscore.Internal.Correction>
   9.000000E+99

> <Gold.Chemscore.Hbonds>
donor molecule, donor type, donor heavy atom, donor atom, acceptor molecule, acceptor atom, score
      P1  H  6896  6908       L1     9  0.68
      P1  H 10752 10764       L1     7  0.50

> <Gold.Chemscore.Hbond.Weighted>
-5.0720

> <Gold.Chemscore.Metal.Weighted>
-0.0000

> <Gold.Chemscore.Lipo.Weighted>
-11.2278

> <Gold.Chemscore.Internal_Hbond.Weighted>
0.0000

> <Gold.Chemscore.DEClash.Weighted>
0.0907

> <Gold.Chemscore.DEInternal.Weighted>
2.3012

> <Gold.Chemscore.Rot.Weighted>
3.7100

> <Gold.Chemscore.Internal.Correction.Weighted>
   9.000000E+99

> <Gold.Protein.RotatedTorsions>
[ 6907 6896 6895 6894 ] final -136.14 input  -60.11 | X-H torsion
[ 7974 7965 7964 7962 ] final  163.68 input  175.53 | X-H torsion
[ 8008 7997 7996 7995 ] final    2.27 input   59.86 | X-H torsion
[ 10167 10162 10161 10158 ] final   -6.47 input  -65.29 | X-H torsion
[ 10718 10713 10712 10709 ] final  -37.56 input   66.30 | X-H torsion
[ 10763 10752 10751 10750 ] final  -26.62 input  -60.55 | X-H torsion
[ 11005 11000 10999 10996 ] final  -31.40 input  -57.11 | X-H torsion

> <Gold.Protein.ActiveResidues>
 VAL166  LYS551  ARG553  GLY616  TRP617  ASP618  TYR619  PRO620  LYS621  CYS622 
 ASP623  PHE694  ASN695  SER759  ASP760  ASP761  ALA762  ILE779  LEU786  VAL792 
 PHE793  MET794  SER795  GLU796  ALA797  LYS798  CYS799  TRP800  GLU811  SER814 

> <Gold.Protein.RotatedAtoms>
  151.0064  133.6006  159.2687 H   0  0  0  0  0  0  0  0  0  0  0  0  # atno 6907 bound_to 6896
  151.3174  135.0809  159.9303 H   0  0  0  0  0  0  0  0  0  0  0  0  # atno 6908 bound_to 6896
  152.5288  133.9718  159.7820 H   0  0  0  0  0  0  0  0  0  0  0  0  # atno 6909 bound_to 6896
  144.7579  139.8217  143.6343 H   0  0  0  0  0  0  0  0  0  0  0  0  # atno 7974 bound_to 7965
  154.6896  140.2650  155.6825 H   0  0  0  0  0  0  0  0  0  0  0  0  # atno 8008 bound_to 7997
  156.2727  140.2794  156.1393 H   0  0  0  0  0  0  0  0  0  0  0  0  # atno 8009 bound_to 7997
  155.0915  140.0373  157.2660 H   0  0  0  0  0  0  0  0  0  0  0  0  # atno 8010 bound_to 7997
  140.6998  143.6190  150.8631 H   0  0  0  0  0  0  0  0  0  0  0  0  # atno 10167 bound_to 10162
  156.3138  130.4256  149.8025 H   0  0  0  0  0  0  0  0  0  0  0  0  # atno 10718 bound_to 10713
  153.7189  135.6946  153.5018 H   0  0  0  0  0  0  0  0  0  0  0  0  # atno 10763 bound_to 10752
  153.2218  135.4367  155.0496 H   0  0  0  0  0  0  0  0  0  0  0  0  # atno 10764 bound_to 10752
  154.8291  135.3462  154.6723 H   0  0  0  0  0  0  0  0  0  0  0  0  # atno 10765 bound_to 10752
  140.9465  133.7247  156.1154 H   0  0  0  0  0  0  0  0  0  0  0  0  # atno 11005 bound_to 11000
  146.1610  139.4724  142.9988 LP  0  0  0  0  0  0  0  0  0  0  0  0  # atno 17320 bound_to 7965
  145.6718  141.0214  143.1654 LP  0  0  0  0  0  0  0  0  0  0  0  0  # atno 17321 bound_to 7965
  139.9911  143.5846  152.2910 LP  0  0  0  0  0  0  0  0  0  0  0  0  # atno 17342 bound_to 10162
  139.6501  144.7660  151.2164 LP  0  0  0  0  0  0  0  0  0  0  0  0  # atno 17343 bound_to 10162
  156.5358  130.8278  151.3252 LP  0  0  0  0  0  0  0  0  0  0  0  0  # atno 17370 bound_to 10713
  157.7397  130.9836  150.2329 LP  0  0  0  0  0  0  0  0  0  0  0  0  # atno 17371 bound_to 10713
  140.7662  134.3884  157.5516 LP  0  0  0  0  0  0  0  0  0  0  0  0  # atno 17394 bound_to 11000
  139.8835  134.8993  156.2763 LP  0  0  0  0  0  0  0  0  0  0  0  0  # atno 17395 bound_to 11000

$$$$
