AV-unprocessed.smi:1288|AV-procd|sdf|5384|dock5
  -GOLD-   22720 4533D 1   1.00000     0.00000
 Structure written by MMmdl.
 43 45  0  0  0  0  0  0  0  0  2 V2000
  149.9479  141.3707  155.3444 C   0  0  0  0  0  0  0  0  0  0  0  0
  150.6785  141.8868  156.5383 C   0  0  0  0  0  0  0  0  0  0  0  0
  150.8596  143.1979  156.8627 N   0  3  0  0  0  0  0  0  0  0  0  0
  151.5914  143.2943  158.0470 C   0  0  0  0  0  0  0  0  0  0  0  0
  152.0198  144.4073  158.7641 C   0  0  0  0  0  0  0  0  0  0  0  0
  152.7559  144.1572  159.9405 C   0  0  0  0  0  0  0  0  0  0  0  0
  153.0407  142.8423  160.3625 C   0  0  0  0  0  0  0  0  0  0  0  0
  152.6004  141.7220  159.6275 C   0  0  0  0  0  0  0  0  0  0  0  0
  151.8710  141.9771  158.4662 C   0  0  0  0  0  0  0  0  0  0  0  0
  151.2866  141.1423  157.5053 N   0  0  0  0  0  0  0  0  0  0  0  0
  151.3914  139.6804  157.6433 C   0  0  0  0  0  0  0  0  0  0  0  0
  150.4162  139.1051  158.6899 C   0  0  1  0  0  0  0  0  0  0  0  0
  149.0941  139.4721  158.3491 O   0  0  0  0  0  0  0  0  0  0  0  0
  150.4899  137.5720  158.7597 C   0  0  0  0  0  0  0  0  0  0  0  0
  149.6976  137.1234  159.8467 O   0  0  0  0  0  0  0  0  0  0  0  0
  148.8848  136.0106  159.5141 C   0  0  0  0  0  0  0  0  0  0  0  0
  148.1345  135.4969  160.7272 C   0  0  0  0  0  0  0  0  0  0  0  0
  148.0396  136.2956  161.8864 C   0  0  0  0  0  0  0  0  0  0  0  0
  147.3388  135.8268  163.0148 C   0  0  0  0  0  0  0  0  0  0  0  0
  146.7304  134.5573  162.9884 C   0  0  0  0  0  0  0  0  0  0  0  0
  146.8206  133.7581  161.8325 C   0  0  0  0  0  0  0  0  0  0  0  0
  147.5195  134.2261  160.7023 C   0  0  0  0  0  0  0  0  0  0  0  0
  147.5949  133.4508  159.5938 F   0  0  0  0  0  0  0  0  0  0  0  0
  149.6020  142.1949  154.7200 H   0  0  0  0  0  0  0  0  0  0  0  0
  149.0830  140.7857  155.6574 H   0  0  0  0  0  0  0  0  0  0  0  0
  150.6021  140.7352  154.7478 H   0  0  0  0  0  0  0  0  0  0  0  0
  151.8046  145.4155  158.4416 H   0  0  0  0  0  0  0  0  0  0  0  0
  153.1106  144.9905  160.5299 H   0  0  0  0  0  0  0  0  0  0  0  0
  153.6100  142.6893  161.2677 H   0  0  0  0  0  0  0  0  0  0  0  0
  152.8312  140.7198  159.9568 H   0  0  0  0  0  0  0  0  0  0  0  0
  151.2499  139.2125  156.6689 H   0  0  0  0  0  0  0  0  0  0  0  0
  152.4191  139.4609  157.9349 H   0  0  0  0  0  0  0  0  0  0  0  0
  150.6573  139.5256  159.6670 H   0  0  0  0  0  0  0  0  0  0  0  0
  148.5545  138.6961  158.3750 H   0  0  0  0  0  0  0  0  0  0  0  0
  150.1736  137.1175  157.8190 H   0  0  0  0  0  0  0  0  0  0  0  0
  151.5210  137.2620  158.9377 H   0  0  0  0  0  0  0  0  0  0  0  0
  148.1695  136.2874  158.7379 H   0  0  0  0  0  0  0  0  0  0  0  0
  149.5008  135.2082  159.1052 H   0  0  0  0  0  0  0  0  0  0  0  0
  148.5027  137.2711  161.9132 H   0  0  0  0  0  0  0  0  0  0  0  0
  147.2674  136.4415  163.9000 H   0  0  0  0  0  0  0  0  0  0  0  0
  146.1934  134.1973  163.8536 H   0  0  0  0  0  0  0  0  0  0  0  0
  146.3520  132.7853  161.8117 H   0  0  0  0  0  0  0  0  0  0  0  0
  150.5076  143.9698  156.3114 H   0  0  0  0  0  0  0  0  0  0  0  0
  1  2  1  0  0  0  0
  1 24  1  0  0  0  0
  1 25  1  0  0  0  0
  1 26  1  0  0  0  0
  2 10  1  0  0  0  0
  2  3  2  0  0  0  0
  3  4  1  0  0  0  0
  3 43  1  0  0  0  0
  4  9  2  0  0  0  0
  4  5  1  0  0  0  0
  5  6  2  0  0  0  0
  5 27  1  0  0  0  0
  6  7  1  0  0  0  0
  6 28  1  0  0  0  0
  7  8  2  0  0  0  0
  7 29  1  0  0  0  0
  8  9  1  0  0  0  0
  8 30  1  0  0  0  0
  9 10  1  0  0  0  0
 10 11  1  0  0  0  0
 11 12  1  0  0  0  0
 11 31  1  0  0  0  0
 11 32  1  0  0  0  0
 12 13  1  0  0  0  0
 12 14  1  0  0  0  0
 12 33  1  0  0  0  0
 13 34  1  0  0  0  0
 14 15  1  0  0  0  0
 14 35  1  0  0  0  0
 14 36  1  0  0  0  0
 15 16  1  0  0  0  0
 16 17  1  0  0  0  0
 16 37  1  0  0  0  0
 16 38  1  0  0  0  0
 17 22  1  0  0  0  0
 17 18  2  0  0  0  0
 18 19  1  0  0  0  0
 18 39  1  0  0  0  0
 19 20  2  0  0  0  0
 19 40  1  0  0  0  0
 20 21  1  0  0  0  0
 20 41  1  0  0  0  0
 21 22  2  0  0  0  0
 21 42  1  0  0  0  0
 22 23  1  0  0  0  0
M  CHG  1   3   1
M  END
> <s_m_source_file>
AV-unprocessed.smi

> <i_m_source_file_index>
1288

> <i_lp_mmshare_version>
43012

> <i_f3d_flags>
0

> <s_epik_input>
W2NIXTFbY0hdW2NIXVtjSF1jKGMxMiluKGMobjIpW0NIM10pW0NIMl1bQ0BIXShbT0hdKVtDSDJdT1tDSDJdYzNbY0hdW2NIXVtjSF1bY0hdYzNG

> <s_epik_cmdline>
J2VwaWtfcHl0aG9uJywgJy1waCcsICc3LjAnLCAnLXRuJywgJzgnLCAnLW1hJywgJzIwMCcsICctbWV0YWxfYmluZGluZycsICctaW1hZScsICc8aW5maWxlLm1hZT4nLCAnLW9tYWUnLCAnPG91dGZpbGUubWFlPic=

> <r_epik_Ionization_Penalty>
0.952

> <r_epik_Ionization_Penalty_Charging>
0.951999

> <r_epik_Ionization_Penalty_Neutral>
1.07667e-06

> <r_epik_State_Penalty>
0.996343

> <r_epik_Charging_Adjusted_Penalty>
1.94834

> <i_epik_Tot_Q>
1

> <i_epik_Tot_abs_Q>
1

> <r_epik_Metal_State_Penalty>
4.96724

> <b_epik_Metal_Only>
0

> <s_lp_Force_Field>
OPLS_2005

> <r_lp_Energy>
19.2213

> <b_lp_Chiralities_Consistent>
1

> <s_lp_Variant>
AV-unprocessed.smi:1288-4

> <Gold.Version>
5.8.1

> <Gold.Id.Protein>
6NUR|6NUR_protein|mol2

> <Gold.PLP.Fitness>
57.6789

> <Gold.PLP.PLP>
-53.9251

> <Gold.PLP.part.hbond>
-2.1606

> <Gold.PLP.part.metal>
0.0000

> <Gold.PLP.part.buried>
-5.0559

> <Gold.PLP.part.nonpolar>
-48.0571

> <Gold.PLP.part.repulsive>
0.0614

> <Gold.PLP.ligand.clash>
0.0000

> <Gold.PLP.ligand.torsion>
0.7771

> <Gold.PLP.Chemscore.Hbond>
1.7600

> <Gold.PLP.Chemscore.CHOScore>
0.0000

> <Gold.PLP.Chemscore.Metal>
0.0000

> <Gold.Chemscore.Hbonds>
donor molecule, donor type, donor heavy atom, donor atom, acceptor molecule, acceptor atom, score
      L1  H     3    43       P1  8028  1.73
      P1  H  6931  6943       L1    15  0.02

> <Gold.PLP.Chemscore.Internal.Correction>
0.0280

> <Gold.Rescore>
     Score         DG    S(hbond)    S(metal)    S(lipo)     H(rot)  DE(clash)    DE(int)     intcor
     17.79     -18.83       0.95        0.00     139.16       2.38       0.44       0.59       ----

> <Gold.Chemscore.Fitness>
17.7943

> <Gold.Chemscore.DG>
-18.8281

> <Gold.Chemscore.ZeroCoef>
-5.4800

> <Gold.Chemscore.Hbond>
0.9466

> <Gold.Chemscore.Metal>
0.0000

> <Gold.Chemscore.Lipo>
139.1570

> <Gold.Chemscore.Internal_Hbond>
0.0000

> <Gold.Chemscore.DEClash>
0.4418

> <Gold.Chemscore.DEInternal>
0.5920

> <Gold.Chemscore.Rot>
2.3809

> <Gold.Chemscore.Internal.Correction>
   9.000000E+99

> <Gold.Chemscore.Hbonds>
donor molecule, donor type, donor heavy atom, donor atom, acceptor molecule, acceptor atom, score
      L1  H     3    43       P1  8028  0.85
      P1  H  6931  6943       L1    15  0.03

> <Gold.Chemscore.Hbond.Weighted>
-3.1618

> <Gold.Chemscore.Metal.Weighted>
-0.0000

> <Gold.Chemscore.Lipo.Weighted>
-16.2814

> <Gold.Chemscore.Internal_Hbond.Weighted>
0.0000

> <Gold.Chemscore.DEClash.Weighted>
0.4418

> <Gold.Chemscore.DEInternal.Weighted>
0.5920

> <Gold.Chemscore.Rot.Weighted>
6.0951

> <Gold.Chemscore.Internal.Correction.Weighted>
   9.000000E+99

> <Gold.Protein.RotatedTorsions>
[ 6907 6896 6895 6894 ] final  -71.52 input  -60.11 | X-H torsion
[ 7974 7965 7964 7962 ] final  -74.23 input  175.53 | X-H torsion
[ 8008 7997 7996 7995 ] final  -50.13 input   59.86 | X-H torsion
[ 10167 10162 10161 10158 ] final  -82.75 input  -65.29 | X-H torsion
[ 10718 10713 10712 10709 ] final  -24.36 input   66.30 | X-H torsion
[ 10763 10752 10751 10750 ] final  -79.39 input  -60.55 | X-H torsion
[ 11005 11000 10999 10996 ] final  -46.90 input  -57.11 | X-H torsion

> <Gold.Protein.ActiveResidues>
 VAL166  LYS551  ARG553  GLY616  TRP617  ASP618  TYR619  PRO620  LYS621  CYS622 
 ASP623  PHE694  ASN695  SER759  ASP760  ASP761  ALA762  ILE779  LEU786  VAL792 
 PHE793  MET794  SER795  GLU796  ALA797  LYS798  CYS799  TRP800  GLU811  SER814 

> <Gold.Protein.RotatedAtoms>
  150.7209  134.5296  159.5693 H   0  0  0  0  0  0  0  0  0  0  0  0  # atno 6907 bound_to 6896
  152.2832  134.7802  160.0401 H   0  0  0  0  0  0  0  0  0  0  0  0  # atno 6908 bound_to 6896
  151.8441  133.3393  159.3689 H   0  0  0  0  0  0  0  0  0  0  0  0  # atno 6909 bound_to 6896
  145.6419  140.9308  143.1031 H   0  0  0  0  0  0  0  0  0  0  0  0  # atno 7974 bound_to 7965
  154.4056  140.1280  156.4616 H   0  0  0  0  0  0  0  0  0  0  0  0  # atno 8008 bound_to 7997
  155.7267  140.3492  155.5021 H   0  0  0  0  0  0  0  0  0  0  0  0  # atno 8009 bound_to 7997
  155.9165  140.1045  157.1230 H   0  0  0  0  0  0  0  0  0  0  0  0  # atno 8010 bound_to 7997
  140.4291  143.2555  151.8784 H   0  0  0  0  0  0  0  0  0  0  0  0  # atno 10167 bound_to 10162
  156.4787  130.4540  149.6824 H   0  0  0  0  0  0  0  0  0  0  0  0  # atno 10718 bound_to 10713
  154.5380  135.5697  153.6815 H   0  0  0  0  0  0  0  0  0  0  0  0  # atno 10763 bound_to 10752
  152.9956  135.6221  154.2540 H   0  0  0  0  0  0  0  0  0  0  0  0  # atno 10764 bound_to 10752
  154.2470  135.2860  155.2811 H   0  0  0  0  0  0  0  0  0  0  0  0  # atno 10765 bound_to 10752
  141.0607  133.6710  156.3220 H   0  0  0  0  0  0  0  0  0  0  0  0  # atno 11005 bound_to 11000
  144.7154  139.8215  143.7400 LP  0  0  0  0  0  0  0  0  0  0  0  0  # atno 17320 bound_to 7965
  146.1274  139.4303  143.0190 LP  0  0  0  0  0  0  0  0  0  0  0  0  # atno 17321 bound_to 7965
  139.4784  144.5354  151.8606 LP  0  0  0  0  0  0  0  0  0  0  0  0  # atno 17342 bound_to 10162
  140.4447  144.1937  150.5893 LP  0  0  0  0  0  0  0  0  0  0  0  0  # atno 17343 bound_to 10162
  156.3543  130.7448  151.2412 LP  0  0  0  0  0  0  0  0  0  0  0  0  # atno 17370 bound_to 10713
  157.7485  131.0368  150.4427 LP  0  0  0  0  0  0  0  0  0  0  0  0  # atno 17371 bound_to 10713
  140.5874  134.5685  157.5492 LP  0  0  0  0  0  0  0  0  0  0  0  0  # atno 17394 bound_to 11000
  139.9430  134.7752  156.0631 LP  0  0  0  0  0  0  0  0  0  0  0  0  # atno 17395 bound_to 11000

$$$$
