AV-unprocessed.smi:3116|AV-procd|sdf|11867|dock2
  -GOLD-   2272017253D 1   1.00000     0.00000
 Structure written by MMmdl.
 34 34  0  0  0  0  0  0  0  0  2 V2000
  146.3812  138.7876  151.6188 C   0  0  0  0  0  0  0  0  0  0  0  0
  145.8581  137.9712  152.8096 C   0  0  1  0  0  0  0  0  0  0  0  0
  146.3384  136.5727  152.7058 N   0  3  0  0  0  0  0  0  0  0  0  0
  145.5598  135.6828  151.8086 C   0  0  2  0  0  0  0  0  0  0  0  0
  144.0623  135.9089  152.0770 C   0  0  0  0  0  0  0  0  0  0  0  0
  145.9832  134.2018  152.0097 C   0  0  1  0  0  0  0  0  0  0  0  0
  145.8393  133.7212  153.4668 C   0  0  0  0  0  0  0  0  0  0  0  0
  145.2533  133.3063  151.1190 N   0  0  0  0  0  0  0  0  0  0  0  0
  145.7660  132.4268  150.1873 C   0  0  0  0  0  0  0  0  0  0  0  0
  144.7090  131.8108  149.5813 C   0  0  0  0  0  0  0  0  0  0  0  0
  143.5733  132.3814  150.2199 C   0  0  0  0  0  0  0  0  0  0  0  0
  143.9015  133.2761  151.1377 N   0  0  0  0  0  0  0  0  0  0  0  0
  146.2930  138.6220  154.1301 C   0  0  0  0  0  0  0  0  0  0  0  0
  145.7863  139.8251  154.4116 N   0  0  0  0  0  0  0  0  0  0  0  0
  147.0848  138.0541  154.8803 O   0  0  0  0  0  0  0  0  0  0  0  0
  146.0227  139.8172  151.6553 H   0  0  0  0  0  0  0  0  0  0  0  0
  146.0417  138.3593  150.6749 H   0  0  0  0  0  0  0  0  0  0  0  0
  147.4716  138.8150  151.5976 H   0  0  0  0  0  0  0  0  0  0  0  0
  144.7690  137.9721  152.7574 H   0  0  0  0  0  0  0  0  0  0  0  0
  147.2884  136.5911  152.3643 H   0  0  0  0  0  0  0  0  0  0  0  0
  145.7468  135.9628  150.7704 H   0  0  0  0  0  0  0  0  0  0  0  0
  143.4385  135.3709  151.3637 H   0  0  0  0  0  0  0  0  0  0  0  0
  143.8027  136.9643  151.9878 H   0  0  0  0  0  0  0  0  0  0  0  0
  143.7842  135.5836  153.0799 H   0  0  0  0  0  0  0  0  0  0  0  0
  147.0382  134.1151  151.7441 H   0  0  0  0  0  0  0  0  0  0  0  0
  146.5195  134.2490  154.1344 H   0  0  0  0  0  0  0  0  0  0  0  0
  146.0732  132.6594  153.5525 H   0  0  0  0  0  0  0  0  0  0  0  0
  144.8250  133.8680  153.8395 H   0  0  0  0  0  0  0  0  0  0  0  0
  146.8290  132.3136  150.0327 H   0  0  0  0  0  0  0  0  0  0  0  0
  144.7418  131.0633  148.8024 H   0  0  0  0  0  0  0  0  0  0  0  0
  142.5277  132.1748  150.0444 H   0  0  0  0  0  0  0  0  0  0  0  0
  146.0377  140.2960  155.2688 H   0  0  0  0  0  0  0  0  0  0  0  0
  145.1467  140.2616  153.7629 H   0  0  0  0  0  0  0  0  0  0  0  0
  146.3404  136.1767  153.6351 H   0  0  0  0  0  0  0  0  0  0  0  0
  1  2  1  0  0  0  0
  1 16  1  0  0  0  0
  1 17  1  0  0  0  0
  1 18  1  0  0  0  0
  2  3  1  0  0  0  0
  2 13  1  0  0  0  0
  2 19  1  0  0  0  0
  3  4  1  0  0  0  0
  3 20  1  0  0  0  0
  3 34  1  0  0  0  0
  4  5  1  0  0  0  0
  4  6  1  0  0  0  0
  4 21  1  0  0  0  0
  5 22  1  0  0  0  0
  5 23  1  0  0  0  0
  5 24  1  0  0  0  0
  6  7  1  0  0  0  0
  6  8  1  0  0  0  0
  6 25  1  0  0  0  0
  7 26  1  0  0  0  0
  7 27  1  0  0  0  0
  7 28  1  0  0  0  0
  8 12  1  0  0  0  0
  8  9  1  0  0  0  0
  9 10  2  0  0  0  0
  9 29  1  0  0  0  0
 10 11  1  0  0  0  0
 10 30  1  0  0  0  0
 11 12  2  0  0  0  0
 11 31  1  0  0  0  0
 13 14  1  0  0  0  0
 13 15  2  0  0  0  0
 14 32  1  0  0  0  0
 14 33  1  0  0  0  0
M  CHG  1   3   1
M  END
> <s_m_source_file>
AV-unprocessed.smi

> <i_m_source_file_index>
3116

> <i_lp_mmshare_version>
43012

> <i_f3d_flags>
0

> <s_epik_input>
W05IMl1DKD1PKVtDQEhdKFtDSDNdKVtOSF1bQ0BIXShbQ0gzXSlbQ0BIXShbQ0gzXSluMVtjSF1bY0hdW2NIXW4x

> <s_epik_cmdline>
J2VwaWtfcHl0aG9uJywgJy1waCcsICc3LjAnLCAnLXRuJywgJzgnLCAnLW1hJywgJzIwMCcsICctbWV0YWxfYmluZGluZycsICctaW1hZScsICc8aW5maWxlLm1hZT4nLCAnLW9tYWUnLCAnPG91dGZpbGUubWFlPic=

> <r_lp_tautomer_probability>
1

> <r_epik_Ionization_Penalty>
0.15658

> <r_epik_Ionization_Penalty_Charging>
0.156568

> <r_epik_Ionization_Penalty_Neutral>
1.19778e-05

> <r_epik_State_Penalty>
0.145866

> <r_epik_Charging_Adjusted_Penalty>
0.302434

> <i_epik_Tot_Q>
1

> <i_epik_Tot_abs_Q>
1

> <r_epik_Metal_State_Penalty>
0.146064

> <b_epik_Metal_Only>
0

> <s_lp_Force_Field>
OPLS_2005

> <r_lp_Energy>
9.77371

> <b_lp_Chiralities_Consistent>
1

> <s_lp_Variant>
AV-unprocessed.smi:3116-6

> <Gold.Version>
5.8.1

> <Gold.Id.Protein>
6NUR|6NUR_protein|mol2

> <Gold.PLP.Fitness>
40.0586

> <Gold.PLP.PLP>
-24.5321

> <Gold.PLP.part.hbond>
-2.0000

> <Gold.PLP.part.metal>
0.0000

> <Gold.PLP.part.buried>
-2.2920

> <Gold.PLP.part.nonpolar>
-22.7043

> <Gold.PLP.part.repulsive>
0.2610

> <Gold.PLP.ligand.clash>
0.0000

> <Gold.PLP.ligand.torsion>
0.5284

> <Gold.PLP.Chemscore.Hbond>
3.0000

> <Gold.PLP.Chemscore.CHOScore>
2.4798

> <Gold.PLP.Chemscore.Metal>
0.0000

> <Gold.Chemscore.Hbonds>
donor molecule, donor type, donor heavy atom, donor atom, acceptor molecule, acceptor atom, score
      L1  H     3    20       P1  7948  2.00
      L1  H    14    33       P1 10175  1.00
      L1  C     9    29       P1 10747  0.84
      L1  C    11    31       P1 10186  0.32
      L1  C    11    31       P1 10952  0.98

> <Gold.PLP.Chemscore.Internal.Correction>
0.1439

> <Gold.Rescore>
     Score         DG    S(hbond)    S(metal)    S(lipo)     H(rot)  DE(clash)    DE(int)     intcor
     13.00     -13.77       1.98        0.00      67.73       2.45       0.01       0.75       ----

> <Gold.Chemscore.Fitness>
13.0038

> <Gold.Chemscore.DG>
-13.7667

> <Gold.Chemscore.ZeroCoef>
-5.4800

> <Gold.Chemscore.Hbond>
1.9835

> <Gold.Chemscore.Metal>
0.0000

> <Gold.Chemscore.Lipo>
67.7336

> <Gold.Chemscore.Internal_Hbond>
0.0000

> <Gold.Chemscore.DEClash>
0.0115

> <Gold.Chemscore.DEInternal>
0.7514

> <Gold.Chemscore.Rot>
2.4465

> <Gold.Chemscore.Internal.Correction>
   9.000000E+99

> <Gold.Chemscore.Hbonds>
donor molecule, donor type, donor heavy atom, donor atom, acceptor molecule, acceptor atom, score
      L1  H     3    20       P1  7948  1.00
      L1  H    14    33       P1 10175  0.98

> <Gold.Chemscore.Hbond.Weighted>
-6.6250

> <Gold.Chemscore.Metal.Weighted>
-0.0000

> <Gold.Chemscore.Lipo.Weighted>
-7.9248

> <Gold.Chemscore.Internal_Hbond.Weighted>
0.0000

> <Gold.Chemscore.DEClash.Weighted>
0.0115

> <Gold.Chemscore.DEInternal.Weighted>
0.7514

> <Gold.Chemscore.Rot.Weighted>
6.2631

> <Gold.Chemscore.Internal.Correction.Weighted>
   9.000000E+99

> <Gold.Protein.RotatedTorsions>
[ 6907 6896 6895 6894 ] final -132.31 input  -60.11 | X-H torsion
[ 7974 7965 7964 7962 ] final   96.02 input  175.53 | X-H torsion
[ 8008 7997 7996 7995 ] final  -70.69 input   59.86 | X-H torsion
[ 10167 10162 10161 10158 ] final   -8.91 input  -65.29 | X-H torsion
[ 10718 10713 10712 10709 ] final   -4.92 input   66.30 | X-H torsion
[ 10763 10752 10751 10750 ] final -172.90 input  -60.55 | X-H torsion
[ 11005 11000 10999 10996 ] final   66.75 input  -57.11 | X-H torsion

> <Gold.Protein.ActiveResidues>
 VAL166  LYS551  ARG553  GLY616  TRP617  ASP618  TYR619  PRO620  LYS621  CYS622 
 ASP623  PHE694  ASN695  SER759  ASP760  ASP761  ALA762  ILE779  LEU786  VAL792 
 PHE793  MET794  SER795  GLU796  ALA797  LYS798  CYS799  TRP800  GLU811  SER814 

> <Gold.Protein.RotatedAtoms>
  150.9610  133.6445  159.2754 H   0  0  0  0  0  0  0  0  0  0  0  0  # atno 6907 bound_to 6896
  151.3768  135.0931  159.9493 H   0  0  0  0  0  0  0  0  0  0  0  0  # atno 6908 bound_to 6896
  152.5147  133.9153  159.7562 H   0  0  0  0  0  0  0  0  0  0  0  0  # atno 6909 bound_to 6896
  145.4445  139.2298  143.3074 H   0  0  0  0  0  0  0  0  0  0  0  0  # atno 7974 bound_to 7965
  154.5031  140.0829  156.7838 H   0  0  0  0  0  0  0  0  0  0  0  0  # atno 8008 bound_to 7997
  155.3957  140.3434  155.4236 H   0  0  0  0  0  0  0  0  0  0  0  0  # atno 8009 bound_to 7997
  156.1481  140.1550  156.8801 H   0  0  0  0  0  0  0  0  0  0  0  0  # atno 8010 bound_to 7997
  140.7072  143.5916  150.8888 H   0  0  0  0  0  0  0  0  0  0  0  0  # atno 10167 bound_to 10162
  156.7542  130.5249  149.5798 H   0  0  0  0  0  0  0  0  0  0  0  0  # atno 10718 bound_to 10713
  154.6140  135.2867  155.0401 H   0  0  0  0  0  0  0  0  0  0  0  0  # atno 10763 bound_to 10752
  154.1620  135.6486  153.4992 H   0  0  0  0  0  0  0  0  0  0  0  0  # atno 10764 bound_to 10752
  153.0207  135.5380  154.6904 H   0  0  0  0  0  0  0  0  0  0  0  0  # atno 10765 bound_to 10752
  139.9813  134.6740  156.0258 H   0  0  0  0  0  0  0  0  0  0  0  0  # atno 11005 bound_to 11000
  146.2538  140.5197  142.8882 LP  0  0  0  0  0  0  0  0  0  0  0  0  # atno 17320 bound_to 7965
  144.8100  140.6369  143.6421 LP  0  0  0  0  0  0  0  0  0  0  0  0  # atno 17321 bound_to 7965
  139.9642  143.6130  152.2993 LP  0  0  0  0  0  0  0  0  0  0  0  0  # atno 17342 bound_to 10162
  139.6693  144.7661  151.1813 LP  0  0  0  0  0  0  0  0  0  0  0  0  # atno 17343 bound_to 10162
  156.1381  130.6225  151.0429 LP  0  0  0  0  0  0  0  0  0  0  0  0  # atno 17370 bound_to 10713
  157.6763  131.0849  150.7485 LP  0  0  0  0  0  0  0  0  0  0  0  0  # atno 17371 bound_to 10713
  141.1484  133.6552  156.3938 LP  0  0  0  0  0  0  0  0  0  0  0  0  # atno 17394 bound_to 11000
  140.5092  134.6412  157.5278 LP  0  0  0  0  0  0  0  0  0  0  0  0  # atno 17395 bound_to 11000

$$$$
