AV-unprocessed.smi:1252|AV-procd|sdf|5267|dock3
  -GOLD-   22720 4383D 1   1.00000     0.00000
 Structure written by MMmdl.
 44 45  0  0  0  0  0  0  0  0  2 V2000
  152.8611  138.5276  155.1123 C   0  0  0  0  0  0  0  0  0  0  0  0
  151.5315  138.0307  154.5096 C   0  0  1  0  0  0  0  0  0  0  0  0
  151.0492  136.7228  155.1553 C   0  0  0  0  0  0  0  0  0  0  0  0
  151.5662  136.3081  156.1932 O   0  0  0  0  0  0  0  0  0  0  0  0
  150.0540  136.0790  154.5241 N   0  0  0  0  0  0  0  0  0  0  0  0
  149.4324  134.8303  154.9635 C   0  0  0  0  0  0  0  0  0  0  0  0
  147.8741  134.8816  154.9814 C   0  0  0  0  0  0  0  0  0  0  0  0
  147.3358  133.9838  156.1239 C   0  0  0  0  0  0  0  0  0  0  0  0
  147.3802  136.3162  155.2957 C   0  0  0  0  0  0  0  0  0  0  0  0
  147.2954  134.4351  153.6626 N   0  3  0  0  0  0  0  0  0  0  0  0
  147.5705  133.0207  153.2794 C   0  0  0  0  0  0  0  0  0  0  0  0
  147.0977  132.7479  151.8420 C   0  0  0  0  0  0  0  0  0  0  0  0
  145.7110  133.0350  151.7332 O   0  0  0  0  0  0  0  0  0  0  0  0
  145.4359  134.4014  152.0066 C   0  0  0  0  0  0  0  0  0  0  0  0
  145.8512  134.7363  153.4492 C   0  0  0  0  0  0  0  0  0  0  0  0
  150.4819  139.0400  154.5763 N   0  0  0  0  0  0  0  0  0  0  0  0
  149.1791  138.9404  154.3028 C   0  0  0  0  0  0  0  0  0  0  0  0
  148.4963  140.0560  154.5177 N   0  0  0  0  0  0  0  0  0  0  0  0
  149.5066  140.8589  154.9657 C   0  0  0  0  0  0  0  0  0  0  0  0
  150.7135  140.2970  155.0312 N   0  0  0  0  0  0  0  0  0  0  0  0
  153.6485  137.7827  154.9924 H   0  0  0  0  0  0  0  0  0  0  0  0
  152.7742  138.7466  156.1774 H   0  0  0  0  0  0  0  0  0  0  0  0
  153.1958  139.4387  154.6157 H   0  0  0  0  0  0  0  0  0  0  0  0
  151.7141  137.8306  153.4523 H   0  0  0  0  0  0  0  0  0  0  0  0
  149.6892  136.4922  153.6780 H   0  0  0  0  0  0  0  0  0  0  0  0
  149.7917  134.0083  154.3438 H   0  0  0  0  0  0  0  0  0  0  0  0
  149.8172  134.6355  155.9639 H   0  0  0  0  0  0  0  0  0  0  0  0
  147.5679  134.3976  157.1058 H   0  0  0  0  0  0  0  0  0  0  0  0
  147.7721  132.9852  156.1072 H   0  0  0  0  0  0  0  0  0  0  0  0
  146.2516  133.8788  156.0706 H   0  0  0  0  0  0  0  0  0  0  0  0
  147.5904  136.6009  156.3271 H   0  0  0  0  0  0  0  0  0  0  0  0
  146.3022  136.4055  155.1561 H   0  0  0  0  0  0  0  0  0  0  0  0
  147.8634  137.0672  154.6711 H   0  0  0  0  0  0  0  0  0  0  0  0
  148.6326  132.7898  153.3292 H   0  0  0  0  0  0  0  0  0  0  0  0
  147.0598  132.3379  153.9584 H   0  0  0  0  0  0  0  0  0  0  0  0
  147.6650  133.3432  151.1244 H   0  0  0  0  0  0  0  0  0  0  0  0
  147.2611  131.7008  151.5859 H   0  0  0  0  0  0  0  0  0  0  0  0
  145.9565  135.0412  151.2923 H   0  0  0  0  0  0  0  0  0  0  0  0
  144.3685  134.5784  151.8724 H   0  0  0  0  0  0  0  0  0  0  0  0
  145.2382  134.1613  154.1437 H   0  0  0  0  0  0  0  0  0  0  0  0
  145.6303  135.7883  153.6191 H   0  0  0  0  0  0  0  0  0  0  0  0
  148.7200  138.0317  153.9417 H   0  0  0  0  0  0  0  0  0  0  0  0
  149.3471  141.8866  155.2575 H   0  0  0  0  0  0  0  0  0  0  0  0
  147.7817  134.9917  152.9742 H   0  0  0  0  0  0  0  0  0  0  0  0
  1  2  1  0  0  0  0
  1 21  1  0  0  0  0
  1 22  1  0  0  0  0
  1 23  1  0  0  0  0
  2  3  1  0  0  0  0
  2 16  1  0  0  0  0
  2 24  1  0  0  0  0
  3  4  2  0  0  0  0
  3  5  1  0  0  0  0
  5  6  1  0  0  0  0
  5 25  1  0  0  0  0
  6  7  1  0  0  0  0
  6 26  1  0  0  0  0
  6 27  1  0  0  0  0
  7  8  1  0  0  0  0
  7  9  1  0  0  0  0
  7 10  1  0  0  0  0
  8 28  1  0  0  0  0
  8 29  1  0  0  0  0
  8 30  1  0  0  0  0
  9 31  1  0  0  0  0
  9 32  1  0  0  0  0
  9 33  1  0  0  0  0
 10 15  1  0  0  0  0
 10 11  1  0  0  0  0
 10 44  1  0  0  0  0
 11 12  1  0  0  0  0
 11 34  1  0  0  0  0
 11 35  1  0  0  0  0
 12 13  1  0  0  0  0
 12 36  1  0  0  0  0
 12 37  1  0  0  0  0
 13 14  1  0  0  0  0
 14 15  1  0  0  0  0
 14 38  1  0  0  0  0
 14 39  1  0  0  0  0
 15 40  1  0  0  0  0
 15 41  1  0  0  0  0
 16 20  1  0  0  0  0
 16 17  1  0  0  0  0
 17 18  2  0  0  0  0
 17 42  1  0  0  0  0
 18 19  1  0  0  0  0
 19 20  2  0  0  0  0
 19 43  1  0  0  0  0
M  CHG  1  10   1
M  END
> <s_m_source_file>
AV-unprocessed.smi

> <i_m_source_file_index>
1252

> <i_lp_mmshare_version>
43012

> <i_f3d_flags>
0

> <s_epik_input>
bjFbY0hdbltjSF1uMVtDQEhdKFtDSDNdKUMoPU8pW05IXVtDSDJdQyhbQ0gzXSkoW0NIM10pTjJbQ0gyXVtDSDJdT1tDSDJdW0NIMl0y

> <s_epik_cmdline>
J2VwaWtfcHl0aG9uJywgJy1waCcsICc3LjAnLCAnLXRuJywgJzgnLCAnLW1hJywgJzIwMCcsICctbWV0YWxfYmluZGluZycsICctaW1hZScsICc8aW5maWxlLm1hZT4nLCAnLW9tYWUnLCAnPG91dGZpbGUubWFlPic=

> <r_lp_tautomer_probability>
1

> <r_epik_Ionization_Penalty>
0.71326

> <r_epik_Ionization_Penalty_Charging>
0.713252

> <r_epik_Ionization_Penalty_Neutral>
8.22342e-06

> <r_epik_State_Penalty>
0.737017

> <r_epik_Charging_Adjusted_Penalty>
1.45027

> <i_epik_Tot_Q>
1

> <i_epik_Tot_abs_Q>
1

> <r_epik_Metal_State_Penalty>
0.73702

> <b_epik_Metal_Only>
0

> <s_lp_Force_Field>
OPLS_2005

> <r_lp_Energy>
31.3962

> <b_lp_Chiralities_Consistent>
1

> <s_lp_Variant>
AV-unprocessed.smi:1252-4

> <Gold.Version>
5.8.1

> <Gold.Id.Protein>
6NUR|6NUR_protein|mol2

> <Gold.PLP.Fitness>
44.9206

> <Gold.PLP.PLP>
-29.6647

> <Gold.PLP.part.hbond>
-5.0000

> <Gold.PLP.part.metal>
0.0000

> <Gold.PLP.part.buried>
1.1626

> <Gold.PLP.part.nonpolar>
-24.8810

> <Gold.PLP.part.repulsive>
0.4088

> <Gold.PLP.ligand.clash>
0.0000

> <Gold.PLP.ligand.torsion>
1.1602

> <Gold.PLP.Chemscore.Hbond>
4.8780

> <Gold.PLP.Chemscore.CHOScore>
0.9049

> <Gold.PLP.Chemscore.Metal>
0.0000

> <Gold.Chemscore.Hbonds>
donor molecule, donor type, donor heavy atom, donor atom, acceptor molecule, acceptor atom, score
      L1  H     5    25       P1  7948  0.96
      L1  H    10    44       P1  7948  2.00
      P1  H  7989  7998       L1    20  0.80
      P1  H 10752 10764       L1     4  0.36
      L1  C    17    42       P1  7948  0.46
      L1  C    19    43       P1  8028  0.09

> <Gold.PLP.Chemscore.Internal.Correction>
0.2277

> <Gold.Rescore>
     Score         DG    S(hbond)    S(metal)    S(lipo)     H(rot)  DE(clash)    DE(int)     intcor
      8.56     -10.97       2.08        0.00      44.13       2.59       0.06       2.35       ----

> <Gold.Chemscore.Fitness>
8.5565

> <Gold.Chemscore.DG>
-10.9665

> <Gold.Chemscore.ZeroCoef>
-5.4800

> <Gold.Chemscore.Hbond>
2.0793

> <Gold.Chemscore.Metal>
0.0000

> <Gold.Chemscore.Lipo>
44.1268

> <Gold.Chemscore.Internal_Hbond>
0.0000

> <Gold.Chemscore.DEClash>
0.0587

> <Gold.Chemscore.DEInternal>
2.3514

> <Gold.Chemscore.Rot>
2.5864

> <Gold.Chemscore.Internal.Correction>
   9.000000E+99

> <Gold.Chemscore.Hbonds>
donor molecule, donor type, donor heavy atom, donor atom, acceptor molecule, acceptor atom, score
      L1  H     5    25       P1  7948  0.46
      L1  H    10    44       P1  7948  0.94
      P1  H  7989  7998       L1    20  0.06
      P1  H 10752 10764       L1     4  0.01

> <Gold.Chemscore.Hbond.Weighted>
-6.9448

> <Gold.Chemscore.Metal.Weighted>
-0.0000

> <Gold.Chemscore.Lipo.Weighted>
-5.1628

> <Gold.Chemscore.Internal_Hbond.Weighted>
0.0000

> <Gold.Chemscore.DEClash.Weighted>
0.0587

> <Gold.Chemscore.DEInternal.Weighted>
2.3514

> <Gold.Chemscore.Rot.Weighted>
6.6211

> <Gold.Chemscore.Internal.Correction.Weighted>
   9.000000E+99

> <Gold.Protein.RotatedTorsions>
[ 6907 6896 6895 6894 ] final -100.47 input  -60.11 | X-H torsion
[ 7974 7965 7964 7962 ] final  -43.78 input  175.53 | X-H torsion
[ 8008 7997 7996 7995 ] final -159.83 input   59.86 | X-H torsion
[ 10167 10162 10161 10158 ] final  162.07 input  -65.29 | X-H torsion
[ 10718 10713 10712 10709 ] final  -26.26 input   66.30 | X-H torsion
[ 10763 10752 10751 10750 ] final  -31.02 input  -60.55 | X-H torsion
[ 11005 11000 10999 10996 ] final  -49.48 input  -57.11 | X-H torsion

> <Gold.Protein.ActiveResidues>
 VAL166  LYS551  ARG553  GLY616  TRP617  ASP618  TYR619  PRO620  LYS621  CYS622 
 ASP623  PHE694  ASN695  SER759  ASP760  ASP761  ALA762  ILE779  LEU786  VAL792 
 PHE793  MET794  SER795  GLU796  ALA797  LYS798  CYS799  TRP800  GLU811  SER814 

> <Gold.Protein.RotatedAtoms>
  150.7117  134.0881  159.3921 H   0  0  0  0  0  0  0  0  0  0  0  0  # atno 6907 bound_to 6896
  151.8866  135.0430  160.0503 H   0  0  0  0  0  0  0  0  0  0  0  0  # atno 6908 bound_to 6896
  152.2525  133.5191  159.5370 H   0  0  0  0  0  0  0  0  0  0  0  0  # atno 6909 bound_to 6896
  145.9986  140.7100  142.9282 H   0  0  0  0  0  0  0  0  0  0  0  0  # atno 7974 bound_to 7965
  155.7684  140.0848  157.2120 H   0  0  0  0  0  0  0  0  0  0  0  0  # atno 8008 bound_to 7997
  154.3998  140.1530  156.2970 H   0  0  0  0  0  0  0  0  0  0  0  0  # atno 8009 bound_to 7997
  155.8771  140.3422  155.5864 H   0  0  0  0  0  0  0  0  0  0  0  0  # atno 8010 bound_to 7997
  139.4856  144.4474  151.8874 H   0  0  0  0  0  0  0  0  0  0  0  0  # atno 10167 bound_to 10162
  156.4535  130.4489  149.6974 H   0  0  0  0  0  0  0  0  0  0  0  0  # atno 10718 bound_to 10713
  153.7904  135.6898  153.4872 H   0  0  0  0  0  0  0  0  0  0  0  0  # atno 10763 bound_to 10752
  153.1753  135.4527  154.9955 H   0  0  0  0  0  0  0  0  0  0  0  0  # atno 10764 bound_to 10752
  154.8046  135.3352  154.7401 H   0  0  0  0  0  0  0  0  0  0  0  0  # atno 10765 bound_to 10752
  141.0762  133.6665  156.3592 H   0  0  0  0  0  0  0  0  0  0  0  0  # atno 11005 bound_to 11000
  144.6912  140.3193  143.7235 LP  0  0  0  0  0  0  0  0  0  0  0  0  # atno 17320 bound_to 7965
  145.7522  139.1797  143.2315 LP  0  0  0  0  0  0  0  0  0  0  0  0  # atno 17321 bound_to 7965
  140.3928  144.2593  150.5898 LP  0  0  0  0  0  0  0  0  0  0  0  0  # atno 17342 bound_to 10162
  140.5130  143.2285  151.8507 LP  0  0  0  0  0  0  0  0  0  0  0  0  # atno 17343 bound_to 10162
  156.3791  130.7570  151.2561 LP  0  0  0  0  0  0  0  0  0  0  0  0  # atno 17370 bound_to 10713
  157.7501  131.0301  150.4121 LP  0  0  0  0  0  0  0  0  0  0  0  0  # atno 17371 bound_to 10713
  140.5569  134.5973  157.5423 LP  0  0  0  0  0  0  0  0  0  0  0  0  # atno 17394 bound_to 11000
  139.9574  134.7511  156.0311 LP  0  0  0  0  0  0  0  0  0  0  0  0  # atno 17395 bound_to 11000

$$$$
