AV-unprocessed.smi:1008|AV-procd|sdf|4411|dock8
  -GOLD-   22720 2353D 1   1.00000     0.00000
 Structure written by MMmdl.
 23 23  0  0  0  0  0  0  0  0  1 V2000
  150.4398  138.4170  154.0972 C   0  0  0  0  0  0  0  0  0  0  0  0
  149.1968  139.2795  153.9649 C   0  0  0  0  0  0  0  0  0  0  0  0
  148.2023  138.7363  153.1711 N   0  0  0  0  0  0  0  0  0  0  0  0
  147.0291  139.4518  152.9860 C   0  0  0  0  0  0  0  0  0  0  0  0
  146.1016  138.8247  152.1807 N   0  0  0  0  0  0  0  0  0  0  0  0
  146.8001  140.6158  153.5149 N   0  0  0  0  0  0  0  0  0  0  0  0
  147.7723  141.2192  154.3279 C   0  0  0  0  0  0  0  0  0  0  0  0
  147.5673  142.3230  154.8310 O   0  0  0  0  0  0  0  0  0  0  0  0
  149.0401  140.4914  154.5509 C   0  0  0  0  0  0  0  0  0  0  0  0
  150.1003  141.1323  155.4419 C   0  0  0  0  0  0  0  0  0  0  0  0
  149.5512  141.4883  156.8310 C   0  0  0  0  0  0  0  0  0  0  0  0
  149.7334  142.8654  157.0785 O   0  0  0  0  0  0  0  0  0  0  0  0
  145.1995  139.2154  151.9507 H   0  0  0  0  0  0  0  0  0  0  0  0
  151.3239  138.9733  153.7843 H   0  0  0  0  0  0  0  0  0  0  0  0
  150.3744  137.5188  153.4819 H   0  0  0  0  0  0  0  0  0  0  0  0
  150.5767  138.1037  155.1324 H   0  0  0  0  0  0  0  0  0  0  0  0
  146.2591  137.9205  151.7591 H   0  0  0  0  0  0  0  0  0  0  0  0
  148.3693  137.8321  152.7545 H   0  0  0  0  0  0  0  0  0  0  0  0
  150.4962  142.0295  154.9667 H   0  0  0  0  0  0  0  0  0  0  0  0
  150.9527  140.4576  155.5356 H   0  0  0  0  0  0  0  0  0  0  0  0
  148.4885  141.2534  156.8973 H   0  0  0  0  0  0  0  0  0  0  0  0
  150.0616  140.9189  157.6084 H   0  0  0  0  0  0  0  0  0  0  0  0
  149.2553  143.3538  156.4256 H   0  0  0  0  0  0  0  0  0  0  0  0
  1 14  1  0  0  0  0
  1 15  1  0  0  0  0
  1 16  1  0  0  0  0
  1  2  1  0  0  0  0
  2  9  2  0  0  0  0
  2  3  1  0  0  0  0
  3 18  1  0  0  0  0
  3  4  1  0  0  0  0
  4  5  1  0  0  0  0
  4  6  2  0  0  0  0
  5 17  1  0  0  0  0
  5 13  1  0  0  0  0
  6  7  1  0  0  0  0
  7  8  2  0  0  0  0
  7  9  1  0  0  0  0
  9 10  1  0  0  0  0
 10 11  1  0  0  0  0
 10 19  1  0  0  0  0
 10 20  1  0  0  0  0
 11 12  1  0  0  0  0
 11 21  1  0  0  0  0
 11 22  1  0  0  0  0
 12 23  1  0  0  0  0
M  END
> <s_m_source_file>
AV-unprocessed.smi

> <i_m_source_file_index>
1008

> <i_lp_mmshare_version>
43012

> <i_f3d_flags>
0

> <s_epik_input>
W0NIM11jMW5jKFtOSDJdKVtuSF1jKD1PKWMxW0NIMl1bQ0gyXVtPSF0=

> <s_epik_cmdline>
J2VwaWtfcHl0aG9uJywgJy1waCcsICc3LjAnLCAnLXRuJywgJzgnLCAnLW1hJywgJzIwMCcsICctbWV0YWxfYmluZGluZycsICctaW1hZScsICc8aW5maWxlLm1hZT4nLCAnLW9tYWUnLCAnPG91dGZpbGUubWFlPic=

> <r_lp_tautomer_probability>
0.108277

> <r_epik_Ionization_Penalty>
0.666207

> <r_epik_Ionization_Penalty_Charging>
0.00797854

> <r_epik_Ionization_Penalty_Neutral>
0.658229

> <r_epik_State_Penalty>
1.38976

> <r_epik_Charging_Adjusted_Penalty>
1.39774

> <i_epik_Tot_Q>
0

> <i_epik_Tot_abs_Q>
0

> <r_epik_Metal_State_Penalty>
0.86313

> <b_epik_Metal_Only>
0

> <s_lp_Force_Field>
OPLS_2005

> <r_lp_Energy>
8.84659

> <b_lp_Chiralities_Consistent>
1

> <s_lp_Variant>
AV-unprocessed.smi:1008-2

> <Gold.Version>
5.8.1

> <Gold.Id.Protein>
6NUR|6NUR_protein|mol2

> <Gold.PLP.Fitness>
29.0967

> <Gold.PLP.PLP>
-20.9060

> <Gold.PLP.part.hbond>
-4.2221

> <Gold.PLP.part.metal>
0.0000

> <Gold.PLP.part.buried>
-2.6450

> <Gold.PLP.part.nonpolar>
-16.2133

> <Gold.PLP.part.repulsive>
2.2389

> <Gold.PLP.ligand.clash>
0.0000

> <Gold.PLP.ligand.torsion>
0.3928

> <Gold.PLP.Chemscore.Hbond>
2.9920

> <Gold.PLP.Chemscore.CHOScore>
0.0000

> <Gold.PLP.Chemscore.Metal>
0.0000

> <Gold.Chemscore.Hbonds>
donor molecule, donor type, donor heavy atom, donor atom, acceptor molecule, acceptor atom, score
      L1  H     3    18       P1  7948  1.00
      L1  H     5    13       P1 10175  0.98
      L1  H    12    23       P1  8028  1.00

> <Gold.PLP.Chemscore.Internal.Correction>
0.0003

> <Gold.Rescore>
     Score         DG    S(hbond)    S(metal)    S(lipo)     H(rot)  DE(clash)    DE(int)     intcor
     11.17     -13.90       2.92        0.00      33.68       2.06       1.27       1.46       ----

> <Gold.Chemscore.Fitness>
11.1681

> <Gold.Chemscore.DG>
-13.9044

> <Gold.Chemscore.ZeroCoef>
-5.4800

> <Gold.Chemscore.Hbond>
2.9209

> <Gold.Chemscore.Metal>
0.0000

> <Gold.Chemscore.Lipo>
33.6825

> <Gold.Chemscore.Internal_Hbond>
0.0000

> <Gold.Chemscore.DEClash>
1.2739

> <Gold.Chemscore.DEInternal>
1.4624

> <Gold.Chemscore.Rot>
2.0595

> <Gold.Chemscore.Internal.Correction>
   9.000000E+99

> <Gold.Chemscore.Hbonds>
donor molecule, donor type, donor heavy atom, donor atom, acceptor molecule, acceptor atom, score
      L1  H     3    18       P1  7948  1.00
      L1  H     5    13       P1 10175  0.87
      L1  H    12    23       P1  8028  0.95

> <Gold.Chemscore.Hbond.Weighted>
-9.7559

> <Gold.Chemscore.Metal.Weighted>
-0.0000

> <Gold.Chemscore.Lipo.Weighted>
-3.9409

> <Gold.Chemscore.Internal_Hbond.Weighted>
0.0000

> <Gold.Chemscore.DEClash.Weighted>
1.2739

> <Gold.Chemscore.DEInternal.Weighted>
1.4624

> <Gold.Chemscore.Rot.Weighted>
5.2724

> <Gold.Chemscore.Internal.Correction.Weighted>
   9.000000E+99

> <Gold.Protein.RotatedTorsions>
[ 6907 6896 6895 6894 ] final -125.84 input  -60.11 | X-H torsion
[ 7974 7965 7964 7962 ] final    4.32 input  175.53 | X-H torsion
[ 8008 7997 7996 7995 ] final   91.27 input   59.86 | X-H torsion
[ 10167 10162 10161 10158 ] final  -42.34 input  -65.29 | X-H torsion
[ 10718 10713 10712 10709 ] final  -64.83 input   66.30 | X-H torsion
[ 10763 10752 10751 10750 ] final  108.53 input  -60.55 | X-H torsion
[ 11005 11000 10999 10996 ] final   33.39 input  -57.11 | X-H torsion

> <Gold.Protein.ActiveResidues>
 VAL166  LYS551  ARG553  GLY616  TRP617  ASP618  TYR619  PRO620  LYS621  CYS622 
 ASP623  PHE694  ASN695  SER759  ASP760  ASP761  ALA762  ILE779  LEU786  VAL792 
 PHE793  MET794  SER795  GLU796  ALA797  LYS798  CYS799  TRP800  GLU811  SER814 

> <Gold.Protein.RotatedAtoms>
  150.8908  133.7246  159.2905 H   0  0  0  0  0  0  0  0  0  0  0  0  # atno 6907 bound_to 6896
  151.4797  135.1050  159.9784 H   0  0  0  0  0  0  0  0  0  0  0  0  # atno 6908 bound_to 6896
  152.4819  133.8228  159.7118 H   0  0  0  0  0  0  0  0  0  0  0  0  # atno 6909 bound_to 6896
  146.2444  140.0552  142.8372 H   0  0  0  0  0  0  0  0  0  0  0  0  # atno 7974 bound_to 7965
  156.0218  140.3339  155.7047 H   0  0  0  0  0  0  0  0  0  0  0  0  # atno 8008 bound_to 7997
  155.6012  140.0656  157.2750 H   0  0  0  0  0  0  0  0  0  0  0  0  # atno 8009 bound_to 7997
  154.4319  140.1810  156.1162 H   0  0  0  0  0  0  0  0  0  0  0  0  # atno 8010 bound_to 7997
  140.6972  143.3043  151.3195 H   0  0  0  0  0  0  0  0  0  0  0  0  # atno 10167 bound_to 10162
  156.0705  130.4239  150.1477 H   0  0  0  0  0  0  0  0  0  0  0  0  # atno 10718 bound_to 10713
  153.4219  135.3809  155.2116 H   0  0  0  0  0  0  0  0  0  0  0  0  # atno 10763 bound_to 10752
  154.8745  135.3819  154.4373 H   0  0  0  0  0  0  0  0  0  0  0  0  # atno 10764 bound_to 10752
  153.4895  135.7088  153.5955 H   0  0  0  0  0  0  0  0  0  0  0  0  # atno 10765 bound_to 10752
  140.2636  134.3163  155.7849 H   0  0  0  0  0  0  0  0  0  0  0  0  # atno 11005 bound_to 11000
  145.0948  140.9308  143.4747 LP  0  0  0  0  0  0  0  0  0  0  0  0  # atno 17320 bound_to 7965
  145.0733  139.3015  143.5821 LP  0  0  0  0  0  0  0  0  0  0  0  0  # atno 17321 bound_to 7965
  139.6443  144.0480  152.2579 LP  0  0  0  0  0  0  0  0  0  0  0  0  # atno 17342 bound_to 10162
  139.9996  144.6303  150.7741 LP  0  0  0  0  0  0  0  0  0  0  0  0  # atno 17343 bound_to 10162
  156.9528  130.9780  151.3495 LP  0  0  0  0  0  0  0  0  0  0  0  0  # atno 17370 bound_to 10713
  157.5773  130.8352  149.8474 LP  0  0  0  0  0  0  0  0  0  0  0  0  # atno 17371 bound_to 10713
  141.2187  133.7424  156.9226 LP  0  0  0  0  0  0  0  0  0  0  0  0  # atno 17394 bound_to 11000
  140.1440  134.9274  157.2505 LP  0  0  0  0  0  0  0  0  0  0  0  0  # atno 17395 bound_to 11000

$$$$
