AV-unprocessed.smi:197|AV-procd|sdf|1548|dock9
  -GOLD-   2262019413D 1   1.00000     0.00000
 Structure written by MMmdl.
 54 57  0  0  0  0  0  0  0  0  1 V2000
  153.5898  136.7568  164.5125 C   0  0  0  0  0  0  0  0  0  0  0  0
  153.8693  136.5916  163.1310 O   0  0  0  0  0  0  0  0  0  0  0  0
  152.8709  137.1158  162.2647 C   0  0  0  0  0  0  0  0  0  0  0  0
  153.3018  137.0818  160.7858 C   0  0  0  0  0  0  0  0  0  0  0  0
  153.7806  138.4483  160.2273 C   0  0  2  0  0  0  0  0  0  0  0  0
  154.6872  139.1831  161.2431 C   0  0  0  0  0  0  0  0  0  0  0  0
  155.0916  140.4478  160.7309 O   0  0  0  0  0  0  0  0  0  0  0  0
  153.9821  141.3025  160.4900 C   0  0  0  0  0  0  0  0  0  0  0  0
  153.0785  140.6568  159.4314 C   0  0  0  0  0  0  0  0  0  0  0  0
  152.6613  139.3287  159.8656 N   0  0  0  0  0  0  0  0  0  0  0  0
  151.7343  138.8217  159.0216 C   0  0  0  0  0  0  0  0  0  0  0  0
  150.8622  137.9213  159.5377 N   0  0  0  0  0  0  0  0  0  0  0  0
  149.9299  137.3702  158.7550 C   0  0  0  0  0  0  0  0  0  0  0  0
  149.6994  137.5784  157.4570 N   0  0  0  0  0  0  0  0  0  0  0  0
  150.5649  138.4966  156.9390 C   0  0  0  0  0  0  0  0  0  0  0  0
  151.6053  139.1640  157.6448 C   0  0  0  0  0  0  0  0  0  0  0  0
  152.2793  140.0266  156.7888 N   0  0  0  0  0  0  0  0  0  0  0  0
  151.6816  139.8673  155.6401 C   0  0  0  0  0  0  0  0  0  0  0  0
  150.6323  138.9759  155.6420 N   0  0  0  0  0  0  0  0  0  0  0  0
  149.7994  138.6088  154.5063 C   0  0  0  0  0  0  0  0  0  0  0  0
  148.7912  139.7047  154.0652 C   0  0  1  0  0  0  0  0  0  0  0  0
  149.4955  140.7014  153.3449 O   0  0  0  0  0  0  0  0  0  0  0  0
  147.6562  139.1836  153.1880 C   0  0  0  0  0  0  0  0  0  0  0  0
  146.6211  138.7567  154.2152 C   0  0  0  0  0  0  0  0  0  0  0  0
  146.6825  139.7966  155.1770 O   0  0  0  0  0  0  0  0  0  0  0  0
  148.0225  140.2759  155.2878 C   0  0  2  0  0  0  0  0  0  0  0  0
  147.9503  141.8093  155.3861 C   0  0  0  0  0  0  0  0  0  0  0  0
  154.4220  136.3670  165.0982 H   0  0  0  0  0  0  0  0  0  0  0  0
  152.6939  136.2161  164.8164 H   0  0  0  0  0  0  0  0  0  0  0  0
  153.4666  137.8102  164.7669 H   0  0  0  0  0  0  0  0  0  0  0  0
  151.9328  136.5758  162.4006 H   0  0  0  0  0  0  0  0  0  0  0  0
  152.6659  138.1416  162.5688 H   0  0  0  0  0  0  0  0  0  0  0  0
  154.0800  136.3270  160.6835 H   0  0  0  0  0  0  0  0  0  0  0  0
  152.4708  136.7180  160.1807 H   0  0  0  0  0  0  0  0  0  0  0  0
  154.3717  138.2712  159.3290 H   0  0  0  0  0  0  0  0  0  0  0  0
  154.1771  139.3168  162.1987 H   0  0  0  0  0  0  0  0  0  0  0  0
  155.5902  138.6075  161.4432 H   0  0  0  0  0  0  0  0  0  0  0  0
  153.4335  141.4833  161.4159 H   0  0  0  0  0  0  0  0  0  0  0  0
  154.3455  142.2680  160.1381 H   0  0  0  0  0  0  0  0  0  0  0  0
  152.2051  141.2876  159.2591 H   0  0  0  0  0  0  0  0  0  0  0  0
  153.6141  140.5811  158.4840 H   0  0  0  0  0  0  0  0  0  0  0  0
  149.2746  136.6603  159.2378 H   0  0  0  0  0  0  0  0  0  0  0  0
  151.9873  140.4054  154.7545 H   0  0  0  0  0  0  0  0  0  0  0  0
  150.4599  138.3469  153.6789 H   0  0  0  0  0  0  0  0  0  0  0  0
  149.2642  137.6929  154.7618 H   0  0  0  0  0  0  0  0  0  0  0  0
  149.2767  140.6200  152.4291 H   0  0  0  0  0  0  0  0  0  0  0  0
  147.2371  139.9921  152.5865 H   0  0  0  0  0  0  0  0  0  0  0  0
  147.9365  138.3842  152.5040 H   0  0  0  0  0  0  0  0  0  0  0  0
  145.6209  138.6608  153.7927 H   0  0  0  0  0  0  0  0  0  0  0  0
  146.8933  137.8072  154.6783 H   0  0  0  0  0  0  0  0  0  0  0  0
  148.4453  139.8874  156.2155 H   0  0  0  0  0  0  0  0  0  0  0  0
  148.9424  142.2464  155.5032 H   0  0  0  0  0  0  0  0  0  0  0  0
  147.3556  142.1132  156.2477 H   0  0  0  0  0  0  0  0  0  0  0  0
  147.4902  142.2435  154.4980 H   0  0  0  0  0  0  0  0  0  0  0  0
  1  2  1  0  0  0  0
  1 28  1  0  0  0  0
  1 29  1  0  0  0  0
  1 30  1  0  0  0  0
  2  3  1  0  0  0  0
  3  4  1  0  0  0  0
  3 31  1  0  0  0  0
  3 32  1  0  0  0  0
  4  5  1  0  0  0  0
  4 33  1  0  0  0  0
  4 34  1  0  0  0  0
  5 10  1  0  0  0  0
  5  6  1  0  0  0  0
  5 35  1  0  0  0  0
  6  7  1  0  0  0  0
  6 36  1  0  0  0  0
  6 37  1  0  0  0  0
  7  8  1  0  0  0  0
  8  9  1  0  0  0  0
  8 38  1  0  0  0  0
  8 39  1  0  0  0  0
  9 10  1  0  0  0  0
  9 40  1  0  0  0  0
  9 41  1  0  0  0  0
 10 11  1  0  0  0  0
 11 16  1  0  0  0  0
 11 12  2  0  0  0  0
 12 13  1  0  0  0  0
 13 14  2  0  0  0  0
 13 42  1  0  0  0  0
 14 15  1  0  0  0  0
 15 19  1  0  0  0  0
 15 16  2  0  0  0  0
 16 17  1  0  0  0  0
 17 18  2  0  0  0  0
 18 19  1  0  0  0  0
 18 43  1  0  0  0  0
 19 20  1  0  0  0  0
 20 21  1  0  0  0  0
 20 44  1  0  0  0  0
 20 45  1  0  0  0  0
 21 26  1  0  0  0  0
 21 22  1  0  0  0  0
 21 23  1  0  0  0  0
 22 46  1  0  0  0  0
 23 24  1  0  0  0  0
 23 47  1  0  0  0  0
 23 48  1  0  0  0  0
 24 25  1  0  0  0  0
 24 49  1  0  0  0  0
 24 50  1  0  0  0  0
 25 26  1  0  0  0  0
 26 27  1  0  0  0  0
 26 51  1  0  0  0  0
 27 52  1  0  0  0  0
 27 53  1  0  0  0  0
 27 54  1  0  0  0  0
M  END
> <s_m_source_file>
AV-unprocessed.smi

> <i_m_source_file_index>
197

> <i_lp_mmshare_version>
43012

> <i_f3d_flags>
0

> <s_epik_input>
W0NIM11PW0NIMl1bQ0gyXVtDQEBIXTFbQ0gyXU9bQ0gyXVtDSDJdTjFjKG5bY0hdbjIpYyhjMjMpbltjSF1uM1tDSDJdW0NAQF00KFtPSF0pW0NIMl1bQ0gyXU9bQ0BIXTRbQ0gzXQ==

> <s_epik_cmdline>
J2VwaWtfcHl0aG9uJywgJy1waCcsICc3LjAnLCAnLXRuJywgJzgnLCAnLW1hJywgJzIwMCcsICctbWV0YWxfYmluZGluZycsICctaW1hZScsICc8aW5maWxlLm1hZT4nLCAnLW9tYWUnLCAnPG91dGZpbGUubWFlPic=

> <r_lp_tautomer_probability>
1

> <r_epik_Ionization_Penalty>
0.000106218

> <r_epik_Ionization_Penalty_Charging>
0

> <r_epik_Ionization_Penalty_Neutral>
0.000106218

> <r_epik_State_Penalty>
-0

> <r_epik_Charging_Adjusted_Penalty>
0

> <i_epik_Tot_Q>
0

> <i_epik_Tot_abs_Q>
0

> <r_epik_Metal_State_Penalty>
-0

> <b_epik_Metal_Only>
0

> <s_lp_Force_Field>
OPLS_2005

> <r_lp_Energy>
44.1389

> <b_lp_Chiralities_Consistent>
1

> <s_lp_Variant>
AV-unprocessed.smi:197-5

> <Gold.Version>
5.8.1

> <Gold.Id.Protein>
6NUR|6NUR_protein|mol2

> <Gold.PLP.Fitness>
43.0866

> <Gold.PLP.PLP>
-38.4633

> <Gold.PLP.part.hbond>
-4.6661

> <Gold.PLP.part.metal>
0.0000

> <Gold.PLP.part.buried>
-1.3933

> <Gold.PLP.part.nonpolar>
-32.3629

> <Gold.PLP.part.repulsive>
0.0353

> <Gold.PLP.ligand.clash>
0.0000

> <Gold.PLP.ligand.torsion>
1.3487

> <Gold.PLP.Chemscore.Hbond>
2.3504

> <Gold.PLP.Chemscore.CHOScore>
0.0000

> <Gold.PLP.Chemscore.Metal>
0.0000

> <Gold.Chemscore.Hbonds>
donor molecule, donor type, donor heavy atom, donor atom, acceptor molecule, acceptor atom, score
      L1  H    22    46       P1  7957  0.72
      P1  H  7989  7998       L1    22  0.25
      P1  H  7997  8009       L1    17  0.78

> <Gold.PLP.Chemscore.Internal.Correction>
0.2695

> <Gold.Rescore>
     Score         DG    S(hbond)    S(metal)    S(lipo)     H(rot)  DE(clash)    DE(int)     intcor
     10.96     -15.15       2.08        0.00      85.46       2.84       0.06       4.13       ----

> <Gold.Chemscore.Fitness>
10.9632

> <Gold.Chemscore.DG>
-15.1539

> <Gold.Chemscore.ZeroCoef>
-5.4800

> <Gold.Chemscore.Hbond>
2.0763

> <Gold.Chemscore.Metal>
0.0000

> <Gold.Chemscore.Lipo>
85.4588

> <Gold.Chemscore.Internal_Hbond>
0.0000

> <Gold.Chemscore.DEClash>
0.0630

> <Gold.Chemscore.DEInternal>
4.1277

> <Gold.Chemscore.Rot>
2.8358

> <Gold.Chemscore.Internal.Correction>
   9.000000E+99

> <Gold.Chemscore.Hbonds>
donor molecule, donor type, donor heavy atom, donor atom, acceptor molecule, acceptor atom, score
      L1  H    22    46       P1  7957  0.69
      P1  H  7989  7998       L1    22  0.14
      P1  H  7997  8009       L1    17  0.66

> <Gold.Chemscore.Hbond.Weighted>
-6.9348

> <Gold.Chemscore.Metal.Weighted>
-0.0000

> <Gold.Chemscore.Lipo.Weighted>
-9.9987

> <Gold.Chemscore.Internal_Hbond.Weighted>
0.0000

> <Gold.Chemscore.DEClash.Weighted>
0.0630

> <Gold.Chemscore.DEInternal.Weighted>
4.1277

> <Gold.Chemscore.Rot.Weighted>
7.2596

> <Gold.Chemscore.Internal.Correction.Weighted>
   9.000000E+99

> <Gold.Protein.RotatedTorsions>
[ 6907 6896 6895 6894 ] final  -13.01 input  -60.11 | X-H torsion
[ 7974 7965 7964 7962 ] final  -93.34 input  175.53 | X-H torsion
[ 8008 7997 7996 7995 ] final  175.40 input   59.86 | X-H torsion
[ 10167 10162 10161 10158 ] final -126.21 input  -65.29 | X-H torsion
[ 10718 10713 10712 10709 ] final   82.18 input   66.30 | X-H torsion
[ 10763 10752 10751 10750 ] final  -53.76 input  -60.55 | X-H torsion
[ 11005 11000 10999 10996 ] final -165.45 input  -57.11 | X-H torsion

> <Gold.Protein.ActiveResidues>
 VAL166  LYS551  ARG553  GLY616  TRP617  ASP618  TYR619  PRO620  LYS621  CYS622 
 ASP623  PHE694  ASN695  SER759  ASP760  ASP761  ALA762  ILE779  LEU786  VAL792 
 PHE793  MET794  SER795  GLU796  ALA797  LYS798  CYS799  TRP800  GLU811  SER814 

> <Gold.Protein.RotatedAtoms>
  151.3615  135.0905  159.9435 H   0  0  0  0  0  0  0  0  0  0  0  0  # atno 6907 bound_to 6896
  152.5160  133.9253  159.7564 H   0  0  0  0  0  0  0  0  0  0  0  0  # atno 6908 bound_to 6896
  150.9649  133.6352  159.2777 H   0  0  0  0  0  0  0  0  0  0  0  0  # atno 6909 bound_to 6896
  145.3878  140.9525  143.2357 H   0  0  0  0  0  0  0  0  0  0  0  0  # atno 7974 bound_to 7965
  156.0874  140.1410  156.9635 H   0  0  0  0  0  0  0  0  0  0  0  0  # atno 8008 bound_to 7997
  154.4621  140.0939  156.6969 H   0  0  0  0  0  0  0  0  0  0  0  0  # atno 8009 bound_to 7997
  155.4976  140.3450  155.4367 H   0  0  0  0  0  0  0  0  0  0  0  0  # atno 8010 bound_to 7997
  139.9739  143.5815  152.2403 H   0  0  0  0  0  0  0  0  0  0  0  0  # atno 10167 bound_to 10162
  157.6851  131.0037  150.2337 H   0  0  0  0  0  0  0  0  0  0  0  0  # atno 10718 bound_to 10713
  154.1640  135.6470  153.4993 H   0  0  0  0  0  0  0  0  0  0  0  0  # atno 10763 bound_to 10752
  153.0102  135.5367  154.6681 H   0  0  0  0  0  0  0  0  0  0  0  0  # atno 10764 bound_to 10752
  154.6002  135.2943  155.0515 H   0  0  0  0  0  0  0  0  0  0  0  0  # atno 10765 bound_to 10752
  140.5756  134.5193  157.5169 H   0  0  0  0  0  0  0  0  0  0  0  0  # atno 11005 bound_to 11000
  144.8461  139.5394  143.6878 LP  0  0  0  0  0  0  0  0  0  0  0  0  # atno 17320 bound_to 7965
  146.2812  139.6881  142.9228 LP  0  0  0  0  0  0  0  0  0  0  0  0  # atno 17321 bound_to 7965
  139.6460  144.7658  151.2243 LP  0  0  0  0  0  0  0  0  0  0  0  0  # atno 17342 bound_to 10162
  140.7512  143.6238  150.8488 LP  0  0  0  0  0  0  0  0  0  0  0  0  # atno 17343 bound_to 10162
  156.2965  130.3752  149.7791 LP  0  0  0  0  0  0  0  0  0  0  0  0  # atno 17370 bound_to 10713
  156.5435  130.8310  151.3276 LP  0  0  0  0  0  0  0  0  0  0  0  0  # atno 17371 bound_to 10713
  139.9341  134.7908  156.0850 LP  0  0  0  0  0  0  0  0  0  0  0  0  # atno 17394 bound_to 11000
  141.1029  133.6671  156.2795 LP  0  0  0  0  0  0  0  0  0  0  0  0  # atno 17395 bound_to 11000

$$$$
