AV-unprocessed.smi:102|AV-procd|sdf|945|dock7
  -GOLD-   2262017463D 1   1.00000     0.00000
 Structure written by MMmdl.
 44 45  0  0  0  0  0  0  0  0  1 V2000
  152.5060  142.4044  161.0480 C   0  0  0  0  0  0  0  0  0  0  0  0
  151.9787  142.9880  159.7436 C   0  0  0  0  0  0  0  0  0  0  0  0
  152.6882  143.6866  159.0196 O   0  0  0  0  0  0  0  0  0  0  0  0
  150.7014  142.6532  159.5091 O   0  0  0  0  0  0  0  0  0  0  0  0
  150.0771  143.0699  158.3045 C   0  0  0  0  0  0  0  0  0  0  0  0
  149.5088  141.8600  157.5523 C   0  0  2  0  0  0  0  0  0  0  0  0
  150.5501  140.9691  157.1764 O   0  0  0  0  0  0  0  0  0  0  0  0
  150.1119  140.2041  156.1023 C   0  0  1  0  0  0  0  0  0  0  0  0
  149.5093  138.9132  156.6549 N   0  0  0  0  0  0  0  0  0  0  0  0
  148.2042  138.8326  157.1334 C   0  0  0  0  0  0  0  0  0  0  0  0
  147.6857  137.7207  157.7050 C   0  0  0  0  0  0  0  0  0  0  0  0
  146.4123  137.7282  158.1347 F   0  0  0  0  0  0  0  0  0  0  0  0
  148.5018  136.5255  157.8816 C   0  0  0  0  0  0  0  0  0  0  0  0
  148.1194  135.4659  158.3739 O   0  0  0  0  0  0  0  0  0  0  0  0
  149.8225  136.6655  157.4503 N   0  0  0  0  0  0  0  0  0  0  0  0
  150.3712  137.8106  156.8705 C   0  0  0  0  0  0  0  0  0  0  0  0
  151.5642  137.8218  156.5697 O   0  0  0  0  0  0  0  0  0  0  0  0
  149.1709  141.1022  155.2673 C   0  0  1  0  0  0  0  0  0  0  0  0
  148.0918  140.3975  154.6572 O   0  0  0  0  0  0  0  0  0  0  0  0
  147.4538  140.9194  153.5968 C   0  0  0  0  0  0  0  0  0  0  0  0
  146.5701  139.8985  152.8935 C   0  0  0  0  0  0  0  0  0  0  0  0
  147.5482  142.0780  153.1923 O   0  0  0  0  0  0  0  0  0  0  0  0
  148.7489  142.1981  156.2567 C   0  0  1  0  0  0  0  0  0  0  0  0
  147.3486  142.2169  156.5167 O   0  0  0  0  0  0  0  0  0  0  0  0
  146.8128  143.1705  157.2986 C   0  0  0  0  0  0  0  0  0  0  0  0
  145.3823  143.5081  156.9014 C   0  0  0  0  0  0  0  0  0  0  0  0
  147.3743  143.7435  158.2321 O   0  0  0  0  0  0  0  0  0  0  0  0
  150.4366  135.8749  157.5816 H   0  0  0  0  0  0  0  0  0  0  0  0
  151.9774  141.4850  161.3018 H   0  0  0  0  0  0  0  0  0  0  0  0
  152.3711  143.1180  161.8610 H   0  0  0  0  0  0  0  0  0  0  0  0
  153.5685  142.1773  160.9596 H   0  0  0  0  0  0  0  0  0  0  0  0
  149.2794  143.7794  158.5282 H   0  0  0  0  0  0  0  0  0  0  0  0
  150.8047  143.5840  157.6748 H   0  0  0  0  0  0  0  0  0  0  0  0
  148.8537  141.3130  158.2313 H   0  0  0  0  0  0  0  0  0  0  0  0
  150.9594  139.9010  155.4865 H   0  0  0  0  0  0  0  0  0  0  0  0
  147.5500  139.6853  157.0659 H   0  0  0  0  0  0  0  0  0  0  0  0
  149.7777  141.5840  154.4988 H   0  0  0  0  0  0  0  0  0  0  0  0
  145.9321  139.3861  153.6142 H   0  0  0  0  0  0  0  0  0  0  0  0
  147.1846  139.1564  152.3835 H   0  0  0  0  0  0  0  0  0  0  0  0
  145.9336  140.3875  152.1555 H   0  0  0  0  0  0  0  0  0  0  0  0
  149.0813  143.1643  155.8748 H   0  0  0  0  0  0  0  0  0  0  0  0
  144.7757  142.6028  156.8624 H   0  0  0  0  0  0  0  0  0  0  0  0
  145.3647  143.9806  155.9191 H   0  0  0  0  0  0  0  0  0  0  0  0
  144.9353  144.1924  157.6232 H   0  0  0  0  0  0  0  0  0  0  0  0
  1  2  1  0  0  0  0
  1 29  1  0  0  0  0
  1 30  1  0  0  0  0
  1 31  1  0  0  0  0
  2  3  2  0  0  0  0
  2  4  1  0  0  0  0
  4  5  1  0  0  0  0
  5  6  1  0  0  0  0
  5 32  1  0  0  0  0
  5 33  1  0  0  0  0
  6 23  1  0  0  0  0
  6  7  1  0  0  0  0
  6 34  1  0  0  0  0
  7  8  1  0  0  0  0
  8  9  1  0  0  0  0
  8 18  1  0  0  0  0
  8 35  1  0  0  0  0
  9 16  1  0  0  0  0
  9 10  1  0  0  0  0
 10 11  2  0  0  0  0
 10 36  1  0  0  0  0
 11 12  1  0  0  0  0
 11 13  1  0  0  0  0
 13 14  2  0  0  0  0
 13 15  1  0  0  0  0
 15 28  1  0  0  0  0
 15 16  1  0  0  0  0
 16 17  2  0  0  0  0
 18 19  1  0  0  0  0
 18 23  1  0  0  0  0
 18 37  1  0  0  0  0
 19 20  1  0  0  0  0
 20 21  1  0  0  0  0
 20 22  2  0  0  0  0
 21 38  1  0  0  0  0
 21 39  1  0  0  0  0
 21 40  1  0  0  0  0
 23 24  1  0  0  0  0
 23 41  1  0  0  0  0
 24 25  1  0  0  0  0
 25 26  1  0  0  0  0
 25 27  2  0  0  0  0
 26 42  1  0  0  0  0
 26 43  1  0  0  0  0
 26 44  1  0  0  0  0
M  END
> <s_m_source_file>
AV-unprocessed.smi

> <i_m_source_file_index>
102

> <i_lp_mmshare_version>
43012

> <i_f3d_flags>
0

> <s_epik_input>
W0NIM11DKD1PKU9bQ0gyXVtDQEBIXTFPW0NASF0oW0NAQEhdKE9DKD1PKVtDSDNdKVtDQEhdMU9DKD1PKVtDSDNdKW4yW2NIXWMoRiljKD1PKVtuSF1jMj1P

> <s_epik_cmdline>
J2VwaWtfcHl0aG9uJywgJy1waCcsICc3LjAnLCAnLXRuJywgJzgnLCAnLW1hJywgJzIwMCcsICctbWV0YWxfYmluZGluZycsICctaW1hZScsICc8aW5maWxlLm1hZT4nLCAnLW9tYWUnLCAnPG91dGZpbGUubWFlPic=

> <r_lp_tautomer_probability>
0.999537

> <r_epik_Ionization_Penalty>
0.058267

> <r_epik_Ionization_Penalty_Charging>
0.058267

> <r_epik_Ionization_Penalty_Neutral>
6.57791e-16

> <r_epik_State_Penalty>
0.0503774

> <r_epik_Charging_Adjusted_Penalty>
0.108644

> <i_epik_Tot_Q>
0

> <i_epik_Tot_abs_Q>
0

> <r_epik_Metal_State_Penalty>
2.6644

> <b_epik_Metal_Only>
0

> <s_epik_Chemistry_Notes>
This compound has an ester and may undergo hydrolysis at high or low pH. This compound contains an acetal/aminal-like group ( X-CH(R)-Y where X, Y are N, S, or O) that may be acid/base labile, releasing an aldehyde.

> <s_lp_Force_Field>
OPLS_2005

> <r_lp_Energy>
14.9607

> <b_lp_Chiralities_Consistent>
1

> <s_lp_Variant>
AV-unprocessed.smi:102-1

> <Gold.Version>
5.8.1

> <Gold.Id.Protein>
6NUR|6NUR_protein|mol2

> <Gold.PLP.Fitness>
37.8587

> <Gold.PLP.PLP>
-33.6684

> <Gold.PLP.part.hbond>
-4.5893

> <Gold.PLP.part.metal>
0.0000

> <Gold.PLP.part.buried>
-3.5630

> <Gold.PLP.part.nonpolar>
-27.2150

> <Gold.PLP.part.repulsive>
1.3854

> <Gold.PLP.ligand.clash>
0.0000

> <Gold.PLP.ligand.torsion>
1.8253

> <Gold.PLP.Chemscore.Hbond>
2.5487

> <Gold.PLP.Chemscore.CHOScore>
0.0000

> <Gold.PLP.Chemscore.Metal>
0.0000

> <Gold.Chemscore.Hbonds>
donor molecule, donor type, donor heavy atom, donor atom, acceptor molecule, acceptor atom, score
      P1  H  8011  8017       L1    22  0.02

> <Gold.PLP.Chemscore.Internal.Correction>
0.1947

> <Gold.Rescore>
     Score         DG    S(hbond)    S(metal)    S(lipo)     H(rot)  DE(clash)    DE(int)     intcor
      0.27      -6.80       1.97        0.00      43.78       4.05       0.81       5.72       ----

> <Gold.Chemscore.Fitness>
0.2698

> <Gold.Chemscore.DG>
-6.7990

> <Gold.Chemscore.ZeroCoef>
-5.4800

> <Gold.Chemscore.Hbond>
1.9670

> <Gold.Chemscore.Metal>
0.0000

> <Gold.Chemscore.Lipo>
43.7806

> <Gold.Chemscore.Internal_Hbond>
0.0000

> <Gold.Chemscore.DEClash>
0.8135

> <Gold.Chemscore.DEInternal>
5.7158

> <Gold.Chemscore.Rot>
4.0520

> <Gold.Chemscore.Internal.Correction>
   9.000000E+99

> <Gold.Chemscore.Hbonds>
donor molecule, donor type, donor heavy atom, donor atom, acceptor molecule, acceptor atom, score
      P1  H  8011  8017       L1    22  0.03

> <Gold.Chemscore.Hbond.Weighted>
-6.5698

> <Gold.Chemscore.Metal.Weighted>
-0.0000

> <Gold.Chemscore.Lipo.Weighted>
-5.1223

> <Gold.Chemscore.Internal_Hbond.Weighted>
0.0000

> <Gold.Chemscore.DEClash.Weighted>
0.8135

> <Gold.Chemscore.DEInternal.Weighted>
5.7158

> <Gold.Chemscore.Rot.Weighted>
10.3732

> <Gold.Chemscore.Internal.Correction.Weighted>
   9.000000E+99

> <Gold.Protein.RotatedTorsions>
[ 6907 6896 6895 6894 ] final -174.83 input  -60.11 | X-H torsion
[ 7974 7965 7964 7962 ] final   49.68 input  175.53 | X-H torsion
[ 8008 7997 7996 7995 ] final  -15.13 input   59.86 | X-H torsion
[ 10167 10162 10161 10158 ] final  -24.39 input  -65.29 | X-H torsion
[ 10718 10713 10712 10709 ] final -135.80 input   66.30 | X-H torsion
[ 10763 10752 10751 10750 ] final -136.92 input  -60.55 | X-H torsion
[ 11005 11000 10999 10996 ] final -165.75 input  -57.11 | X-H torsion

> <Gold.Protein.ActiveResidues>
 VAL166  LYS551  ARG553  GLY616  TRP617  ASP618  TYR619  PRO620  LYS621  CYS622 
 ASP623  PHE694  ASN695  SER759  ASP760  ASP761  ALA762  ILE779  LEU786  VAL792 
 PHE793  MET794  SER795  GLU796  ALA797  LYS798  CYS799  TRP800  GLU811  SER814 

> <Gold.Protein.RotatedAtoms>
  151.5787  133.3380  159.3003 H   0  0  0  0  0  0  0  0  0  0  0  0  # atno 6907 bound_to 6896
  150.8326  134.7589  159.6877 H   0  0  0  0  0  0  0  0  0  0  0  0  # atno 6908 bound_to 6896
  152.4407  134.5603  159.9943 H   0  0  0  0  0  0  0  0  0  0  0  0  # atno 6909 bound_to 6896
  146.0085  139.4517  142.9970 H   0  0  0  0  0  0  0  0  0  0  0  0  # atno 7974 bound_to 7965
  154.5155  140.2204  155.9074 H   0  0  0  0  0  0  0  0  0  0  0  0  # atno 8008 bound_to 7997
  156.1602  140.3143  155.8760 H   0  0  0  0  0  0  0  0  0  0  0  0  # atno 8009 bound_to 7997
  155.3766  140.0470  157.3035 H   0  0  0  0  0  0  0  0  0  0  0  0  # atno 8010 bound_to 7997
  140.7288  143.4358  151.0732 H   0  0  0  0  0  0  0  0  0  0  0  0  # atno 10167 bound_to 10162
  156.2701  130.7260  151.1224 H   0  0  0  0  0  0  0  0  0  0  0  0  # atno 10718 bound_to 10713
  154.8673  135.3658  154.5139 H   0  0  0  0  0  0  0  0  0  0  0  0  # atno 10763 bound_to 10752
  153.5772  135.7019  153.5483 H   0  0  0  0  0  0  0  0  0  0  0  0  # atno 10764 bound_to 10752
  153.3489  135.4077  155.1593 H   0  0  0  0  0  0  0  0  0  0  0  0  # atno 10765 bound_to 10752
  140.5722  134.5227  157.5164 H   0  0  0  0  0  0  0  0  0  0  0  0  # atno 11005 bound_to 11000
  145.7378  141.0019  143.1317 LP  0  0  0  0  0  0  0  0  0  0  0  0  # atno 17320 bound_to 7965
  144.6944  139.9062  143.7461 LP  0  0  0  0  0  0  0  0  0  0  0  0  # atno 17321 bound_to 7965
  139.8019  143.8071  152.3163 LP  0  0  0  0  0  0  0  0  0  0  0  0  # atno 17342 bound_to 10162
  139.8091  144.7343  150.9721 LP  0  0  0  0  0  0  0  0  0  0  0  0  # atno 17343 bound_to 10162
  157.7281  131.0634  150.5837 LP  0  0  0  0  0  0  0  0  0  0  0  0  # atno 17370 bound_to 10713
  156.5932  130.4335  149.5928 LP  0  0  0  0  0  0  0  0  0  0  0  0  # atno 17371 bound_to 10713
  139.9357  134.7881  156.0811 LP  0  0  0  0  0  0  0  0  0  0  0  0  # atno 17394 bound_to 11000
  141.1049  133.6663  156.2841 LP  0  0  0  0  0  0  0  0  0  0  0  0  # atno 17395 bound_to 11000

$$$$
