AV-unprocessed.smi:2816|AV-procd|sdf|10843|dock3
  -GOLD-   2272015283D 1   1.00000     0.00000
 Structure written by MMmdl.
 43 45  0  0  0  0  0  0  0  0  1 V2000
  138.5923  139.7684  153.5781 C   0  0  0  0  0  0  0  0  0  0  0  0
  139.0668  138.6028  154.4633 C   0  0  0  0  0  0  0  0  0  0  0  0
  138.2888  138.6151  155.7918 C   0  0  0  0  0  0  0  0  0  0  0  0
  138.8419  137.2724  153.7213 C   0  0  0  0  0  0  0  0  0  0  0  0
  140.8812  138.8493  154.8005 S   0  0  0  0  0  0  0  0  0  0  0  0
  141.3439  140.0122  154.0265 O   0  0  0  0  0  0  0  0  0  0  0  0
  141.0723  138.8372  156.2596 O   0  0  0  0  0  0  0  0  0  0  0  0
  141.7058  137.4000  154.1380 C   0  0  0  0  0  0  0  0  0  0  0  0
  142.6795  137.5427  153.1290 C   0  0  0  0  0  0  0  0  0  0  0  0
  143.3338  136.3846  152.6695 C   0  0  0  0  0  0  0  0  0  0  0  0
  142.9995  135.1338  153.2412 C   0  0  0  0  0  0  0  0  0  0  0  0
  143.5982  133.9245  152.8591 N   0  0  0  0  0  0  0  0  0  0  0  0
  144.7180  133.8899  151.9249 C   0  0  1  0  0  0  0  0  0  0  0  0
  145.8760  132.9860  152.3640 C   0  0  0  0  0  0  0  0  0  0  0  0
  146.0546  132.0843  151.1347 C   0  0  1  0  0  0  0  0  0  0  0  0
  144.9453  131.0291  151.0466 C   0  0  0  0  0  0  0  0  0  0  0  0
  143.7445  131.8772  150.6330 C   0  0  0  0  0  0  0  0  0  0  0  0
  144.3586  133.2864  150.5550 C   0  0  2  0  0  0  0  0  0  0  0  0
  145.6593  132.9621  150.0932 O   0  0  0  0  0  0  0  0  0  0  0  0
  142.0122  135.1146  154.2503 C   0  0  0  0  0  0  0  0  0  0  0  0
  141.3786  136.2173  154.7010 N   0  0  0  0  0  0  0  0  0  0  0  0
  137.5316  139.6818  153.3403 H   0  0  0  0  0  0  0  0  0  0  0  0
  139.1402  139.7977  152.6358 H   0  0  0  0  0  0  0  0  0  0  0  0
  138.7407  140.7285  154.0733 H   0  0  0  0  0  0  0  0  0  0  0  0
  138.4582  139.5395  156.3447 H   0  0  0  0  0  0  0  0  0  0  0  0
  138.5813  137.7863  156.4363 H   0  0  0  0  0  0  0  0  0  0  0  0
  137.2155  138.5279  155.6202 H   0  0  0  0  0  0  0  0  0  0  0  0
  137.7944  137.1509  153.4435 H   0  0  0  0  0  0  0  0  0  0  0  0
  139.1102  136.4149  154.3371 H   0  0  0  0  0  0  0  0  0  0  0  0
  139.4306  137.2218  152.8049 H   0  0  0  0  0  0  0  0  0  0  0  0
  142.9240  138.5109  152.7184 H   0  0  0  0  0  0  0  0  0  0  0  0
  144.0793  136.4743  151.8942 H   0  0  0  0  0  0  0  0  0  0  0  0
  143.3878  133.0858  153.3813 H   0  0  0  0  0  0  0  0  0  0  0  0
  145.0844  134.9044  151.7632 H   0  0  0  0  0  0  0  0  0  0  0  0
  146.7717  133.5814  152.5446 H   0  0  0  0  0  0  0  0  0  0  0  0
  145.6670  132.4078  153.2654 H   0  0  0  0  0  0  0  0  0  0  0  0
  147.0604  131.6780  151.0258 H   0  0  0  0  0  0  0  0  0  0  0  0
  145.1728  130.2884  150.2793 H   0  0  0  0  0  0  0  0  0  0  0  0
  144.7909  130.5071  151.9915 H   0  0  0  0  0  0  0  0  0  0  0  0
  143.3822  131.5641  149.6531 H   0  0  0  0  0  0  0  0  0  0  0  0
  142.9131  131.8081  151.3344 H   0  0  0  0  0  0  0  0  0  0  0  0
  143.8119  133.9690  149.9040 H   0  0  0  0  0  0  0  0  0  0  0  0
  141.7256  134.1839  154.7181 H   0  0  0  0  0  0  0  0  0  0  0  0
  1  2  1  0  0  0  0
  1 22  1  0  0  0  0
  1 23  1  0  0  0  0
  1 24  1  0  0  0  0
  2  3  1  0  0  0  0
  2  4  1  0  0  0  0
  2  5  1  0  0  0  0
  3 25  1  0  0  0  0
  3 26  1  0  0  0  0
  3 27  1  0  0  0  0
  4 28  1  0  0  0  0
  4 29  1  0  0  0  0
  4 30  1  0  0  0  0
  5  6  2  0  0  0  0
  5  7  2  0  0  0  0
  5  8  1  0  0  0  0
  8 21  1  0  0  0  0
  8  9  2  0  0  0  0
  9 10  1  0  0  0  0
  9 31  1  0  0  0  0
 10 11  2  0  0  0  0
 10 32  1  0  0  0  0
 11 12  1  0  0  0  0
 11 20  1  0  0  0  0
 12 13  1  0  0  0  0
 12 33  1  0  0  0  0
 13 18  1  0  0  0  0
 13 14  1  0  0  0  0
 13 34  1  0  0  0  0
 14 15  1  0  0  0  0
 14 35  1  0  0  0  0
 14 36  1  0  0  0  0
 15 19  1  0  0  0  0
 15 16  1  0  0  0  0
 15 37  1  0  0  0  0
 16 17  1  0  0  0  0
 16 38  1  0  0  0  0
 16 39  1  0  0  0  0
 17 18  1  0  0  0  0
 17 40  1  0  0  0  0
 17 41  1  0  0  0  0
 18 19  1  0  0  0  0
 18 42  1  0  0  0  0
 20 21  2  0  0  0  0
 20 43  1  0  0  0  0
M  END
> <s_m_source_file>
AV-unprocessed.smi

> <i_m_source_file_index>
2816

> <i_lp_mmshare_version>
43012

> <i_f3d_flags>
0

> <s_epik_input>
W0NIM11DKFtDSDNdKShbQ0gzXSlTKD1PKSg9TyljMVtjSF1bY0hdYyhbY0hdbjEpW05IXVtDQEhdKFtDSDJdW0NAQEhdMjMpW0NAQEhdKE8zKVtDSDJdW0NIMl0y

> <s_epik_cmdline>
J2VwaWtfcHl0aG9uJywgJy1waCcsICc3LjAnLCAnLXRuJywgJzgnLCAnLW1hJywgJzIwMCcsICctbWV0YWxfYmluZGluZycsICctaW1hZScsICc8aW5maWxlLm1hZT4nLCAnLW9tYWUnLCAnPG91dGZpbGUubWFlPic=

> <r_lp_tautomer_probability>
1

> <r_epik_Ionization_Penalty>
1.94439e-07

> <r_epik_Ionization_Penalty_Charging>
0

> <r_epik_Ionization_Penalty_Neutral>
1.94439e-07

> <r_epik_State_Penalty>
-0

> <r_epik_Charging_Adjusted_Penalty>
0

> <i_epik_Tot_Q>
0

> <i_epik_Tot_abs_Q>
0

> <r_epik_Metal_State_Penalty>
-0

> <b_epik_Metal_Only>
0

> <s_lp_Force_Field>
OPLS_2005

> <r_lp_Energy>
43.8741

> <b_lp_Chiralities_Consistent>
1

> <s_lp_Variant>
AV-unprocessed.smi:2816-2

> <Gold.Version>
5.8.1

> <Gold.Id.Protein>
6NUR|6NUR_protein|mol2

> <Gold.PLP.Fitness>
41.3468

> <Gold.PLP.PLP>
-33.5803

> <Gold.PLP.part.hbond>
-1.9766

> <Gold.PLP.part.metal>
0.0000

> <Gold.PLP.part.buried>
-5.3793

> <Gold.PLP.part.nonpolar>
-28.7532

> <Gold.PLP.part.repulsive>
2.5598

> <Gold.PLP.ligand.clash>
0.0000

> <Gold.PLP.ligand.torsion>
1.2806

> <Gold.PLP.Chemscore.Hbond>
0.9913

> <Gold.PLP.Chemscore.CHOScore>
1.7096

> <Gold.PLP.Chemscore.Metal>
0.0000

> <Gold.Chemscore.Hbonds>
donor molecule, donor type, donor heavy atom, donor atom, acceptor molecule, acceptor atom, score
      L1  H    12    33       P1 10957  0.94
      L1  C    20    43       P1 10957  0.89
      L1  C    20    43       P1 11000  0.85

> <Gold.PLP.Chemscore.Internal.Correction>
2.2251

> <Gold.Rescore>
     Score         DG    S(hbond)    S(metal)    S(lipo)     H(rot)  DE(clash)    DE(int)     intcor
     13.12     -16.49       0.91        0.00      93.34       1.15       1.33       2.04       ----

> <Gold.Chemscore.Fitness>
13.1168

> <Gold.Chemscore.DG>
-16.4895

> <Gold.Chemscore.ZeroCoef>
-5.4800

> <Gold.Chemscore.Hbond>
0.9057

> <Gold.Chemscore.Metal>
0.0000

> <Gold.Chemscore.Lipo>
93.3422

> <Gold.Chemscore.Internal_Hbond>
0.0000

> <Gold.Chemscore.DEClash>
1.3350

> <Gold.Chemscore.DEInternal>
2.0377

> <Gold.Chemscore.Rot>
1.1471

> <Gold.Chemscore.Internal.Correction>
   9.000000E+99

> <Gold.Chemscore.Hbonds>
donor molecule, donor type, donor heavy atom, donor atom, acceptor molecule, acceptor atom, score
      L1  H    12    33       P1 10957  0.77

> <Gold.Chemscore.Hbond.Weighted>
-3.0250

> <Gold.Chemscore.Metal.Weighted>
-0.0000

> <Gold.Chemscore.Lipo.Weighted>
-10.9210

> <Gold.Chemscore.Internal_Hbond.Weighted>
0.0000

> <Gold.Chemscore.DEClash.Weighted>
1.3350

> <Gold.Chemscore.DEInternal.Weighted>
2.0377

> <Gold.Chemscore.Rot.Weighted>
2.9366

> <Gold.Chemscore.Internal.Correction.Weighted>
   9.000000E+99

> <Gold.Protein.RotatedTorsions>
[ 6907 6896 6895 6894 ] final -146.60 input  -60.11 | X-H torsion
[ 7974 7965 7964 7962 ] final   36.08 input  175.53 | X-H torsion
[ 8008 7997 7996 7995 ] final -120.22 input   59.86 | X-H torsion
[ 10167 10162 10161 10158 ] final   68.10 input  -65.29 | X-H torsion
[ 10718 10713 10712 10709 ] final  -65.30 input   66.30 | X-H torsion
[ 10763 10752 10751 10750 ] final    0.30 input  -60.55 | X-H torsion
[ 11005 11000 10999 10996 ] final -131.96 input  -57.11 | X-H torsion

> <Gold.Protein.ActiveResidues>
 VAL166  LYS551  ARG553  GLY616  TRP617  ASP618  TYR619  PRO620  LYS621  CYS622 
 ASP623  PHE694  ASN695  SER759  ASP760  ASP761  ALA762  ILE779  LEU786  VAL792 
 PHE793  MET794  SER795  GLU796  ALA797  LYS798  CYS799  TRP800  GLU811  SER814 

> <Gold.Protein.RotatedAtoms>
  151.1440  133.4952  159.2596 H   0  0  0  0  0  0  0  0  0  0  0  0  # atno 6907 bound_to 6896
  151.1625  135.0279  159.8726 H   0  0  0  0  0  0  0  0  0  0  0  0  # atno 6908 bound_to 6896
  152.5463  134.1312  159.8493 H   0  0  0  0  0  0  0  0  0  0  0  0  # atno 6909 bound_to 6896
  146.1237  139.6062  142.9273 H   0  0  0  0  0  0  0  0  0  0  0  0  # atno 7974 bound_to 7965
  155.1284  140.0400  157.2768 H   0  0  0  0  0  0  0  0  0  0  0  0  # atno 8008 bound_to 7997
  154.6561  140.2580  155.7134 H   0  0  0  0  0  0  0  0  0  0  0  0  # atno 8009 bound_to 7997
  156.2599  140.2826  156.1015 H   0  0  0  0  0  0  0  0  0  0  0  0  # atno 8010 bound_to 7997
  140.0823  144.5060  150.7154 H   0  0  0  0  0  0  0  0  0  0  0  0  # atno 10167 bound_to 10162
  156.0678  130.4245  150.1544 H   0  0  0  0  0  0  0  0  0  0  0  0  # atno 10718 bound_to 10713
  153.3224  135.6970  153.7019 H   0  0  0  0  0  0  0  0  0  0  0  0  # atno 10763 bound_to 10752
  153.5854  135.3490  155.2891 H   0  0  0  0  0  0  0  0  0  0  0  0  # atno 10764 bound_to 10752
  154.8600  135.4305  154.2391 H   0  0  0  0  0  0  0  0  0  0  0  0  # atno 10765 bound_to 10752
  140.9213  134.1441  157.4312 H   0  0  0  0  0  0  0  0  0  0  0  0  # atno 11005 bound_to 11000
  145.5412  141.0420  143.2330 LP  0  0  0  0  0  0  0  0  0  0  0  0  # atno 17320 bound_to 7965
  144.7621  139.6931  143.7230 LP  0  0  0  0  0  0  0  0  0  0  0  0  # atno 17321 bound_to 7965
  140.7071  143.2476  151.4693 LP  0  0  0  0  0  0  0  0  0  0  0  0  # atno 17342 bound_to 10162
  139.5772  144.1791  152.1920 LP  0  0  0  0  0  0  0  0  0  0  0  0  # atno 17343 bound_to 10162
  156.9601  130.9802  151.3481 LP  0  0  0  0  0  0  0  0  0  0  0  0  # atno 17370 bound_to 10713
  157.5730  130.8323  149.8417 LP  0  0  0  0  0  0  0  0  0  0  0  0  # atno 17371 bound_to 10713
  139.8776  134.9972  156.5835 LP  0  0  0  0  0  0  0  0  0  0  0  0  # atno 17394 bound_to 11000
  140.7984  133.8525  155.8706 LP  0  0  0  0  0  0  0  0  0  0  0  0  # atno 17395 bound_to 11000

$$$$
