AV-unprocessed.smi:148|AV-procd|sdf|1213|dock9
  -GOLD-   2262018393D 1   1.00000     0.00000
 Structure written by MMmdl.
 63 67  0  0  0  0  0  0  0  0  1 V2000
  148.3595  131.5356  153.0841 O   0  0  0  0  0  0  0  0  0  0  0  0
  148.1043  132.9243  153.1043 C   0  0  0  0  0  0  0  0  0  0  0  0
  146.6410  133.2164  153.5126 C   0  0  1  0  0  0  0  0  0  0  0  0
  146.4654  134.6436  154.1018 C   0  0  0  0  0  0  0  0  0  0  0  0
  146.5660  134.7122  155.5528 N   0  0  0  0  0  0  0  0  0  0  0  0
  145.5340  134.8978  156.4466 C   0  0  0  0  0  0  0  0  0  0  0  0
  145.8818  134.9283  157.7037 N   0  0  0  0  0  0  0  0  0  0  0  0
  147.2561  134.7295  157.6779 C   0  0  0  0  0  0  0  0  0  0  0  0
  148.2673  134.6427  158.6762 C   0  0  0  0  0  0  0  0  0  0  0  0
  148.0495  134.7704  160.0033 N   0  0  0  0  0  0  0  0  0  0  0  0
  147.5146  136.1091  160.2646 C   0  0  0  0  0  0  0  0  0  0  0  0
  147.4864  136.4236  161.7626 C   0  0  0  0  0  0  0  0  0  0  0  0
  146.6879  135.3476  162.4978 C   0  0  0  0  0  0  0  0  0  0  0  0
  147.2918  133.9686  162.2072 C   0  0  0  0  0  0  0  0  0  0  0  0
  147.3662  133.6511  160.6878 C   0  0  2  0  0  0  0  0  0  0  0  0
  148.0497  132.2569  160.4633 C   0  0  2  0  0  0  0  0  0  0  0  0
  147.9997  131.6661  159.0370 C   0  0  0  0  0  0  0  0  0  0  0  0
  148.1560  130.1447  159.1729 C   0  0  0  0  0  0  0  0  0  0  0  0
  148.0963  129.8412  160.6722 C   0  0  0  0  0  0  0  0  0  0  0  0
  147.4952  131.0929  161.3126 C   0  0  2  0  0  0  0  0  0  0  0  0
  146.0834  131.0118  161.2212 O   0  0  0  0  0  0  0  0  0  0  0  0
  149.5466  134.4442  158.2734 N   0  0  0  0  0  0  0  0  0  0  0  0
  149.8220  134.3118  156.9722 C   0  0  0  0  0  0  0  0  0  0  0  0
  148.9854  134.3571  155.9327 N   0  0  0  0  0  0  0  0  0  0  0  0
  147.7010  134.5791  156.3350 C   0  0  0  0  0  0  0  0  0  0  0  0
  145.6668  132.9336  152.3386 C   0  0  2  0  0  0  0  0  0  0  0  0
  145.5856  131.4752  151.9193 C   0  0  0  0  0  0  0  0  0  0  0  0
  144.9684  131.5708  150.5286 C   0  0  0  0  0  0  0  0  0  0  0  0
  145.4421  132.7966  149.9838 O   0  0  0  0  0  0  0  0  0  0  0  0
  146.0627  133.5739  151.0029 C   0  0  0  0  0  0  0  0  0  0  0  0
  148.5345  131.2765  152.1917 H   0  0  0  0  0  0  0  0  0  0  0  0
  148.8116  133.4178  153.7709 H   0  0  0  0  0  0  0  0  0  0  0  0
  148.3094  133.2952  152.1008 H   0  0  0  0  0  0  0  0  0  0  0  0
  146.3885  132.5153  154.3098 H   0  0  0  0  0  0  0  0  0  0  0  0
  147.2034  135.3245  153.6777 H   0  0  0  0  0  0  0  0  0  0  0  0
  145.4977  135.0524  153.8095 H   0  0  0  0  0  0  0  0  0  0  0  0
  144.5063  135.0181  156.1388 H   0  0  0  0  0  0  0  0  0  0  0  0
  148.1174  136.8606  159.7513 H   0  0  0  0  0  0  0  0  0  0  0  0
  146.5038  136.1845  159.8612 H   0  0  0  0  0  0  0  0  0  0  0  0
  148.5040  136.4659  162.1532 H   0  0  0  0  0  0  0  0  0  0  0  0
  147.0435  137.4053  161.9326 H   0  0  0  0  0  0  0  0  0  0  0  0
  146.6905  135.5437  163.5704 H   0  0  0  0  0  0  0  0  0  0  0  0
  145.6460  135.3707  162.1752 H   0  0  0  0  0  0  0  0  0  0  0  0
  148.2923  133.9179  162.6396 H   0  0  0  0  0  0  0  0  0  0  0  0
  146.6923  133.2282  162.7349 H   0  0  0  0  0  0  0  0  0  0  0  0
  146.3442  133.6016  160.3105 H   0  0  0  0  0  0  0  0  0  0  0  0
  149.1022  132.3619  160.7330 H   0  0  0  0  0  0  0  0  0  0  0  0
  147.0375  131.8863  158.5731 H   0  0  0  0  0  0  0  0  0  0  0  0
  148.7773  132.0684  158.3895 H   0  0  0  0  0  0  0  0  0  0  0  0
  147.3482  129.6374  158.6438 H   0  0  0  0  0  0  0  0  0  0  0  0
  149.0963  129.7970  158.7439 H   0  0  0  0  0  0  0  0  0  0  0  0
  147.5382  128.9315  160.8985 H   0  0  0  0  0  0  0  0  0  0  0  0
  149.1105  129.6999  161.0485 H   0  0  0  0  0  0  0  0  0  0  0  0
  147.7820  131.1700  162.3618 H   0  0  0  0  0  0  0  0  0  0  0  0
  145.7643  131.7953  160.7998 H   0  0  0  0  0  0  0  0  0  0  0  0
  150.8611  134.1458  156.7289 H   0  0  0  0  0  0  0  0  0  0  0  0
  144.6653  133.2825  152.5951 H   0  0  0  0  0  0  0  0  0  0  0  0
  146.5845  131.0414  151.8538 H   0  0  0  0  0  0  0  0  0  0  0  0
  144.9931  130.8571  152.5927 H   0  0  0  0  0  0  0  0  0  0  0  0
  145.2322  130.7234  149.8954 H   0  0  0  0  0  0  0  0  0  0  0  0
  143.8807  131.6186  150.5970 H   0  0  0  0  0  0  0  0  0  0  0  0
  145.7560  134.6178  150.9329 H   0  0  0  0  0  0  0  0  0  0  0  0
  147.1428  133.5287  150.8560 H   0  0  0  0  0  0  0  0  0  0  0  0
  1  2  1  0  0  0  0
  1 31  1  0  0  0  0
  2  3  1  0  0  0  0
  2 32  1  0  0  0  0
  2 33  1  0  0  0  0
  3  4  1  0  0  0  0
  3 26  1  0  0  0  0
  3 34  1  0  0  0  0
  4  5  1  0  0  0  0
  4 35  1  0  0  0  0
  4 36  1  0  0  0  0
  5 25  1  0  0  0  0
  5  6  1  0  0  0  0
  6  7  2  0  0  0  0
  6 37  1  0  0  0  0
  7  8  1  0  0  0  0
  8 25  2  0  0  0  0
  8  9  1  0  0  0  0
  9 10  1  0  0  0  0
  9 22  2  0  0  0  0
 10 15  1  0  0  0  0
 10 11  1  0  0  0  0
 11 12  1  0  0  0  0
 11 38  1  0  0  0  0
 11 39  1  0  0  0  0
 12 13  1  0  0  0  0
 12 40  1  0  0  0  0
 12 41  1  0  0  0  0
 13 14  1  0  0  0  0
 13 42  1  0  0  0  0
 13 43  1  0  0  0  0
 14 15  1  0  0  0  0
 14 44  1  0  0  0  0
 14 45  1  0  0  0  0
 15 16  1  0  0  0  0
 15 46  1  0  0  0  0
 16 20  1  0  0  0  0
 16 17  1  0  0  0  0
 16 47  1  0  0  0  0
 17 18  1  0  0  0  0
 17 48  1  0  0  0  0
 17 49  1  0  0  0  0
 18 19  1  0  0  0  0
 18 50  1  0  0  0  0
 18 51  1  0  0  0  0
 19 20  1  0  0  0  0
 19 52  1  0  0  0  0
 19 53  1  0  0  0  0
 20 21  1  0  0  0  0
 20 54  1  0  0  0  0
 21 55  1  0  0  0  0
 22 23  1  0  0  0  0
 23 24  2  0  0  0  0
 23 56  1  0  0  0  0
 24 25  1  0  0  0  0
 26 30  1  0  0  0  0
 26 27  1  0  0  0  0
 26 57  1  0  0  0  0
 27 28  1  0  0  0  0
 27 58  1  0  0  0  0
 27 59  1  0  0  0  0
 28 29  1  0  0  0  0
 28 60  1  0  0  0  0
 28 61  1  0  0  0  0
 29 30  1  0  0  0  0
 30 62  1  0  0  0  0
 30 63  1  0  0  0  0
M  END
> <s_m_source_file>
AV-unprocessed.smi

> <i_m_source_file_index>
148

> <i_lp_mmshare_version>
43012

> <i_f3d_flags>
0

> <s_epik_input>
W0NIMl0xT1tDSDJdW0NIMl1bQ0BIXTFbQ0BIXShbQ0gyXVtPSF0pW0NIMl1uKFtjSF1uMiljKGMyMyluW2NIXW5jM040W0NIMl1bQ0gyXVtDSDJdW0NIMl1bQ0BIXTRbQ0BASF01W0NIMl1bQ0gyXVtDSDJdW0NASF01W09IXQ==

> <s_epik_cmdline>
J2VwaWtfcHl0aG9uJywgJy1waCcsICc3LjAnLCAnLXRuJywgJzgnLCAnLW1hJywgJzIwMCcsICctbWV0YWxfYmluZGluZycsICctaW1hZScsICc8aW5maWxlLm1hZT4nLCAnLW9tYWUnLCAnPG91dGZpbGUubWFlPic=

> <r_lp_tautomer_probability>
1

> <r_epik_Ionization_Penalty>
0.00556303

> <r_epik_Ionization_Penalty_Charging>
0

> <r_epik_Ionization_Penalty_Neutral>
0.00556303

> <r_epik_State_Penalty>
0.00401767

> <r_epik_Charging_Adjusted_Penalty>
0.00401767

> <i_epik_Tot_Q>
0

> <i_epik_Tot_abs_Q>
0

> <r_epik_Metal_State_Penalty>
-0

> <b_epik_Metal_Only>
0

> <s_lp_Force_Field>
OPLS_2005

> <r_lp_Energy>
69.1671

> <b_lp_Chiralities_Consistent>
1

> <s_lp_Variant>
AV-unprocessed.smi:148-12

> <Gold.Version>
5.8.1

> <Gold.Id.Protein>
6NUR|6NUR_protein|mol2

> <Gold.PLP.Fitness>
41.2985

> <Gold.PLP.PLP>
-36.9927

> <Gold.PLP.part.hbond>
-2.0000

> <Gold.PLP.part.metal>
0.0000

> <Gold.PLP.part.buried>
-6.6983

> <Gold.PLP.part.nonpolar>
-29.7558

> <Gold.PLP.part.repulsive>
0.1892

> <Gold.PLP.ligand.clash>
0.0000

> <Gold.PLP.ligand.torsion>
1.1923

> <Gold.PLP.Chemscore.Hbond>
2.0000

> <Gold.PLP.Chemscore.CHOScore>
0.0000

> <Gold.PLP.Chemscore.Metal>
0.0000

> <Gold.Chemscore.Hbonds>
donor molecule, donor type, donor heavy atom, donor atom, acceptor molecule, acceptor atom, score
      L1  H     1    31       P1 10747  1.00
      P1  H  6896  6909       L1    22  1.00

> <Gold.PLP.Chemscore.Internal.Correction>
0.6904

> <Gold.Rescore>
     Score         DG    S(hbond)    S(metal)    S(lipo)     H(rot)  DE(clash)    DE(int)     intcor
     12.76     -14.52       1.93        0.00      94.88       3.32       0.00       1.75       ----

> <Gold.Chemscore.Fitness>
12.7643

> <Gold.Chemscore.DG>
-14.5160

> <Gold.Chemscore.ZeroCoef>
-5.4800

> <Gold.Chemscore.Hbond>
1.9266

> <Gold.Chemscore.Metal>
0.0000

> <Gold.Chemscore.Lipo>
94.8824

> <Gold.Chemscore.Internal_Hbond>
0.0000

> <Gold.Chemscore.DEClash>
0.0000

> <Gold.Chemscore.DEInternal>
1.7516

> <Gold.Chemscore.Rot>
3.3203

> <Gold.Chemscore.Internal.Correction>
   9.000000E+99

> <Gold.Chemscore.Hbonds>
donor molecule, donor type, donor heavy atom, donor atom, acceptor molecule, acceptor atom, score
      L1  H     1    31       P1 10747  0.95
      P1  H  6896  6909       L1    22  0.92

> <Gold.Chemscore.Hbond.Weighted>
-6.4347

> <Gold.Chemscore.Metal.Weighted>
-0.0000

> <Gold.Chemscore.Lipo.Weighted>
-11.1012

> <Gold.Chemscore.Internal_Hbond.Weighted>
0.0000

> <Gold.Chemscore.DEClash.Weighted>
0.0000

> <Gold.Chemscore.DEInternal.Weighted>
1.7516

> <Gold.Chemscore.Rot.Weighted>
8.5000

> <Gold.Chemscore.Internal.Correction.Weighted>
   9.000000E+99

> <Gold.Protein.RotatedTorsions>
[ 6907 6896 6895 6894 ] final   29.37 input  -60.11 | X-H torsion
[ 7974 7965 7964 7962 ] final  -63.95 input  175.53 | X-H torsion
[ 8008 7997 7996 7995 ] final  -48.95 input   59.86 | X-H torsion
[ 10167 10162 10161 10158 ] final   80.36 input  -65.29 | X-H torsion
[ 10718 10713 10712 10709 ] final  -23.19 input   66.30 | X-H torsion
[ 10763 10752 10751 10750 ] final   86.39 input  -60.55 | X-H torsion
[ 11005 11000 10999 10996 ] final   -6.37 input  -57.11 | X-H torsion

> <Gold.Protein.ActiveResidues>
 VAL166  LYS551  ARG553  GLY616  TRP617  ASP618  TYR619  PRO620  LYS621  CYS622 
 ASP623  PHE694  ASN695  SER759  ASP760  ASP761  ALA762  ILE779  LEU786  VAL792 
 PHE793  MET794  SER795  GLU796  ALA797  LYS798  CYS799  TRP800  GLU811  SER814 

> <Gold.Protein.RotatedAtoms>
  152.0305  134.9770  160.0572 H   0  0  0  0  0  0  0  0  0  0  0  0  # atno 6907 bound_to 6896
  152.1248  133.4369  159.4701 H   0  0  0  0  0  0  0  0  0  0  0  0  # atno 6908 bound_to 6896
  150.6851  134.2410  159.4515 H   0  0  0  0  0  0  0  0  0  0  0  0  # atno 6909 bound_to 6896
  145.7727  140.8804  143.0372 H   0  0  0  0  0  0  0  0  0  0  0  0  # atno 7974 bound_to 7965
  154.4036  140.1309  156.4423 H   0  0  0  0  0  0  0  0  0  0  0  0  # atno 8008 bound_to 7997
  155.7447  140.3489  155.5101 H   0  0  0  0  0  0  0  0  0  0  0  0  # atno 8009 bound_to 7997
  155.9006  140.1019  157.1343 H   0  0  0  0  0  0  0  0  0  0  0  0  # atno 8010 bound_to 7997
  139.9506  144.6029  150.8165 H   0  0  0  0  0  0  0  0  0  0  0  0  # atno 10167 bound_to 10162
  156.4943  130.4573  149.6737 H   0  0  0  0  0  0  0  0  0  0  0  0  # atno 10718 bound_to 10713
  153.1566  135.4582  154.9712 H   0  0  0  0  0  0  0  0  0  0  0  0  # atno 10763 bound_to 10752
  154.7866  135.3206  154.7875 H   0  0  0  0  0  0  0  0  0  0  0  0  # atno 10764 bound_to 10752
  153.8372  135.6933  153.4861 H   0  0  0  0  0  0  0  0  0  0  0  0  # atno 10765 bound_to 10752
  140.7012  133.8988  155.8685 H   0  0  0  0  0  0  0  0  0  0  0  0  # atno 11005 bound_to 11000
  144.6810  139.9878  143.7484 LP  0  0  0  0  0  0  0  0  0  0  0  0  # atno 17320 bound_to 7965
  146.0154  139.3205  143.0845 LP  0  0  0  0  0  0  0  0  0  0  0  0  # atno 17321 bound_to 7965
  140.7584  143.3106  151.2854 LP  0  0  0  0  0  0  0  0  0  0  0  0  # atno 17342 bound_to 10162
  139.6632  144.0152  152.2706 LP  0  0  0  0  0  0  0  0  0  0  0  0  # atno 17343 bound_to 10162
  156.3395  130.7374  151.2317 LP  0  0  0  0  0  0  0  0  0  0  0  0  # atno 17370 bound_to 10713
  157.7470  131.0407  150.4613 LP  0  0  0  0  0  0  0  0  0  0  0  0  # atno 17371 bound_to 10713
  141.0162  134.0952  157.4170 LP  0  0  0  0  0  0  0  0  0  0  0  0  # atno 17394 bound_to 11000
  139.8896  135.0106  156.6689 LP  0  0  0  0  0  0  0  0  0  0  0  0  # atno 17395 bound_to 11000

$$$$
