#       Name:                AV-unprocessed.smi:1916
#       Creating user name   scv26
#       Creation time:       Fri Mar 27 09:51:18 2020


#       File generated by GOLD software.
#

@<TRIPOS>MOLECULE
AV-unprocessed.smi:1916
    50    52     1
SMALL
NO_CHARGES


@<TRIPOS>ATOM
      1 ****         1.8165   1.2412   0.3865 O.2            1 S1                 0.0000
      2 ****         1.5402   0.2891   1.1164 C.2            1 S1                 0.0000
      3 ****         2.4333  -0.6466   1.4720 N.am           1 S1                 0.0000
      4 ****         3.8334  -0.6742   1.0579 C.3            1 S1                 0.0000
      5 ****         4.0318  -1.0335  -0.4300 C.3            1 S1                 0.0000
      6 ****         3.2985  -2.2913  -0.8642 C.ar           1 S1                 0.0000
      7 ****         3.8893  -3.5704  -0.7771 C.ar           1 S1                 0.0000
      8 ****         3.1484  -4.7004  -1.1824 C.ar           1 S1                 0.0000
      9 ****         1.8338  -4.5284  -1.6635 C.ar           1 S1                 0.0000
     10 ****         1.2924  -3.2283  -1.7287 C.ar           1 S1                 0.0000
     11 ****         2.0344  -2.1713  -1.3328 N.pl3          1 S1                 1.0000
     12 ****         0.1100   0.1085   1.6482 C.3            1 S1                 0.0000
     13 ****        -0.3407   1.3177   2.4882 C.3            1 S1                 0.0000
     14 ****        -1.4229   1.9702   1.6446 C.2            1 S1                 0.0000
     15 ****        -1.9598   3.0284   1.9673 O.2            1 S1                 0.0000
     16 ****        -1.6835   1.2476   0.5444 N.am           1 S1                 0.0000
     17 ****        -2.6622   1.5241  -0.5170 C.3            1 S1                 0.0000
     18 ****        -2.5022   2.9257  -1.1472 C.3            1 S1                 0.0000
     19 ****        -3.7763   3.6992  -0.7993 C.3            1 S1                 0.0000
     20 ****        -4.8484   2.6224  -0.6610 C.3            1 S1                 0.0000
     21 ****        -4.1207   1.4402  -0.0191 C.3            1 S1                 0.0000
     22 ****        -0.9274   0.0051   0.5104 C.3            1 S1                 0.0000
     23 ****         2.1218  -1.3927   2.0775 H              1 S1                 0.0000
     24 ****         4.3073   0.2825   1.2829 H              1 S1                 0.0000
     25 ****         4.3366  -1.4178   1.6765 H              1 S1                 0.0000
     26 ****         3.7019  -0.2041  -1.0572 H              1 S1                 0.0000
     27 ****         5.0957  -1.1549  -0.6364 H              1 S1                 0.0000
     28 ****         4.8961  -3.6862  -0.4025 H              1 S1                 0.0000
     29 ****         3.5831  -5.6876  -1.1231 H              1 S1                 0.0000
     30 ****         1.2500  -5.3813  -1.9779 H              1 S1                 0.0000
     31 ****         0.2966  -3.0034  -2.0820 H              1 S1                 0.0000
     32 ****         0.0694  -0.7962   2.2575 H              1 S1                 0.0000
     33 ****        -0.7665   0.9974   3.4395 H              1 S1                 0.0000
     34 ****         0.4592   2.0292   2.7000 H              1 S1                 0.0000
     35 ****        -2.5273   0.7873  -1.3107 H              1 S1                 0.0000
     36 ****        -1.6036   3.4530  -0.8243 H              1 S1                 0.0000
     37 ****        -2.4314   2.8231  -2.2308 H              1 S1                 0.0000
     38 ****        -3.6496   4.2137   0.1539 H              1 S1                 0.0000
     39 ****        -4.0288   4.4495  -1.5489 H              1 S1                 0.0000
     40 ****        -5.7057   2.9551  -0.0754 H              1 S1                 0.0000
     41 ****        -5.2108   2.3377  -1.6497 H              1 S1                 0.0000
     42 ****        -4.5869   0.4877  -0.2723 H              1 S1                 0.0000
     43 ****        -4.1738   1.5420   1.0654 H              1 S1                 0.0000
     44 ****        -0.4699  -0.1403  -0.4700 H              1 S1                 0.0000
     45 ****        -1.6056  -0.8318   0.6823 H              1 S1                 0.0000
     46 ****         1.6233  -1.2388  -1.3869 H              1 S1                 0.0000
     47 ****         2.7446   1.3441   0.0286 LP             1 S1                 0.0000
     48 ****         1.1129   1.9118   0.1514 LP             1 S1                 0.0000
     49 ****        -1.6874   3.4903   2.8114 LP             1 S1                 0.0000
     50 ****        -2.6688   3.4272   1.3856 LP             1 S1                 0.0000
@<TRIPOS>BOND
    1    1    2 2     
    2    2    3 am    
    3    2   12 1     
    4    3    4 1     
    5    3   23 1     
    6    4    5 1     
    7    4   24 1     
    8    4   25 1     
    9    5    6 1     
   10    5   26 1     
   11    5   27 1     
   12    6   11 ar    
   13    6    7 ar    
   14    7    8 ar    
   15    7   28 1     
   16    8    9 ar    
   17    8   29 1     
   18    9   10 ar    
   19    9   30 1     
   20   10   11 ar    
   21   10   31 1     
   22   11   46 1     
   23   12   22 1     
   24   12   13 1     
   25   12   32 1     
   26   13   14 1     
   27   13   33 1     
   28   13   34 1     
   29   14   15 2     
   30   14   16 am    
   31   16   17 1     
   32   16   22 1     
   33   17   21 1     
   34   17   18 1     
   35   17   35 1     
   36   18   19 1     
   37   18   36 1     
   38   18   37 1     
   39   19   20 1     
   40   19   38 1     
   41   19   39 1     
   42   20   21 1     
   43   20   40 1     
   44   20   41 1     
   45   21   42 1     
   46   21   43 1     
   47   22   44 1     
   48   22   45 1     
   49    1   47 1     
   50    1   48 1     
   51   15   49 1     
   52   15   50 1     
@<TRIPOS>SUBSTRUCTURE
      1 S1             1
@<TRIPOS>SET
LONE_PAIRS      STATIC     ATOMS    <user>   **** ""
4 47 48 49 50
DONOR_HYDROGENS      STATIC     ATOMS    <user>   **** ""
2 23 46
ATOM$BLUE        STATIC     ATOMS    COLORGROUP SYSTEM
4 47 48 49 50
ATOM$RED        STATIC     ATOMS    COLORGROUP SYSTEM
2 23 46
