#       Name:                AV-unprocessed.smi:1622
#       Creating user name   scv26
#       Creation time:       Fri Mar 27 07:16:18 2020


#       File generated by GOLD software.
#

@<TRIPOS>MOLECULE
AV-unprocessed.smi:1622
    45    46     1
SMALL
NO_CHARGES


@<TRIPOS>ATOM
      1 ****        -1.6423   1.6145  -1.4848 C.3            1 S1                 0.0000
      2 ****        -2.0917   0.8589  -0.2244 C.3            1 S1                 0.0000
      3 ****        -1.5629  -0.5979  -0.1189 C.3            1 S1                 0.0000
      4 ****        -0.0163  -0.6615  -0.0585 C.3            1 S1                 0.0000
      5 ****         0.5198   0.1784   1.0056 N.am           1 S1                 0.0000
      6 ****         1.7934   0.5779   1.1108 C.2            1 S1                 0.0000
      7 ****         2.6215   0.2193   0.2706 O.2            1 S1                 0.0000
      8 ****         2.0252   1.3703   2.1810 N.pl3          1 S1                -1.0000
      9 ****         3.2591   1.8519   2.4052 C.2            1 S1                 0.0000
     10 ****         4.1042   1.2857   3.2783 N.2            1 S1                 0.0000
     11 ****         5.3233   1.9432   3.3602 N.2            1 S1                 0.0000
     12 ****         5.3774   3.0048   2.5523 C.2            1 S1                 0.0000
     13 ****         6.5784   3.8818   2.4553 C.3            1 S1                 0.0000
     14 ****         3.9182   3.2853   1.6176 S.3            1 S1                 0.0000
     15 ****        -2.1075  -1.4525  -1.2147 N.4            1 S1                 1.0000
     16 ****        -1.6083  -2.8441  -1.2586 C.3            1 S1                 0.0000
     17 ****        -2.6251  -3.6011  -2.1050 C.3            1 S1                 0.0000
     18 ****        -3.9498  -2.9654  -1.7002 C.3            1 S1                 0.0000
     19 ****        -3.5890  -1.5325  -1.2840 C.3            1 S1                 0.0000
     20 ****        -2.0770   2.6140  -1.5065 H              1 S1                 0.0000
     21 ****        -1.9550   1.1001  -2.3933 H              1 S1                 0.0000
     22 ****        -0.5591   1.7319  -1.5183 H              1 S1                 0.0000
     23 ****        -1.7777   1.4277   0.6512 H              1 S1                 0.0000
     24 ****        -3.1802   0.8707  -0.1794 H              1 S1                 0.0000
     25 ****        -1.9369  -1.0108   0.8196 H              1 S1                 0.0000
     26 ****         0.3253  -1.6780   0.1378 H              1 S1                 0.0000
     27 ****         0.4090  -0.3676  -1.0195 H              1 S1                 0.0000
     28 ****        -0.1248   0.4908   1.7170 H              1 S1                 0.0000
     29 ****         6.7613   4.3721   3.4116 H              1 S1                 0.0000
     30 ****         6.4300   4.6468   1.6929 H              1 S1                 0.0000
     31 ****         7.4544   3.2896   2.1898 H              1 S1                 0.0000
     32 ****        -0.6039  -2.9061  -1.6786 H              1 S1                 0.0000
     33 ****        -1.5854  -3.2602  -0.2498 H              1 S1                 0.0000
     34 ****        -2.4343  -3.4199  -3.1636 H              1 S1                 0.0000
     35 ****        -2.6009  -4.6782  -1.9365 H              1 S1                 0.0000
     36 ****        -4.6879  -2.9967  -2.5020 H              1 S1                 0.0000
     37 ****        -4.3668  -3.5009  -0.8464 H              1 S1                 0.0000
     38 ****        -4.0507  -1.3062  -0.3219 H              1 S1                 0.0000
     39 ****        -3.9546  -0.8036  -2.0080 H              1 S1                 0.0000
     40 ****        -1.8114  -1.0321  -2.0841 H              1 S1                 0.0000
     41 ****         2.3415  -0.3691  -0.4880 LP             1 S1                 0.0000
     42 ****         3.5731   0.5168   0.3478 LP             1 S1                 0.0000
     43 ****         1.2783   1.5980   2.8058 LP             1 S1                 0.0000
     44 ****         3.8791   0.4728   3.8155 LP             1 S1                 0.0000
     45 ****         6.0739   1.6555   3.9550 LP             1 S1                 0.0000
@<TRIPOS>BOND
    1    1    2 1     
    2    1   20 1     
    3    1   21 1     
    4    1   22 1     
    5    2    3 1     
    6    2   23 1     
    7    2   24 1     
    8    3    4 1     
    9    3   15 1     
   10    3   25 1     
   11    4    5 1     
   12    4   26 1     
   13    4   27 1     
   14    5    6 am    
   15    5   28 1     
   16    6    7 2     
   17    6    8 1     
   18    8    9 1     
   19    9   14 1     
   20    9   10 2     
   21   10   11 1     
   22   11   12 2     
   23   12   13 1     
   24   12   14 1     
   25   13   29 1     
   26   13   30 1     
   27   13   31 1     
   28   15   19 1     
   29   15   16 1     
   30   15   40 1     
   31   16   17 1     
   32   16   32 1     
   33   16   33 1     
   34   17   18 1     
   35   17   34 1     
   36   17   35 1     
   37   18   19 1     
   38   18   36 1     
   39   18   37 1     
   40   19   38 1     
   41   19   39 1     
   42    7   41 1     
   43    7   42 1     
   44    8   43 1     
   45   10   44 1     
   46   11   45 1     
@<TRIPOS>SUBSTRUCTURE
      1 S1             1
@<TRIPOS>SET
LONE_PAIRS      STATIC     ATOMS    <user>   **** ""
5 41 42 43 44 45
DONOR_HYDROGENS      STATIC     ATOMS    <user>   **** ""
2 28 40
ATOM$BLUE        STATIC     ATOMS    COLORGROUP SYSTEM
5 41 42 43 44 45
ATOM$RED        STATIC     ATOMS    COLORGROUP SYSTEM
2 28 40
