AV-unprocessed.smi:3335|AV-procd|sdf|12847|dock6
  -GOLD-   2272019233D 1   1.00000     0.00000
 Structure written by MMmdl.
 46 47  0  0  0  0  0  0  0  0  1 V2000
  152.5415  142.7137  163.1732 C   0  0  0  0  0  0  0  0  0  0  0  0
  152.5864  142.4154  161.7024 C   0  0  0  0  0  0  0  0  0  0  0  0
  153.5028  141.5762  161.0089 C   0  0  0  0  0  0  0  0  0  0  0  0
  153.2728  141.5301  159.7075 N   0  0  0  0  0  0  0  0  0  0  0  0
  152.1988  142.3303  159.5193 N   0  0  0  0  0  0  0  0  0  0  0  0
  151.6613  142.5586  158.1794 C   0  0  2  0  0  0  0  0  0  0  0  0
  150.5785  143.6564  158.1613 C   0  0  0  0  0  0  0  0  0  0  0  0
  151.2199  141.2520  157.4646 C   0  0  1  0  0  0  0  0  0  0  0  0
  150.3552  140.3572  158.3761 C   0  0  0  0  0  0  0  0  0  0  0  0
  150.5298  141.5833  156.2145 N   0  0  0  0  0  0  0  0  0  0  0  0
  149.5306  140.5988  155.7596 C   0  0  2  0  0  0  0  0  0  0  0  0
  150.2521  139.3271  155.2875 C   0  0  0  0  0  0  0  0  0  0  0  0
  148.6511  141.1440  154.6136 C   0  0  0  0  0  0  0  0  0  0  0  0
  149.1881  141.4589  153.5499 O   0  0  0  0  0  0  0  0  0  0  0  0
  147.3192  141.2712  154.8006 N   0  0  0  0  0  0  0  0  0  0  0  0
  146.4183  141.8138  153.7846 C   0  0  0  0  0  0  0  0  0  0  0  0
  145.0717  142.0080  154.4815 C   0  0  0  0  0  0  0  0  0  0  0  0
  145.0938  140.9950  155.6164 C   0  0  0  0  0  0  0  0  0  0  0  0
  146.5703  140.8977  156.0002 C   0  0  0  0  0  0  0  0  0  0  0  0
  151.7705  142.8804  160.7104 C   0  0  0  0  0  0  0  0  0  0  0  0
  153.5286  142.6406  163.6302 H   0  0  0  0  0  0  0  0  0  0  0  0
  151.8893  142.0198  163.7035 H   0  0  0  0  0  0  0  0  0  0  0  0
  152.1712  143.7200  163.3705 H   0  0  0  0  0  0  0  0  0  0  0  0
  154.3263  141.0043  161.4106 H   0  0  0  0  0  0  0  0  0  0  0  0
  152.4900  142.9616  157.5952 H   0  0  0  0  0  0  0  0  0  0  0  0
  150.2640  143.8767  157.1410 H   0  0  0  0  0  0  0  0  0  0  0  0
  150.9565  144.5828  158.5947 H   0  0  0  0  0  0  0  0  0  0  0  0
  149.6902  143.3675  158.7238 H   0  0  0  0  0  0  0  0  0  0  0  0
  152.1312  140.7055  157.2171 H   0  0  0  0  0  0  0  0  0  0  0  0
  150.8158  140.2409  159.3573 H   0  0  0  0  0  0  0  0  0  0  0  0
  150.2409  139.3546  157.9654 H   0  0  0  0  0  0  0  0  0  0  0  0
  149.3589  140.7748  158.5254 H   0  0  0  0  0  0  0  0  0  0  0  0
  151.2230  141.7534  155.5001 H   0  0  0  0  0  0  0  0  0  0  0  0
  148.9209  140.3162  156.6168 H   0  0  0  0  0  0  0  0  0  0  0  0
  149.5419  138.5624  154.9703 H   0  0  0  0  0  0  0  0  0  0  0  0
  150.8534  138.8987  156.0900 H   0  0  0  0  0  0  0  0  0  0  0  0
  150.9187  139.5308  154.4482 H   0  0  0  0  0  0  0  0  0  0  0  0
  146.7868  142.7531  153.3689 H   0  0  0  0  0  0  0  0  0  0  0  0
  146.3280  141.0942  152.9695 H   0  0  0  0  0  0  0  0  0  0  0  0
  145.0153  143.0162  154.8942 H   0  0  0  0  0  0  0  0  0  0  0  0
  144.2234  141.8739  153.8097 H   0  0  0  0  0  0  0  0  0  0  0  0
  144.4566  141.2822  156.4534 H   0  0  0  0  0  0  0  0  0  0  0  0
  144.7472  140.0281  155.2488 H   0  0  0  0  0  0  0  0  0  0  0  0
  146.8178  139.8936  156.3471 H   0  0  0  0  0  0  0  0  0  0  0  0
  146.8017  141.6047  156.7982 H   0  0  0  0  0  0  0  0  0  0  0  0
  150.9288  143.5561  160.7523 H   0  0  0  0  0  0  0  0  0  0  0  0
  1  2  1  0  0  0  0
  1 21  1  0  0  0  0
  1 22  1  0  0  0  0
  1 23  1  0  0  0  0
  2 20  2  0  0  0  0
  2  3  1  0  0  0  0
  3  4  2  0  0  0  0
  3 24  1  0  0  0  0
  4  5  1  0  0  0  0
  5  6  1  0  0  0  0
  5 20  1  0  0  0  0
  6  7  1  0  0  0  0
  6  8  1  0  0  0  0
  6 25  1  0  0  0  0
  7 26  1  0  0  0  0
  7 27  1  0  0  0  0
  7 28  1  0  0  0  0
  8  9  1  0  0  0  0
  8 10  1  0  0  0  0
  8 29  1  0  0  0  0
  9 30  1  0  0  0  0
  9 31  1  0  0  0  0
  9 32  1  0  0  0  0
 10 11  1  0  0  0  0
 10 33  1  0  0  0  0
 11 12  1  0  0  0  0
 11 13  1  0  0  0  0
 11 34  1  0  0  0  0
 12 35  1  0  0  0  0
 12 36  1  0  0  0  0
 12 37  1  0  0  0  0
 13 14  2  0  0  0  0
 13 15  1  0  0  0  0
 15 19  1  0  0  0  0
 15 16  1  0  0  0  0
 16 17  1  0  0  0  0
 16 38  1  0  0  0  0
 16 39  1  0  0  0  0
 17 18  1  0  0  0  0
 17 40  1  0  0  0  0
 17 41  1  0  0  0  0
 18 19  1  0  0  0  0
 18 42  1  0  0  0  0
 18 43  1  0  0  0  0
 19 44  1  0  0  0  0
 19 45  1  0  0  0  0
 20 46  1  0  0  0  0
M  END
> <s_m_source_file>
AV-unprocessed.smi

> <i_m_source_file_index>
3335

> <i_lp_mmshare_version>
43012

> <i_f3d_flags>
0

> <s_epik_input>
W0NIM11jMVtjSF1ubihbY0hdMSlbQ0BIXShbQ0gzXSlbQ0BIXShbQ0gzXSlbTkhdW0NASF0oW0NIM10pQyg9TylOMltDSDJdW0NIMl1bQ0gyXVtDSDJdMg==

> <s_epik_cmdline>
J2VwaWtfcHl0aG9uJywgJy1waCcsICc3LjAnLCAnLXRuJywgJzgnLCAnLW1hJywgJzIwMCcsICctbWV0YWxfYmluZGluZycsICctaW1hZScsICc8aW5maWxlLm1hZT4nLCAnLW9tYWUnLCAnPG91dGZpbGUubWFlPic=

> <r_lp_tautomer_probability>
1

> <r_epik_Ionization_Penalty>
0.918803

> <r_epik_Ionization_Penalty_Charging>
0

> <r_epik_Ionization_Penalty_Neutral>
0.918803

> <r_epik_State_Penalty>
0.958258

> <r_epik_Charging_Adjusted_Penalty>
0.958258

> <i_epik_Tot_Q>
0

> <i_epik_Tot_abs_Q>
0

> <r_epik_Metal_State_Penalty>
0.956786

> <b_epik_Metal_Only>
0

> <s_lp_Force_Field>
OPLS_2005

> <r_lp_Energy>
40.8069

> <b_lp_Chiralities_Consistent>
1

> <s_lp_Variant>
AV-unprocessed.smi:3335-11

> <Gold.Version>
5.8.1

> <Gold.Id.Protein>
6NUR|6NUR_protein|mol2

> <Gold.PLP.Fitness>
45.1399

> <Gold.PLP.PLP>
-43.8805

> <Gold.PLP.part.hbond>
-1.7658

> <Gold.PLP.part.metal>
0.0000

> <Gold.PLP.part.buried>
-6.2144

> <Gold.PLP.part.nonpolar>
-37.3573

> <Gold.PLP.part.repulsive>
2.3384

> <Gold.PLP.ligand.clash>
0.0000

> <Gold.PLP.ligand.torsion>
0.7427

> <Gold.PLP.Chemscore.Hbond>
0.8480

> <Gold.PLP.Chemscore.CHOScore>
0.0000

> <Gold.PLP.Chemscore.Metal>
0.0000

> <Gold.Chemscore.Hbonds>
donor molecule, donor type, donor heavy atom, donor atom, acceptor molecule, acceptor atom, score
      P1  H  8011  8017       L1    14  0.85

> <Gold.PLP.Chemscore.Internal.Correction>
0.2008

> <Gold.Rescore>
     Score         DG    S(hbond)    S(metal)    S(lipo)     H(rot)  DE(clash)    DE(int)     intcor
     14.17     -17.09       1.06        0.00     104.32       1.62       1.76       1.15       ----

> <Gold.Chemscore.Fitness>
14.1728

> <Gold.Chemscore.DG>
-17.0886

> <Gold.Chemscore.ZeroCoef>
-5.4800

> <Gold.Chemscore.Hbond>
1.0632

> <Gold.Chemscore.Metal>
0.0000

> <Gold.Chemscore.Lipo>
104.3234

> <Gold.Chemscore.Internal_Hbond>
0.0000

> <Gold.Chemscore.DEClash>
1.7614

> <Gold.Chemscore.DEInternal>
1.1544

> <Gold.Chemscore.Rot>
1.6204

> <Gold.Chemscore.Internal.Correction>
   9.000000E+99

> <Gold.Chemscore.Hbonds>
donor molecule, donor type, donor heavy atom, donor atom, acceptor molecule, acceptor atom, score
      P1  H  8011  8017       L1    14  0.85

> <Gold.Chemscore.Hbond.Weighted>
-3.5510

> <Gold.Chemscore.Metal.Weighted>
-0.0000

> <Gold.Chemscore.Lipo.Weighted>
-12.2058

> <Gold.Chemscore.Internal_Hbond.Weighted>
0.0000

> <Gold.Chemscore.DEClash.Weighted>
1.7614

> <Gold.Chemscore.DEInternal.Weighted>
1.1544

> <Gold.Chemscore.Rot.Weighted>
4.1482

> <Gold.Chemscore.Internal.Correction.Weighted>
   9.000000E+99

> <Gold.Protein.RotatedTorsions>
[ 6907 6896 6895 6894 ] final  169.64 input  -60.11 | X-H torsion
[ 7974 7965 7964 7962 ] final   94.96 input  175.53 | X-H torsion
[ 8008 7997 7996 7995 ] final  132.84 input   59.86 | X-H torsion
[ 10167 10162 10161 10158 ] final  111.56 input  -65.29 | X-H torsion
[ 10718 10713 10712 10709 ] final -120.46 input   66.30 | X-H torsion
[ 10763 10752 10751 10750 ] final  -19.86 input  -60.55 | X-H torsion
[ 11005 11000 10999 10996 ] final -128.79 input  -57.11 | X-H torsion

> <Gold.Protein.ActiveResidues>
 VAL166  LYS551  ARG553  GLY616  TRP617  ASP618  TYR619  PRO620  LYS621  CYS622 
 ASP623  PHE694  ASN695  SER759  ASP760  ASP761  ALA762  ILE779  LEU786  VAL792 
 PHE793  MET794  SER795  GLU796  ALA797  LYS798  CYS799  TRP800  GLU811  SER814 

> <Gold.Protein.RotatedAtoms>
  151.8287  133.3405  159.3606 H   0  0  0  0  0  0  0  0  0  0  0  0  # atno 6907 bound_to 6896
  150.7271  134.5503  159.5801 H   0  0  0  0  0  0  0  0  0  0  0  0  # atno 6908 bound_to 6896
  152.2952  134.7677  160.0421 H   0  0  0  0  0  0  0  0  0  0  0  0  # atno 6909 bound_to 6896
  145.4585  139.2288  143.3000 H   0  0  0  0  0  0  0  0  0  0  0  0  # atno 7974 bound_to 7965
  156.2987  140.2536  156.3156 H   0  0  0  0  0  0  0  0  0  0  0  0  # atno 8008 bound_to 7997
  154.9284  140.0399  157.2054 H   0  0  0  0  0  0  0  0  0  0  0  0  # atno 8009 bound_to 7997
  154.8242  140.2865  155.5770 H   0  0  0  0  0  0  0  0  0  0  0  0  # atno 8010 bound_to 7997
  139.6602  144.7129  151.1880 H   0  0  0  0  0  0  0  0  0  0  0  0  # atno 10167 bound_to 10162
  156.1260  130.6359  150.9543 H   0  0  0  0  0  0  0  0  0  0  0  0  # atno 10718 bound_to 10713
  153.6114  135.6996  153.5345 H   0  0  0  0  0  0  0  0  0  0  0  0  # atno 10763 bound_to 10752
  153.3014  135.4128  155.1255 H   0  0  0  0  0  0  0  0  0  0  0  0  # atno 10764 bound_to 10752
  154.8563  135.3649  154.5652 H   0  0  0  0  0  0  0  0  0  0  0  0  # atno 10765 bound_to 10752
  140.9486  134.1096  157.4083 H   0  0  0  0  0  0  0  0  0  0  0  0  # atno 11005 bound_to 11000
  146.2464  140.5352  142.8912 LP  0  0  0  0  0  0  0  0  0  0  0  0  # atno 17320 bound_to 7965
  144.8017  140.6226  143.6473 LP  0  0  0  0  0  0  0  0  0  0  0  0  # atno 17321 bound_to 7965
  140.7577  143.6006  150.8703 LP  0  0  0  0  0  0  0  0  0  0  0  0  # atno 17342 bound_to 10162
  139.9663  143.6107  152.2987 LP  0  0  0  0  0  0  0  0  0  0  0  0  # atno 17343 bound_to 10162
  157.6441  131.0906  150.8190 LP  0  0  0  0  0  0  0  0  0  0  0  0  # atno 17370 bound_to 10713
  156.8280  130.5006  149.5335 LP  0  0  0  0  0  0  0  0  0  0  0  0  # atno 17371 bound_to 10713
  139.8841  135.0059  156.6344 LP  0  0  0  0  0  0  0  0  0  0  0  0  # atno 17394 bound_to 11000
  140.7634  133.8798  155.8435 LP  0  0  0  0  0  0  0  0  0  0  0  0  # atno 17395 bound_to 11000

$$$$
