AV-unprocessed.smi:3007|AV-procd|sdf|11447|dock1
  -GOLD-   2272016373D 1   1.00000     0.00000
 Structure written by MMmdl.
 39 40  0  0  0  0  0  0  0  0  1 V2000
  152.2293  143.8026  161.8161 C   0  0  0  0  0  0  0  0  0  0  0  0
  152.0901  144.4525  160.4377 C   0  0  0  0  0  0  0  0  0  0  0  0
  151.5864  145.5743  160.3751 O   0  0  0  0  0  0  0  0  0  0  0  0
  152.5232  143.7827  159.3428 N   0  0  0  0  0  0  0  0  0  0  0  0
  153.0527  142.4158  159.4068 C   0  0  0  0  0  0  0  0  0  0  0  0
  152.0217  141.4570  158.7849 C   0  0  0  0  0  0  0  0  0  0  0  0
  151.6601  141.8758  157.3434 C   0  0  0  0  0  0  0  0  0  0  0  0
  150.5471  141.0620  156.8672 N   0  0  0  0  0  0  0  0  0  0  0  0
  150.5654  140.2765  155.7782 C   0  0  0  0  0  0  0  0  0  0  0  0
  151.5449  140.1813  155.0375 O   0  0  0  0  0  0  0  0  0  0  0  0
  149.2734  139.4937  155.4848 C   0  0  1  0  0  0  0  0  0  0  0  0
  148.5538  139.0138  156.7621 C   0  0  0  0  0  0  0  0  0  0  0  0
  148.3892  140.2659  154.6182 N   0  0  0  0  0  0  0  0  0  0  0  0
  148.2495  141.6377  154.5541 C   0  0  0  0  0  0  0  0  0  0  0  0
  147.2821  141.9100  153.6300 C   0  0  0  0  0  0  0  0  0  0  0  0
  146.8730  140.6240  153.1806 C   0  0  0  0  0  0  0  0  0  0  0  0
  147.5293  139.6434  153.7783 N   0  0  0  0  0  0  0  0  0  0  0  0
  151.3104  143.3801  157.2600 C   0  0  0  0  0  0  0  0  0  0  0  0
  152.3801  144.2405  157.9556 C   0  0  0  0  0  0  0  0  0  0  0  0
  153.2731  143.5754  162.0343 H   0  0  0  0  0  0  0  0  0  0  0  0
  151.6464  142.8827  161.8698 H   0  0  0  0  0  0  0  0  0  0  0  0
  151.8654  144.4730  162.5955 H   0  0  0  0  0  0  0  0  0  0  0  0
  153.9932  142.3646  158.8563 H   0  0  0  0  0  0  0  0  0  0  0  0
  153.2878  142.1006  160.4241 H   0  0  0  0  0  0  0  0  0  0  0  0
  152.4089  140.4374  158.7931 H   0  0  0  0  0  0  0  0  0  0  0  0
  151.1238  141.4512  159.4053 H   0  0  0  0  0  0  0  0  0  0  0  0
  152.5349  141.6894  156.7172 H   0  0  0  0  0  0  0  0  0  0  0  0
  149.7014  141.0838  157.4180 H   0  0  0  0  0  0  0  0  0  0  0  0
  149.5681  138.6024  154.9284 H   0  0  0  0  0  0  0  0  0  0  0  0
  149.2007  138.3724  157.3615 H   0  0  0  0  0  0  0  0  0  0  0  0
  147.6639  138.4355  156.5121 H   0  0  0  0  0  0  0  0  0  0  0  0
  148.2394  139.8471  157.3918 H   0  0  0  0  0  0  0  0  0  0  0  0
  148.8435  142.2998  155.1668 H   0  0  0  0  0  0  0  0  0  0  0  0
  146.9190  142.8801  153.3243 H   0  0  0  0  0  0  0  0  0  0  0  0
  146.1207  140.3752  152.4468 H   0  0  0  0  0  0  0  0  0  0  0  0
  151.2091  143.6866  156.2184 H   0  0  0  0  0  0  0  0  0  0  0  0
  150.3435  143.5633  157.7311 H   0  0  0  0  0  0  0  0  0  0  0  0
  152.1244  145.2953  157.8672 H   0  0  0  0  0  0  0  0  0  0  0  0
  153.3360  144.1309  157.4411 H   0  0  0  0  0  0  0  0  0  0  0  0
  1  2  1  0  0  0  0
  1 20  1  0  0  0  0
  1 21  1  0  0  0  0
  1 22  1  0  0  0  0
  2  3  2  0  0  0  0
  2  4  1  0  0  0  0
  4 19  1  0  0  0  0
  4  5  1  0  0  0  0
  5  6  1  0  0  0  0
  5 23  1  0  0  0  0
  5 24  1  0  0  0  0
  6  7  1  0  0  0  0
  6 25  1  0  0  0  0
  6 26  1  0  0  0  0
  7  8  1  0  0  0  0
  7 18  1  0  0  0  0
  7 27  1  0  0  0  0
  8  9  1  0  0  0  0
  8 28  1  0  0  0  0
  9 10  2  0  0  0  0
  9 11  1  0  0  0  0
 11 12  1  0  0  0  0
 11 13  1  0  0  0  0
 11 29  1  0  0  0  0
 12 30  1  0  0  0  0
 12 31  1  0  0  0  0
 12 32  1  0  0  0  0
 13 17  1  0  0  0  0
 13 14  1  0  0  0  0
 14 15  2  0  0  0  0
 14 33  1  0  0  0  0
 15 16  1  0  0  0  0
 15 34  1  0  0  0  0
 16 17  2  0  0  0  0
 16 35  1  0  0  0  0
 18 19  1  0  0  0  0
 18 36  1  0  0  0  0
 18 37  1  0  0  0  0
 19 38  1  0  0  0  0
 19 39  1  0  0  0  0
M  END
> <s_m_source_file>
AV-unprocessed.smi

> <i_m_source_file_index>
3007

> <i_lp_mmshare_version>
43012

> <i_f3d_flags>
0

> <s_epik_input>
W0NIM11DKD1PKU4xW0NIMl1bQ0gyXVtDSF0oW0NIMl1bQ0gyXTEpW05IXUMoPU8pW0NASF0oW0NIM10pbjJbY0hdW2NIXVtjSF1uMg==

> <s_epik_cmdline>
J2VwaWtfcHl0aG9uJywgJy1waCcsICc3LjAnLCAnLXRuJywgJzgnLCAnLW1hJywgJzIwMCcsICctbWV0YWxfYmluZGluZycsICctaW1hZScsICc8aW5maWxlLm1hZT4nLCAnLW9tYWUnLCAnPG91dGZpbGUubWFlPic=

> <r_lp_tautomer_probability>
1

> <r_epik_Ionization_Penalty>
4.2887e-05

> <r_epik_Ionization_Penalty_Charging>
0

> <r_epik_Ionization_Penalty_Neutral>
4.2887e-05

> <r_epik_State_Penalty>
-0

> <r_epik_Charging_Adjusted_Penalty>
0

> <i_epik_Tot_Q>
0

> <i_epik_Tot_abs_Q>
0

> <r_epik_Metal_State_Penalty>
-0

> <b_epik_Metal_Only>
0

> <s_lp_Force_Field>
OPLS_2005

> <r_lp_Energy>
24.2796

> <b_lp_Chiralities_Consistent>
1

> <s_lp_Variant>
AV-unprocessed.smi:3007-2

> <Gold.Version>
5.8.1

> <Gold.Id.Protein>
6NUR|6NUR_protein|mol2

> <Gold.PLP.Fitness>
46.6950

> <Gold.PLP.PLP>
-40.5129

> <Gold.PLP.part.hbond>
-1.0000

> <Gold.PLP.part.metal>
0.0000

> <Gold.PLP.part.buried>
-6.9105

> <Gold.PLP.part.nonpolar>
-34.1570

> <Gold.PLP.part.repulsive>
0.4815

> <Gold.PLP.ligand.clash>
0.0000

> <Gold.PLP.ligand.torsion>
1.4363

> <Gold.PLP.Chemscore.Hbond>
0.9760

> <Gold.PLP.Chemscore.CHOScore>
2.0000

> <Gold.PLP.Chemscore.Metal>
0.0000

> <Gold.Chemscore.Hbonds>
donor molecule, donor type, donor heavy atom, donor atom, acceptor molecule, acceptor atom, score
      P1  H  7989  7998       L1    10  1.00
      L1  C    14    33       P1  8028  1.00
      L1  C    16    35       P1 10175  1.00

> <Gold.PLP.Chemscore.Internal.Correction>
0.1268

> <Gold.Rescore>
     Score         DG    S(hbond)    S(metal)    S(lipo)     H(rot)  DE(clash)    DE(int)     intcor
     14.27     -15.73       0.95        0.00      92.31       1.46       0.15       1.31       ----

> <Gold.Chemscore.Fitness>
14.2741

> <Gold.Chemscore.DG>
-15.7323

> <Gold.Chemscore.ZeroCoef>
-5.4800

> <Gold.Chemscore.Hbond>
0.9536

> <Gold.Chemscore.Metal>
0.0000

> <Gold.Chemscore.Lipo>
92.3105

> <Gold.Chemscore.Internal_Hbond>
0.0000

> <Gold.Chemscore.DEClash>
0.1502

> <Gold.Chemscore.DEInternal>
1.3080

> <Gold.Chemscore.Rot>
1.4583

> <Gold.Chemscore.Internal.Correction>
   9.000000E+99

> <Gold.Chemscore.Hbonds>
donor molecule, donor type, donor heavy atom, donor atom, acceptor molecule, acceptor atom, score
      P1  H  7989  7998       L1    10  0.95

> <Gold.Chemscore.Hbond.Weighted>
-3.1852

> <Gold.Chemscore.Metal.Weighted>
-0.0000

> <Gold.Chemscore.Lipo.Weighted>
-10.8003

> <Gold.Chemscore.Internal_Hbond.Weighted>
0.0000

> <Gold.Chemscore.DEClash.Weighted>
0.1502

> <Gold.Chemscore.DEInternal.Weighted>
1.3080

> <Gold.Chemscore.Rot.Weighted>
3.7332

> <Gold.Chemscore.Internal.Correction.Weighted>
   9.000000E+99

> <Gold.Protein.RotatedTorsions>
[ 6907 6896 6895 6894 ] final -149.07 input  -60.11 | X-H torsion
[ 7974 7965 7964 7962 ] final  -71.12 input  175.53 | X-H torsion
[ 8008 7997 7996 7995 ] final  101.26 input   59.86 | X-H torsion
[ 10167 10162 10161 10158 ] final  -77.75 input  -65.29 | X-H torsion
[ 10718 10713 10712 10709 ] final   62.44 input   66.30 | X-H torsion
[ 10763 10752 10751 10750 ] final  111.78 input  -60.55 | X-H torsion
[ 11005 11000 10999 10996 ] final  134.22 input  -57.11 | X-H torsion

> <Gold.Protein.ActiveResidues>
 VAL166  LYS551  ARG553  GLY616  TRP617  ASP618  TYR619  PRO620  LYS621  CYS622 
 ASP623  PHE694  ASN695  SER759  ASP760  ASP761  ALA762  ILE779  LEU786  VAL792 
 PHE793  MET794  SER795  GLU796  ALA797  LYS798  CYS799  TRP800  GLU811  SER814 

> <Gold.Protein.RotatedAtoms>
  151.1788  133.4738  159.2593 H   0  0  0  0  0  0  0  0  0  0  0  0  # atno 6907 bound_to 6896
  151.1280  135.0115  159.8579 H   0  0  0  0  0  0  0  0  0  0  0  0  # atno 6908 bound_to 6896
  152.5459  134.1693  159.8643 H   0  0  0  0  0  0  0  0  0  0  0  0  # atno 6909 bound_to 6896
  145.6822  140.9184  143.0826 H   0  0  0  0  0  0  0  0  0  0  0  0  # atno 7974 bound_to 7965
  156.1282  140.3200  155.8309 H   0  0  0  0  0  0  0  0  0  0  0  0  # atno 8008 bound_to 7997
  155.4381  140.0523  157.3030 H   0  0  0  0  0  0  0  0  0  0  0  0  # atno 8009 bound_to 7997
  154.4878  140.2080  155.9628 H   0  0  0  0  0  0  0  0  0  0  0  0  # atno 8010 bound_to 7997
  140.4743  143.2418  151.8157 H   0  0  0  0  0  0  0  0  0  0  0  0  # atno 10167 bound_to 10162
  157.5901  130.9050  149.9588 H   0  0  0  0  0  0  0  0  0  0  0  0  # atno 10718 bound_to 10713
  153.4683  135.3706  155.2376 H   0  0  0  0  0  0  0  0  0  0  0  0  # atno 10763 bound_to 10752
  154.8757  135.3925  154.3843 H   0  0  0  0  0  0  0  0  0  0  0  0  # atno 10764 bound_to 10752
  153.4427  135.7084  153.6223 H   0  0  0  0  0  0  0  0  0  0  0  0  # atno 10765 bound_to 10752
  139.9901  134.9518  156.9836 H   0  0  0  0  0  0  0  0  0  0  0  0  # atno 11005 bound_to 11000
  144.7022  139.8711  143.7440 LP  0  0  0  0  0  0  0  0  0  0  0  0  # atno 17320 bound_to 7965
  146.0955  139.3946  143.0379 LP  0  0  0  0  0  0  0  0  0  0  0  0  # atno 17321 bound_to 7965
  139.4823  144.4853  151.9255 LP  0  0  0  0  0  0  0  0  0  0  0  0  # atno 17342 bound_to 10162
  140.3938  144.2581  150.5897 LP  0  0  0  0  0  0  0  0  0  0  0  0  # atno 17343 bound_to 10162
  156.0954  130.3660  150.0316 LP  0  0  0  0  0  0  0  0  0  0  0  0  # atno 17370 bound_to 10713
  156.8440  130.9435  151.3630 LP  0  0  0  0  0  0  0  0  0  0  0  0  # atno 17371 bound_to 10713
  140.4925  134.1179  155.7235 LP  0  0  0  0  0  0  0  0  0  0  0  0  # atno 17394 bound_to 11000
  141.1558  133.8884  157.1979 LP  0  0  0  0  0  0  0  0  0  0  0  0  # atno 17395 bound_to 11000

$$$$
