AV-unprocessed.smi:199|AV-procd|sdf|1573|dock6
  -GOLD-   2262019453D 1   1.00000     0.00000
 Structure written by MMmdl.
 51 55  0  0  0  0  0  0  0  0  1 V2000
  153.2012  138.8866  154.8585 C   0  0  0  0  0  0  0  0  0  0  0  0
  152.1367  138.9924  155.9627 C   0  0  1  0  0  0  0  0  0  0  0  0
  152.3987  140.1074  156.8142 O   0  0  0  0  0  0  0  0  0  0  0  0
  151.2678  140.9661  156.8597 C   0  0  0  0  0  0  0  0  0  0  0  0
  150.0870  140.0568  156.5450 C   0  0  0  0  0  0  0  0  0  0  0  0
  150.6664  139.1149  155.4989 C   0  0  1  0  0  0  0  0  0  0  0  0
  150.5868  139.7511  154.2330 O   0  0  0  0  0  0  0  0  0  0  0  0
  149.9439  137.7496  155.4099 C   0  0  0  0  0  0  0  0  0  0  0  0
  149.6350  137.1723  156.7090 N   0  0  0  0  0  0  0  0  0  0  0  0
  150.4035  136.2760  157.4155 C   0  0  0  0  0  0  0  0  0  0  0  0
  149.9104  135.9081  158.5658 N   0  0  0  0  0  0  0  0  0  0  0  0
  148.7023  136.5900  158.6575 C   0  0  0  0  0  0  0  0  0  0  0  0
  147.6624  136.6525  159.6304 C   0  0  0  0  0  0  0  0  0  0  0  0
  147.6757  135.9515  160.7960 N   0  0  0  0  0  0  0  0  0  0  0  0
  146.7867  136.2901  161.8962 C   0  0  2  0  0  0  0  0  0  0  0  0
  147.3318  135.4100  163.0344 C   0  0  0  0  0  0  0  0  0  0  0  0
  147.7757  134.1570  162.2604 C   0  0  0  0  0  0  0  0  0  0  0  0
  147.3685  134.5286  160.8228 C   0  0  1  0  0  0  0  0  0  0  0  0
  145.8249  134.4464  160.7152 C   0  0  2  0  0  0  0  0  0  0  0  0
  145.2985  134.3423  159.2709 C   0  0  0  0  0  0  0  0  0  0  0  0
  143.8872  134.3289  159.2685 O   0  0  0  0  0  0  0  0  0  0  0  0
  145.4168  135.7425  161.4452 C   0  0  0  0  0  0  0  0  0  0  0  0
  146.6167  137.4816  159.3694 N   0  0  0  0  0  0  0  0  0  0  0  0
  146.5699  138.1781  158.2309 C   0  0  0  0  0  0  0  0  0  0  0  0
  147.4542  138.2041  157.2332 N   0  0  0  0  0  0  0  0  0  0  0  0
  148.5173  137.3919  157.4948 C   0  0  0  0  0  0  0  0  0  0  0  0
  153.0004  138.0409  154.2004 H   0  0  0  0  0  0  0  0  0  0  0  0
  154.1915  138.7430  155.2906 H   0  0  0  0  0  0  0  0  0  0  0  0
  153.2399  139.7890  154.2479 H   0  0  0  0  0  0  0  0  0  0  0  0
  152.2289  138.1148  156.6037 H   0  0  0  0  0  0  0  0  0  0  0  0
  151.1763  141.4568  157.8287 H   0  0  0  0  0  0  0  0  0  0  0  0
  151.3748  141.7371  156.0955 H   0  0  0  0  0  0  0  0  0  0  0  0
  149.8150  139.5007  157.4434 H   0  0  0  0  0  0  0  0  0  0  0  0
  149.2041  140.6019  156.2080 H   0  0  0  0  0  0  0  0  0  0  0  0
  150.0769  139.2055  153.6538 H   0  0  0  0  0  0  0  0  0  0  0  0
  149.0171  137.8463  154.8426 H   0  0  0  0  0  0  0  0  0  0  0  0
  150.5602  137.0331  154.8653 H   0  0  0  0  0  0  0  0  0  0  0  0
  151.3512  135.9056  157.0517 H   0  0  0  0  0  0  0  0  0  0  0  0
  146.7656  137.3479  162.1606 H   0  0  0  0  0  0  0  0  0  0  0  0
  148.1863  135.8833  163.5200 H   0  0  0  0  0  0  0  0  0  0  0  0
  146.5817  135.1961  163.7967 H   0  0  0  0  0  0  0  0  0  0  0  0
  148.8561  134.0260  162.3339 H   0  0  0  0  0  0  0  0  0  0  0  0
  147.3005  133.2431  162.6187 H   0  0  0  0  0  0  0  0  0  0  0  0
  147.8873  133.9165  160.0871 H   0  0  0  0  0  0  0  0  0  0  0  0
  145.4686  133.5733  161.2644 H   0  0  0  0  0  0  0  0  0  0  0  0
  145.6430  135.1701  158.6522 H   0  0  0  0  0  0  0  0  0  0  0  0
  145.6535  133.4225  158.8052 H   0  0  0  0  0  0  0  0  0  0  0  0
  143.5947  133.4402  159.4020 H   0  0  0  0  0  0  0  0  0  0  0  0
  144.7411  135.5593  162.2814 H   0  0  0  0  0  0  0  0  0  0  0  0
  144.9242  136.4426  160.7693 H   0  0  0  0  0  0  0  0  0  0  0  0
  145.6997  138.8047  158.1011 H   0  0  0  0  0  0  0  0  0  0  0  0
  1  2  1  0  0  0  0
  1 27  1  0  0  0  0
  1 28  1  0  0  0  0
  1 29  1  0  0  0  0
  2  6  1  0  0  0  0
  2  3  1  0  0  0  0
  2 30  1  0  0  0  0
  3  4  1  0  0  0  0
  4  5  1  0  0  0  0
  4 31  1  0  0  0  0
  4 32  1  0  0  0  0
  5  6  1  0  0  0  0
  5 33  1  0  0  0  0
  5 34  1  0  0  0  0
  6  7  1  0  0  0  0
  6  8  1  0  0  0  0
  7 35  1  0  0  0  0
  8  9  1  0  0  0  0
  8 36  1  0  0  0  0
  8 37  1  0  0  0  0
  9 26  1  0  0  0  0
  9 10  1  0  0  0  0
 10 11  2  0  0  0  0
 10 38  1  0  0  0  0
 11 12  1  0  0  0  0
 12 26  2  0  0  0  0
 12 13  1  0  0  0  0
 13 14  1  0  0  0  0
 13 23  2  0  0  0  0
 14 18  1  0  0  0  0
 14 15  1  0  0  0  0
 15 22  1  0  0  0  0
 15 16  1  0  0  0  0
 15 39  1  0  0  0  0
 16 17  1  0  0  0  0
 16 40  1  0  0  0  0
 16 41  1  0  0  0  0
 17 18  1  0  0  0  0
 17 42  1  0  0  0  0
 17 43  1  0  0  0  0
 18 19  1  0  0  0  0
 18 44  1  0  0  0  0
 19 20  1  0  0  0  0
 19 22  1  0  0  0  0
 19 45  1  0  0  0  0
 20 21  1  0  0  0  0
 20 46  1  0  0  0  0
 20 47  1  0  0  0  0
 21 48  1  0  0  0  0
 22 49  1  0  0  0  0
 22 50  1  0  0  0  0
 23 24  1  0  0  0  0
 24 25  2  0  0  0  0
 24 51  1  0  0  0  0
 25 26  1  0  0  0  0
M  END
> <s_m_source_file>
AV-unprocessed.smi

> <i_m_source_file_index>
199

> <i_lp_mmshare_version>
43012

> <i_f3d_flags>
0

> <s_epik_input>
W0NIMl0xW0NIMl1PW0NAQEhdKFtDSDNdKVtDQEBdMShbT0hdKVtDSDJdbihbY0hdbjIpYyhjMjMpbltjSF1uYzNOKFtDQEBIXTQ1KVtDQEhdKFtDSDJdW0NIMl00KVtDQEhdKFtDSDJdNSlbQ0gyXVtPSF0=

> <s_epik_cmdline>
J2VwaWtfcHl0aG9uJywgJy1waCcsICc3LjAnLCAnLXRuJywgJzgnLCAnLW1hJywgJzIwMCcsICctbWV0YWxfYmluZGluZycsICctaW1hZScsICc8aW5maWxlLm1hZT4nLCAnLW9tYWUnLCAnPG91dGZpbGUubWFlPic=

> <r_lp_tautomer_probability>
1

> <r_epik_Ionization_Penalty>
0.00583903

> <r_epik_Ionization_Penalty_Charging>
0

> <r_epik_Ionization_Penalty_Neutral>
0.00583903

> <r_epik_State_Penalty>
-0

> <r_epik_Charging_Adjusted_Penalty>
0

> <i_epik_Tot_Q>
0

> <i_epik_Tot_abs_Q>
0

> <r_epik_Metal_State_Penalty>
-0

> <b_epik_Metal_Only>
0

> <s_lp_Force_Field>
OPLS_2005

> <r_lp_Energy>
83.8114

> <b_lp_Chiralities_Consistent>
1

> <s_lp_Variant>
AV-unprocessed.smi:199-14

> <Gold.Version>
5.8.1

> <Gold.Id.Protein>
6NUR|6NUR_protein|mol2

> <Gold.PLP.Fitness>
43.5057

> <Gold.PLP.PLP>
-33.6686

> <Gold.PLP.part.hbond>
-4.4772

> <Gold.PLP.part.metal>
0.0000

> <Gold.PLP.part.buried>
-5.4760

> <Gold.PLP.part.nonpolar>
-24.2811

> <Gold.PLP.part.repulsive>
0.0000

> <Gold.PLP.ligand.clash>
0.0000

> <Gold.PLP.ligand.torsion>
0.9402

> <Gold.PLP.Chemscore.Hbond>
3.8960

> <Gold.PLP.Chemscore.CHOScore>
0.0000

> <Gold.PLP.Chemscore.Metal>
0.0000

> <Gold.Chemscore.Hbonds>
donor molecule, donor type, donor heavy atom, donor atom, acceptor molecule, acceptor atom, score
      P1  H  6896  6909       L1    11  0.94
      P1  H  6934  6947       L1    23  0.34
      P1  H  7989  7998       L1     7  1.00
      P1  H  7997  8010       L1     3  0.70

> <Gold.PLP.Chemscore.Internal.Correction>
0.0296

> <Gold.Rescore>
     Score         DG    S(hbond)    S(metal)    S(lipo)     H(rot)  DE(clash)    DE(int)     intcor
     15.71     -17.33       3.02        0.00      82.41       3.07       0.02       1.59       ----

> <Gold.Chemscore.Fitness>
15.7149

> <Gold.Chemscore.DG>
-17.3322

> <Gold.Chemscore.ZeroCoef>
-5.4800

> <Gold.Chemscore.Hbond>
3.0169

> <Gold.Chemscore.Metal>
0.0000

> <Gold.Chemscore.Lipo>
82.4130

> <Gold.Chemscore.Internal_Hbond>
0.0000

> <Gold.Chemscore.DEClash>
0.0235

> <Gold.Chemscore.DEInternal>
1.5938

> <Gold.Chemscore.Rot>
3.0729

> <Gold.Chemscore.Internal.Correction>
   9.000000E+99

> <Gold.Chemscore.Hbonds>
donor molecule, donor type, donor heavy atom, donor atom, acceptor molecule, acceptor atom, score
      P1  H  6896  6909       L1    11  0.89
      P1  H  6934  6947       L1    23  0.02
      P1  H  7989  7998       L1     7  0.93
      P1  H  7997  8010       L1     3  0.07

> <Gold.Chemscore.Hbond.Weighted>
-10.0766

> <Gold.Chemscore.Metal.Weighted>
-0.0000

> <Gold.Chemscore.Lipo.Weighted>
-9.6423

> <Gold.Chemscore.Internal_Hbond.Weighted>
0.0000

> <Gold.Chemscore.DEClash.Weighted>
0.0235

> <Gold.Chemscore.DEInternal.Weighted>
1.5938

> <Gold.Chemscore.Rot.Weighted>
7.8667

> <Gold.Chemscore.Internal.Correction.Weighted>
   9.000000E+99

> <Gold.Protein.RotatedTorsions>
[ 6907 6896 6895 6894 ] final   45.28 input  -60.11 | X-H torsion
[ 7974 7965 7964 7962 ] final   71.57 input  175.53 | X-H torsion
[ 8008 7997 7996 7995 ] final   74.32 input   59.86 | X-H torsion
[ 10167 10162 10161 10158 ] final  137.88 input  -65.29 | X-H torsion
[ 10718 10713 10712 10709 ] final -167.15 input   66.30 | X-H torsion
[ 10763 10752 10751 10750 ] final  155.97 input  -60.55 | X-H torsion
[ 11005 11000 10999 10996 ] final  -82.84 input  -57.11 | X-H torsion

> <Gold.Protein.ActiveResidues>
 VAL166  LYS551  ARG553  GLY616  TRP617  ASP618  TYR619  PRO620  LYS621  CYS622 
 ASP623  PHE694  ASN695  SER759  ASP760  ASP761  ALA762  ILE779  LEU786  VAL792 
 PHE793  MET794  SER795  GLU796  ALA797  LYS798  CYS799  TRP800  GLU811  SER814 

> <Gold.Protein.RotatedAtoms>
  152.2426  134.8213  160.0457 H   0  0  0  0  0  0  0  0  0  0  0  0  # atno 6907 bound_to 6896
  151.8922  133.3513  159.3810 H   0  0  0  0  0  0  0  0  0  0  0  0  # atno 6908 bound_to 6896
  150.7058  134.4839  159.5527 H   0  0  0  0  0  0  0  0  0  0  0  0  # atno 6909 bound_to 6896
  145.7641  139.2814  143.1359 H   0  0  0  0  0  0  0  0  0  0  0  0  # atno 7974 bound_to 7965
  155.7966  140.3477  155.5379 H   0  0  0  0  0  0  0  0  0  0  0  0  # atno 8008 bound_to 7997
  155.8580  140.0967  157.1652 H   0  0  0  0  0  0  0  0  0  0  0  0  # atno 8009 bound_to 7997
  154.4010  140.1364  156.3913 H   0  0  0  0  0  0  0  0  0  0  0  0  # atno 8010 bound_to 7997
  139.5129  144.6385  151.5632 H   0  0  0  0  0  0  0  0  0  0  0  0  # atno 10167 bound_to 10162
  156.6782  130.9111  151.3053 H   0  0  0  0  0  0  0  0  0  0  0  0  # atno 10718 bound_to 10713
  154.1770  135.2801  155.3064 H   0  0  0  0  0  0  0  0  0  0  0  0  # atno 10763 bound_to 10752
  154.6032  135.5523  153.7399 H   0  0  0  0  0  0  0  0  0  0  0  0  # atno 10764 bound_to 10752
  153.0149  135.6397  154.1909 H   0  0  0  0  0  0  0  0  0  0  0  0  # atno 10765 bound_to 10752
  141.1661  133.7264  156.8631 H   0  0  0  0  0  0  0  0  0  0  0  0  # atno 11005 bound_to 11000
  146.0235  140.8326  142.9912 LP  0  0  0  0  0  0  0  0  0  0  0  0  # atno 17320 bound_to 7965
  144.6825  140.2663  143.7312 LP  0  0  0  0  0  0  0  0  0  0  0  0  # atno 17321 bound_to 7965
  140.6143  143.9378  150.6476 LP  0  0  0  0  0  0  0  0  0  0  0  0  # atno 17342 bound_to 10162
  140.2631  143.3510  152.1305 LP  0  0  0  0  0  0  0  0  0  0  0  0  # atno 17343 bound_to 10162
  157.7053  130.9378  150.0911 LP  0  0  0  0  0  0  0  0  0  0  0  0  # atno 17370 bound_to 10713
  156.1887  130.3653  149.8938 LP  0  0  0  0  0  0  0  0  0  0  0  0  # atno 17371 bound_to 10713
  140.1834  134.9017  157.2976 LP  0  0  0  0  0  0  0  0  0  0  0  0  # atno 17394 bound_to 11000
  140.2370  134.3841  155.7497 LP  0  0  0  0  0  0  0  0  0  0  0  0  # atno 17395 bound_to 11000

$$$$
