AV-unprocessed.smi:2083|AV-procd|sdf|8497|dock2
  -GOLD-   2272011203D 1   1.00000     0.00000
 Structure written by MMmdl.
 45 46  0  0  0  0  0  0  0  0  2 V2000
  150.1458  141.8974  158.0732 C   0  0  0  0  0  0  0  0  0  0  0  0
  150.1243  141.2358  156.7381 C   0  0  0  0  0  0  0  0  0  0  0  0
  149.1207  140.9617  155.8521 C   0  0  0  0  0  0  0  0  0  0  0  0
  149.8016  140.3121  154.7886 C   0  0  0  0  0  0  0  0  0  0  0  0
  149.0970  139.8555  153.6457 N   0  0  0  0  0  0  0  0  0  0  0  0
  147.8901  139.2656  153.6094 C   0  0  0  0  0  0  0  0  0  0  0  0
  147.1893  139.0212  154.5917 O   0  0  0  0  0  0  0  0  0  0  0  0
  147.5322  138.9652  152.3519 N   0  0  0  0  0  0  0  0  0  0  0  0
  146.2658  138.3556  151.9519 C   0  0  0  0  0  0  0  0  0  0  0  0
  145.8348  137.1887  152.8833 C   0  0  1  0  0  0  0  0  0  0  0  0
  144.2952  137.1126  152.9894 C   0  0  0  0  0  0  0  0  0  0  0  0
  146.3751  135.8462  152.4838 N   0  3  2  0  0  0  0  0  0  0  0  0
  145.7309  135.3362  151.2393 C   0  0  0  0  0  0  0  0  0  0  0  0
  146.4285  134.0720  150.7172 C   0  0  0  0  0  0  0  0  0  0  0  0
  146.4240  132.9738  151.7838 C   0  0  0  0  0  0  0  0  0  0  0  0
  147.0700  133.4975  153.0744 C   0  0  2  0  0  0  0  0  0  0  0  0
  147.0638  132.4274  154.1756 C   0  0  0  0  0  0  0  0  0  0  0  0
  146.3769  134.7943  153.5439 C   0  0  0  0  0  0  0  0  0  0  0  0
  151.1035  140.2020  155.0037 N   0  0  0  0  0  0  0  0  0  0  0  0
  151.3169  140.7930  156.2549 O   0  0  0  0  0  0  0  0  0  0  0  0
  149.2064  142.4162  158.2657 H   0  0  0  0  0  0  0  0  0  0  0  0
  150.9528  142.6280  158.1313 H   0  0  0  0  0  0  0  0  0  0  0  0
  150.2952  141.1634  158.8650 H   0  0  0  0  0  0  0  0  0  0  0  0
  148.0699  141.1888  155.9534 H   0  0  0  0  0  0  0  0  0  0  0  0
  149.5604  139.9997  152.7610 H   0  0  0  0  0  0  0  0  0  0  0  0
  148.1755  139.2002  151.6101 H   0  0  0  0  0  0  0  0  0  0  0  0
  145.4766  139.1073  151.8913 H   0  0  0  0  0  0  0  0  0  0  0  0
  146.4311  137.9945  150.9369 H   0  0  0  0  0  0  0  0  0  0  0  0
  146.2332  137.4204  153.8726 H   0  0  0  0  0  0  0  0  0  0  0  0
  143.8715  138.0334  153.3892 H   0  0  0  0  0  0  0  0  0  0  0  0
  143.9580  136.3153  153.6495 H   0  0  0  0  0  0  0  0  0  0  0  0
  143.8440  136.9398  152.0116 H   0  0  0  0  0  0  0  0  0  0  0  0
  144.6793  135.1231  151.4374 H   0  0  0  0  0  0  0  0  0  0  0  0
  145.7491  136.0889  150.4527 H   0  0  0  0  0  0  0  0  0  0  0  0
  145.9284  133.7158  149.8160 H   0  0  0  0  0  0  0  0  0  0  0  0
  147.4542  134.3074  150.4306 H   0  0  0  0  0  0  0  0  0  0  0  0
  145.3994  132.6543  151.9803 H   0  0  0  0  0  0  0  0  0  0  0  0
  146.9608  132.0976  151.4180 H   0  0  0  0  0  0  0  0  0  0  0  0
  148.1124  133.7353  152.8558 H   0  0  0  0  0  0  0  0  0  0  0  0
  146.0469  132.1385  154.4432 H   0  0  0  0  0  0  0  0  0  0  0  0
  147.5556  132.7888  155.0791 H   0  0  0  0  0  0  0  0  0  0  0  0
  147.5904  131.5287  153.8529 H   0  0  0  0  0  0  0  0  0  0  0  0
  146.9195  135.1404  154.4229 H   0  0  0  0  0  0  0  0  0  0  0  0
  145.3510  134.5876  153.8536 H   0  0  0  0  0  0  0  0  0  0  0  0
  147.3487  136.0010  152.2637 H   0  0  0  0  0  0  0  0  0  0  0  0
  1  2  1  0  0  0  0
  1 21  1  0  0  0  0
  1 22  1  0  0  0  0
  1 23  1  0  0  0  0
  2 20  1  0  0  0  0
  2  3  2  0  0  0  0
  3  4  1  0  0  0  0
  3 24  1  0  0  0  0
  4  5  1  0  0  0  0
  4 19  2  0  0  0  0
  5  6  1  0  0  0  0
  5 25  1  0  0  0  0
  6  7  2  0  0  0  0
  6  8  1  0  0  0  0
  8  9  1  0  0  0  0
  8 26  1  0  0  0  0
  9 10  1  0  0  0  0
  9 27  1  0  0  0  0
  9 28  1  0  0  0  0
 10 11  1  0  0  0  0
 10 12  1  0  0  0  0
 10 29  1  0  0  0  0
 11 30  1  0  0  0  0
 11 31  1  0  0  0  0
 11 32  1  0  0  0  0
 12 18  1  0  0  0  0
 12 13  1  0  0  0  0
 12 45  1  0  0  0  0
 13 14  1  0  0  0  0
 13 33  1  0  0  0  0
 13 34  1  0  0  0  0
 14 15  1  0  0  0  0
 14 35  1  0  0  0  0
 14 36  1  0  0  0  0
 15 16  1  0  0  0  0
 15 37  1  0  0  0  0
 15 38  1  0  0  0  0
 16 17  1  0  0  0  0
 16 18  1  0  0  0  0
 16 39  1  0  0  0  0
 17 40  1  0  0  0  0
 17 41  1  0  0  0  0
 17 42  1  0  0  0  0
 18 43  1  0  0  0  0
 18 44  1  0  0  0  0
 19 20  1  0  0  0  0
M  CHG  1  12   1
M  END
> <s_m_source_file>
AV-unprocessed.smi

> <i_m_source_file_index>
2083

> <i_lp_mmshare_version>
43012

> <i_f3d_flags>
0

> <s_epik_input>
W0NIM11jMVtjSF1jKG5vMSlbTkhdQyg9TylbTkhdW0NIMl1bQ0BIXShbQ0gzXSlOMltDSDJdW0NIMl1bQ0gyXVtDQEBIXShbQ0gzXSlbQ0gyXTI=

> <s_epik_cmdline>
J2VwaWtfcHl0aG9uJywgJy1waCcsICc3LjAnLCAnLXRuJywgJzgnLCAnLW1hJywgJzIwMCcsICctbWV0YWxfYmluZGluZycsICctaW1hZScsICc8aW5maWxlLm1hZT4nLCAnLW9tYWUnLCAnPG91dGZpbGUubWFlPic=

> <r_epik_Ionization_Penalty>
0.00216453

> <r_epik_Ionization_Penalty_Charging>
0.00212879

> <r_epik_Ionization_Penalty_Neutral>
3.57418e-05

> <r_epik_State_Penalty>
0.00146033

> <r_epik_Charging_Adjusted_Penalty>
0.00358912

> <i_epik_Tot_Q>
1

> <i_epik_Tot_abs_Q>
1

> <r_epik_Metal_State_Penalty>
0.0215827

> <b_epik_Metal_Only>
0

> <s_lp_Force_Field>
OPLS_2005

> <r_lp_Energy>
20.5585

> <b_lp_Chiralities_Consistent>
1

> <s_lp_Variant>
AV-unprocessed.smi:2083-8

> <Gold.Version>
5.8.1

> <Gold.Id.Protein>
6NUR|6NUR_protein|mol2

> <Gold.PLP.Fitness>
43.7247

> <Gold.PLP.PLP>
-30.8017

> <Gold.PLP.part.hbond>
-4.6498

> <Gold.PLP.part.metal>
0.0000

> <Gold.PLP.part.buried>
-3.8373

> <Gold.PLP.part.nonpolar>
-22.6338

> <Gold.PLP.part.repulsive>
0.4358

> <Gold.PLP.ligand.clash>
0.0000

> <Gold.PLP.ligand.torsion>
0.9757

> <Gold.PLP.Chemscore.Hbond>
4.9280

> <Gold.PLP.Chemscore.CHOScore>
0.0000

> <Gold.PLP.Chemscore.Metal>
0.0000

> <Gold.Chemscore.Hbonds>
donor molecule, donor type, donor heavy atom, donor atom, acceptor molecule, acceptor atom, score
      L1  H     5    25       P1  7957  1.00
      L1  H     8    26       P1  7957  0.98
      L1  H    12    45       P1  7948  2.00
      P1  H  7989  7998       L1    19  0.90

> <Gold.PLP.Chemscore.Internal.Correction>
0.0903

> <Gold.Rescore>
     Score         DG    S(hbond)    S(metal)    S(lipo)     H(rot)  DE(clash)    DE(int)     intcor
     16.70     -20.20       3.68        0.00      54.65       1.55       0.17       3.33       ----

> <Gold.Chemscore.Fitness>
16.6991

> <Gold.Chemscore.DG>
-20.1996

> <Gold.Chemscore.ZeroCoef>
-5.4800

> <Gold.Chemscore.Hbond>
3.6788

> <Gold.Chemscore.Metal>
0.0000

> <Gold.Chemscore.Lipo>
54.6456

> <Gold.Chemscore.Internal_Hbond>
0.0000

> <Gold.Chemscore.DEClash>
0.1730

> <Gold.Chemscore.DEInternal>
3.3274

> <Gold.Chemscore.Rot>
1.5474

> <Gold.Chemscore.Internal.Correction>
   9.000000E+99

> <Gold.Chemscore.Hbonds>
donor molecule, donor type, donor heavy atom, donor atom, acceptor molecule, acceptor atom, score
      L1  H     5    25       P1  7957  0.96
      L1  H     8    26       P1  7957  0.88
      L1  H    12    45       P1  7948  1.00
      P1  H  7989  7998       L1    19  0.18

> <Gold.Chemscore.Hbond.Weighted>
-12.2873

> <Gold.Chemscore.Metal.Weighted>
-0.0000

> <Gold.Chemscore.Lipo.Weighted>
-6.3935

> <Gold.Chemscore.Internal_Hbond.Weighted>
0.0000

> <Gold.Chemscore.DEClash.Weighted>
0.1730

> <Gold.Chemscore.DEInternal.Weighted>
3.3274

> <Gold.Chemscore.Rot.Weighted>
3.9612

> <Gold.Chemscore.Internal.Correction.Weighted>
   9.000000E+99

> <Gold.Protein.RotatedTorsions>
[ 6907 6896 6895 6894 ] final  -47.13 input  -60.11 | X-H torsion
[ 7974 7965 7964 7962 ] final   23.05 input  175.53 | X-H torsion
[ 8008 7997 7996 7995 ] final  -61.23 input   59.86 | X-H torsion
[ 10167 10162 10161 10158 ] final  -88.98 input  -65.29 | X-H torsion
[ 10718 10713 10712 10709 ] final -129.49 input   66.30 | X-H torsion
[ 10763 10752 10751 10750 ] final   65.83 input  -60.55 | X-H torsion
[ 11005 11000 10999 10996 ] final  127.98 input  -57.11 | X-H torsion

> <Gold.Protein.ActiveResidues>
 VAL166  LYS551  ARG553  GLY616  TRP617  ASP618  TYR619  PRO620  LYS621  CYS622 
 ASP623  PHE694  ASN695  SER759  ASP760  ASP761  ALA762  ILE779  LEU786  VAL792 
 PHE793  MET794  SER795  GLU796  ALA797  LYS798  CYS799  TRP800  GLU811  SER814 

> <Gold.Protein.RotatedAtoms>
  150.9040  134.8454  159.7379 H   0  0  0  0  0  0  0  0  0  0  0  0  # atno 6907 bound_to 6896
  152.4908  134.4459  159.9569 H   0  0  0  0  0  0  0  0  0  0  0  0  # atno 6908 bound_to 6896
  151.4508  133.3579  159.2830 H   0  0  0  0  0  0  0  0  0  0  0  0  # atno 6909 bound_to 6896
  146.2002  139.7799  142.8767 H   0  0  0  0  0  0  0  0  0  0  0  0  # atno 7974 bound_to 7965
  154.4437  140.1022  156.6398 H   0  0  0  0  0  0  0  0  0  0  0  0  # atno 8008 bound_to 7997
  155.5514  140.3485  155.4451 H   0  0  0  0  0  0  0  0  0  0  0  0  # atno 8009 bound_to 7997
  156.0526  140.1307  157.0022 H   0  0  0  0  0  0  0  0  0  0  0  0  # atno 8010 bound_to 7997
  140.3694  143.2802  151.9519 H   0  0  0  0  0  0  0  0  0  0  0  0  # atno 10167 bound_to 10162
  156.2052  130.6883  151.0585 H   0  0  0  0  0  0  0  0  0  0  0  0  # atno 10718 bound_to 10713
  153.0113  135.5342  154.6729 H   0  0  0  0  0  0  0  0  0  0  0  0  # atno 10763 bound_to 10752
  154.5909  135.2859  155.0638 H   0  0  0  0  0  0  0  0  0  0  0  0  # atno 10764 bound_to 10752
  154.1732  135.6528  153.5067 H   0  0  0  0  0  0  0  0  0  0  0  0  # atno 10765 bound_to 10752
  139.9536  134.9617  156.8934 H   0  0  0  0  0  0  0  0  0  0  0  0  # atno 11005 bound_to 11000
  145.3511  141.0307  143.3338 LP  0  0  0  0  0  0  0  0  0  0  0  0  # atno 17320 bound_to 7965
  144.8666  139.5099  143.6787 LP  0  0  0  0  0  0  0  0  0  0  0  0  # atno 17321 bound_to 7965
  139.4805  144.5921  151.7754 LP  0  0  0  0  0  0  0  0  0  0  0  0  # atno 17342 bound_to 10162
  140.5048  144.1114  150.5980 LP  0  0  0  0  0  0  0  0  0  0  0  0  # atno 17343 bound_to 10162
  157.7008  131.0776  150.6826 LP  0  0  0  0  0  0  0  0  0  0  0  0  # atno 17370 bound_to 10713
  156.6884  130.4588  149.5607 LP  0  0  0  0  0  0  0  0  0  0  0  0  # atno 17371 bound_to 10713
  140.5661  134.0488  155.7415 LP  0  0  0  0  0  0  0  0  0  0  0  0  # atno 17394 bound_to 11000
  141.1204  133.9471  157.2741 LP  0  0  0  0  0  0  0  0  0  0  0  0  # atno 17395 bound_to 11000

$$$$
