AV-unprocessed.smi:2093|AV-procd|sdf|8550|dock7
  -GOLD-   2272011273D 1   1.00000     0.00000
 Structure written by MMmdl.
 30 31  0  0  0  0  0  0  0  0  2 V2000
  153.9023  139.9954  160.7005 C   0  0  0  0  0  0  0  0  0  0  0  0
  152.8553  140.9512  160.1103 C   0  0  2  0  0  0  0  0  0  0  0  0
  152.8691  140.8200  158.6534 N   0  0  0  0  0  0  0  0  0  0  0  0
  152.2982  139.8472  157.9272 C   0  0  0  0  0  0  0  0  0  0  0  0
  151.6834  138.9360  158.4861 O   0  0  0  0  0  0  0  0  0  0  0  0
  152.4694  139.9963  156.5939 N   0  5  0  0  0  0  0  0  0  0  0  0
  151.6790  139.3307  155.7359 C   0  0  0  0  0  0  0  0  0  0  0  0
  150.9436  139.9404  154.7989 N   0  0  0  0  0  0  0  0  0  0  0  0
  150.1909  139.0576  154.0226 C   0  0  0  0  0  0  0  0  0  0  0  0
  150.3499  137.7456  154.3822 C   0  0  0  0  0  0  0  0  0  0  0  0
  151.4573  137.5788  155.7146 S   0  0  0  0  0  0  0  0  0  0  0  0
  153.1189  142.4147  160.5225 C   0  0  1  0  0  0  0  0  0  0  0  0
  152.1060  143.4312  159.9906 C   0  0  0  0  0  0  0  0  0  0  0  0
  152.2641  144.5647  160.9768 C   0  0  0  0  0  0  0  0  0  0  0  0
  152.4638  143.8105  162.2878 C   0  0  0  0  0  0  0  0  0  0  0  0
  153.0536  142.5598  161.9402 O   0  0  0  0  0  0  0  0  0  0  0  0
  153.9003  140.0315  161.7900 H   0  0  0  0  0  0  0  0  0  0  0  0
  154.9072  140.2480  160.3606 H   0  0  0  0  0  0  0  0  0  0  0  0
  153.7005  138.9644  160.4075 H   0  0  0  0  0  0  0  0  0  0  0  0
  151.8823  140.6509  160.5025 H   0  0  0  0  0  0  0  0  0  0  0  0
  153.3581  141.5404  158.1427 H   0  0  0  0  0  0  0  0  0  0  0  0
  149.5661  139.4514  153.2350 H   0  0  0  0  0  0  0  0  0  0  0  0
  149.8856  136.8725  153.9493 H   0  0  0  0  0  0  0  0  0  0  0  0
  154.1189  142.7172  160.2063 H   0  0  0  0  0  0  0  0  0  0  0  0
  152.3018  143.7306  158.9605 H   0  0  0  0  0  0  0  0  0  0  0  0
  151.0928  143.0297  160.0439 H   0  0  0  0  0  0  0  0  0  0  0  0
  153.1549  145.1465  160.7366 H   0  0  0  0  0  0  0  0  0  0  0  0
  151.4083  145.2399  160.9979 H   0  0  0  0  0  0  0  0  0  0  0  0
  153.0878  144.3629  162.9904 H   0  0  0  0  0  0  0  0  0  0  0  0
  151.5035  143.6173  162.7671 H   0  0  0  0  0  0  0  0  0  0  0  0
  1  2  1  0  0  0  0
  1 17  1  0  0  0  0
  1 18  1  0  0  0  0
  1 19  1  0  0  0  0
  2  3  1  0  0  0  0
  2 12  1  0  0  0  0
  2 20  1  0  0  0  0
  3  4  1  0  0  0  0
  3 21  1  0  0  0  0
  4  5  2  0  0  0  0
  4  6  1  0  0  0  0
  6  7  1  0  0  0  0
  7 11  1  0  0  0  0
  7  8  2  0  0  0  0
  8  9  1  0  0  0  0
  9 10  2  0  0  0  0
  9 22  1  0  0  0  0
 10 11  1  0  0  0  0
 10 23  1  0  0  0  0
 12 16  1  0  0  0  0
 12 13  1  0  0  0  0
 12 24  1  0  0  0  0
 13 14  1  0  0  0  0
 13 25  1  0  0  0  0
 13 26  1  0  0  0  0
 14 15  1  0  0  0  0
 14 27  1  0  0  0  0
 14 28  1  0  0  0  0
 15 16  1  0  0  0  0
 15 29  1  0  0  0  0
 15 30  1  0  0  0  0
M  CHG  1   6  -1
M  END
> <s_m_source_file>
AV-unprocessed.smi

> <i_m_source_file_index>
2093

> <i_lp_mmshare_version>
43012

> <i_f3d_flags>
0

> <s_epik_input>
TzFbQ0gyXVtDSDJdW0NIMl1bQ0BIXTFbQ0BIXShbQ0gzXSlbTkhdQyg9TylbTkhdYzJuW2NIXVtjSF1zMg==

> <s_epik_cmdline>
J2VwaWtfcHl0aG9uJywgJy1waCcsICc3LjAnLCAnLXRuJywgJzgnLCAnLW1hJywgJzIwMCcsICctbWV0YWxfYmluZGluZycsICctaW1hZScsICc8aW5maWxlLm1hZT4nLCAnLW9tYWUnLCAnPG91dGZpbGUubWFlPic=

> <r_lp_tautomer_probability>
0.999

> <r_epik_Ionization_Penalty>
8.26346

> <r_epik_Ionization_Penalty_Charging>
6.6559

> <r_epik_Ionization_Penalty_Neutral>
1.60756

> <r_epik_State_Penalty>
6.65607

> <r_epik_Charging_Adjusted_Penalty>
13.312

> <i_epik_Tot_Q>
-1

> <i_epik_Tot_abs_Q>
1

> <r_epik_Metal_State_Penalty>
2.5789

> <b_epik_Metal_Only>
1

> <s_lp_Force_Field>
OPLS_2005

> <r_lp_Energy>
13.8452

> <b_lp_Chiralities_Consistent>
1

> <s_lp_Variant>
AV-unprocessed.smi:2093-7

> <Gold.Version>
5.8.1

> <Gold.Id.Protein>
6NUR|6NUR_protein|mol2

> <Gold.PLP.Fitness>
46.6343

> <Gold.PLP.PLP>
-33.2779

> <Gold.PLP.part.hbond>
-2.0000

> <Gold.PLP.part.metal>
0.0000

> <Gold.PLP.part.buried>
-2.1799

> <Gold.PLP.part.nonpolar>
-28.2060

> <Gold.PLP.part.repulsive>
0.2091

> <Gold.PLP.ligand.clash>
0.0000

> <Gold.PLP.ligand.torsion>
0.8753

> <Gold.PLP.Chemscore.Hbond>
3.0000

> <Gold.PLP.Chemscore.CHOScore>
2.0291

> <Gold.PLP.Chemscore.Metal>
0.0000

> <Gold.Chemscore.Hbonds>
donor molecule, donor type, donor heavy atom, donor atom, acceptor molecule, acceptor atom, score
      P1  H  7989  7998       L1     8  0.90
      P1  H  7997  8010       L1     6  2.00
      L1  C     9    22       P1  7957  1.00
      L1  C    10    23       P1  7948  1.00

> <Gold.PLP.Chemscore.Internal.Correction>
0.0198

> <Gold.Rescore>
     Score         DG    S(hbond)    S(metal)    S(lipo)     H(rot)  DE(clash)    DE(int)     intcor
     14.08     -15.93       1.13        0.00      84.98       1.28       0.16       1.70       ----

> <Gold.Chemscore.Fitness>
14.0754

> <Gold.Chemscore.DG>
-15.9286

> <Gold.Chemscore.ZeroCoef>
-5.4800

> <Gold.Chemscore.Hbond>
1.1308

> <Gold.Chemscore.Metal>
0.0000

> <Gold.Chemscore.Lipo>
84.9824

> <Gold.Chemscore.Internal_Hbond>
0.0000

> <Gold.Chemscore.DEClash>
0.1578

> <Gold.Chemscore.DEInternal>
1.6955

> <Gold.Chemscore.Rot>
1.2778

> <Gold.Chemscore.Internal.Correction>
   9.000000E+99

> <Gold.Chemscore.Hbonds>
donor molecule, donor type, donor heavy atom, donor atom, acceptor molecule, acceptor atom, score
      P1  H  7989  7998       L1     8  0.18
      P1  H  7997  8010       L1     6  0.34

> <Gold.Chemscore.Hbond.Weighted>
-3.7768

> <Gold.Chemscore.Metal.Weighted>
-0.0000

> <Gold.Chemscore.Lipo.Weighted>
-9.9429

> <Gold.Chemscore.Internal_Hbond.Weighted>
0.0000

> <Gold.Chemscore.DEClash.Weighted>
0.1578

> <Gold.Chemscore.DEInternal.Weighted>
1.6955

> <Gold.Chemscore.Rot.Weighted>
3.2711

> <Gold.Chemscore.Internal.Correction.Weighted>
   9.000000E+99

> <Gold.Protein.RotatedTorsions>
[ 6907 6896 6895 6894 ] final  151.92 input  -60.11 | X-H torsion
[ 7974 7965 7964 7962 ] final   19.67 input  175.53 | X-H torsion
[ 8008 7997 7996 7995 ] final   71.23 input   59.86 | X-H torsion
[ 10167 10162 10161 10158 ] final  134.62 input  -65.29 | X-H torsion
[ 10718 10713 10712 10709 ] final    5.23 input   66.30 | X-H torsion
[ 10763 10752 10751 10750 ] final -151.35 input  -60.55 | X-H torsion
[ 11005 11000 10999 10996 ] final  -68.09 input  -57.11 | X-H torsion

> <Gold.Protein.ActiveResidues>
 VAL166  LYS551  ARG553  GLY616  TRP617  ASP618  TYR619  PRO620  LYS621  CYS622 
 ASP623  PHE694  ASN695  SER759  ASP760  ASP761  ALA762  ILE779  LEU786  VAL792 
 PHE793  MET794  SER795  GLU796  ALA797  LYS798  CYS799  TRP800  GLU811  SER814 

> <Gold.Protein.RotatedAtoms>
  152.0940  133.4215  159.4556 H   0  0  0  0  0  0  0  0  0  0  0  0  # atno 6907 bound_to 6896
  150.6863  134.2839  159.4647 H   0  0  0  0  0  0  0  0  0  0  0  0  # atno 6908 bound_to 6896
  152.0693  134.9544  160.0625 H   0  0  0  0  0  0  0  0  0  0  0  0  # atno 6909 bound_to 6896
  146.2141  139.8280  142.8666 H   0  0  0  0  0  0  0  0  0  0  0  0  # atno 7974 bound_to 7965
  155.7508  140.3488  155.5149 H   0  0  0  0  0  0  0  0  0  0  0  0  # atno 8008 bound_to 7997
  155.9007  140.1033  157.1373 H   0  0  0  0  0  0  0  0  0  0  0  0  # atno 8009 bound_to 7997
  154.4043  140.1287  156.4419 H   0  0  0  0  0  0  0  0  0  0  0  0  # atno 8010 bound_to 7997
  139.5249  144.6558  151.5165 H   0  0  0  0  0  0  0  0  0  0  0  0  # atno 10167 bound_to 10162
  156.9044  130.5733  149.5647 H   0  0  0  0  0  0  0  0  0  0  0  0  # atno 10718 bound_to 10713
  154.8063  135.3262  154.7421 H   0  0  0  0  0  0  0  0  0  0  0  0  # atno 10763 bound_to 10752
  153.8079  135.6898  153.4850 H   0  0  0  0  0  0  0  0  0  0  0  0  # atno 10764 bound_to 10752
  153.1811  135.4586  154.9974 H   0  0  0  0  0  0  0  0  0  0  0  0  # atno 10765 bound_to 10752
  141.1524  133.6733  156.6393 H   0  0  0  0  0  0  0  0  0  0  0  0  # atno 11005 bound_to 11000
  145.3027  141.0198  143.3599 LP  0  0  0  0  0  0  0  0  0  0  0  0  # atno 17320 bound_to 7965
  144.8994  139.4669  143.6640 LP  0  0  0  0  0  0  0  0  0  0  0  0  # atno 17321 bound_to 7965
  140.6383  143.8939  150.6668 LP  0  0  0  0  0  0  0  0  0  0  0  0  # atno 17342 bound_to 10162
  140.2265  143.3768  152.1600 LP  0  0  0  0  0  0  0  0  0  0  0  0  # atno 17343 bound_to 10162
  156.0566  130.5627  150.9105 LP  0  0  0  0  0  0  0  0  0  0  0  0  # atno 17370 bound_to 10713
  157.6006  131.0941  150.8966 LP  0  0  0  0  0  0  0  0  0  0  0  0  # atno 17371 bound_to 10713
  140.3406  134.7852  157.4395 LP  0  0  0  0  0  0  0  0  0  0  0  0  # atno 17394 bound_to 11000
  140.0941  134.5561  155.8415 LP  0  0  0  0  0  0  0  0  0  0  0  0  # atno 17395 bound_to 11000

$$$$
