#       Name:                AV-unprocessed.smi:3112
#       Creating user name   scv26
#       Creation time:       Fri Mar 27 17:21:52 2020


#       File generated by GOLD software.
#

@<TRIPOS>MOLECULE
AV-unprocessed.smi:3112
    40    40     1
SMALL
NO_CHARGES


@<TRIPOS>ATOM
      1 ****        -3.5012   3.3502   0.9178 C.3            1 S1                 0.0000
      2 ****        -2.8789   2.0037   1.3126 C.3            1 S1                 0.0000
      3 ****        -1.4147   1.8495   0.8626 C.3            1 S1                 0.0000
      4 ****        -0.6162   2.7750   1.5743 O.3            1 S1                 0.0000
      5 ****        -0.8748   0.4341   1.1264 C.3            1 S1                 0.0000
      6 ****         0.4493   0.2461   0.4966 N.4            1 S1                 1.0000
      7 ****         1.0283  -1.1124   0.6226 C.3            1 S1                 0.0000
      8 ****         1.6825  -1.2749   2.0079 C.3            1 S1                 0.0000
      9 ****         2.0215  -1.3692  -0.5411 C.3            1 S1                 0.0000
     10 ****         2.6650  -2.7683  -0.5045 C.3            1 S1                 0.0000
     11 ****         1.3704  -1.1593  -1.8301 N.pl3          1 S1                 0.0000
     12 ****         0.4342  -1.9496  -2.4680 C.2            1 S1                 0.0000
     13 ****         0.0931  -1.3216  -3.6312 C.2            1 S1                 0.0000
     14 ****         0.8744  -0.1331  -3.6156 C.2            1 S1                 0.0000
     15 ****         1.6287  -0.0343  -2.5329 N.2            1 S1                 0.0000
     16 ****        -4.5458   3.3982   1.2261 H              1 S1                 0.0000
     17 ****        -3.4674   3.4987  -0.1619 H              1 S1                 0.0000
     18 ****        -2.9803   4.1846   1.3878 H              1 S1                 0.0000
     19 ****        -2.9552   1.8669   2.3922 H              1 S1                 0.0000
     20 ****        -3.4763   1.2092   0.8637 H              1 S1                 0.0000
     21 ****        -1.3423   2.0709  -0.2034 H              1 S1                 0.0000
     22 ****        -0.7527   2.6441   2.5006 H              1 S1                 0.0000
     23 ****        -0.8213   0.2402   2.1981 H              1 S1                 0.0000
     24 ****        -1.5606  -0.3009   0.7029 H              1 S1                 0.0000
     25 ****         0.3383   0.4361  -0.4898 H              1 S1                 0.0000
     26 ****         0.2181  -1.8385   0.5357 H              1 S1                 0.0000
     27 ****         2.0391  -2.2920   2.1680 H              1 S1                 0.0000
     28 ****         0.9788  -1.0646   2.8131 H              1 S1                 0.0000
     29 ****         2.5314  -0.6007   2.1266 H              1 S1                 0.0000
     30 ****         2.8330  -0.6427  -0.4615 H              1 S1                 0.0000
     31 ****         3.3145  -2.8904   0.3619 H              1 S1                 0.0000
     32 ****         3.2827  -2.9366  -1.3875 H              1 S1                 0.0000
     33 ****         1.9122  -3.5564  -0.4709 H              1 S1                 0.0000
     34 ****         0.0908  -2.8829  -2.0465 H              1 S1                 0.0000
     35 ****        -0.6094  -1.6585  -4.3790 H              1 S1                 0.0000
     36 ****         0.9114   0.6580  -4.3501 H              1 S1                 0.0000
     37 ****         1.0993   0.9204   0.8757 H              1 S1                 0.0000
     38 ****        -0.8777   3.7072   1.3241 LP             1 S1                 0.0000
     39 ****         0.3477   2.6283   1.3523 LP             1 S1                 0.0000
     40 ****         2.2520   0.7086  -2.2887 LP             1 S1                 0.0000
@<TRIPOS>BOND
    1    1    2 1     
    2    1   16 1     
    3    1   17 1     
    4    1   18 1     
    5    2    3 1     
    6    2   19 1     
    7    2   20 1     
    8    3    4 1     
    9    3    5 1     
   10    3   21 1     
   11    4   22 1     
   12    5    6 1     
   13    5   23 1     
   14    5   24 1     
   15    6    7 1     
   16    6   25 1     
   17    6   37 1     
   18    7    8 1     
   19    7    9 1     
   20    7   26 1     
   21    8   27 1     
   22    8   28 1     
   23    8   29 1     
   24    9   10 1     
   25    9   11 1     
   26    9   30 1     
   27   10   31 1     
   28   10   32 1     
   29   10   33 1     
   30   11   15 1     
   31   11   12 1     
   32   12   13 2     
   33   12   34 1     
   34   13   14 1     
   35   13   35 1     
   36   14   15 2     
   37   14   36 1     
   38    4   38 1     
   39    4   39 1     
   40   15   40 1     
@<TRIPOS>SUBSTRUCTURE
      1 S1             1
@<TRIPOS>SET
LONE_PAIRS      STATIC     ATOMS    <user>   **** ""
3 38 39 40
DONOR_HYDROGENS      STATIC     ATOMS    <user>   **** ""
3 22 25 37
ATOM$BLUE        STATIC     ATOMS    COLORGROUP SYSTEM
3 38 39 40
ATOM$RED        STATIC     ATOMS    COLORGROUP SYSTEM
3 22 25 37
