AV-unprocessed.smi:3259|AV-procd|sdf|12475|dock7
  -GOLD-   2272018373D 1   1.00000     0.00000
 Structure written by MMmdl.
 39 40  0  0  0  0  0  0  0  0  1 V2000
  151.4842  138.2618  154.6580 C   0  0  0  0  0  0  0  0  0  0  0  0
  151.0414  139.5879  154.3997 O   0  0  0  0  0  0  0  0  0  0  0  0
  149.6852  139.8812  154.7395 C   0  0  2  0  0  0  0  0  0  0  0  0
  148.7420  138.9042  154.0203 C   0  0  0  0  0  0  0  0  0  0  0  0
  149.3716  141.3860  154.6465 C   0  0  0  0  0  0  0  0  0  0  0  0
  148.6320  141.2241  155.9727 C   0  0  2  0  0  0  0  0  0  0  0  0
  148.7844  142.3822  156.8460 N   0  0  0  0  0  0  0  0  0  0  0  0
  148.8977  142.3155  158.1810 C   0  0  0  0  0  0  0  0  0  0  0  0
  148.8920  141.2570  158.8087 O   0  0  0  0  0  0  0  0  0  0  0  0
  149.0499  143.6449  158.9215 C   0  0  0  0  0  0  0  0  0  0  0  0
  150.4444  144.0381  159.0186 N   0  0  0  0  0  0  0  0  0  0  0  0
  151.2893  144.4578  158.0119 C   0  0  0  0  0  0  0  0  0  0  0  0
  152.5005  144.7267  158.5825 C   0  0  0  0  0  0  0  0  0  0  0  0
  152.2968  144.4358  159.9604 C   0  0  0  0  0  0  0  0  0  0  0  0
  151.0662  144.0233  160.2182 N   0  0  0  0  0  0  0  0  0  0  0  0
  149.5750  140.0356  156.2918 C   0  0  0  0  0  0  0  0  0  0  0  0
  148.9430  138.8701  157.0594 C   0  0  0  0  0  0  0  0  0  0  0  0
  150.8843  140.3677  157.0357 C   0  0  0  0  0  0  0  0  0  0  0  0
  152.4958  138.1435  154.2703 H   0  0  0  0  0  0  0  0  0  0  0  0
  150.8552  137.5182  154.1684 H   0  0  0  0  0  0  0  0  0  0  0  0
  151.5205  138.0447  155.7251 H   0  0  0  0  0  0  0  0  0  0  0  0
  147.7121  139.0085  154.3610 H   0  0  0  0  0  0  0  0  0  0  0  0
  149.0393  137.8692  154.1906 H   0  0  0  0  0  0  0  0  0  0  0  0
  148.7259  139.0718  152.9438 H   0  0  0  0  0  0  0  0  0  0  0  0
  150.2551  142.0241  154.7110 H   0  0  0  0  0  0  0  0  0  0  0  0
  148.7356  141.6694  153.8074 H   0  0  0  0  0  0  0  0  0  0  0  0
  147.5939  140.9188  155.8221 H   0  0  0  0  0  0  0  0  0  0  0  0
  148.8005  143.2915  156.4076 H   0  0  0  0  0  0  0  0  0  0  0  0
  148.4884  144.4271  158.4081 H   0  0  0  0  0  0  0  0  0  0  0  0
  148.6348  143.5603  159.9268 H   0  0  0  0  0  0  0  0  0  0  0  0
  150.9608  144.5314  156.9858 H   0  0  0  0  0  0  0  0  0  0  0  0
  153.3956  145.0775  158.0909 H   0  0  0  0  0  0  0  0  0  0  0  0
  153.0019  144.5118  160.7748 H   0  0  0  0  0  0  0  0  0  0  0  0
  148.8228  139.1058  158.1173 H   0  0  0  0  0  0  0  0  0  0  0  0
  149.5540  137.9697  156.9901 H   0  0  0  0  0  0  0  0  0  0  0  0
  147.9516  138.6206  156.6823 H   0  0  0  0  0  0  0  0  0  0  0  0
  150.6989  140.6459  158.0736 H   0  0  0  0  0  0  0  0  0  0  0  0
  151.4245  141.1950  156.5755 H   0  0  0  0  0  0  0  0  0  0  0  0
  151.5620  139.5133  157.0486 H   0  0  0  0  0  0  0  0  0  0  0  0
  1  2  1  0  0  0  0
  1 19  1  0  0  0  0
  1 20  1  0  0  0  0
  1 21  1  0  0  0  0
  2  3  1  0  0  0  0
  3 16  1  0  0  0  0
  3  4  1  0  0  0  0
  3  5  1  0  0  0  0
  4 22  1  0  0  0  0
  4 23  1  0  0  0  0
  4 24  1  0  0  0  0
  5  6  1  0  0  0  0
  5 25  1  0  0  0  0
  5 26  1  0  0  0  0
  6  7  1  0  0  0  0
  6 16  1  0  0  0  0
  6 27  1  0  0  0  0
  7  8  1  0  0  0  0
  7 28  1  0  0  0  0
  8  9  2  0  0  0  0
  8 10  1  0  0  0  0
 10 11  1  0  0  0  0
 10 29  1  0  0  0  0
 10 30  1  0  0  0  0
 11 15  1  0  0  0  0
 11 12  1  0  0  0  0
 12 13  2  0  0  0  0
 12 31  1  0  0  0  0
 13 14  1  0  0  0  0
 13 32  1  0  0  0  0
 14 15  2  0  0  0  0
 14 33  1  0  0  0  0
 16 17  1  0  0  0  0
 16 18  1  0  0  0  0
 17 34  1  0  0  0  0
 17 35  1  0  0  0  0
 17 36  1  0  0  0  0
 18 37  1  0  0  0  0
 18 38  1  0  0  0  0
 18 39  1  0  0  0  0
M  END
> <s_m_source_file>
AV-unprocessed.smi

> <i_m_source_file_index>
3259

> <i_lp_mmshare_version>
43012

> <i_f3d_flags>
0

> <s_epik_input>
W0NIM11PW0NAQF0xKFtDSDNdKVtDSDJdW0NASF0oQzEoW0NIM10pW0NIM10pW05IXUMoPU8pW0NIMl1uMltjSF1bY0hdW2NIXW4y

> <s_epik_cmdline>
J2VwaWtfcHl0aG9uJywgJy1waCcsICc3LjAnLCAnLXRuJywgJzgnLCAnLW1hJywgJzIwMCcsICctbWV0YWxfYmluZGluZycsICctaW1hZScsICc8aW5maWxlLm1hZT4nLCAnLW9tYWUnLCAnPG91dGZpbGUubWFlPic=

> <r_lp_tautomer_probability>
1

> <r_epik_Ionization_Penalty>
1.78399e-05

> <r_epik_Ionization_Penalty_Charging>
0

> <r_epik_Ionization_Penalty_Neutral>
1.78399e-05

> <r_epik_State_Penalty>
-0

> <r_epik_Charging_Adjusted_Penalty>
0

> <i_epik_Tot_Q>
0

> <i_epik_Tot_abs_Q>
0

> <r_epik_Metal_State_Penalty>
-0

> <b_epik_Metal_Only>
0

> <s_lp_Force_Field>
OPLS_2005

> <r_lp_Energy>
24.0627

> <b_lp_Chiralities_Consistent>
1

> <s_lp_Variant>
AV-unprocessed.smi:3259-4

> <Gold.Version>
5.8.1

> <Gold.Id.Protein>
6NUR|6NUR_protein|mol2

> <Gold.PLP.Fitness>
39.8859

> <Gold.PLP.PLP>
-32.1276

> <Gold.PLP.part.hbond>
-4.0000

> <Gold.PLP.part.metal>
0.0000

> <Gold.PLP.part.buried>
-0.1969

> <Gold.PLP.part.nonpolar>
-28.6880

> <Gold.PLP.part.repulsive>
0.2391

> <Gold.PLP.ligand.clash>
0.0000

> <Gold.PLP.ligand.torsion>
0.8067

> <Gold.PLP.Chemscore.Hbond>
2.0000

> <Gold.PLP.Chemscore.CHOScore>
1.0000

> <Gold.PLP.Chemscore.Metal>
0.0000

> <Gold.Chemscore.Hbonds>
donor molecule, donor type, donor heavy atom, donor atom, acceptor molecule, acceptor atom, score
      L1  H     7    28       P1  8028  1.00
      P1  H  7989  7998       L1     2  1.00
      L1  C    12    31       P1  8028  1.00

> <Gold.PLP.Chemscore.Internal.Correction>
0.3719

> <Gold.Rescore>
     Score         DG    S(hbond)    S(metal)    S(lipo)     H(rot)  DE(clash)    DE(int)     intcor
     16.13     -17.93       1.94        0.00      86.00       1.60       1.33       0.47       ----

> <Gold.Chemscore.Fitness>
16.1294

> <Gold.Chemscore.DG>
-17.9343

> <Gold.Chemscore.ZeroCoef>
-5.4800

> <Gold.Chemscore.Hbond>
1.9395

> <Gold.Chemscore.Metal>
0.0000

> <Gold.Chemscore.Lipo>
86.0037

> <Gold.Chemscore.Internal_Hbond>
0.0000

> <Gold.Chemscore.DEClash>
1.3311

> <Gold.Chemscore.DEInternal>
0.4738

> <Gold.Chemscore.Rot>
1.5962

> <Gold.Chemscore.Internal.Correction>
   9.000000E+99

> <Gold.Chemscore.Hbonds>
donor molecule, donor type, donor heavy atom, donor atom, acceptor molecule, acceptor atom, score
      L1  H     7    28       P1  8028  0.93
      P1  H  7989  7998       L1     2  0.65

> <Gold.Chemscore.Hbond.Weighted>
-6.4781

> <Gold.Chemscore.Metal.Weighted>
-0.0000

> <Gold.Chemscore.Lipo.Weighted>
-10.0624

> <Gold.Chemscore.Internal_Hbond.Weighted>
0.0000

> <Gold.Chemscore.DEClash.Weighted>
1.3311

> <Gold.Chemscore.DEInternal.Weighted>
0.4738

> <Gold.Chemscore.Rot.Weighted>
4.0862

> <Gold.Chemscore.Internal.Correction.Weighted>
   9.000000E+99

> <Gold.Protein.RotatedTorsions>
[ 6907 6896 6895 6894 ] final  -30.91 input  -60.11 | X-H torsion
[ 7974 7965 7964 7962 ] final  130.66 input  175.53 | X-H torsion
[ 8008 7997 7996 7995 ] final   91.63 input   59.86 | X-H torsion
[ 10167 10162 10161 10158 ] final  126.32 input  -65.29 | X-H torsion
[ 10718 10713 10712 10709 ] final   15.95 input   66.30 | X-H torsion
[ 10763 10752 10751 10750 ] final   15.34 input  -60.55 | X-H torsion
[ 11005 11000 10999 10996 ] final  128.39 input  -57.11 | X-H torsion

> <Gold.Protein.ActiveResidues>
 VAL166  LYS551  ARG553  GLY616  TRP617  ASP618  TYR619  PRO620  LYS621  CYS622 
 ASP623  PHE694  ASN695  SER759  ASP760  ASP761  ALA762  ILE779  LEU786  VAL792 
 PHE793  MET794  SER795  GLU796  ALA797  LYS798  CYS799  TRP800  GLU811  SER814 

> <Gold.Protein.RotatedAtoms>
  151.0992  134.9962  159.8440 H   0  0  0  0  0  0  0  0  0  0  0  0  # atno 6907 bound_to 6896
  152.5435  134.1970  159.8707 H   0  0  0  0  0  0  0  0  0  0  0  0  # atno 6908 bound_to 6896
  151.2012  133.4565  159.2629 H   0  0  0  0  0  0  0  0  0  0  0  0  # atno 6909 bound_to 6896
  145.0156  139.4180  143.5223 H   0  0  0  0  0  0  0  0  0  0  0  0  # atno 7974 bound_to 7965
  156.0259  140.3335  155.7088 H   0  0  0  0  0  0  0  0  0  0  0  0  # atno 8008 bound_to 7997
  155.5955  140.0650  157.2765 H   0  0  0  0  0  0  0  0  0  0  0  0  # atno 8009 bound_to 7997
  154.4334  140.1819  156.1106 H   0  0  0  0  0  0  0  0  0  0  0  0  # atno 8010 bound_to 7997
  139.5637  144.6898  151.3969 H   0  0  0  0  0  0  0  0  0  0  0  0  # atno 10167 bound_to 10162
  157.0609  130.6308  149.5786 H   0  0  0  0  0  0  0  0  0  0  0  0  # atno 10718 bound_to 10713
  153.1534  135.6783  153.8848 H   0  0  0  0  0  0  0  0  0  0  0  0  # atno 10763 bound_to 10752
  153.8267  135.3123  155.3416 H   0  0  0  0  0  0  0  0  0  0  0  0  # atno 10764 bound_to 10752
  154.7879  135.4851  154.0075 H   0  0  0  0  0  0  0  0  0  0  0  0  # atno 10765 bound_to 10752
  139.9558  134.9613  156.8995 H   0  0  0  0  0  0  0  0  0  0  0  0  # atno 11005 bound_to 11000
  146.3477  139.9624  142.8716 LP  0  0  0  0  0  0  0  0  0  0  0  0  # atno 17320 bound_to 7965
  145.1965  140.9835  143.4181 LP  0  0  0  0  0  0  0  0  0  0  0  0  # atno 17321 bound_to 7965
  140.6920  143.7840  150.7269 LP  0  0  0  0  0  0  0  0  0  0  0  0  # atno 17342 bound_to 10162
  140.1325  143.4513  152.2245 LP  0  0  0  0  0  0  0  0  0  0  0  0  # atno 17343 bound_to 10162
  155.9979  130.5051  150.7550 LP  0  0  0  0  0  0  0  0  0  0  0  0  # atno 17370 bound_to 10713
  157.4955  131.0914  151.0376 LP  0  0  0  0  0  0  0  0  0  0  0  0  # atno 17371 bound_to 10713
  140.5613  134.0532  155.7399 LP  0  0  0  0  0  0  0  0  0  0  0  0  # atno 17394 bound_to 11000
  141.1229  133.9431  157.2694 LP  0  0  0  0  0  0  0  0  0  0  0  0  # atno 17395 bound_to 11000

$$$$
