AV-unprocessed.smi:218|AV-procd|sdf|1675|dock7
  -GOLD-   2262020103D 1   1.00000     0.00000
 Structure written by MMmdl.
 54 57  0  0  0  0  0  0  0  0  1 V2000
  152.4420  143.2984  159.4500 C   0  0  0  0  0  0  0  0  0  0  0  0
  152.4702  142.0845  160.3865 C   0  0  0  0  0  0  0  0  0  0  0  0
  152.7925  142.5043  161.8311 C   0  0  0  0  0  0  0  0  0  0  0  0
  153.4761  141.1996  159.8890 O   0  0  0  0  0  0  0  0  0  0  0  0
  153.1170  140.0639  159.1887 C   0  0  0  0  0  0  0  0  0  0  0  0
  151.7454  139.7639  159.0612 C   0  0  0  0  0  0  0  0  0  0  0  0
  151.3615  138.6082  158.3478 C   0  0  0  0  0  0  0  0  0  0  0  0
  149.9010  138.2331  158.1829 C   0  0  0  0  0  0  0  0  0  0  0  0
  149.4849  138.0841  156.7943 N   0  0  0  0  0  0  0  0  0  0  0  0
  149.5540  136.8777  156.1926 C   0  0  0  0  0  0  0  0  0  0  0  0
  150.6923  136.1383  156.2380 N   0  0  0  0  0  0  0  0  0  0  0  0
  150.7401  134.9518  155.6265 C   0  0  0  0  0  0  0  0  0  0  0  0
  149.7822  134.3321  154.9346 N   0  0  0  0  0  0  0  0  0  0  0  0
  148.6298  135.0639  154.8913 C   0  0  0  0  0  0  0  0  0  0  0  0
  148.4440  136.3430  155.4886 C   0  0  0  0  0  0  0  0  0  0  0  0
  147.1611  136.8032  155.2301 N   0  0  0  0  0  0  0  0  0  0  0  0
  146.6245  135.8519  154.5160 C   0  0  0  0  0  0  0  0  0  0  0  0
  147.4241  134.7515  154.2857 N   0  0  0  0  0  0  0  0  0  0  0  0
  147.0782  133.5330  153.4712 C   0  0  1  0  0  0  0  0  0  0  0  0
  145.8110  133.6980  152.9113 O   0  0  0  0  0  0  0  0  0  0  0  0
  145.9423  134.2410  151.6050 C   0  0  2  0  0  0  0  0  0  0  0  0
  144.6210  134.1343  150.8233 C   0  0  0  0  0  0  0  0  0  0  0  0
  144.8728  133.8036  149.4739 O   0  0  0  0  0  0  0  0  0  0  0  0
  147.1473  133.4643  151.0609 C   0  0  2  0  0  0  0  0  0  0  0  0
  146.7516  132.1876  150.5861 O   0  0  0  0  0  0  0  0  0  0  0  0
  148.0599  133.3835  152.2869 C   0  0  2  0  0  0  0  0  0  0  0  0
  148.8171  132.1881  152.3335 O   0  0  0  0  0  0  0  0  0  0  0  0
  152.3706  137.7910  157.8003 C   0  0  0  0  0  0  0  0  0  0  0  0
  153.7143  138.1700  157.9827 C   0  0  0  0  0  0  0  0  0  0  0  0
  154.0864  139.2776  158.6580 N   0  0  0  0  0  0  0  0  0  0  0  0
  147.0938  132.7116  154.1885 H   0  0  0  0  0  0  0  0  0  0  0  0
  146.2117  135.2945  151.7065 H   0  0  0  0  0  0  0  0  0  0  0  0
  147.6298  133.9947  150.2391 H   0  0  0  0  0  0  0  0  0  0  0  0
  148.7468  134.2302  152.2650 H   0  0  0  0  0  0  0  0  0  0  0  0
  151.6859  144.0191  159.7630 H   0  0  0  0  0  0  0  0  0  0  0  0
  152.2091  142.9970  158.4284 H   0  0  0  0  0  0  0  0  0  0  0  0
  153.4054  143.8088  159.4347 H   0  0  0  0  0  0  0  0  0  0  0  0
  151.4830  141.6219  160.3437 H   0  0  0  0  0  0  0  0  0  0  0  0
  152.0507  143.2098  162.2061 H   0  0  0  0  0  0  0  0  0  0  0  0
  153.7691  142.9851  161.8919 H   0  0  0  0  0  0  0  0  0  0  0  0
  152.8017  141.6514  162.5090 H   0  0  0  0  0  0  0  0  0  0  0  0
  151.0062  140.4129  159.5075 H   0  0  0  0  0  0  0  0  0  0  0  0
  149.7120  137.2992  158.7144 H   0  0  0  0  0  0  0  0  0  0  0  0
  149.2952  139.0042  158.6607 H   0  0  0  0  0  0  0  0  0  0  0  0
  149.1352  138.9164  156.3414 H   0  0  0  0  0  0  0  0  0  0  0  0
  151.6786  134.4228  155.7022 H   0  0  0  0  0  0  0  0  0  0  0  0
  145.6161  135.9278  154.1356 H   0  0  0  0  0  0  0  0  0  0  0  0
  143.9499  133.3960  151.2628 H   0  0  0  0  0  0  0  0  0  0  0  0
  144.0988  135.0909  150.8502 H   0  0  0  0  0  0  0  0  0  0  0  0
  145.3685  134.5064  149.0822 H   0  0  0  0  0  0  0  0  0  0  0  0
  147.5271  131.7153  150.3232 H   0  0  0  0  0  0  0  0  0  0  0  0
  148.9347  131.8716  151.4507 H   0  0  0  0  0  0  0  0  0  0  0  0
  152.1243  136.8936  157.2520 H   0  0  0  0  0  0  0  0  0  0  0  0
  154.5122  137.5667  157.5759 H   0  0  0  0  0  0  0  0  0  0  0  0
  1  2  1  0  0  0  0
  1 35  1  0  0  0  0
  1 36  1  0  0  0  0
  1 37  1  0  0  0  0
  2  3  1  0  0  0  0
  2  4  1  0  0  0  0
  2 38  1  0  0  0  0
  3 39  1  0  0  0  0
  3 40  1  0  0  0  0
  3 41  1  0  0  0  0
  4  5  1  0  0  0  0
  5 30  1  0  0  0  0
  5  6  2  0  0  0  0
  6  7  1  0  0  0  0
  6 42  1  0  0  0  0
  7  8  1  0  0  0  0
  7 28  2  0  0  0  0
  8  9  1  0  0  0  0
  8 43  1  0  0  0  0
  8 44  1  0  0  0  0
  9 10  1  0  0  0  0
  9 45  1  0  0  0  0
 10 15  1  0  0  0  0
 10 11  2  0  0  0  0
 11 12  1  0  0  0  0
 12 13  2  0  0  0  0
 12 46  1  0  0  0  0
 13 14  1  0  0  0  0
 14 18  1  0  0  0  0
 14 15  2  0  0  0  0
 15 16  1  0  0  0  0
 16 17  2  0  0  0  0
 17 18  1  0  0  0  0
 17 47  1  0  0  0  0
 18 19  1  0  0  0  0
 19 31  1  0  0  0  0
 19 26  1  0  0  0  0
 19 20  1  0  0  0  0
 20 21  1  0  0  0  0
 21 32  1  0  0  0  0
 21 22  1  0  0  0  0
 21 24  1  0  0  0  0
 22 23  1  0  0  0  0
 22 48  1  0  0  0  0
 22 49  1  0  0  0  0
 23 50  1  0  0  0  0
 24 33  1  0  0  0  0
 24 25  1  0  0  0  0
 24 26  1  0  0  0  0
 25 51  1  0  0  0  0
 26 34  1  0  0  0  0
 26 27  1  0  0  0  0
 27 52  1  0  0  0  0
 28 29  1  0  0  0  0
 28 53  1  0  0  0  0
 29 30  2  0  0  0  0
 29 54  1  0  0  0  0
M  END
> <s_m_source_file>
AV-unprocessed.smi

> <i_m_source_file_index>
218

> <i_lp_mmshare_version>
43012

> <i_f3d_flags>
0

> <s_epik_input>
W0NIM11bQ0hdKFtDSDNdKU9jMVtjSF1jKFtjSF1bY0hdbjEpW0NIMl1bTkhdYyhuW2NIXW4yKWMoYzIzKW5bY0hdbjNbQ0BASF00T1tDQEhdKFtDSDJdW09IXSlbQ0BASF0oW09IXSlbQ0BIXTRbT0hd

> <s_epik_cmdline>
J2VwaWtfcHl0aG9uJywgJy1waCcsICc3LjAnLCAnLXRuJywgJzgnLCAnLW1hJywgJzIwMCcsICctbWV0YWxfYmluZGluZycsICctaW1hZScsICc8aW5maWxlLm1hZT4nLCAnLW9tYWUnLCAnPG91dGZpbGUubWFlPic=

> <r_lp_tautomer_probability>
1

> <r_epik_Ionization_Penalty>
0.00457014

> <r_epik_Ionization_Penalty_Charging>
0

> <r_epik_Ionization_Penalty_Neutral>
0.00457014

> <r_epik_State_Penalty>
-0

> <r_epik_Charging_Adjusted_Penalty>
0

> <i_epik_Tot_Q>
0

> <i_epik_Tot_abs_Q>
0

> <r_epik_Metal_State_Penalty>
-0

> <b_epik_Metal_Only>
0

> <s_epik_Chemistry_Notes>
This compound contains an acetal/aminal-like group ( X-CH(R)-Y where X, Y are N, S, or O) that may be acid/base labile, releasing an aldehyde.

> <s_lp_Force_Field>
OPLS_2005

> <r_lp_Energy>
43.0364

> <b_lp_Chiralities_Consistent>
1

> <s_lp_Variant>
AV-unprocessed.smi:218-14

> <Gold.Version>
5.8.1

> <Gold.Id.Protein>
6NUR|6NUR_protein|mol2

> <Gold.PLP.Fitness>
48.6405

> <Gold.PLP.PLP>
-40.1883

> <Gold.PLP.part.hbond>
-4.0000

> <Gold.PLP.part.metal>
0.0000

> <Gold.PLP.part.buried>
-7.8549

> <Gold.PLP.part.nonpolar>
-28.9582

> <Gold.PLP.part.repulsive>
0.2600

> <Gold.PLP.ligand.clash>
0.0000

> <Gold.PLP.ligand.torsion>
1.8288

> <Gold.PLP.Chemscore.Hbond>
3.9920

> <Gold.PLP.Chemscore.CHOScore>
0.0000

> <Gold.PLP.Chemscore.Metal>
0.0000

> <Gold.Chemscore.Hbonds>
donor molecule, donor type, donor heavy atom, donor atom, acceptor molecule, acceptor atom, score
      L1  H    23    50       P1  7921  0.75
      L1  H    25    51       P1 10747  1.00
      L1  H    27    52       P1 10747  0.99
      P1  H  7997  8010       L1    30  0.75

> <Gold.PLP.Chemscore.Internal.Correction>
0.1337

> <Gold.Rescore>
     Score         DG    S(hbond)    S(metal)    S(lipo)     H(rot)  DE(clash)    DE(int)     intcor
     10.49     -13.76       3.44        0.00      79.78       4.90       0.05       3.22       ----

> <Gold.Chemscore.Fitness>
10.4943

> <Gold.Chemscore.DG>
-13.7590

> <Gold.Chemscore.ZeroCoef>
-5.4800

> <Gold.Chemscore.Hbond>
3.4419

> <Gold.Chemscore.Metal>
0.0000

> <Gold.Chemscore.Lipo>
79.7834

> <Gold.Chemscore.Internal_Hbond>
0.0000

> <Gold.Chemscore.DEClash>
0.0456

> <Gold.Chemscore.DEInternal>
3.2190

> <Gold.Chemscore.Rot>
4.9029

> <Gold.Chemscore.Internal.Correction>
   9.000000E+99

> <Gold.Chemscore.Hbonds>
donor molecule, donor type, donor heavy atom, donor atom, acceptor molecule, acceptor atom, score
      L1  H    23    50       P1  7921  0.75
      L1  H    25    51       P1 10747  1.00
      L1  H    27    52       P1 10747  0.88
      P1  H  7997  8010       L1    30  0.08

> <Gold.Chemscore.Hbond.Weighted>
-11.4958

> <Gold.Chemscore.Metal.Weighted>
-0.0000

> <Gold.Chemscore.Lipo.Weighted>
-9.3347

> <Gold.Chemscore.Internal_Hbond.Weighted>
0.0000

> <Gold.Chemscore.DEClash.Weighted>
0.0456

> <Gold.Chemscore.DEInternal.Weighted>
3.2190

> <Gold.Chemscore.Rot.Weighted>
12.5515

> <Gold.Chemscore.Internal.Correction.Weighted>
   9.000000E+99

> <Gold.Protein.RotatedTorsions>
[ 6907 6896 6895 6894 ] final  170.06 input  -60.11 | X-H torsion
[ 7974 7965 7964 7962 ] final -115.57 input  175.53 | X-H torsion
[ 8008 7997 7996 7995 ] final    7.93 input   59.86 | X-H torsion
[ 10167 10162 10161 10158 ] final -178.61 input  -65.29 | X-H torsion
[ 10718 10713 10712 10709 ] final   25.58 input   66.30 | X-H torsion
[ 10763 10752 10751 10750 ] final   25.20 input  -60.55 | X-H torsion
[ 11005 11000 10999 10996 ] final -158.80 input  -57.11 | X-H torsion

> <Gold.Protein.ActiveResidues>
 VAL166  LYS551  ARG553  GLY616  TRP617  ASP618  TYR619  PRO620  LYS621  CYS622 
 ASP623  PHE694  ASN695  SER759  ASP760  ASP761  ALA762  ILE779  LEU786  VAL792 
 PHE793  MET794  SER795  GLU796  ALA797  LYS798  CYS799  TRP800  GLU811  SER814 

> <Gold.Protein.RotatedAtoms>
  151.8221  133.3396  159.3587 H   0  0  0  0  0  0  0  0  0  0  0  0  # atno 6907 bound_to 6896
  150.7291  134.5564  159.5829 H   0  0  0  0  0  0  0  0  0  0  0  0  # atno 6908 bound_to 6896
  152.2998  134.7625  160.0411 H   0  0  0  0  0  0  0  0  0  0  0  0  # atno 6909 bound_to 6896
  145.1069  140.8587  143.3893 H   0  0  0  0  0  0  0  0  0  0  0  0  # atno 7974 bound_to 7965
  154.7603  140.2783  155.6220 H   0  0  0  0  0  0  0  0  0  0  0  0  # atno 8008 bound_to 7997
  156.2914  140.2661  156.2306 H   0  0  0  0  0  0  0  0  0  0  0  0  # atno 8009 bound_to 7997
  155.0026  140.0372  157.2356 H   0  0  0  0  0  0  0  0  0  0  0  0  # atno 8010 bound_to 7997
  139.5424  144.2326  152.0922 H   0  0  0  0  0  0  0  0  0  0  0  0  # atno 10167 bound_to 10162
  157.1953  130.6865  149.6166 H   0  0  0  0  0  0  0  0  0  0  0  0  # atno 10718 bound_to 10713
  153.0709  135.6588  154.0251 H   0  0  0  0  0  0  0  0  0  0  0  0  # atno 10763 bound_to 10752
  153.9896  135.2947  155.3414 H   0  0  0  0  0  0  0  0  0  0  0  0  # atno 10764 bound_to 10752
  154.7082  135.5216  153.8697 H   0  0  0  0  0  0  0  0  0  0  0  0  # atno 10765 bound_to 10752
  140.6496  134.4464  157.5235 H   0  0  0  0  0  0  0  0  0  0  0  0  # atno 11005 bound_to 11000
  145.0892  139.2903  143.5744 LP  0  0  0  0  0  0  0  0  0  0  0  0  # atno 17320 bound_to 7965
  146.3528  140.0423  142.8642 LP  0  0  0  0  0  0  0  0  0  0  0  0  # atno 17321 bound_to 7965
  140.1807  144.4847  150.6530 LP  0  0  0  0  0  0  0  0  0  0  0  0  # atno 17342 bound_to 10162
  140.6660  143.2268  151.5742 LP  0  0  0  0  0  0  0  0  0  0  0  0  # atno 17343 bound_to 10162
  155.9707  130.4601  150.6060 LP  0  0  0  0  0  0  0  0  0  0  0  0  # atno 17370 bound_to 10713
  157.3821  131.0782  151.1468 LP  0  0  0  0  0  0  0  0  0  0  0  0  # atno 17371 bound_to 10713
  139.9050  134.8469  156.1741 LP  0  0  0  0  0  0  0  0  0  0  0  0  # atno 17394 bound_to 11000
  141.0546  133.6871  156.1836 LP  0  0  0  0  0  0  0  0  0  0  0  0  # atno 17395 bound_to 11000

$$$$
