#       Name:                AV-unprocessed.smi:1871
#       Creating user name   scv26
#       Creation time:       Fri Mar 27 09:31:49 2020


#       File generated by GOLD software.
#

@<TRIPOS>MOLECULE
AV-unprocessed.smi:1871
    47    49     1
SMALL
NO_CHARGES


@<TRIPOS>ATOM
      1 ****        -1.7778   1.6693  -3.5950 O.3            1 S1                 0.0000
      2 ****        -2.6796   1.4665  -2.5303 C.3            1 S1                 0.0000
      3 ****        -2.2052   2.0878  -1.2569 C.2            1 S1                 0.0000
      4 ****        -2.4092   3.3848  -0.8899 N.pl3          1 S1                 1.0000
      5 ****        -1.8224   3.6242   0.3530 C.ar           1 S1                 0.0000
      6 ****        -1.7652   4.7790   1.1272 C.ar           1 S1                 0.0000
      7 ****        -1.0813   4.6831   2.3570 C.ar           1 S1                 0.0000
      8 ****        -0.4872   3.4742   2.7744 C.ar           1 S1                 0.0000
      9 ****        -0.5514   2.3102   1.9803 C.ar           1 S1                 0.0000
     10 ****        -1.2298   2.4139   0.7660 C.ar           1 S1                 0.0000
     11 ****        -1.4875   1.4947  -0.2572 N.pl3          1 S1                 0.0000
     12 ****        -0.9777   0.1206  -0.1208 C.3            1 S1                 0.0000
     13 ****         0.5150  -0.0064  -0.4866 C.3            1 S1                 0.0000
     14 ****         0.7242   0.4434  -1.8109 O.3            1 S1                 0.0000
     15 ****         1.0144  -1.4263  -0.2729 C.ar           1 S1                 0.0000
     16 ****         0.7486  -2.4347  -1.2239 C.ar           1 S1                 0.0000
     17 ****         1.2074  -3.7489  -1.0116 C.ar           1 S1                 0.0000
     18 ****         1.9401  -4.0751   0.1472 C.ar           1 S1                 0.0000
     19 ****         2.3484  -5.3801   0.3049 O.3            1 S1                 0.0000
     20 ****         3.4908  -5.6410   0.9943 C.3            1 S1                 0.0000
     21 ****         3.2163  -5.8478   2.3057 F              1 S1                 0.0000
     22 ****         4.0675  -6.7693   0.5149 F              1 S1                 0.0000
     23 ****         2.1923  -3.0658   1.1070 C.ar           1 S1                 0.0000
     24 ****         1.7342  -1.7510   0.8955 C.ar           1 S1                 0.0000
     25 ****        -2.1164   1.2362  -4.3638 H              1 S1                 0.0000
     26 ****        -3.6444   1.8961  -2.8008 H              1 S1                 0.0000
     27 ****        -2.8387   0.3978  -2.3917 H              1 S1                 0.0000
     28 ****        -2.2186   5.7064   0.8090 H              1 S1                 0.0000
     29 ****        -1.0107   5.5539   2.9927 H              1 S1                 0.0000
     30 ****         0.0286   3.4387   3.7232 H              1 S1                 0.0000
     31 ****        -0.0916   1.3897   2.3081 H              1 S1                 0.0000
     32 ****        -1.1546  -0.2090   0.9038 H              1 S1                 0.0000
     33 ****        -1.5803  -0.5303  -0.7539 H              1 S1                 0.0000
     34 ****         1.0957   0.6556   0.1566 H              1 S1                 0.0000
     35 ****         1.6526   0.4343  -1.9875 H              1 S1                 0.0000
     36 ****         0.1882  -2.2052  -2.1184 H              1 S1                 0.0000
     37 ****         0.9963  -4.5128  -1.7456 H              1 S1                 0.0000
     38 ****         4.2139  -4.8307   0.8978 H              1 S1                 0.0000
     39 ****         2.7308  -3.2885   2.0159 H              1 S1                 0.0000
     40 ****         1.9346  -0.9933   1.6388 H              1 S1                 0.0000
     41 ****        -2.9101   4.0569  -1.4565 H              1 S1                 0.0000
     42 ****        -0.8851   1.2859  -3.3580 LP             1 S1                 0.0000
     43 ****        -1.6830   2.6485  -3.7743 LP             1 S1                 0.0000
     44 ****         0.3709   1.3735  -1.9110 LP             1 S1                 0.0000
     45 ****         0.2530  -0.1629  -2.4515 LP             1 S1                 0.0000
     46 ****         2.4673  -5.7614  -0.6118 LP             1 S1                 0.0000
     47 ****         1.6083  -5.8628   0.7732 LP             1 S1                 0.0000
@<TRIPOS>BOND
    1    1    2 1     
    2    1   25 1     
    3    2    3 1     
    4    2   26 1     
    5    2   27 1     
    6    3   11 1     
    7    3    4 2     
    8    4    5 1     
    9    4   41 1     
   10    5   10 ar    
   11    5    6 ar    
   12    6    7 ar    
   13    6   28 1     
   14    7    8 ar    
   15    7   29 1     
   16    8    9 ar    
   17    8   30 1     
   18    9   10 ar    
   19    9   31 1     
   20   10   11 1     
   21   11   12 1     
   22   12   13 1     
   23   12   32 1     
   24   12   33 1     
   25   13   14 1     
   26   13   15 1     
   27   13   34 1     
   28   14   35 1     
   29   15   24 ar    
   30   15   16 ar    
   31   16   17 ar    
   32   16   36 1     
   33   17   18 ar    
   34   17   37 1     
   35   18   19 1     
   36   18   23 ar    
   37   19   20 1     
   38   20   21 1     
   39   20   22 1     
   40   20   38 1     
   41   23   24 ar    
   42   23   39 1     
   43   24   40 1     
   44    1   42 1     
   45    1   43 1     
   46   14   44 1     
   47   14   45 1     
   48   19   46 1     
   49   19   47 1     
@<TRIPOS>SUBSTRUCTURE
      1 S1             1
@<TRIPOS>SET
LONE_PAIRS      STATIC     ATOMS    <user>   **** ""
6 42 43 44 45 46 47
DONOR_HYDROGENS      STATIC     ATOMS    <user>   **** ""
3 25 41 35
ATOM$BLUE        STATIC     ATOMS    COLORGROUP SYSTEM
6 42 43 44 45 46 47
ATOM$RED        STATIC     ATOMS    COLORGROUP SYSTEM
3 25 41 35
