AV-unprocessed.smi:2119|AV-procd|sdf|8631|dock1
  -GOLD-   2272011373D 1   1.00000     0.00000
 Structure written by MMmdl.
 47 49  0  0  0  0  0  0  0  0  1 V2000
  144.8067  137.2673  152.3287 O   0  0  0  0  0  0  0  0  0  0  0  0
  145.9976  136.9806  152.2110 C   0  0  0  0  0  0  0  0  0  0  0  0
  146.9889  137.8554  152.4230 N   0  0  0  0  0  0  0  0  0  0  0  0
  146.7940  139.2429  152.8272 C   0  0  0  0  0  0  0  0  0  0  0  0
  147.4860  139.5483  154.1821 C   0  0  1  0  0  0  0  0  0  0  0  0
  149.0201  139.7906  154.0219 C   0  0  2  0  0  0  0  0  0  0  0  0
  149.9287  138.5585  154.0802 C   0  0  0  0  0  0  0  0  0  0  0  0
  151.0234  138.9551  155.0704 C   0  0  0  0  0  0  0  0  0  0  0  0
  151.0376  140.3725  155.0240 O   0  0  0  0  0  0  0  0  0  0  0  0
  149.6850  140.7966  154.9756 C   0  0  0  0  0  0  0  0  0  0  0  0
  146.7784  140.5260  155.0339 N   0  0  0  0  0  0  0  0  0  0  0  0
  145.4489  140.0806  155.4467 C   0  0  0  0  0  0  0  0  0  0  0  0
  144.8071  141.0541  156.4482 C   0  0  0  0  0  0  0  0  0  0  0  0
  144.7440  142.3520  155.8676 O   0  0  0  0  0  0  0  0  0  0  0  0
  146.0262  142.8497  155.5008 C   0  0  0  0  0  0  0  0  0  0  0  0
  146.7028  141.8876  154.5078 C   0  0  0  0  0  0  0  0  0  0  0  0
  146.4814  135.7808  151.8459 N   0  0  0  0  0  0  0  0  0  0  0  0
  145.7748  134.5819  151.5542 C   0  0  0  0  0  0  0  0  0  0  0  0
  146.3765  133.3848  151.0942 C   0  0  0  0  0  0  0  0  0  0  0  0
  145.5569  132.2713  150.8263 C   0  0  0  0  0  0  0  0  0  0  0  0
  144.1678  132.3955  151.0199 C   0  0  0  0  0  0  0  0  0  0  0  0
  143.5793  133.5324  151.4468 N   0  0  0  0  0  0  0  0  0  0  0  0
  144.3713  134.5955  151.7023 C   0  0  0  0  0  0  0  0  0  0  0  0
  147.9408  137.5431  152.2988 H   0  0  0  0  0  0  0  0  0  0  0  0
  147.1728  139.9047  152.0471 H   0  0  0  0  0  0  0  0  0  0  0  0
  145.7196  139.4129  152.8870 H   0  0  0  0  0  0  0  0  0  0  0  0
  147.4393  138.6107  154.7384 H   0  0  0  0  0  0  0  0  0  0  0  0
  149.1633  140.2076  153.0237 H   0  0  0  0  0  0  0  0  0  0  0  0
  149.4339  137.6382  154.3892 H   0  0  0  0  0  0  0  0  0  0  0  0
  150.3607  138.3739  153.0957 H   0  0  0  0  0  0  0  0  0  0  0  0
  150.7668  138.6302  156.0798 H   0  0  0  0  0  0  0  0  0  0  0  0
  151.9957  138.5340  154.8139 H   0  0  0  0  0  0  0  0  0  0  0  0
  149.6132  141.8220  154.6122 H   0  0  0  0  0  0  0  0  0  0  0  0
  149.2642  140.7772  155.9788 H   0  0  0  0  0  0  0  0  0  0  0  0
  144.7911  139.9952  154.5820 H   0  0  0  0  0  0  0  0  0  0  0  0
  145.5104  139.0894  155.8969 H   0  0  0  0  0  0  0  0  0  0  0  0
  143.7987  140.7271  156.7020 H   0  0  0  0  0  0  0  0  0  0  0  0
  145.3784  141.0875  157.3770 H   0  0  0  0  0  0  0  0  0  0  0  0
  145.9110  143.8366  155.0523 H   0  0  0  0  0  0  0  0  0  0  0  0
  146.6414  142.9748  156.3932 H   0  0  0  0  0  0  0  0  0  0  0  0
  147.6992  142.2726  154.3076 H   0  0  0  0  0  0  0  0  0  0  0  0
  146.1546  141.8973  153.5651 H   0  0  0  0  0  0  0  0  0  0  0  0
  147.4828  135.7271  151.7283 H   0  0  0  0  0  0  0  0  0  0  0  0
  147.4384  133.2970  150.9281 H   0  0  0  0  0  0  0  0  0  0  0  0
  145.9837  131.3436  150.4750 H   0  0  0  0  0  0  0  0  0  0  0  0
  143.5115  131.5609  150.8219 H   0  0  0  0  0  0  0  0  0  0  0  0
  143.8652  135.4885  152.0392 H   0  0  0  0  0  0  0  0  0  0  0  0
  1  2  2  0  0  0  0
  2  3  1  0  0  0  0
  2 17  1  0  0  0  0
  3  4  1  0  0  0  0
  3 24  1  0  0  0  0
  4  5  1  0  0  0  0
  4 25  1  0  0  0  0
  4 26  1  0  0  0  0
  5  6  1  0  0  0  0
  5 11  1  0  0  0  0
  5 27  1  0  0  0  0
  6 10  1  0  0  0  0
  6  7  1  0  0  0  0
  6 28  1  0  0  0  0
  7  8  1  0  0  0  0
  7 29  1  0  0  0  0
  7 30  1  0  0  0  0
  8  9  1  0  0  0  0
  8 31  1  0  0  0  0
  8 32  1  0  0  0  0
  9 10  1  0  0  0  0
 10 33  1  0  0  0  0
 10 34  1  0  0  0  0
 11 16  1  0  0  0  0
 11 12  1  0  0  0  0
 12 13  1  0  0  0  0
 12 35  1  0  0  0  0
 12 36  1  0  0  0  0
 13 14  1  0  0  0  0
 13 37  1  0  0  0  0
 13 38  1  0  0  0  0
 14 15  1  0  0  0  0
 15 16  1  0  0  0  0
 15 39  1  0  0  0  0
 15 40  1  0  0  0  0
 16 41  1  0  0  0  0
 16 42  1  0  0  0  0
 17 18  1  0  0  0  0
 17 43  1  0  0  0  0
 18 23  1  0  0  0  0
 18 19  2  0  0  0  0
 19 20  1  0  0  0  0
 19 44  1  0  0  0  0
 20 21  2  0  0  0  0
 20 45  1  0  0  0  0
 21 22  1  0  0  0  0
 21 46  1  0  0  0  0
 22 23  2  0  0  0  0
 23 47  1  0  0  0  0
M  END
> <s_m_source_file>
AV-unprocessed.smi

> <i_m_source_file_index>
2119

> <i_lp_mmshare_version>
43012

> <i_f3d_flags>
0

> <s_epik_input>
W2NIXTFuW2NIXVtjSF1bY0hdYzFbTkhdQyg9TylbTkhdW0NIMl1bQ0BIXShbQ0BASF0yW0NIMl1bQ0gyXU9bQ0gyXTIpTjNbQ0gyXVtDSDJdT1tDSDJdW0NIMl0z

> <s_epik_cmdline>
J2VwaWtfcHl0aG9uJywgJy1waCcsICc3LjAnLCAnLXRuJywgJzgnLCAnLW1hJywgJzIwMCcsICctbWV0YWxfYmluZGluZycsICctaW1hZScsICc8aW5maWxlLm1hZT4nLCAnLW9tYWUnLCAnPG91dGZpbGUubWFlPic=

> <r_epik_Ionization_Penalty>
0.129787

> <r_epik_Ionization_Penalty_Charging>
0

> <r_epik_Ionization_Penalty_Neutral>
0.129787

> <r_epik_State_Penalty>
0.121311

> <r_epik_Charging_Adjusted_Penalty>
0.121311

> <i_epik_Tot_Q>
0

> <i_epik_Tot_abs_Q>
0

> <r_epik_Metal_State_Penalty>
0.117931

> <b_epik_Metal_Only>
0

> <s_lp_Force_Field>
OPLS_2005

> <r_lp_Energy>
56.2921

> <b_lp_Chiralities_Consistent>
1

> <s_lp_Variant>
AV-unprocessed.smi:2119-2

> <Gold.Version>
5.8.1

> <Gold.Id.Protein>
6NUR|6NUR_protein|mol2

> <Gold.PLP.Fitness>
41.9761

> <Gold.PLP.PLP>
-35.6096

> <Gold.PLP.part.hbond>
-2.9218

> <Gold.PLP.part.metal>
0.0000

> <Gold.PLP.part.buried>
-4.5189

> <Gold.PLP.part.nonpolar>
-30.5325

> <Gold.PLP.part.repulsive>
1.8768

> <Gold.PLP.ligand.clash>
0.0000

> <Gold.PLP.ligand.torsion>
1.4177

> <Gold.PLP.Chemscore.Hbond>
2.9440

> <Gold.PLP.Chemscore.CHOScore>
0.0000

> <Gold.PLP.Chemscore.Metal>
0.0000

> <Gold.Chemscore.Hbonds>
donor molecule, donor type, donor heavy atom, donor atom, acceptor molecule, acceptor atom, score
      L1  H     3    24       P1  7948  0.93
      L1  H    17    43       P1  7948  0.98
      P1  H  7989  7998       L1     9  1.00

> <Gold.PLP.Chemscore.Internal.Correction>
0.3700

> <Gold.Rescore>
     Score         DG    S(hbond)    S(metal)    S(lipo)     H(rot)  DE(clash)    DE(int)     intcor
     15.86     -19.61       2.57        0.00      83.44       1.65       0.95       2.80       ----

> <Gold.Chemscore.Fitness>
15.8639

> <Gold.Chemscore.DG>
-19.6121

> <Gold.Chemscore.ZeroCoef>
-5.4800

> <Gold.Chemscore.Hbond>
2.5734

> <Gold.Chemscore.Metal>
0.0000

> <Gold.Chemscore.Lipo>
83.4444

> <Gold.Chemscore.Internal_Hbond>
0.0000

> <Gold.Chemscore.DEClash>
0.9520

> <Gold.Chemscore.DEInternal>
2.7961

> <Gold.Chemscore.Rot>
1.6508

> <Gold.Chemscore.Internal.Correction>
   9.000000E+99

> <Gold.Chemscore.Hbonds>
donor molecule, donor type, donor heavy atom, donor atom, acceptor molecule, acceptor atom, score
      L1  H     3    24       P1  7948  0.90
      L1  H    17    43       P1  7948  0.91
      P1  H  7989  7998       L1     9  0.24

> <Gold.Chemscore.Hbond.Weighted>
-8.5952

> <Gold.Chemscore.Metal.Weighted>
-0.0000

> <Gold.Chemscore.Lipo.Weighted>
-9.7630

> <Gold.Chemscore.Internal_Hbond.Weighted>
0.0000

> <Gold.Chemscore.DEClash.Weighted>
0.9520

> <Gold.Chemscore.DEInternal.Weighted>
2.7961

> <Gold.Chemscore.Rot.Weighted>
4.2262

> <Gold.Chemscore.Internal.Correction.Weighted>
   9.000000E+99

> <Gold.Protein.RotatedTorsions>
[ 6907 6896 6895 6894 ] final  129.51 input  -60.11 | X-H torsion
[ 7974 7965 7964 7962 ] final  -57.34 input  175.53 | X-H torsion
[ 8008 7997 7996 7995 ] final -103.21 input   59.86 | X-H torsion
[ 10167 10162 10161 10158 ] final  153.15 input  -65.29 | X-H torsion
[ 10718 10713 10712 10709 ] final  175.58 input   66.30 | X-H torsion
[ 10763 10752 10751 10750 ] final -102.96 input  -60.55 | X-H torsion
[ 11005 11000 10999 10996 ] final -139.53 input  -57.11 | X-H torsion

> <Gold.Protein.ActiveResidues>
 VAL166  LYS551  ARG553  GLY616  TRP617  ASP618  TYR619  PRO620  LYS621  CYS622 
 ASP623  PHE694  ASN695  SER759  ASP760  ASP761  ALA762  ILE779  LEU786  VAL792 
 PHE793  MET794  SER795  GLU796  ALA797  LYS798  CYS799  TRP800  GLU811  SER814 

> <Gold.Protein.RotatedAtoms>
  152.3617  133.6305  159.6019 H   0  0  0  0  0  0  0  0  0  0  0  0  # atno 6907 bound_to 6896
  150.7605  133.9414  159.3466 H   0  0  0  0  0  0  0  0  0  0  0  0  # atno 6908 bound_to 6896
  151.7251  135.0887  160.0342 H   0  0  0  0  0  0  0  0  0  0  0  0  # atno 6909 bound_to 6896
  145.8522  140.8344  142.9979 H   0  0  0  0  0  0  0  0  0  0  0  0  # atno 7974 bound_to 7965
  154.8677  140.0424  157.1705 H   0  0  0  0  0  0  0  0  0  0  0  0  # atno 8008 bound_to 7997
  154.8772  140.2967  155.5425 H   0  0  0  0  0  0  0  0  0  0  0  0  # atno 8009 bound_to 7997
  156.2999  140.2418  156.3770 H   0  0  0  0  0  0  0  0  0  0  0  0  # atno 8010 bound_to 7997
  139.4828  144.5297  151.7742 H   0  0  0  0  0  0  0  0  0  0  0  0  # atno 10167 bound_to 10162
  156.9328  130.9976  151.2984 H   0  0  0  0  0  0  0  0  0  0  0  0  # atno 10718 bound_to 10713
  154.7772  135.4841  153.9769 H   0  0  0  0  0  0  0  0  0  0  0  0  # atno 10763 bound_to 10752
  153.1445  135.6779  153.8983 H   0  0  0  0  0  0  0  0  0  0  0  0  # atno 10764 bound_to 10752
  153.8647  135.3151  155.3418 H   0  0  0  0  0  0  0  0  0  0  0  0  # atno 10765 bound_to 10752
  140.8511  134.2285  157.4760 H   0  0  0  0  0  0  0  0  0  0  0  0  # atno 11005 bound_to 11000
  144.6729  140.0971  143.7462 LP  0  0  0  0  0  0  0  0  0  0  0  0  # atno 17320 bound_to 7965
  145.9344  139.2627  143.1306 LP  0  0  0  0  0  0  0  0  0  0  0  0  # atno 17321 bound_to 7965
  140.4822  144.1433  150.5934 LP  0  0  0  0  0  0  0  0  0  0  0  0  # atno 17342 bound_to 10162
  140.4265  143.2587  151.9650 LP  0  0  0  0  0  0  0  0  0  0  0  0  # atno 17343 bound_to 10162
  157.5835  130.8393  149.8557 LP  0  0  0  0  0  0  0  0  0  0  0  0  # atno 17370 bound_to 10713
  156.0439  130.3732  150.1366 LP  0  0  0  0  0  0  0  0  0  0  0  0  # atno 17371 bound_to 10713
  139.8704  134.9683  156.4628 LP  0  0  0  0  0  0  0  0  0  0  0  0  # atno 17394 bound_to 11000
  140.8789  133.7932  155.9445 LP  0  0  0  0  0  0  0  0  0  0  0  0  # atno 17395 bound_to 11000

$$$$
