AV-unprocessed.smi:1971|AV-procd|sdf|7966|dock8
  -GOLD-   2272010143D 1   1.00000     0.00000
 Structure written by MMmdl.
 43 44  0  0  0  0  0  0  0  0  1 V2000
  152.0232  140.0330  157.5630 C   0  0  0  0  0  0  0  0  0  0  0  0
  152.4661  139.8264  156.1075 C   0  0  0  0  0  0  0  0  0  0  0  0
  151.3774  139.7907  155.1330 N   0  0  0  0  0  0  0  0  0  0  0  0
  150.4967  140.9455  155.2895 C   0  0  0  0  0  0  0  0  0  0  0  0
  149.3566  140.9361  154.2549 C   0  0  0  0  0  0  0  0  0  0  0  0
  148.5260  139.7278  154.3538 N   0  0  0  0  0  0  0  0  0  0  0  0
  147.4261  139.7157  153.3648 C   0  0  2  0  0  0  0  0  0  0  0  0
  146.6591  141.0549  153.2805 C   0  0  0  0  0  0  0  0  0  0  0  0
  146.3985  138.5730  153.5758 C   0  0  0  0  0  0  0  0  0  0  0  0
  146.7257  137.3772  152.8011 N   0  0  0  0  0  0  0  0  0  0  0  0
  145.8675  136.4037  152.4654 C   0  0  0  0  0  0  0  0  0  0  0  0
  144.6762  136.4093  152.7754 O   0  0  0  0  0  0  0  0  0  0  0  0
  146.4802  135.4392  151.7600 N   0  0  0  0  0  0  0  0  0  0  0  0
  145.9047  134.2647  151.2145 C   0  0  0  0  0  0  0  0  0  0  0  0
  146.7085  133.3274  150.7085 N   0  0  0  0  0  0  0  0  0  0  0  0
  145.9924  132.2361  150.2078 C   0  0  0  0  0  0  0  0  0  0  0  0
  144.6318  132.3600  150.3418 C   0  0  0  0  0  0  0  0  0  0  0  0
  144.1890  133.8616  151.1084 S   0  0  0  0  0  0  0  0  0  0  0  0
  149.4188  138.5686  154.2162 C   0  0  0  0  0  0  0  0  0  0  0  0
  150.5595  138.5836  155.2501 C   0  0  0  0  0  0  0  0  0  0  0  0
  152.8732  139.9376  158.2388 H   0  0  0  0  0  0  0  0  0  0  0  0
  151.2820  139.2897  157.8578 H   0  0  0  0  0  0  0  0  0  0  0  0
  151.5932  141.0214  157.7229 H   0  0  0  0  0  0  0  0  0  0  0  0
  153.1865  140.5984  155.8328 H   0  0  0  0  0  0  0  0  0  0  0  0
  153.0085  138.8810  156.0630 H   0  0  0  0  0  0  0  0  0  0  0  0
  150.0769  140.9636  156.2967 H   0  0  0  0  0  0  0  0  0  0  0  0
  151.0719  141.8651  155.1760 H   0  0  0  0  0  0  0  0  0  0  0  0
  148.7548  141.8270  154.4272 H   0  0  0  0  0  0  0  0  0  0  0  0
  149.7710  141.0248  153.2493 H   0  0  0  0  0  0  0  0  0  0  0  0
  147.8651  139.5520  152.3795 H   0  0  0  0  0  0  0  0  0  0  0  0
  145.7832  140.9690  152.6370 H   0  0  0  0  0  0  0  0  0  0  0  0
  147.2701  141.8509  152.8563 H   0  0  0  0  0  0  0  0  0  0  0  0
  146.3149  141.3819  154.2622 H   0  0  0  0  0  0  0  0  0  0  0  0
  146.3170  138.3364  154.6380 H   0  0  0  0  0  0  0  0  0  0  0  0
  145.3963  138.8947  153.2959 H   0  0  0  0  0  0  0  0  0  0  0  0
  147.6879  137.2802  152.5112 H   0  0  0  0  0  0  0  0  0  0  0  0
  147.4666  135.5622  151.5852 H   0  0  0  0  0  0  0  0  0  0  0  0
  146.5336  131.4101  149.7701 H   0  0  0  0  0  0  0  0  0  0  0  0
  143.8663  131.6619  150.0373 H   0  0  0  0  0  0  0  0  0  0  0  0
  148.8658  137.6420  154.3597 H   0  0  0  0  0  0  0  0  0  0  0  0
  149.8355  138.5342  153.2082 H   0  0  0  0  0  0  0  0  0  0  0  0
  151.1735  137.6968  155.0983 H   0  0  0  0  0  0  0  0  0  0  0  0
  150.1436  138.5077  156.2562 H   0  0  0  0  0  0  0  0  0  0  0  0
  1  2  1  0  0  0  0
  1 21  1  0  0  0  0
  1 22  1  0  0  0  0
  1 23  1  0  0  0  0
  2  3  1  0  0  0  0
  2 24  1  0  0  0  0
  2 25  1  0  0  0  0
  3 20  1  0  0  0  0
  3  4  1  0  0  0  0
  4  5  1  0  0  0  0
  4 26  1  0  0  0  0
  4 27  1  0  0  0  0
  5  6  1  0  0  0  0
  5 28  1  0  0  0  0
  5 29  1  0  0  0  0
  6  7  1  0  0  0  0
  6 19  1  0  0  0  0
  7  8  1  0  0  0  0
  7  9  1  0  0  0  0
  7 30  1  0  0  0  0
  8 31  1  0  0  0  0
  8 32  1  0  0  0  0
  8 33  1  0  0  0  0
  9 10  1  0  0  0  0
  9 34  1  0  0  0  0
  9 35  1  0  0  0  0
 10 11  1  0  0  0  0
 10 36  1  0  0  0  0
 11 12  2  0  0  0  0
 11 13  1  0  0  0  0
 13 14  1  0  0  0  0
 13 37  1  0  0  0  0
 14 18  1  0  0  0  0
 14 15  2  0  0  0  0
 15 16  1  0  0  0  0
 16 17  2  0  0  0  0
 16 38  1  0  0  0  0
 17 18  1  0  0  0  0
 17 39  1  0  0  0  0
 19 20  1  0  0  0  0
 19 40  1  0  0  0  0
 19 41  1  0  0  0  0
 20 42  1  0  0  0  0
 20 43  1  0  0  0  0
M  END
> <s_m_source_file>
AV-unprocessed.smi

> <i_m_source_file_index>
1971

> <i_lp_mmshare_version>
43012

> <i_f3d_flags>
0

> <s_epik_input>
W0NIM11bQ0gyXU4xW0NIMl1bQ0gyXU4oW0NIMl1bQ0gyXTEpW0NASF0oW0NIM10pW0NIMl1bTkhdQyg9TylbTkhdYzJuW2NIXVtjSF1zMg==

> <s_epik_cmdline>
J2VwaWtfcHl0aG9uJywgJy1waCcsICc3LjAnLCAnLXRuJywgJzgnLCAnLW1hJywgJzIwMCcsICctbWV0YWxfYmluZGluZycsICctaW1hZScsICc8aW5maWxlLm1hZT4nLCAnLW9tYWUnLCAnPG91dGZpbGUubWFlPic=

> <r_lp_tautomer_probability>
0.999

> <r_epik_Ionization_Penalty>
2.43994

> <r_epik_Ionization_Penalty_Charging>
0

> <r_epik_Ionization_Penalty_Neutral>
2.43994

> <r_epik_State_Penalty>
1.7682

> <r_epik_Charging_Adjusted_Penalty>
1.7682

> <i_epik_Tot_Q>
0

> <i_epik_Tot_abs_Q>
0

> <r_epik_Metal_State_Penalty>
1.80147

> <b_epik_Metal_Only>
0

> <s_lp_Force_Field>
OPLS_2005

> <r_lp_Energy>
42.0055

> <b_lp_Chiralities_Consistent>
1

> <s_lp_Variant>
AV-unprocessed.smi:1971-5

> <Gold.Version>
5.8.1

> <Gold.Id.Protein>
6NUR|6NUR_protein|mol2

> <Gold.PLP.Fitness>
38.1277

> <Gold.PLP.PLP>
-31.0347

> <Gold.PLP.part.hbond>
-2.0000

> <Gold.PLP.part.metal>
0.0000

> <Gold.PLP.part.buried>
-2.1798

> <Gold.PLP.part.nonpolar>
-26.9600

> <Gold.PLP.part.repulsive>
0.6327

> <Gold.PLP.ligand.clash>
0.0000

> <Gold.PLP.ligand.torsion>
0.8304

> <Gold.PLP.Chemscore.Hbond>
1.9760

> <Gold.PLP.Chemscore.CHOScore>
0.9252

> <Gold.PLP.Chemscore.Metal>
0.0000

> <Gold.Chemscore.Hbonds>
donor molecule, donor type, donor heavy atom, donor atom, acceptor molecule, acceptor atom, score
      L1  H    10    36       P1  7948  0.96
      L1  H    13    37       P1  7948  1.00
      L1  C    16    38       P1 10747  0.89

> <Gold.PLP.Chemscore.Internal.Correction>
0.0502

> <Gold.Rescore>
     Score         DG    S(hbond)    S(metal)    S(lipo)     H(rot)  DE(clash)    DE(int)     intcor
     16.03     -16.95       1.94        0.00      80.80       1.75       0.09       0.83       ----

> <Gold.Chemscore.Fitness>
16.0280

> <Gold.Chemscore.DG>
-16.9470

> <Gold.Chemscore.ZeroCoef>
-5.4800

> <Gold.Chemscore.Hbond>
1.9421

> <Gold.Chemscore.Metal>
0.0000

> <Gold.Chemscore.Lipo>
80.7982

> <Gold.Chemscore.Internal_Hbond>
0.0000

> <Gold.Chemscore.DEClash>
0.0920

> <Gold.Chemscore.DEInternal>
0.8270

> <Gold.Chemscore.Rot>
1.7473

> <Gold.Chemscore.Internal.Correction>
   9.000000E+99

> <Gold.Chemscore.Hbonds>
donor molecule, donor type, donor heavy atom, donor atom, acceptor molecule, acceptor atom, score
      L1  H    10    36       P1  7948  0.92
      L1  H    13    37       P1  7948  0.95

> <Gold.Chemscore.Hbond.Weighted>
-6.4867

> <Gold.Chemscore.Metal.Weighted>
-0.0000

> <Gold.Chemscore.Lipo.Weighted>
-9.4534

> <Gold.Chemscore.Internal_Hbond.Weighted>
0.0000

> <Gold.Chemscore.DEClash.Weighted>
0.0920

> <Gold.Chemscore.DEInternal.Weighted>
0.8270

> <Gold.Chemscore.Rot.Weighted>
4.4731

> <Gold.Chemscore.Internal.Correction.Weighted>
   9.000000E+99

> <Gold.Protein.RotatedTorsions>
[ 6907 6896 6895 6894 ] final  167.18 input  -60.11 | X-H torsion
[ 7974 7965 7964 7962 ] final   33.47 input  175.53 | X-H torsion
[ 8008 7997 7996 7995 ] final  139.70 input   59.86 | X-H torsion
[ 10167 10162 10161 10158 ] final  123.20 input  -65.29 | X-H torsion
[ 10718 10713 10712 10709 ] final   86.66 input   66.30 | X-H torsion
[ 10763 10752 10751 10750 ] final  -89.56 input  -60.55 | X-H torsion
[ 11005 11000 10999 10996 ] final   34.80 input  -57.11 | X-H torsion

> <Gold.Protein.ActiveResidues>
 VAL166  LYS551  ARG553  GLY616  TRP617  ASP618  TYR619  PRO620  LYS621  CYS622 
 ASP623  PHE694  ASN695  SER759  ASP760  ASP761  ALA762  ILE779  LEU786  VAL792 
 PHE793  MET794  SER795  GLU796  ALA797  LYS798  CYS799  TRP800  GLU811  SER814 

> <Gold.Protein.RotatedAtoms>
  151.8673  133.3469  159.3723 H   0  0  0  0  0  0  0  0  0  0  0  0  # atno 6907 bound_to 6896
  150.7162  134.5147  159.5634 H   0  0  0  0  0  0  0  0  0  0  0  0  # atno 6908 bound_to 6896
  152.2673  134.7971  160.0471 H   0  0  0  0  0  0  0  0  0  0  0  0  # atno 6909 bound_to 6896
  146.1418  139.6393  142.9157 H   0  0  0  0  0  0  0  0  0  0  0  0  # atno 7974 bound_to 7965
  156.2987  140.2360  156.4281 H   0  0  0  0  0  0  0  0  0  0  0  0  # atno 8008 bound_to 7997
  154.8295  140.0433  157.1487 H   0  0  0  0  0  0  0  0  0  0  0  0  # atno 8009 bound_to 7997
  154.9224  140.3005  155.5213 H   0  0  0  0  0  0  0  0  0  0  0  0  # atno 8010 bound_to 7997
  139.5813  144.6987  151.3521 H   0  0  0  0  0  0  0  0  0  0  0  0  # atno 10167 bound_to 10162
  157.6931  131.0224  150.3007 H   0  0  0  0  0  0  0  0  0  0  0  0  # atno 10718 bound_to 10713
  154.6566  135.5336  153.7966 H   0  0  0  0  0  0  0  0  0  0  0  0  # atno 10763 bound_to 10752
  153.0417  135.6495  154.0936 H   0  0  0  0  0  0  0  0  0  0  0  0  # atno 10764 bound_to 10752
  154.0849  135.2944  155.3263 H   0  0  0  0  0  0  0  0  0  0  0  0  # atno 10765 bound_to 10752
  140.2491  134.3324  155.7897 H   0  0  0  0  0  0  0  0  0  0  0  0  # atno 11005 bound_to 11000
  145.5028  141.0437  143.2531 LP  0  0  0  0  0  0  0  0  0  0  0  0  # atno 17320 bound_to 7965
  144.7801  139.6544  143.7158 LP  0  0  0  0  0  0  0  0  0  0  0  0  # atno 17321 bound_to 7965
  140.7091  143.7437  150.7534 LP  0  0  0  0  0  0  0  0  0  0  0  0  # atno 17342 bound_to 10162
  140.0971  143.4823  152.2446 LP  0  0  0  0  0  0  0  0  0  0  0  0  # atno 17343 bound_to 10162
  156.3523  130.3833  149.7319 LP  0  0  0  0  0  0  0  0  0  0  0  0  # atno 17370 bound_to 10713
  156.4792  130.8033  151.3048 LP  0  0  0  0  0  0  0  0  0  0  0  0  # atno 17371 bound_to 10713
  141.2203  133.7343  156.9008 LP  0  0  0  0  0  0  0  0  0  0  0  0  # atno 17394 bound_to 11000
  140.1576  134.9188  157.2673 LP  0  0  0  0  0  0  0  0  0  0  0  0  # atno 17395 bound_to 11000

$$$$
