AV-unprocessed.smi:1830|AV-procd|sdf|7441|dock4
  -GOLD-   22720 9133D 1   1.00000     0.00000
 Structure written by MMmdl.
 52 55  0  0  0  0  0  0  0  0  1 V2000
  150.4561  134.9085  155.9225 O   0  0  0  0  0  0  0  0  0  0  0  0
  150.0733  135.2898  154.8163 C   0  0  0  0  0  0  0  0  0  0  0  0
  150.1353  136.5651  154.4110 N   0  0  0  0  0  0  0  0  0  0  0  0
  150.6467  137.6734  155.2091 C   0  0  0  0  0  0  0  0  0  0  0  0
  150.5643  139.0132  154.4461 C   0  0  1  0  0  0  0  0  0  0  0  0
  149.2733  139.8029  154.7660 C   0  0  0  0  0  0  0  0  0  0  0  0
  149.3550  140.4041  156.0839 N   0  0  0  0  0  0  0  0  0  0  0  0
  148.2538  141.2492  156.4830 C   0  0  0  0  0  0  0  0  0  0  0  0
  148.7976  142.0384  157.6861 C   0  0  0  0  0  0  0  0  0  0  0  0
  150.3331  141.9510  157.5413 C   0  0  0  0  0  0  0  0  0  0  0  0
  150.5088  141.2553  156.1899 C   0  0  1  0  0  0  0  0  0  0  0  0
  151.7985  140.4536  155.9700 C   0  0  0  0  0  0  0  0  0  0  0  0
  151.7256  139.8255  154.6859 O   0  0  0  0  0  0  0  0  0  0  0  0
  149.5242  134.5085  153.8717 N   0  0  0  0  0  0  0  0  0  0  0  0
  149.2879  133.1046  153.9103 C   0  0  0  0  0  0  0  0  0  0  0  0
  150.1161  132.2141  154.6364 C   0  0  0  0  0  0  0  0  0  0  0  0
  149.8292  130.8377  154.6162 C   0  0  0  0  0  0  0  0  0  0  0  0
  148.7280  130.3970  153.8622 C   0  0  0  0  0  0  0  0  0  0  0  0
  147.9403  131.2292  153.1519 N   0  0  0  0  0  0  0  0  0  0  0  0
  148.2053  132.5586  153.1686 C   0  0  0  0  0  0  0  0  0  0  0  0
  147.3826  133.3992  152.3898 N   0  0  0  0  0  0  0  0  0  0  0  0
  146.5525  132.6790  151.4283 C   0  0  0  0  0  0  0  0  0  0  0  0
  145.2242  133.4339  151.3535 C   0  0  0  0  0  0  0  0  0  0  0  0
  145.1150  134.0709  152.7331 C   0  0  0  0  0  0  0  0  0  0  0  0
  146.5684  134.4172  153.0525 C   0  0  0  0  0  0  0  0  0  0  0  0
  149.7900  136.7906  153.4896 H   0  0  0  0  0  0  0  0  0  0  0  0
  150.0916  137.7404  156.1464 H   0  0  0  0  0  0  0  0  0  0  0  0
  151.6758  137.4466  155.4869 H   0  0  0  0  0  0  0  0  0  0  0  0
  150.5552  138.7877  153.3791 H   0  0  0  0  0  0  0  0  0  0  0  0
  149.1354  140.5835  154.0165 H   0  0  0  0  0  0  0  0  0  0  0  0
  148.4013  139.1512  154.7016 H   0  0  0  0  0  0  0  0  0  0  0  0
  147.9947  141.9363  155.6757 H   0  0  0  0  0  0  0  0  0  0  0  0
  147.3664  140.6652  156.7292 H   0  0  0  0  0  0  0  0  0  0  0  0
  148.4423  143.0693  157.6734 H   0  0  0  0  0  0  0  0  0  0  0  0
  148.4788  141.5852  158.6256 H   0  0  0  0  0  0  0  0  0  0  0  0
  150.8149  142.9287  157.5661 H   0  0  0  0  0  0  0  0  0  0  0  0
  150.7518  141.3451  158.3460 H   0  0  0  0  0  0  0  0  0  0  0  0
  150.4529  142.0213  155.4135 H   0  0  0  0  0  0  0  0  0  0  0  0
  152.6681  141.1103  155.9972 H   0  0  0  0  0  0  0  0  0  0  0  0
  151.9374  139.7061  156.7518 H   0  0  0  0  0  0  0  0  0  0  0  0
  149.1620  134.9838  153.0582 H   0  0  0  0  0  0  0  0  0  0  0  0
  150.9724  132.5587  155.1950 H   0  0  0  0  0  0  0  0  0  0  0  0
  150.4425  130.1362  155.1621 H   0  0  0  0  0  0  0  0  0  0  0  0
  148.4776  129.3474  153.8210 H   0  0  0  0  0  0  0  0  0  0  0  0
  147.0346  132.6278  150.4519 H   0  0  0  0  0  0  0  0  0  0  0  0
  146.3813  131.6568  151.7704 H   0  0  0  0  0  0  0  0  0  0  0  0
  145.2821  134.2131  150.5923 H   0  0  0  0  0  0  0  0  0  0  0  0
  144.3806  132.7867  151.1120 H   0  0  0  0  0  0  0  0  0  0  0  0
  144.4566  134.9395  152.7543 H   0  0  0  0  0  0  0  0  0  0  0  0
  144.7397  133.3405  153.4510 H   0  0  0  0  0  0  0  0  0  0  0  0
  146.7377  134.5042  154.1257 H   0  0  0  0  0  0  0  0  0  0  0  0
  146.8250  135.3820  152.6139 H   0  0  0  0  0  0  0  0  0  0  0  0
  1  2  2  0  0  0  0
  2  3  1  0  0  0  0
  2 14  1  0  0  0  0
  3  4  1  0  0  0  0
  3 26  1  0  0  0  0
  4  5  1  0  0  0  0
  4 27  1  0  0  0  0
  4 28  1  0  0  0  0
  5 13  1  0  0  0  0
  5  6  1  0  0  0  0
  5 29  1  0  0  0  0
  6  7  1  0  0  0  0
  6 30  1  0  0  0  0
  6 31  1  0  0  0  0
  7 11  1  0  0  0  0
  7  8  1  0  0  0  0
  8  9  1  0  0  0  0
  8 32  1  0  0  0  0
  8 33  1  0  0  0  0
  9 10  1  0  0  0  0
  9 34  1  0  0  0  0
  9 35  1  0  0  0  0
 10 11  1  0  0  0  0
 10 36  1  0  0  0  0
 10 37  1  0  0  0  0
 11 12  1  0  0  0  0
 11 38  1  0  0  0  0
 12 13  1  0  0  0  0
 12 39  1  0  0  0  0
 12 40  1  0  0  0  0
 14 15  1  0  0  0  0
 14 41  1  0  0  0  0
 15 20  1  0  0  0  0
 15 16  2  0  0  0  0
 16 17  1  0  0  0  0
 16 42  1  0  0  0  0
 17 18  2  0  0  0  0
 17 43  1  0  0  0  0
 18 19  1  0  0  0  0
 18 44  1  0  0  0  0
 19 20  2  0  0  0  0
 20 21  1  0  0  0  0
 21 25  1  0  0  0  0
 21 22  1  0  0  0  0
 22 23  1  0  0  0  0
 22 45  1  0  0  0  0
 22 46  1  0  0  0  0
 23 24  1  0  0  0  0
 23 47  1  0  0  0  0
 23 48  1  0  0  0  0
 24 25  1  0  0  0  0
 24 49  1  0  0  0  0
 24 50  1  0  0  0  0
 25 51  1  0  0  0  0
 25 52  1  0  0  0  0
M  END
> <s_m_source_file>
AV-unprocessed.smi

> <i_m_source_file_index>
1830

> <i_lp_mmshare_version>
43012

> <i_f3d_flags>
0

> <s_epik_input>
W0NIMl0xW0NIMl1bQ0gyXVtDQEhdKE4xMilbQ0gyXU9bQ0BASF0oW0NIMl0yKVtDSDJdW05IXUMoPU8pW05IXWMzW2NIXVtjSF1bY0hdbmMzTjRbQ0gyXVtDSDJdW0NIMl1bQ0gyXTQ=

> <s_epik_cmdline>
J2VwaWtfcHl0aG9uJywgJy1waCcsICc3LjAnLCAnLXRuJywgJzgnLCAnLW1hJywgJzIwMCcsICctbWV0YWxfYmluZGluZycsICctaW1hZScsICc8aW5maWxlLm1hZT4nLCAnLW9tYWUnLCAnPG91dGZpbGUubWFlPic=

> <r_lp_tautomer_probability>
1

> <r_epik_Ionization_Penalty>
1.16487

> <r_epik_Ionization_Penalty_Charging>
0

> <r_epik_Ionization_Penalty_Neutral>
1.16487

> <r_epik_State_Penalty>
1.21807

> <r_epik_Charging_Adjusted_Penalty>
1.21807

> <i_epik_Tot_Q>
0

> <i_epik_Tot_abs_Q>
0

> <r_epik_Metal_State_Penalty>
1.19922

> <b_epik_Metal_Only>
0

> <s_lp_Force_Field>
OPLS_2005

> <r_lp_Energy>
78.6276

> <b_lp_Chiralities_Consistent>
1

> <s_lp_Variant>
AV-unprocessed.smi:1830-10

> <Gold.Version>
5.8.1

> <Gold.Id.Protein>
6NUR|6NUR_protein|mol2

> <Gold.PLP.Fitness>
46.3038

> <Gold.PLP.PLP>
-39.6752

> <Gold.PLP.part.hbond>
-3.5432

> <Gold.PLP.part.metal>
0.0000

> <Gold.PLP.part.buried>
-3.9539

> <Gold.PLP.part.nonpolar>
-32.3643

> <Gold.PLP.part.repulsive>
0.4911

> <Gold.PLP.ligand.clash>
0.0000

> <Gold.PLP.ligand.torsion>
0.8806

> <Gold.PLP.Chemscore.Hbond>
2.7500

> <Gold.PLP.Chemscore.CHOScore>
0.0000

> <Gold.PLP.Chemscore.Metal>
0.0000

> <Gold.Chemscore.Hbonds>
donor molecule, donor type, donor heavy atom, donor atom, acceptor molecule, acceptor atom, score
      L1  H     3    26       P1  7948  0.99
      L1  H    14    41       P1  7948  0.60
      P1  H  7989  7998       L1    13  1.00

> <Gold.PLP.Chemscore.Internal.Correction>
0.1398

> <Gold.Rescore>
     Score         DG    S(hbond)    S(metal)    S(lipo)     H(rot)  DE(clash)    DE(int)     intcor
     15.17     -17.87       2.11        0.00      75.87       1.37       0.00       2.70       ----

> <Gold.Chemscore.Fitness>
15.1688

> <Gold.Chemscore.DG>
-17.8689

> <Gold.Chemscore.ZeroCoef>
-5.4800

> <Gold.Chemscore.Hbond>
2.1052

> <Gold.Chemscore.Metal>
0.0000

> <Gold.Chemscore.Lipo>
75.8669

> <Gold.Chemscore.Internal_Hbond>
0.0000

> <Gold.Chemscore.DEClash>
0.0000

> <Gold.Chemscore.DEInternal>
2.7001

> <Gold.Chemscore.Rot>
1.3746

> <Gold.Chemscore.Internal.Correction>
   9.000000E+99

> <Gold.Chemscore.Hbonds>
donor molecule, donor type, donor heavy atom, donor atom, acceptor molecule, acceptor atom, score
      L1  H     3    26       P1  7948  0.42
      L1  H    14    41       P1  7948  0.04
      P1  H  7989  7998       L1    13  0.28

> <Gold.Chemscore.Hbond.Weighted>
-7.0314

> <Gold.Chemscore.Metal.Weighted>
-0.0000

> <Gold.Chemscore.Lipo.Weighted>
-8.8764

> <Gold.Chemscore.Internal_Hbond.Weighted>
0.0000

> <Gold.Chemscore.DEClash.Weighted>
0.0000

> <Gold.Chemscore.DEInternal.Weighted>
2.7001

> <Gold.Chemscore.Rot.Weighted>
3.5189

> <Gold.Chemscore.Internal.Correction.Weighted>
   9.000000E+99

> <Gold.Protein.RotatedTorsions>
[ 6907 6896 6895 6894 ] final -106.83 input  -60.11 | X-H torsion
[ 7974 7965 7964 7962 ] final   86.47 input  175.53 | X-H torsion
[ 8008 7997 7996 7995 ] final  -19.38 input   59.86 | X-H torsion
[ 10167 10162 10161 10158 ] final   -0.14 input  -65.29 | X-H torsion
[ 10718 10713 10712 10709 ] final  -81.80 input   66.30 | X-H torsion
[ 10763 10752 10751 10750 ] final   97.25 input  -60.55 | X-H torsion
[ 11005 11000 10999 10996 ] final  169.86 input  -57.11 | X-H torsion

> <Gold.Protein.ActiveResidues>
 VAL166  LYS551  ARG553  GLY616  TRP617  ASP618  TYR619  PRO620  LYS621  CYS622 
 ASP623  PHE694  ASN695  SER759  ASP760  ASP761  ALA762  ILE779  LEU786  VAL792 
 PHE793  MET794  SER795  GLU796  ALA797  LYS798  CYS799  TRP800  GLU811  SER814 

> <Gold.Protein.RotatedAtoms>
  150.7411  133.9917  159.3608 H   0  0  0  0  0  0  0  0  0  0  0  0  # atno 6907 bound_to 6896
  151.7865  135.0745  160.0390 H   0  0  0  0  0  0  0  0  0  0  0  0  # atno 6908 bound_to 6896
  152.3238  133.5845  159.5798 H   0  0  0  0  0  0  0  0  0  0  0  0  # atno 6909 bound_to 6896
  145.5719  139.2315  143.2401 H   0  0  0  0  0  0  0  0  0  0  0  0  # atno 7974 bound_to 7965
  154.4841  140.2090  155.9696 H   0  0  0  0  0  0  0  0  0  0  0  0  # atno 8008 bound_to 7997
  156.1209  140.3213  155.8176 H   0  0  0  0  0  0  0  0  0  0  0  0  # atno 8009 bound_to 7997
  155.4469  140.0514  157.2996 H   0  0  0  0  0  0  0  0  0  0  0  0  # atno 8010 bound_to 7997
  140.6754  143.6930  150.8012 H   0  0  0  0  0  0  0  0  0  0  0  0  # atno 10167 bound_to 10162
  156.0044  130.4615  150.4008 H   0  0  0  0  0  0  0  0  0  0  0  0  # atno 10718 bound_to 10713
  153.2747  135.4190  155.1021 H   0  0  0  0  0  0  0  0  0  0  0  0  # atno 10763 bound_to 10752
  154.8468  135.3480  154.6195 H   0  0  0  0  0  0  0  0  0  0  0  0  # atno 10764 bound_to 10752
  153.6615  135.7048  153.5233 H   0  0  0  0  0  0  0  0  0  0  0  0  # atno 10765 bound_to 10752
  140.3022  134.7586  157.3925 H   0  0  0  0  0  0  0  0  0  0  0  0  # atno 11005 bound_to 11000
  146.1778  140.6545  142.9203 LP  0  0  0  0  0  0  0  0  0  0  0  0  # atno 17320 bound_to 7965
  144.7434  140.5003  143.6853 LP  0  0  0  0  0  0  0  0  0  0  0  0  # atno 17321 bound_to 7965
  140.0622  143.5143  152.2622 LP  0  0  0  0  0  0  0  0  0  0  0  0  # atno 17342 bound_to 10162
  139.6044  144.7592  151.3096 LP  0  0  0  0  0  0  0  0  0  0  0  0  # atno 17343 bound_to 10162
  157.2077  131.0453  151.2616 LP  0  0  0  0  0  0  0  0  0  0  0  0  # atno 17370 bound_to 10713
  157.3917  130.7286  149.6702 LP  0  0  0  0  0  0  0  0  0  0  0  0  # atno 17371 bound_to 10713
  140.1099  134.5360  155.8276 LP  0  0  0  0  0  0  0  0  0  0  0  0  # atno 17394 bound_to 11000
  141.2125  133.6721  156.6669 LP  0  0  0  0  0  0  0  0  0  0  0  0  # atno 17395 bound_to 11000

$$$$
