AV-unprocessed.smi:2955|AV-procd|sdf|11304|dock10
  -GOLD-   2272016203D 1   1.00000     0.00000
 Structure written by MMmdl.
 46 48  0  0  0  0  0  0  0  0  2 V2000
  145.6018  136.6019  162.5519 C   0  0  0  0  0  0  0  0  0  0  0  0
  145.9449  135.4608  161.6160 C   0  0  0  0  0  0  0  0  0  0  0  0
  145.3994  134.1800  161.8326 C   0  0  0  0  0  0  0  0  0  0  0  0
  145.7207  133.1232  160.9612 C   0  0  0  0  0  0  0  0  0  0  0  0
  146.5858  133.3456  159.8734 C   0  0  0  0  0  0  0  0  0  0  0  0
  147.1383  134.6215  159.6402 C   0  0  0  0  0  0  0  0  0  0  0  0
  147.9746  134.7498  158.5528 O   0  0  0  0  0  0  0  0  0  0  0  0
  148.5989  136.0065  158.3244 C   0  0  0  0  0  0  0  0  0  0  0  0
  147.6454  136.9040  157.5236 C   0  0  0  0  0  0  0  0  0  0  0  0
  148.2235  137.3206  156.2367 N   0  0  0  0  0  0  0  0  0  0  0  0
  148.6239  136.5809  155.1604 C   0  0  0  0  0  0  0  0  0  0  0  0
  148.5877  135.0863  155.0220 C   0  0  1  0  0  0  0  0  0  0  0  0
  147.1682  134.5466  155.2490 C   0  0  0  0  0  0  0  0  0  0  0  0
  149.0763  134.6555  153.7184 N   0  0  0  0  0  0  0  0  0  0  0  0
  149.2762  133.3766  153.3766 C   0  0  0  0  0  0  0  0  0  0  0  0
  149.0603  132.4369  154.1370 O   0  0  0  0  0  0  0  0  0  0  0  0
  149.1003  137.4562  154.2289 N   0  3  0  0  0  0  0  0  0  0  0  0
  148.9830  138.7631  154.7008 C   0  0  0  0  0  0  0  0  0  0  0  0
  149.3222  139.9778  154.1130 C   0  0  0  0  0  0  0  0  0  0  0  0
  149.0660  141.1401  154.8695 C   0  0  0  0  0  0  0  0  0  0  0  0
  148.4936  141.0670  156.1561 C   0  0  0  0  0  0  0  0  0  0  0  0
  148.1554  139.8292  156.7419 C   0  0  0  0  0  0  0  0  0  0  0  0
  148.4149  138.6845  155.9884 C   0  0  0  0  0  0  0  0  0  0  0  0
  146.8086  135.6812  160.5229 C   0  0  0  0  0  0  0  0  0  0  0  0
  145.2817  136.2287  163.5253 H   0  0  0  0  0  0  0  0  0  0  0  0
  144.7951  137.2032  162.1325 H   0  0  0  0  0  0  0  0  0  0  0  0
  146.4673  137.2468  162.7067 H   0  0  0  0  0  0  0  0  0  0  0  0
  144.7349  134.0037  162.6658 H   0  0  0  0  0  0  0  0  0  0  0  0
  145.3038  132.1409  161.1276 H   0  0  0  0  0  0  0  0  0  0  0  0
  146.8286  132.5271  159.2121 H   0  0  0  0  0  0  0  0  0  0  0  0
  148.8440  136.4840  159.2744 H   0  0  0  0  0  0  0  0  0  0  0  0
  149.5250  135.8733  157.7634 H   0  0  0  0  0  0  0  0  0  0  0  0
  146.6945  136.4023  157.3443 H   0  0  0  0  0  0  0  0  0  0  0  0
  147.4072  137.8023  158.0929 H   0  0  0  0  0  0  0  0  0  0  0  0
  149.2277  134.6449  155.7867 H   0  0  0  0  0  0  0  0  0  0  0  0
  146.7938  134.8352  156.2317 H   0  0  0  0  0  0  0  0  0  0  0  0
  147.1504  133.4575  155.1982 H   0  0  0  0  0  0  0  0  0  0  0  0
  146.4683  134.9245  154.5028 H   0  0  0  0  0  0  0  0  0  0  0  0
  149.2675  135.3710  153.0320 H   0  0  0  0  0  0  0  0  0  0  0  0
  149.6479  133.2793  152.3447 H   0  0  0  0  0  0  0  0  0  0  0  0
  149.7587  140.0359  153.1266 H   0  0  0  0  0  0  0  0  0  0  0  0
  149.3119  142.1068  154.4543 H   0  0  0  0  0  0  0  0  0  0  0  0
  148.3102  141.9791  156.7055 H   0  0  0  0  0  0  0  0  0  0  0  0
  147.7149  139.7859  157.7268 H   0  0  0  0  0  0  0  0  0  0  0  0
  147.2084  136.6738  160.3813 H   0  0  0  0  0  0  0  0  0  0  0  0
  149.4744  137.1744  153.3321 H   0  0  0  0  0  0  0  0  0  0  0  0
  1  2  1  0  0  0  0
  1 25  1  0  0  0  0
  1 26  1  0  0  0  0
  1 27  1  0  0  0  0
  2 24  1  0  0  0  0
  2  3  2  0  0  0  0
  3  4  1  0  0  0  0
  3 28  1  0  0  0  0
  4  5  2  0  0  0  0
  4 29  1  0  0  0  0
  5  6  1  0  0  0  0
  5 30  1  0  0  0  0
  6  7  1  0  0  0  0
  6 24  2  0  0  0  0
  7  8  1  0  0  0  0
  8  9  1  0  0  0  0
  8 31  1  0  0  0  0
  8 32  1  0  0  0  0
  9 10  1  0  0  0  0
  9 33  1  0  0  0  0
  9 34  1  0  0  0  0
 10 23  1  0  0  0  0
 10 11  1  0  0  0  0
 11 12  1  0  0  0  0
 11 17  2  0  0  0  0
 12 13  1  0  0  0  0
 12 14  1  0  0  0  0
 12 35  1  0  0  0  0
 13 36  1  0  0  0  0
 13 37  1  0  0  0  0
 13 38  1  0  0  0  0
 14 15  1  0  0  0  0
 14 39  1  0  0  0  0
 15 16  2  0  0  0  0
 15 40  1  0  0  0  0
 17 18  1  0  0  0  0
 17 46  1  0  0  0  0
 18 23  2  0  0  0  0
 18 19  1  0  0  0  0
 19 20  2  0  0  0  0
 19 41  1  0  0  0  0
 20 21  1  0  0  0  0
 20 42  1  0  0  0  0
 21 22  2  0  0  0  0
 21 43  1  0  0  0  0
 22 23  1  0  0  0  0
 22 44  1  0  0  0  0
 24 45  1  0  0  0  0
M  CHG  1  17   1
M  END
> <s_m_source_file>
AV-unprocessed.smi

> <i_m_source_file_index>
2955

> <i_lp_mmshare_version>
43012

> <i_f3d_flags>
0

> <s_epik_input>
W0NIM11jMVtjSF1bY0hdW2NIXWMoW2NIXTEpT1tDSDJdW0NIMl1uKGMobjIpW0NASF0oW0NIM10pW05IXVtDSF09TyljKGMyMylbY0hdW2NIXVtjSF1bY0hdMw==

> <s_epik_cmdline>
J2VwaWtfcHl0aG9uJywgJy1waCcsICc3LjAnLCAnLXRuJywgJzgnLCAnLW1hJywgJzIwMCcsICctbWV0YWxfYmluZGluZycsICctaW1hZScsICc8aW5maWxlLm1hZT4nLCAnLW9tYWUnLCAnPG91dGZpbGUubWFlPic=

> <r_lp_tautomer_probability>
1

> <r_epik_Ionization_Penalty>
1.15027

> <r_epik_Ionization_Penalty_Charging>
1.15027

> <r_epik_Ionization_Penalty_Neutral>
5.5802e-08

> <r_epik_State_Penalty>
1.21159

> <r_epik_Charging_Adjusted_Penalty>
2.36186

> <i_epik_Tot_Q>
1

> <i_epik_Tot_abs_Q>
1

> <r_epik_Metal_State_Penalty>
1.29223

> <b_epik_Metal_Only>
0

> <s_lp_Force_Field>
OPLS_2005

> <r_lp_Energy>
16.9999

> <b_lp_Chiralities_Consistent>
1

> <s_lp_Variant>
AV-unprocessed.smi:2955-4

> <Gold.Version>
5.8.1

> <Gold.Id.Protein>
6NUR|6NUR_protein|mol2

> <Gold.PLP.Fitness>
48.8824

> <Gold.PLP.PLP>
-38.0321

> <Gold.PLP.part.hbond>
-3.0000

> <Gold.PLP.part.metal>
0.0000

> <Gold.PLP.part.buried>
-0.8095

> <Gold.PLP.part.nonpolar>
-33.4032

> <Gold.PLP.part.repulsive>
0.0412

> <Gold.PLP.ligand.clash>
0.0000

> <Gold.PLP.ligand.torsion>
0.5841

> <Gold.PLP.Chemscore.Hbond>
3.9913

> <Gold.PLP.Chemscore.CHOScore>
0.0000

> <Gold.PLP.Chemscore.Metal>
0.0000

> <Gold.Chemscore.Hbonds>
donor molecule, donor type, donor heavy atom, donor atom, acceptor molecule, acceptor atom, score
      L1  H    14    39       P1  7948  0.55
      L1  H    17    46       P1  7948  1.63

> <Gold.PLP.Chemscore.Internal.Correction>
0.0447

> <Gold.Rescore>
     Score         DG    S(hbond)    S(metal)    S(lipo)     H(rot)  DE(clash)    DE(int)     intcor
     14.11     -16.35       1.93        0.00      88.59       2.32       0.21       2.03       ----

> <Gold.Chemscore.Fitness>
14.1054

> <Gold.Chemscore.DG>
-16.3464

> <Gold.Chemscore.ZeroCoef>
-5.4800

> <Gold.Chemscore.Hbond>
1.9300

> <Gold.Chemscore.Metal>
0.0000

> <Gold.Chemscore.Lipo>
88.5909

> <Gold.Chemscore.Internal_Hbond>
0.0000

> <Gold.Chemscore.DEClash>
0.2136

> <Gold.Chemscore.DEInternal>
2.0274

> <Gold.Chemscore.Rot>
2.3223

> <Gold.Chemscore.Internal.Correction>
   9.000000E+99

> <Gold.Chemscore.Hbonds>
donor molecule, donor type, donor heavy atom, donor atom, acceptor molecule, acceptor atom, score
      L1  H    14    39       P1  7948  0.06
      L1  H    17    46       P1  7948  0.72

> <Gold.Chemscore.Hbond.Weighted>
-6.4463

> <Gold.Chemscore.Metal.Weighted>
-0.0000

> <Gold.Chemscore.Lipo.Weighted>
-10.3651

> <Gold.Chemscore.Internal_Hbond.Weighted>
0.0000

> <Gold.Chemscore.DEClash.Weighted>
0.2136

> <Gold.Chemscore.DEInternal.Weighted>
2.0274

> <Gold.Chemscore.Rot.Weighted>
5.9450

> <Gold.Chemscore.Internal.Correction.Weighted>
   9.000000E+99

> <Gold.Protein.RotatedTorsions>
[ 6907 6896 6895 6894 ] final  150.82 input  -60.11 | X-H torsion
[ 7974 7965 7964 7962 ] final  159.85 input  175.53 | X-H torsion
[ 8008 7997 7996 7995 ] final  131.26 input   59.86 | X-H torsion
[ 10167 10162 10161 10158 ] final  171.40 input  -65.29 | X-H torsion
[ 10718 10713 10712 10709 ] final -148.28 input   66.30 | X-H torsion
[ 10763 10752 10751 10750 ] final   76.45 input  -60.55 | X-H torsion
[ 11005 11000 10999 10996 ] final  -74.69 input  -57.11 | X-H torsion

> <Gold.Protein.ActiveResidues>
 VAL166  LYS551  ARG553  GLY616  TRP617  ASP618  TYR619  PRO620  LYS621  CYS622 
 ASP623  PHE694  ASN695  SER759  ASP760  ASP761  ALA762  ILE779  LEU786  VAL792 
 PHE793  MET794  SER795  GLU796  ALA797  LYS798  CYS799  TRP800  GLU811  SER814 

> <Gold.Protein.RotatedAtoms>
  152.1092  133.4291  159.4622 H   0  0  0  0  0  0  0  0  0  0  0  0  # atno 6907 bound_to 6896
  150.6866  134.2668  159.4581 H   0  0  0  0  0  0  0  0  0  0  0  0  # atno 6908 bound_to 6896
  152.0535  134.9638  160.0625 H   0  0  0  0  0  0  0  0  0  0  0  0  # atno 6909 bound_to 6896
  144.7768  139.7674  143.6275 H   0  0  0  0  0  0  0  0  0  0  0  0  # atno 7974 bound_to 7965
  156.2967  140.2575  156.2897 H   0  0  0  0  0  0  0  0  0  0  0  0  # atno 8008 bound_to 7997
  154.9522  140.0394  157.2168 H   0  0  0  0  0  0  0  0  0  0  0  0  # atno 8009 bound_to 7997
  154.8025  140.2830  155.5915 H   0  0  0  0  0  0  0  0  0  0  0  0  # atno 8010 bound_to 7997
  139.5046  144.3490  151.9942 H   0  0  0  0  0  0  0  0  0  0  0  0  # atno 10167 bound_to 10162
  156.4183  130.8016  151.2237 H   0  0  0  0  0  0  0  0  0  0  0  0  # atno 10718 bound_to 10713
  153.0726  135.4951  154.8338 H   0  0  0  0  0  0  0  0  0  0  0  0  # atno 10763 bound_to 10752
  154.7044  135.3008  154.9295 H   0  0  0  0  0  0  0  0  0  0  0  0  # atno 10764 bound_to 10752
  154.0008  135.6766  153.4812 H   0  0  0  0  0  0  0  0  0  0  0  0  # atno 10765 bound_to 10752
  141.1638  133.6920  156.7403 H   0  0  0  0  0  0  0  0  0  0  0  0  # atno 11005 bound_to 11000
  146.1953  139.5215  142.9779 LP  0  0  0  0  0  0  0  0  0  0  0  0  # atno 17320 bound_to 7965
  145.6163  141.0331  143.1939 LP  0  0  0  0  0  0  0  0  0  0  0  0  # atno 17321 bound_to 7965
  140.2927  144.3736  150.6084 LP  0  0  0  0  0  0  0  0  0  0  0  0  # atno 17342 bound_to 10162
  140.5934  143.2167  151.7209 LP  0  0  0  0  0  0  0  0  0  0  0  0  # atno 17343 bound_to 10162
  157.7508  131.0236  150.3841 LP  0  0  0  0  0  0  0  0  0  0  0  0  # atno 17370 bound_to 10713
  156.4153  130.3942  149.6862 LP  0  0  0  0  0  0  0  0  0  0  0  0  # atno 17371 bound_to 10713
  140.2680  134.8415  157.3820 LP  0  0  0  0  0  0  0  0  0  0  0  0  # atno 17394 bound_to 11000
  140.1548  134.4803  155.7935 LP  0  0  0  0  0  0  0  0  0  0  0  0  # atno 17395 bound_to 11000

$$$$
