AV-unprocessed.smi:1036|AV-procd|sdf|4517|dock2
  -GOLD-   22720 2533D 1   1.00000     0.00000
 Structure written by MMmdl.
 42 44  0  0  0  0  0  0  0  0  2 V2000
  148.7564  139.5204  153.7045 O   0  0  0  0  0  0  0  0  0  0  0  0
  147.4537  140.0333  153.5241 C   0  0  0  0  0  0  0  0  0  0  0  0
  146.7997  139.3805  152.2996 C   0  0  0  0  0  0  0  0  0  0  0  0
  146.6734  137.9408  152.4613 N   0  0  0  0  0  0  0  0  0  0  0  0
  145.4071  137.3908  152.6857 C   0  0  0  0  0  0  0  0  0  0  0  0
  144.2688  138.0874  152.9474 N   0  3  0  0  0  0  0  0  0  0  0  0
  143.2210  137.1752  153.1033 C   0  0  0  0  0  0  0  0  0  0  0  0
  141.8718  137.3795  153.3753 C   0  0  0  0  0  0  0  0  0  0  0  0
  141.0628  136.2279  153.4688 C   0  0  0  0  0  0  0  0  0  0  0  0
  141.5996  134.9355  153.2954 C   0  0  0  0  0  0  0  0  0  0  0  0
  142.9688  134.7369  153.0215 C   0  0  0  0  0  0  0  0  0  0  0  0
  143.7635  135.8791  152.9298 C   0  0  0  0  0  0  0  0  0  0  0  0
  145.1280  136.0615  152.6745 N   0  0  0  0  0  0  0  0  0  0  0  0
  145.9880  134.8915  152.4430 C   0  0  0  0  0  0  0  0  0  0  0  0
  145.3870  133.8994  151.4283 C   0  0  1  0  0  0  0  0  0  0  0  0
  145.7279  134.2987  150.1138 O   0  0  0  0  0  0  0  0  0  0  0  0
  145.8131  132.4715  151.7413 C   0  0  0  0  0  0  0  0  0  0  0  0
  146.9167  132.2176  152.5869 C   0  0  0  0  0  0  0  0  0  0  0  0
  147.2983  130.8944  152.8817 C   0  0  0  0  0  0  0  0  0  0  0  0
  148.3576  130.6600  153.6920 F   0  0  0  0  0  0  0  0  0  0  0  0
  146.5776  129.8155  152.3364 C   0  0  0  0  0  0  0  0  0  0  0  0
  145.4723  130.0606  151.4999 C   0  0  0  0  0  0  0  0  0  0  0  0
  145.0882  131.3833  151.2046 C   0  0  0  0  0  0  0  0  0  0  0  0
  144.0150  131.6019  150.4067 F   0  0  0  0  0  0  0  0  0  0  0  0
  149.2057  139.5408  152.8732 H   0  0  0  0  0  0  0  0  0  0  0  0
  146.8568  139.8940  154.4263 H   0  0  0  0  0  0  0  0  0  0  0  0
  147.5443  141.1078  153.3615 H   0  0  0  0  0  0  0  0  0  0  0  0
  145.7951  139.7870  152.1768 H   0  0  0  0  0  0  0  0  0  0  0  0
  147.3532  139.6190  151.3901 H   0  0  0  0  0  0  0  0  0  0  0  0
  147.4441  137.3443  152.1955 H   0  0  0  0  0  0  0  0  0  0  0  0
  141.4567  138.3679  153.5079 H   0  0  0  0  0  0  0  0  0  0  0  0
  140.0084  136.3384  153.6772 H   0  0  0  0  0  0  0  0  0  0  0  0
  140.9475  134.0776  153.3740 H   0  0  0  0  0  0  0  0  0  0  0  0
  143.3696  133.7427  152.8891 H   0  0  0  0  0  0  0  0  0  0  0  0
  146.9568  135.2522  152.0950 H   0  0  0  0  0  0  0  0  0  0  0  0
  146.1694  134.4056  153.4025 H   0  0  0  0  0  0  0  0  0  0  0  0
  144.2992  133.9497  151.4843 H   0  0  0  0  0  0  0  0  0  0  0  0
  145.9091  133.5250  149.6021 H   0  0  0  0  0  0  0  0  0  0  0  0
  147.4747  133.0359  153.0179 H   0  0  0  0  0  0  0  0  0  0  0  0
  146.8699  128.8006  152.5628 H   0  0  0  0  0  0  0  0  0  0  0  0
  144.9160  129.2324  151.0865 H   0  0  0  0  0  0  0  0  0  0  0  0
  144.2142  139.0957  153.0091 H   0  0  0  0  0  0  0  0  0  0  0  0
  1  2  1  0  0  0  0
  1 25  1  0  0  0  0
  2  3  1  0  0  0  0
  2 26  1  0  0  0  0
  2 27  1  0  0  0  0
  3  4  1  0  0  0  0
  3 28  1  0  0  0  0
  3 29  1  0  0  0  0
  4  5  1  0  0  0  0
  4 30  1  0  0  0  0
  5 13  1  0  0  0  0
  5  6  2  0  0  0  0
  6  7  1  0  0  0  0
  6 42  1  0  0  0  0
  7 12  2  0  0  0  0
  7  8  1  0  0  0  0
  8  9  2  0  0  0  0
  8 31  1  0  0  0  0
  9 10  1  0  0  0  0
  9 32  1  0  0  0  0
 10 11  2  0  0  0  0
 10 33  1  0  0  0  0
 11 12  1  0  0  0  0
 11 34  1  0  0  0  0
 12 13  1  0  0  0  0
 13 14  1  0  0  0  0
 14 15  1  0  0  0  0
 14 35  1  0  0  0  0
 14 36  1  0  0  0  0
 15 16  1  0  0  0  0
 15 17  1  0  0  0  0
 15 37  1  0  0  0  0
 16 38  1  0  0  0  0
 17 23  1  0  0  0  0
 17 18  2  0  0  0  0
 18 19  1  0  0  0  0
 18 39  1  0  0  0  0
 19 20  1  0  0  0  0
 19 21  2  0  0  0  0
 21 22  1  0  0  0  0
 21 40  1  0  0  0  0
 22 23  2  0  0  0  0
 22 41  1  0  0  0  0
 23 24  1  0  0  0  0
M  CHG  1   6   1
M  END
> <s_m_source_file>
AV-unprocessed.smi

> <i_m_source_file_index>
1036

> <i_lp_mmshare_version>
43012

> <i_f3d_flags>
0

> <s_epik_input>
W09IXVtDSDJdW0NIMl1bTkhdYyhuMSluKGMoYzEyKVtjSF1bY0hdW2NIXVtjSF0yKVtDSDJdW0NASF0oW09IXSljM1tjSF1jKEYpW2NIXVtjSF1jM0Y=

> <s_epik_cmdline>
J2VwaWtfcHl0aG9uJywgJy1waCcsICc3LjAnLCAnLXRuJywgJzgnLCAnLW1hJywgJzIwMCcsICctbWV0YWxfYmluZGluZycsICctaW1hZScsICc8aW5maWxlLm1hZT4nLCAnLW9tYWUnLCAnPG91dGZpbGUubWFlPic=

> <r_epik_Ionization_Penalty>
0.0688114

> <r_epik_Ionization_Penalty_Charging>
0.0688055

> <r_epik_Ionization_Penalty_Neutral>
5.85933e-06

> <r_epik_State_Penalty>
0.0602293

> <r_epik_Charging_Adjusted_Penalty>
0.129035

> <i_epik_Tot_Q>
1

> <i_epik_Tot_abs_Q>
1

> <r_epik_Metal_State_Penalty>
2.77411

> <b_epik_Metal_Only>
0

> <s_lp_Force_Field>
OPLS_2005

> <r_lp_Energy>
24.5331

> <b_lp_Chiralities_Consistent>
1

> <s_lp_Variant>
AV-unprocessed.smi:1036-2

> <Gold.Version>
5.8.1

> <Gold.Id.Protein>
6NUR|6NUR_protein|mol2

> <Gold.PLP.Fitness>
60.0706

> <Gold.PLP.PLP>
-46.9903

> <Gold.PLP.part.hbond>
-4.2208

> <Gold.PLP.part.metal>
0.0000

> <Gold.PLP.part.buried>
-5.8728

> <Gold.PLP.part.nonpolar>
-37.7588

> <Gold.PLP.part.repulsive>
0.0578

> <Gold.PLP.ligand.clash>
0.0000

> <Gold.PLP.ligand.torsion>
0.9568

> <Gold.PLP.Chemscore.Hbond>
4.9840

> <Gold.PLP.Chemscore.CHOScore>
0.0000

> <Gold.PLP.Chemscore.Metal>
0.0000

> <Gold.Chemscore.Hbonds>
donor molecule, donor type, donor heavy atom, donor atom, acceptor molecule, acceptor atom, score
      L1  H     1    25       P1  7957  1.00
      L1  H     4    30       P1  7948  2.00
      L1  H     6    42       P1 10175  1.98

> <Gold.PLP.Chemscore.Internal.Correction>
0.0420

> <Gold.Rescore>
     Score         DG    S(hbond)    S(metal)    S(lipo)     H(rot)  DE(clash)    DE(int)     intcor
     16.81     -18.69       2.94        0.00     101.00       3.29       0.29       1.59       ----

> <Gold.Chemscore.Fitness>
16.8111

> <Gold.Chemscore.DG>
-18.6888

> <Gold.Chemscore.ZeroCoef>
-5.4800

> <Gold.Chemscore.Hbond>
2.9364

> <Gold.Chemscore.Metal>
0.0000

> <Gold.Chemscore.Lipo>
100.9997

> <Gold.Chemscore.Internal_Hbond>
0.0000

> <Gold.Chemscore.DEClash>
0.2915

> <Gold.Chemscore.DEInternal>
1.5862

> <Gold.Chemscore.Rot>
3.2874

> <Gold.Chemscore.Internal.Correction>
   9.000000E+99

> <Gold.Chemscore.Hbonds>
donor molecule, donor type, donor heavy atom, donor atom, acceptor molecule, acceptor atom, score
      L1  H     1    25       P1  7957  0.99
      L1  H     4    30       P1  7948  1.00
      L1  H     6    42       P1 10175  0.90

> <Gold.Chemscore.Hbond.Weighted>
-9.8077

> <Gold.Chemscore.Metal.Weighted>
-0.0000

> <Gold.Chemscore.Lipo.Weighted>
-11.8170

> <Gold.Chemscore.Internal_Hbond.Weighted>
0.0000

> <Gold.Chemscore.DEClash.Weighted>
0.2915

> <Gold.Chemscore.DEInternal.Weighted>
1.5862

> <Gold.Chemscore.Rot.Weighted>
8.4158

> <Gold.Chemscore.Internal.Correction.Weighted>
   9.000000E+99

> <Gold.Protein.RotatedTorsions>
[ 6907 6896 6895 6894 ] final   87.56 input  -60.11 | X-H torsion
[ 7974 7965 7964 7962 ] final   63.60 input  175.53 | X-H torsion
[ 8008 7997 7996 7995 ] final  170.12 input   59.86 | X-H torsion
[ 10167 10162 10161 10158 ] final  136.41 input  -65.29 | X-H torsion
[ 10718 10713 10712 10709 ] final  -22.43 input   66.30 | X-H torsion
[ 10763 10752 10751 10750 ] final -169.51 input  -60.55 | X-H torsion
[ 11005 11000 10999 10996 ] final  169.61 input  -57.11 | X-H torsion

> <Gold.Protein.ActiveResidues>
 VAL166  LYS551  ARG553  GLY616  TRP617  ASP618  TYR619  PRO620  LYS621  CYS622 
 ASP623  PHE694  ASN695  SER759  ASP760  ASP761  ALA762  ILE779  LEU786  VAL792 
 PHE793  MET794  SER795  GLU796  ALA797  LYS798  CYS799  TRP800  GLU811  SER814 

> <Gold.Protein.RotatedAtoms>
  152.5413  134.2257  159.8804 H   0  0  0  0  0  0  0  0  0  0  0  0  # atno 6907 bound_to 6896
  151.2231  133.4484  159.2609 H   0  0  0  0  0  0  0  0  0  0  0  0  # atno 6908 bound_to 6896
  151.0786  134.9857  159.8400 H   0  0  0  0  0  0  0  0  0  0  0  0  # atno 6909 bound_to 6896
  145.8599  139.3308  143.0825 H   0  0  0  0  0  0  0  0  0  0  0  0  # atno 7974 bound_to 7965
  156.1394  140.1546  156.8944 H   0  0  0  0  0  0  0  0  0  0  0  0  # atno 8008 bound_to 7997
  154.4975  140.0834  156.7766 H   0  0  0  0  0  0  0  0  0  0  0  0  # atno 8009 bound_to 7997
  155.4107  140.3418  155.4265 H   0  0  0  0  0  0  0  0  0  0  0  0  # atno 8010 bound_to 7997
  139.5181  144.6466  151.5423 H   0  0  0  0  0  0  0  0  0  0  0  0  # atno 10167 bound_to 10162
  156.5047  130.4596  149.6681 H   0  0  0  0  0  0  0  0  0  0  0  0  # atno 10718 bound_to 10713
  154.6515  135.2912  154.9980 H   0  0  0  0  0  0  0  0  0  0  0  0  # atno 10763 bound_to 10752
  154.1072  135.6568  153.4882 H   0  0  0  0  0  0  0  0  0  0  0  0  # atno 10764 bound_to 10752
  153.0379  135.5256  154.7426 H   0  0  0  0  0  0  0  0  0  0  0  0  # atno 10765 bound_to 10752
  140.2996  134.7606  157.3905 H   0  0  0  0  0  0  0  0  0  0  0  0  # atno 11005 bound_to 11000
  145.9260  140.9082  143.0381 LP  0  0  0  0  0  0  0  0  0  0  0  0  # atno 17320 bound_to 7965
  144.6727  140.1353  143.7441 LP  0  0  0  0  0  0  0  0  0  0  0  0  # atno 17321 bound_to 7965
  140.6253  143.9180  150.6559 LP  0  0  0  0  0  0  0  0  0  0  0  0  # atno 17342 bound_to 10162
  140.2467  143.3623  152.1441 LP  0  0  0  0  0  0  0  0  0  0  0  0  # atno 17343 bound_to 10162
  156.3298  130.7325  151.2253 LP  0  0  0  0  0  0  0  0  0  0  0  0  # atno 17370 bound_to 10713
  157.7458  131.0433  150.4736 LP  0  0  0  0  0  0  0  0  0  0  0  0  # atno 17371 bound_to 10713
  140.1121  134.5332  155.8257 LP  0  0  0  0  0  0  0  0  0  0  0  0  # atno 17394 bound_to 11000
  141.2130  133.6728  156.6708 LP  0  0  0  0  0  0  0  0  0  0  0  0  # atno 17395 bound_to 11000

$$$$
