AV-unprocessed.smi:557|AV-procd|sdf|2915|dock5
  -GOLD-   2262023403D 1   1.00000     0.00000
 Structure written by MMmdl.
 47 49  0  0  0  0  0  0  0  0  2 V2000
  151.8453  141.7948  157.8168 C   0  0  0  0  0  0  0  0  0  0  0  0
  151.6411  140.7717  156.8140 N   0  0  0  0  0  0  0  0  0  0  0  0
  150.5077  140.5015  156.0777 C   0  0  0  0  0  0  0  0  0  0  0  0
  150.7937  139.4462  155.2581 C   0  0  0  0  0  0  0  0  0  0  0  0
  149.9038  138.7601  154.2599 C   0  0  0  0  0  0  0  0  0  0  0  0
  148.6158  138.2453  154.9159 C   0  0  0  0  0  0  0  0  0  0  0  0
  148.0254  137.1740  154.1180 N   0  0  0  0  0  0  0  0  0  0  0  0
  146.8992  136.4899  154.3812 C   0  0  0  0  0  0  0  0  0  0  0  0
  146.2210  136.7124  155.3821 O   0  0  0  0  0  0  0  0  0  0  0  0
  146.5892  135.5524  153.4697 N   0  0  0  0  0  0  0  0  0  0  0  0
  145.4226  134.6769  153.5256 C   0  0  1  0  0  0  0  0  0  0  0  0
  144.0932  135.4465  153.4336 C   0  0  0  0  0  0  0  0  0  0  0  0
  143.1639  134.5580  152.5836 C   0  0  0  0  0  0  0  0  0  0  0  0
  143.9315  133.3254  152.3236 N   0  3  1  0  0  0  0  0  0  0  0  0
  143.5589  132.5395  151.1272 C   0  0  0  0  0  0  0  0  0  0  0  0
  144.4093  131.2542  151.0787 C   0  0  0  0  0  0  0  0  0  0  0  0
  145.9177  131.5632  151.1689 C   0  0  0  0  0  0  0  0  0  0  0  0
  146.2309  132.4630  152.3799 C   0  0  0  0  0  0  0  0  0  0  0  0
  145.3480  133.7218  152.3311 C   0  0  2  0  0  0  0  0  0  0  0  0
  152.1486  139.1408  155.5733 C   0  0  0  0  0  0  0  0  0  0  0  0
  152.6518  139.9340  156.5048 N   0  0  0  0  0  0  0  0  0  0  0  0
  150.9307  142.3720  157.9546 H   0  0  0  0  0  0  0  0  0  0  0  0
  152.6439  142.4664  157.5004 H   0  0  0  0  0  0  0  0  0  0  0  0
  152.1200  141.3330  158.7657 H   0  0  0  0  0  0  0  0  0  0  0  0
  149.6006  141.0755  156.1965 H   0  0  0  0  0  0  0  0  0  0  0  0
  149.6482  139.4400  153.4462 H   0  0  0  0  0  0  0  0  0  0  0  0
  150.4302  137.9259  153.7946 H   0  0  0  0  0  0  0  0  0  0  0  0
  148.8327  137.8727  155.9186 H   0  0  0  0  0  0  0  0  0  0  0  0
  147.8999  139.0627  155.0181 H   0  0  0  0  0  0  0  0  0  0  0  0
  148.5279  136.9179  153.2800 H   0  0  0  0  0  0  0  0  0  0  0  0
  147.2062  135.4426  152.6779 H   0  0  0  0  0  0  0  0  0  0  0  0
  145.4214  134.1004  154.4534 H   0  0  0  0  0  0  0  0  0  0  0  0
  143.6795  135.6349  154.4249 H   0  0  0  0  0  0  0  0  0  0  0  0
  144.2243  136.4132  152.9451 H   0  0  0  0  0  0  0  0  0  0  0  0
  142.2267  134.3292  153.0917 H   0  0  0  0  0  0  0  0  0  0  0  0
  142.9268  135.0576  151.6430 H   0  0  0  0  0  0  0  0  0  0  0  0
  142.4984  132.2885  151.1689 H   0  0  0  0  0  0  0  0  0  0  0  0
  143.7150  133.1358  150.2269 H   0  0  0  0  0  0  0  0  0  0  0  0
  144.1266  130.6037  151.9077 H   0  0  0  0  0  0  0  0  0  0  0  0
  144.1955  130.6979  150.1655 H   0  0  0  0  0  0  0  0  0  0  0  0
  146.4880  130.6361  151.2324 H   0  0  0  0  0  0  0  0  0  0  0  0
  146.2399  132.0623  150.2539 H   0  0  0  0  0  0  0  0  0  0  0  0
  146.0543  131.9154  153.3067 H   0  0  0  0  0  0  0  0  0  0  0  0
  147.2861  132.7367  152.3733 H   0  0  0  0  0  0  0  0  0  0  0  0
  145.5583  134.2777  151.4144 H   0  0  0  0  0  0  0  0  0  0  0  0
  152.7768  138.3684  155.1551 H   0  0  0  0  0  0  0  0  0  0  0  0
  143.7994  132.7295  153.1286 H   0  0  0  0  0  0  0  0  0  0  0  0
  1  2  1  0  0  0  0
  1 22  1  0  0  0  0
  1 23  1  0  0  0  0
  1 24  1  0  0  0  0
  2 21  1  0  0  0  0
  2  3  1  0  0  0  0
  3  4  2  0  0  0  0
  3 25  1  0  0  0  0
  4  5  1  0  0  0  0
  4 20  1  0  0  0  0
  5  6  1  0  0  0  0
  5 26  1  0  0  0  0
  5 27  1  0  0  0  0
  6  7  1  0  0  0  0
  6 28  1  0  0  0  0
  6 29  1  0  0  0  0
  7  8  1  0  0  0  0
  7 30  1  0  0  0  0
  8  9  2  0  0  0  0
  8 10  1  0  0  0  0
 10 11  1  0  0  0  0
 10 31  1  0  0  0  0
 11 19  1  0  0  0  0
 11 12  1  0  0  0  0
 11 32  1  0  0  0  0
 12 13  1  0  0  0  0
 12 33  1  0  0  0  0
 12 34  1  0  0  0  0
 13 14  1  0  0  0  0
 13 35  1  0  0  0  0
 13 36  1  0  0  0  0
 14 19  1  0  0  0  0
 14 15  1  0  0  0  0
 14 47  1  0  0  0  0
 15 16  1  0  0  0  0
 15 37  1  0  0  0  0
 15 38  1  0  0  0  0
 16 17  1  0  0  0  0
 16 39  1  0  0  0  0
 16 40  1  0  0  0  0
 17 18  1  0  0  0  0
 17 41  1  0  0  0  0
 17 42  1  0  0  0  0
 18 19  1  0  0  0  0
 18 43  1  0  0  0  0
 18 44  1  0  0  0  0
 19 45  1  0  0  0  0
 20 21  2  0  0  0  0
 20 46  1  0  0  0  0
M  CHG  1  14   1
M  END
> <s_m_source_file>
AV-unprocessed.smi

> <i_m_source_file_index>
557

> <i_lp_mmshare_version>
43012

> <i_f3d_flags>
0

> <s_epik_input>
W0NIM11uMVtjSF1jKFtjSF1uMSlbQ0gyXVtDSDJdW05IXUMoPU8pW05IXVtDQEhdKFtDSDJdW0NIMl0yKVtDQEhdKE4yMylbQ0gyXVtDSDJdW0NIMl1bQ0gyXTM=

> <s_epik_cmdline>
J2VwaWtfcHl0aG9uJywgJy1waCcsICc3LjAnLCAnLXRuJywgJzgnLCAnLW1hJywgJzIwMCcsICctbWV0YWxfYmluZGluZycsICctaW1hZScsICc8aW5maWxlLm1hZT4nLCAnLW9tYWUnLCAnPG91dGZpbGUubWFlPic=

> <r_lp_tautomer_probability>
1

> <r_epik_Ionization_Penalty>
0.000956547

> <r_epik_Ionization_Penalty_Charging>
0.000435796

> <r_epik_Ionization_Penalty_Neutral>
0.000520752

> <r_epik_State_Penalty>
-0

> <r_epik_Charging_Adjusted_Penalty>
0.000435796

> <i_epik_Tot_Q>
1

> <i_epik_Tot_abs_Q>
1

> <r_epik_Metal_State_Penalty>
-0

> <b_epik_Metal_Only>
0

> <s_lp_Force_Field>
OPLS_2005

> <r_lp_Energy>
39.7592

> <b_lp_Chiralities_Consistent>
1

> <s_lp_Variant>
AV-unprocessed.smi:557-2

> <Gold.Version>
5.8.1

> <Gold.Id.Protein>
6NUR|6NUR_protein|mol2

> <Gold.PLP.Fitness>
43.9856

> <Gold.PLP.PLP>
-32.6487

> <Gold.PLP.part.hbond>
-3.5541

> <Gold.PLP.part.metal>
0.0000

> <Gold.PLP.part.buried>
-4.6938

> <Gold.PLP.part.nonpolar>
-25.0962

> <Gold.PLP.part.repulsive>
0.0236

> <Gold.PLP.ligand.clash>
0.0000

> <Gold.PLP.ligand.torsion>
0.1323

> <Gold.PLP.Chemscore.Hbond>
3.8632

> <Gold.PLP.Chemscore.CHOScore>
0.0000

> <Gold.PLP.Chemscore.Metal>
0.0000

> <Gold.Chemscore.Hbonds>
donor molecule, donor type, donor heavy atom, donor atom, acceptor molecule, acceptor atom, score
      L1  H     7    30       P1  7948  1.00
      L1  H    10    31       P1  7948  0.77
      L1  H    14    47       P1 10957  1.11
      P1  H  7997  8010       L1    21  1.00

> <Gold.PLP.Chemscore.Internal.Correction>
0.0121

> <Gold.Rescore>
     Score         DG    S(hbond)    S(metal)    S(lipo)     H(rot)  DE(clash)    DE(int)     intcor
     20.94     -21.15       3.01        0.00      83.01       1.60       0.01       0.19       ----

> <Gold.Chemscore.Fitness>
20.9440

> <Gold.Chemscore.DG>
-21.1453

> <Gold.Chemscore.ZeroCoef>
-5.4800

> <Gold.Chemscore.Hbond>
3.0101

> <Gold.Chemscore.Metal>
0.0000

> <Gold.Chemscore.Lipo>
83.0092

> <Gold.Chemscore.Internal_Hbond>
0.0000

> <Gold.Chemscore.DEClash>
0.0135

> <Gold.Chemscore.DEInternal>
0.1877

> <Gold.Chemscore.Rot>
1.6018

> <Gold.Chemscore.Internal.Correction>
   9.000000E+99

> <Gold.Chemscore.Hbonds>
donor molecule, donor type, donor heavy atom, donor atom, acceptor molecule, acceptor atom, score
      L1  H     7    30       P1  7948  0.99
      L1  H    10    31       P1  7948  0.74
      L1  H    14    47       P1 10957  0.16
      P1  H  7997  8010       L1    21  0.73

> <Gold.Chemscore.Hbond.Weighted>
-10.0538

> <Gold.Chemscore.Metal.Weighted>
-0.0000

> <Gold.Chemscore.Lipo.Weighted>
-9.7121

> <Gold.Chemscore.Internal_Hbond.Weighted>
0.0000

> <Gold.Chemscore.DEClash.Weighted>
0.0135

> <Gold.Chemscore.DEInternal.Weighted>
0.1877

> <Gold.Chemscore.Rot.Weighted>
4.1006

> <Gold.Chemscore.Internal.Correction.Weighted>
   9.000000E+99

> <Gold.Protein.RotatedTorsions>
[ 6907 6896 6895 6894 ] final  146.52 input  -60.11 | X-H torsion
[ 7974 7965 7964 7962 ] final   59.02 input  175.53 | X-H torsion
[ 8008 7997 7996 7995 ] final   84.78 input   59.86 | X-H torsion
[ 10167 10162 10161 10158 ] final   -3.13 input  -65.29 | X-H torsion
[ 10718 10713 10712 10709 ] final  -37.92 input   66.30 | X-H torsion
[ 10763 10752 10751 10750 ] final -117.81 input  -60.55 | X-H torsion
[ 11005 11000 10999 10996 ] final  145.18 input  -57.11 | X-H torsion

> <Gold.Protein.ActiveResidues>
 VAL166  LYS551  ARG553  GLY616  TRP617  ASP618  TYR619  PRO620  LYS621  CYS622 
 ASP623  PHE694  ASN695  SER759  ASP760  ASP761  ALA762  ILE779  LEU786  VAL792 
 PHE793  MET794  SER795  GLU796  ALA797  LYS798  CYS799  TRP800  GLU811  SER814 

> <Gold.Protein.RotatedAtoms>
  152.1668  133.4617  159.4888 H   0  0  0  0  0  0  0  0  0  0  0  0  # atno 6907 bound_to 6896
  150.6914  134.2003  159.4328 H   0  0  0  0  0  0  0  0  0  0  0  0  # atno 6908 bound_to 6896
  151.9908  134.9980  160.0612 H   0  0  0  0  0  0  0  0  0  0  0  0  # atno 6909 bound_to 6896
  145.9118  139.3660  143.0531 H   0  0  0  0  0  0  0  0  0  0  0  0  # atno 7974 bound_to 7965
  155.9415  140.3407  155.6331 H   0  0  0  0  0  0  0  0  0  0  0  0  # atno 8008 bound_to 7997
  155.7033  140.0763  157.2420 H   0  0  0  0  0  0  0  0  0  0  0  0  # atno 8009 bound_to 7997
  154.4103  140.1636  156.2203 H   0  0  0  0  0  0  0  0  0  0  0  0  # atno 8010 bound_to 7997
  140.6878  143.6575  150.8295 H   0  0  0  0  0  0  0  0  0  0  0  0  # atno 10167 bound_to 10162
  156.3097  130.4251  149.8062 H   0  0  0  0  0  0  0  0  0  0  0  0  # atno 10718 bound_to 10713
  154.8567  135.4296  154.2039 H   0  0  0  0  0  0  0  0  0  0  0  0  # atno 10763 bound_to 10752
  153.3080  135.6973  153.7148 H   0  0  0  0  0  0  0  0  0  0  0  0  # atno 10764 bound_to 10752
  153.6252  135.3495  155.2998 H   0  0  0  0  0  0  0  0  0  0  0  0  # atno 10765 bound_to 10752
  140.0692  134.9161  157.1316 H   0  0  0  0  0  0  0  0  0  0  0  0  # atno 11005 bound_to 11000
  145.8662  140.9447  143.0674 LP  0  0  0  0  0  0  0  0  0  0  0  0  # atno 17320 bound_to 7965
  144.6744  140.0594  143.7476 LP  0  0  0  0  0  0  0  0  0  0  0  0  # atno 17321 bound_to 7965
  140.0285  143.5469  152.2770 LP  0  0  0  0  0  0  0  0  0  0  0  0  # atno 17342 bound_to 10162
  139.6252  144.7636  151.2653 LP  0  0  0  0  0  0  0  0  0  0  0  0  # atno 17343 bound_to 10162
  156.5410  130.8300  151.3269 LP  0  0  0  0  0  0  0  0  0  0  0  0  # atno 17370 bound_to 10713
  157.7388  130.9820  150.2274 LP  0  0  0  0  0  0  0  0  0  0  0  0  # atno 17371 bound_to 10713
  140.3653  134.2449  155.7183 LP  0  0  0  0  0  0  0  0  0  0  0  0  # atno 17394 bound_to 11000
  141.2005  133.7986  157.0487 LP  0  0  0  0  0  0  0  0  0  0  0  0  # atno 17395 bound_to 11000

$$$$
