AV-unprocessed.smi:2044|AV-procd|sdf|8302|dock10
  -GOLD-   2272010563D 1   1.00000     0.00000
 Structure written by MMmdl.
 38 39  0  0  0  0  0  0  0  0  2 V2000
  160.4504  141.9985  157.5495 C   0  0  0  0  0  0  0  0  0  0  0  0
  159.7114  141.3466  158.6677 C   0  0  0  0  0  0  0  0  0  0  0  0
  158.3819  141.2371  158.9616 C   0  0  0  0  0  0  0  0  0  0  0  0
  158.3777  140.4971  160.1754 C   0  0  0  0  0  0  0  0  0  0  0  0
  157.2900  140.1196  160.8644 N   0  5  0  0  0  0  0  0  0  0  0  0
  156.0571  140.2745  160.3291 C   0  0  0  0  0  0  0  0  0  0  0  0
  155.6922  139.9020  159.2115 O   0  0  0  0  0  0  0  0  0  0  0  0
  155.1914  140.8981  161.1384 N   0  0  0  0  0  0  0  0  0  0  0  0
  153.7975  141.1884  160.8187 C   0  0  0  0  0  0  0  0  0  0  0  0
  153.4103  142.6384  161.2029 C   0  0  2  0  0  0  0  0  0  0  0  0
  153.3052  142.7166  162.7426 C   0  0  0  0  0  0  0  0  0  0  0  0
  152.2095  143.1475  160.5041 N   0  0  0  0  0  0  0  0  0  0  0  0
  152.4313  143.3386  159.0678 C   0  0  0  0  0  0  0  0  0  0  0  0
  151.1866  143.8816  158.3449 C   0  0  0  0  0  0  0  0  0  0  0  0
  150.7763  145.1020  158.9476 O   0  0  0  0  0  0  0  0  0  0  0  0
  150.4837  144.9457  160.3301 C   0  0  0  0  0  0  0  0  0  0  0  0
  151.7252  144.4117  161.0650 C   0  0  0  0  0  0  0  0  0  0  0  0
  159.5961  140.1706  160.5734 N   0  0  0  0  0  0  0  0  0  0  0  0
  160.4579  140.7184  159.6157 O   0  0  0  0  0  0  0  0  0  0  0  0
  159.9893  141.7601  156.5911 H   0  0  0  0  0  0  0  0  0  0  0  0
  161.4876  141.6643  157.5169 H   0  0  0  0  0  0  0  0  0  0  0  0
  160.4475  143.0821  157.6669 H   0  0  0  0  0  0  0  0  0  0  0  0
  157.5449  141.6268  158.4018 H   0  0  0  0  0  0  0  0  0  0  0  0
  155.5224  141.1863  162.0476 H   0  0  0  0  0  0  0  0  0  0  0  0
  153.6460  141.0328  159.7496 H   0  0  0  0  0  0  0  0  0  0  0  0
  153.1446  140.4652  161.3081 H   0  0  0  0  0  0  0  0  0  0  0  0
  154.2555  143.2665  160.9173 H   0  0  0  0  0  0  0  0  0  0  0  0
  154.1572  142.2334  163.2217 H   0  0  0  0  0  0  0  0  0  0  0  0
  152.4022  142.2258  163.1071 H   0  0  0  0  0  0  0  0  0  0  0  0
  153.2988  143.7449  163.1023 H   0  0  0  0  0  0  0  0  0  0  0  0
  153.2684  144.0202  158.9102 H   0  0  0  0  0  0  0  0  0  0  0  0
  152.6974  142.3953  158.5927 H   0  0  0  0  0  0  0  0  0  0  0  0
  151.4089  144.0611  157.2931 H   0  0  0  0  0  0  0  0  0  0  0  0
  150.3724  143.1560  158.3811 H   0  0  0  0  0  0  0  0  0  0  0  0
  150.1854  145.9099  160.7422 H   0  0  0  0  0  0  0  0  0  0  0  0
  149.6383  144.2676  160.4572 H   0  0  0  0  0  0  0  0  0  0  0  0
  151.4570  144.2876  162.1131 H   0  0  0  0  0  0  0  0  0  0  0  0
  152.5177  145.1608  161.0281 H   0  0  0  0  0  0  0  0  0  0  0  0
  1  2  1  0  0  0  0
  1 20  1  0  0  0  0
  1 21  1  0  0  0  0
  1 22  1  0  0  0  0
  2 19  1  0  0  0  0
  2  3  2  0  0  0  0
  3  4  1  0  0  0  0
  3 23  1  0  0  0  0
  4  5  1  0  0  0  0
  4 18  2  0  0  0  0
  5  6  1  0  0  0  0
  6  7  2  0  0  0  0
  6  8  1  0  0  0  0
  8  9  1  0  0  0  0
  8 24  1  0  0  0  0
  9 10  1  0  0  0  0
  9 25  1  0  0  0  0
  9 26  1  0  0  0  0
 10 11  1  0  0  0  0
 10 12  1  0  0  0  0
 10 27  1  0  0  0  0
 11 28  1  0  0  0  0
 11 29  1  0  0  0  0
 11 30  1  0  0  0  0
 12 17  1  0  0  0  0
 12 13  1  0  0  0  0
 13 14  1  0  0  0  0
 13 31  1  0  0  0  0
 13 32  1  0  0  0  0
 14 15  1  0  0  0  0
 14 33  1  0  0  0  0
 14 34  1  0  0  0  0
 15 16  1  0  0  0  0
 16 17  1  0  0  0  0
 16 35  1  0  0  0  0
 16 36  1  0  0  0  0
 17 37  1  0  0  0  0
 17 38  1  0  0  0  0
 18 19  1  0  0  0  0
M  CHG  1   5  -1
M  END
> <s_m_source_file>
AV-unprocessed.smi

> <i_m_source_file_index>
2044

> <i_lp_mmshare_version>
43012

> <i_f3d_flags>
0

> <s_epik_input>
W0NIM11jMVtjSF1jKG5vMSlbTkhdQyg9TylbTkhdW0NIMl1bQ0BIXShbQ0gzXSlOMltDSDJdW0NIMl1PW0NIMl1bQ0gyXTI=

> <s_epik_cmdline>
J2VwaWtfcHl0aG9uJywgJy1waCcsICc3LjAnLCAnLXRuJywgJzgnLCAnLW1hJywgJzIwMCcsICctbWV0YWxfYmluZGluZycsICctaW1hZScsICc8aW5maWxlLm1hZT4nLCAnLW9tYWUnLCAnPG91dGZpbGUubWFlPic=

> <r_epik_Ionization_Penalty>
6.88367

> <r_epik_Ionization_Penalty_Charging>
6.57198

> <r_epik_Ionization_Penalty_Neutral>
0.311681

> <r_epik_State_Penalty>
6.77619

> <r_epik_Charging_Adjusted_Penalty>
13.3482

> <i_epik_Tot_Q>
-1

> <i_epik_Tot_abs_Q>
1

> <r_epik_Metal_State_Penalty>
2.70533

> <b_epik_Metal_Only>
1

> <s_lp_Force_Field>
OPLS_2005

> <r_lp_Energy>
25.764

> <b_lp_Chiralities_Consistent>
1

> <s_lp_Variant>
AV-unprocessed.smi:2044-5

> <Gold.Version>
5.8.1

> <Gold.Id.Protein>
6NUR|6NUR_protein|mol2

> <Gold.PLP.Fitness>
41.4334

> <Gold.PLP.PLP>
-40.0655

> <Gold.PLP.part.hbond>
-3.1478

> <Gold.PLP.part.metal>
0.0000

> <Gold.PLP.part.buried>
-5.2840

> <Gold.PLP.part.nonpolar>
-32.7478

> <Gold.PLP.part.repulsive>
0.3724

> <Gold.PLP.ligand.clash>
0.0000

> <Gold.PLP.ligand.torsion>
0.8419

> <Gold.PLP.Chemscore.Hbond>
1.0000

> <Gold.PLP.Chemscore.CHOScore>
0.0000

> <Gold.PLP.Chemscore.Metal>
0.0000

> <Gold.Chemscore.Hbonds>
donor molecule, donor type, donor heavy atom, donor atom, acceptor molecule, acceptor atom, score
      P1  H  7997  8008       L1     7  0.99

> <Gold.PLP.Chemscore.Internal.Correction>
0.0517

> <Gold.Rescore>
     Score         DG    S(hbond)    S(metal)    S(lipo)     H(rot)  DE(clash)    DE(int)     intcor
     16.05     -16.88       0.99        0.00     103.04       1.55       0.02       0.81       ----

> <Gold.Chemscore.Fitness>
16.0525

> <Gold.Chemscore.DG>
-16.8751

> <Gold.Chemscore.ZeroCoef>
-5.4800

> <Gold.Chemscore.Hbond>
0.9878

> <Gold.Chemscore.Metal>
0.0000

> <Gold.Chemscore.Lipo>
103.0429

> <Gold.Chemscore.Internal_Hbond>
0.0000

> <Gold.Chemscore.DEClash>
0.0169

> <Gold.Chemscore.DEInternal>
0.8058

> <Gold.Chemscore.Rot>
1.5470

> <Gold.Chemscore.Internal.Correction>
   9.000000E+99

> <Gold.Chemscore.Hbonds>
donor molecule, donor type, donor heavy atom, donor atom, acceptor molecule, acceptor atom, score
      P1  H  7997  8008       L1     7  0.93

> <Gold.Chemscore.Hbond.Weighted>
-3.2994

> <Gold.Chemscore.Metal.Weighted>
-0.0000

> <Gold.Chemscore.Lipo.Weighted>
-12.0560

> <Gold.Chemscore.Internal_Hbond.Weighted>
0.0000

> <Gold.Chemscore.DEClash.Weighted>
0.0169

> <Gold.Chemscore.DEInternal.Weighted>
0.8058

> <Gold.Chemscore.Rot.Weighted>
3.9603

> <Gold.Chemscore.Internal.Correction.Weighted>
   9.000000E+99

> <Gold.Protein.RotatedTorsions>
[ 6907 6896 6895 6894 ] final  148.53 input  -60.11 | X-H torsion
[ 7974 7965 7964 7962 ] final  146.75 input  175.53 | X-H torsion
[ 8008 7997 7996 7995 ] final -154.40 input   59.86 | X-H torsion
[ 10167 10162 10161 10158 ] final -177.41 input  -65.29 | X-H torsion
[ 10718 10713 10712 10709 ] final   11.05 input   66.30 | X-H torsion
[ 10763 10752 10751 10750 ] final   62.07 input  -60.55 | X-H torsion
[ 11005 11000 10999 10996 ] final   54.06 input  -57.11 | X-H torsion

> <Gold.Protein.ActiveResidues>
 VAL166  LYS551  ARG553  GLY616  TRP617  ASP618  TYR619  PRO620  LYS621  CYS622 
 ASP623  PHE694  ASN695  SER759  ASP760  ASP761  ALA762  ILE779  LEU786  VAL792 
 PHE793  MET794  SER795  GLU796  ALA797  LYS798  CYS799  TRP800  GLU811  SER814 

> <Gold.Protein.RotatedAtoms>
  152.1402  133.4459  159.4762 H   0  0  0  0  0  0  0  0  0  0  0  0  # atno 6907 bound_to 6896
  150.6885  134.2314  159.4445 H   0  0  0  0  0  0  0  0  0  0  0  0  # atno 6908 bound_to 6896
  152.0205  134.9825  160.0621 H   0  0  0  0  0  0  0  0  0  0  0  0  # atno 6909 bound_to 6896
  144.8646  139.5944  143.5915 H   0  0  0  0  0  0  0  0  0  0  0  0  # atno 7974 bound_to 7965
  155.6858  140.0749  157.2467 H   0  0  0  0  0  0  0  0  0  0  0  0  # atno 8008 bound_to 7997
  154.4097  140.1673  156.2084 H   0  0  0  0  0  0  0  0  0  0  0  0  # atno 8009 bound_to 7997
  155.9495  140.3378  155.6399 H   0  0  0  0  0  0  0  0  0  0  0  0  # atno 8010 bound_to 7997
  139.5481  144.2181  152.1027 H   0  0  0  0  0  0  0  0  0  0  0  0  # atno 10167 bound_to 10162
  156.9898  130.6038  149.5685 H   0  0  0  0  0  0  0  0  0  0  0  0  # atno 10718 bound_to 10713
  152.9970  135.5478  154.6134 H   0  0  0  0  0  0  0  0  0  0  0  0  # atno 10763 bound_to 10752
  154.5450  135.2822  155.1063 H   0  0  0  0  0  0  0  0  0  0  0  0  # atno 10764 bound_to 10752
  154.2326  135.6431  153.5233 H   0  0  0  0  0  0  0  0  0  0  0  0  # atno 10765 bound_to 10752
  140.0717  134.5460  155.9039 H   0  0  0  0  0  0  0  0  0  0  0  0  # atno 11005 bound_to 11000
  146.2886  139.7074  142.9177 LP  0  0  0  0  0  0  0  0  0  0  0  0  # atno 17320 bound_to 7965
  145.4246  141.0410  143.2944 LP  0  0  0  0  0  0  0  0  0  0  0  0  # atno 17321 bound_to 7965
  140.1671  144.4971  150.6600 LP  0  0  0  0  0  0  0  0  0  0  0  0  # atno 17342 bound_to 10162
  140.6736  143.2296  151.5564 LP  0  0  0  0  0  0  0  0  0  0  0  0  # atno 17343 bound_to 10162
  156.0211  130.5306  150.8279 LP  0  0  0  0  0  0  0  0  0  0  0  0  # atno 17370 bound_to 10713
  157.5466  131.0942  150.9753 LP  0  0  0  0  0  0  0  0  0  0  0  0  # atno 17371 bound_to 10713
  141.2014  133.6618  156.5950 LP  0  0  0  0  0  0  0  0  0  0  0  0  # atno 17394 bound_to 11000
  140.3617  134.7681  157.4538 LP  0  0  0  0  0  0  0  0  0  0  0  0  # atno 17395 bound_to 11000

$$$$
