AV-unprocessed.smi:723|AV-procd|sdf|3506|dock10
  -GOLD-   22720 0503D 1   1.00000     0.00000
 Structure written by MMmdl.
 42 44  0  0  0  0  0  0  0  0  1 V2000
  151.5488  143.9892  157.8834 C   0  0  0  0  0  0  0  0  0  0  0  0
  150.8573  142.8386  158.3372 O   0  0  0  0  0  0  0  0  0  0  0  0
  151.0716  141.7142  157.5011 C   0  0  0  0  0  0  0  0  0  0  0  0
  150.2873  141.9034  156.1963 C   0  0  0  0  0  0  0  0  0  0  0  0
  150.1089  140.6488  155.4913 N   0  0  0  0  0  0  0  0  0  0  0  0
  148.9279  139.9978  155.1933 C   0  0  0  0  0  0  0  0  0  0  0  0
  149.2910  138.8610  154.5280 C   0  0  0  0  0  0  0  0  0  0  0  0
  148.4758  137.8302  153.9960 N   0  0  0  0  0  0  0  0  0  0  0  0
  147.2863  137.4101  154.4570 C   0  0  0  0  0  0  0  0  0  0  0  0
  146.7037  137.8737  155.4377 O   0  0  0  0  0  0  0  0  0  0  0  0
  146.8047  136.4091  153.7087 N   0  0  0  0  0  0  0  0  0  0  0  0
  145.5645  135.7316  153.9215 C   0  0  2  0  0  0  0  0  0  0  0  0
  145.3310  134.3893  153.2503 C   0  0  2  0  0  0  0  0  0  0  0  0
  146.2801  133.7591  152.2420 C   0  0  0  0  0  0  0  0  0  0  0  0
  145.5964  133.5808  150.8719 C   0  0  0  0  0  0  0  0  0  0  0  0
  144.8141  134.8263  150.3812 C   0  0  0  0  0  0  0  0  0  0  0  0
  144.8811  136.0328  151.3379 C   0  0  0  0  0  0  0  0  0  0  0  0
  144.5841  135.6079  152.7680 C   0  0  2  0  0  0  0  0  0  0  0  0
  150.7083  138.8877  154.4602 C   0  0  0  0  0  0  0  0  0  0  0  0
  151.1955  139.9723  155.0433 N   0  0  0  0  0  0  0  0  0  0  0  0
  151.3602  144.8217  158.5610 H   0  0  0  0  0  0  0  0  0  0  0  0
  151.2146  144.2830  156.8874 H   0  0  0  0  0  0  0  0  0  0  0  0
  152.6256  143.8165  157.8548 H   0  0  0  0  0  0  0  0  0  0  0  0
  152.1365  141.6049  157.2888 H   0  0  0  0  0  0  0  0  0  0  0  0
  150.7407  140.8058  158.0074 H   0  0  0  0  0  0  0  0  0  0  0  0
  149.3040  142.3266  156.4057 H   0  0  0  0  0  0  0  0  0  0  0  0
  150.8020  142.6060  155.5393 H   0  0  0  0  0  0  0  0  0  0  0  0
  147.9654  140.3959  155.4788 H   0  0  0  0  0  0  0  0  0  0  0  0
  148.8369  137.3631  153.1772 H   0  0  0  0  0  0  0  0  0  0  0  0
  147.3572  136.0981  152.9233 H   0  0  0  0  0  0  0  0  0  0  0  0
  145.1102  135.8485  154.9045 H   0  0  0  0  0  0  0  0  0  0  0  0
  144.7289  133.6665  153.7980 H   0  0  0  0  0  0  0  0  0  0  0  0
  147.1644  134.3839  152.1207 H   0  0  0  0  0  0  0  0  0  0  0  0
  146.6323  132.8013  152.6261 H   0  0  0  0  0  0  0  0  0  0  0  0
  146.3434  133.2970  150.1299 H   0  0  0  0  0  0  0  0  0  0  0  0
  144.9065  132.7383  150.9318 H   0  0  0  0  0  0  0  0  0  0  0  0
  145.1705  135.1236  149.3946 H   0  0  0  0  0  0  0  0  0  0  0  0
  143.7683  134.5477  150.2454 H   0  0  0  0  0  0  0  0  0  0  0  0
  145.8717  136.4832  151.2785 H   0  0  0  0  0  0  0  0  0  0  0  0
  144.1733  136.8052  151.0358 H   0  0  0  0  0  0  0  0  0  0  0  0
  143.5254  135.6276  153.0204 H   0  0  0  0  0  0  0  0  0  0  0  0
  151.3855  138.1728  154.0164 H   0  0  0  0  0  0  0  0  0  0  0  0
  1  2  1  0  0  0  0
  1 21  1  0  0  0  0
  1 22  1  0  0  0  0
  1 23  1  0  0  0  0
  2  3  1  0  0  0  0
  3  4  1  0  0  0  0
  3 24  1  0  0  0  0
  3 25  1  0  0  0  0
  4  5  1  0  0  0  0
  4 26  1  0  0  0  0
  4 27  1  0  0  0  0
  5 20  1  0  0  0  0
  5  6  1  0  0  0  0
  6  7  2  0  0  0  0
  6 28  1  0  0  0  0
  7  8  1  0  0  0  0
  7 19  1  0  0  0  0
  8  9  1  0  0  0  0
  8 29  1  0  0  0  0
  9 10  2  0  0  0  0
  9 11  1  0  0  0  0
 11 12  1  0  0  0  0
 11 30  1  0  0  0  0
 12 18  1  0  0  0  0
 12 13  1  0  0  0  0
 12 31  1  0  0  0  0
 13 18  1  0  0  0  0
 13 14  1  0  0  0  0
 13 32  1  0  0  0  0
 14 15  1  0  0  0  0
 14 33  1  0  0  0  0
 14 34  1  0  0  0  0
 15 16  1  0  0  0  0
 15 35  1  0  0  0  0
 15 36  1  0  0  0  0
 16 17  1  0  0  0  0
 16 37  1  0  0  0  0
 16 38  1  0  0  0  0
 17 18  1  0  0  0  0
 17 39  1  0  0  0  0
 17 40  1  0  0  0  0
 18 41  1  0  0  0  0
 19 20  2  0  0  0  0
 19 42  1  0  0  0  0
M  END
> <s_m_source_file>
AV-unprocessed.smi

> <i_m_source_file_index>
723

> <i_lp_mmshare_version>
43012

> <i_f3d_flags>
0

> <s_epik_input>
W0NIM11PW0NIMl1bQ0gyXW4xW2NIXWMoW2NIXW4xKVtOSF1DKD1PKVtOSF1bQ0BIXTJbQ0BASF0oW0NAQEhdMjMpW0NIMl1bQ0gyXVtDSDJdW0NIMl0z

> <s_epik_cmdline>
J2VwaWtfcHl0aG9uJywgJy1waCcsICc3LjAnLCAnLXRuJywgJzgnLCAnLW1hJywgJzIwMCcsICctbWV0YWxfYmluZGluZycsICctaW1hZScsICc8aW5maWxlLm1hZT4nLCAnLW9tYWUnLCAnPG91dGZpbGUubWFlPic=

> <r_lp_tautomer_probability>
1

> <r_epik_Ionization_Penalty>
0.00031755

> <r_epik_Ionization_Penalty_Charging>
0

> <r_epik_Ionization_Penalty_Neutral>
0.00031755

> <r_epik_State_Penalty>
-0

> <r_epik_Charging_Adjusted_Penalty>
0

> <i_epik_Tot_Q>
0

> <i_epik_Tot_abs_Q>
0

> <r_epik_Metal_State_Penalty>
-0

> <b_epik_Metal_Only>
0

> <s_lp_Force_Field>
OPLS_2005

> <r_lp_Energy>
44.2387

> <b_lp_Chiralities_Consistent>
1

> <s_lp_Variant>
AV-unprocessed.smi:723-2

> <Gold.Version>
5.8.1

> <Gold.Id.Protein>
6NUR|6NUR_protein|mol2

> <Gold.PLP.Fitness>
40.8598

> <Gold.PLP.PLP>
-32.8866

> <Gold.PLP.part.hbond>
-3.0000

> <Gold.PLP.part.metal>
0.0000

> <Gold.PLP.part.buried>
-3.4913

> <Gold.PLP.part.nonpolar>
-26.1496

> <Gold.PLP.part.repulsive>
0.1684

> <Gold.PLP.ligand.clash>
0.0000

> <Gold.PLP.ligand.torsion>
0.4672

> <Gold.PLP.Chemscore.Hbond>
2.9500

> <Gold.PLP.Chemscore.CHOScore>
0.0000

> <Gold.PLP.Chemscore.Metal>
0.0000

> <Gold.Chemscore.Hbonds>
donor molecule, donor type, donor heavy atom, donor atom, acceptor molecule, acceptor atom, score
      L1  H     8    29       P1  7948  1.00
      L1  H    11    30       P1  7948  1.00
      P1  H  7989  7998       L1    20  0.85

> <Gold.PLP.Chemscore.Internal.Correction>
0.0577

> <Gold.Rescore>
     Score         DG    S(hbond)    S(metal)    S(lipo)     H(rot)  DE(clash)    DE(int)     intcor
     16.44     -17.19       2.01        0.00      76.82       1.56       0.08       0.67       ----

> <Gold.Chemscore.Fitness>
16.4360

> <Gold.Chemscore.DG>
-17.1855

> <Gold.Chemscore.ZeroCoef>
-5.4800

> <Gold.Chemscore.Hbond>
2.0115

> <Gold.Chemscore.Metal>
0.0000

> <Gold.Chemscore.Lipo>
76.8166

> <Gold.Chemscore.Internal_Hbond>
0.0000

> <Gold.Chemscore.DEClash>
0.0839

> <Gold.Chemscore.DEInternal>
0.6656

> <Gold.Chemscore.Rot>
1.5627

> <Gold.Chemscore.Internal.Correction>
   9.000000E+99

> <Gold.Chemscore.Hbonds>
donor molecule, donor type, donor heavy atom, donor atom, acceptor molecule, acceptor atom, score
      L1  H     8    29       P1  7948  1.00
      L1  H    11    30       P1  7948  0.94
      P1  H  7989  7998       L1    20  0.06

> <Gold.Chemscore.Hbond.Weighted>
-6.7184

> <Gold.Chemscore.Metal.Weighted>
-0.0000

> <Gold.Chemscore.Lipo.Weighted>
-8.9875

> <Gold.Chemscore.Internal_Hbond.Weighted>
0.0000

> <Gold.Chemscore.DEClash.Weighted>
0.0839

> <Gold.Chemscore.DEInternal.Weighted>
0.6656

> <Gold.Chemscore.Rot.Weighted>
4.0005

> <Gold.Chemscore.Internal.Correction.Weighted>
   9.000000E+99

> <Gold.Protein.RotatedTorsions>
[ 6907 6896 6895 6894 ] final   67.60 input  -60.11 | X-H torsion
[ 7974 7965 7964 7962 ] final   15.60 input  175.53 | X-H torsion
[ 8008 7997 7996 7995 ] final   86.05 input   59.86 | X-H torsion
[ 10167 10162 10161 10158 ] final -100.08 input  -65.29 | X-H torsion
[ 10718 10713 10712 10709 ] final  -66.96 input   66.30 | X-H torsion
[ 10763 10752 10751 10750 ] final  -30.03 input  -60.55 | X-H torsion
[ 11005 11000 10999 10996 ] final  -93.31 input  -57.11 | X-H torsion

> <Gold.Protein.ActiveResidues>
 VAL166  LYS551  ARG553  GLY616  TRP617  ASP618  TYR619  PRO620  LYS621  CYS622 
 ASP623  PHE694  ASN695  SER759  ASP760  ASP761  ALA762  ILE779  LEU786  VAL792 
 PHE793  MET794  SER795  GLU796  ALA797  LYS798  CYS799  TRP800  GLU811  SER814 

> <Gold.Protein.RotatedAtoms>
  152.4563  134.5284  159.9803 H   0  0  0  0  0  0  0  0  0  0  0  0  # atno 6907 bound_to 6896
  151.5344  133.3437  159.2932 H   0  0  0  0  0  0  0  0  0  0  0  0  # atno 6908 bound_to 6896
  150.8508  134.7863  159.7070 H   0  0  0  0  0  0  0  0  0  0  0  0  # atno 6909 bound_to 6896
  146.2274  139.8871  142.8561 H   0  0  0  0  0  0  0  0  0  0  0  0  # atno 7974 bound_to 7965
  155.9578  140.3396  155.6464 H   0  0  0  0  0  0  0  0  0  0  0  0  # atno 8008 bound_to 7997
  155.6837  140.0741  157.2493 H   0  0  0  0  0  0  0  0  0  0  0  0  # atno 8009 bound_to 7997
  154.4136  140.1670  156.1997 H   0  0  0  0  0  0  0  0  0  0  0  0  # atno 8010 bound_to 7997
  140.2557  143.3442  152.0673 H   0  0  0  0  0  0  0  0  0  0  0  0  # atno 10167 bound_to 10162
  156.0584  130.4270  150.1784 H   0  0  0  0  0  0  0  0  0  0  0  0  # atno 10718 bound_to 10713
  153.7743  135.6910  153.4900 H   0  0  0  0  0  0  0  0  0  0  0  0  # atno 10763 bound_to 10752
  153.1854  135.4491  155.0080 H   0  0  0  0  0  0  0  0  0  0  0  0  # atno 10764 bound_to 10752
  154.8106  135.3376  154.7250 H   0  0  0  0  0  0  0  0  0  0  0  0  # atno 10765 bound_to 10752
  141.1500  133.7879  157.0142 H   0  0  0  0  0  0  0  0  0  0  0  0  # atno 11005 bound_to 11000
  145.2455  141.0025  143.3911 LP  0  0  0  0  0  0  0  0  0  0  0  0  # atno 17320 bound_to 7965
  144.9417  139.4181  143.6445 LP  0  0  0  0  0  0  0  0  0  0  0  0  # atno 17321 bound_to 7965
  139.5032  144.6751  151.6148 LP  0  0  0  0  0  0  0  0  0  0  0  0  # atno 17342 bound_to 10162
  140.6006  143.9617  150.6383 LP  0  0  0  0  0  0  0  0  0  0  0  0  # atno 17343 bound_to 10162
  156.9856  130.9878  151.3427 LP  0  0  0  0  0  0  0  0  0  0  0  0  # atno 17370 bound_to 10713
  157.5573  130.8222  149.8220 LP  0  0  0  0  0  0  0  0  0  0  0  0  # atno 17371 bound_to 10713
  140.0857  134.9622  157.1697 LP  0  0  0  0  0  0  0  0  0  0  0  0  # atno 17394 bound_to 11000
  140.3514  134.2594  155.7198 LP  0  0  0  0  0  0  0  0  0  0  0  0  # atno 17395 bound_to 11000

$$$$
