AV-unprocessed.smi:236|AV-procd|sdf|1812|dock4
  -GOLD-   2262020393D 1   1.00000     0.00000
 Structure written by MMmdl.
 58 62  0  0  0  0  0  0  0  0  1 V2000
  145.6539  131.0687  153.5273 C   0  0  0  0  0  0  0  0  0  0  0  0
  146.1699  132.0924  152.5054 C   0  0  1  0  0  0  0  0  0  0  0  0
  145.0860  132.7833  151.8899 O   0  0  0  0  0  0  0  0  0  0  0  0
  145.4690  134.1203  151.5796 C   0  0  0  0  0  0  0  0  0  0  0  0
  146.9541  134.2150  151.9175 C   0  0  0  0  0  0  0  0  0  0  0  0
  147.1075  133.1926  153.0375 C   0  0  2  0  0  0  0  0  0  0  0  0
  148.4456  132.7329  153.0562 O   0  0  0  0  0  0  0  0  0  0  0  0
  146.7173  133.7313  154.4420 C   0  0  0  0  0  0  0  0  0  0  0  0
  147.5859  134.7900  154.9321 N   0  0  0  0  0  0  0  0  0  0  0  0
  147.6003  136.1028  154.5174 C   0  0  0  0  0  0  0  0  0  0  0  0
  148.4815  136.8635  155.1069 N   0  0  0  0  0  0  0  0  0  0  0  0
  149.1093  136.0161  156.0122 C   0  0  0  0  0  0  0  0  0  0  0  0
  150.1534  136.1743  156.9675 C   0  0  0  0  0  0  0  0  0  0  0  0
  150.8288  137.3205  157.1935 N   0  0  0  0  0  0  0  0  0  0  0  0
  151.5730  137.7819  156.0300 C   0  0  0  0  0  0  0  0  0  0  0  0
  152.4457  138.9876  156.4131 C   0  0  0  0  0  0  0  0  0  0  0  0
  151.6270  140.0005  156.9899 O   0  0  0  0  0  0  0  0  0  0  0  0
  150.9781  139.5640  158.1834 C   0  0  1  0  0  0  0  0  0  0  0  0
  150.1894  140.7475  158.7576 C   0  0  0  0  0  0  0  0  0  0  0  0
  151.0065  141.9058  158.7270 O   0  0  0  0  0  0  0  0  0  0  0  0
  151.9330  141.9493  159.7981 C   0  0  0  0  0  0  0  0  0  0  0  0
  152.7580  143.2137  159.6880 C   0  0  0  0  0  0  0  0  0  0  0  0
  152.1063  144.5764  159.7593 C   0  0  0  0  0  0  0  0  0  0  0  0
  152.6617  144.0768  158.4503 C   0  0  0  0  0  0  0  0  0  0  0  0
  150.0563  138.3806  157.8298 C   0  0  0  0  0  0  0  0  0  0  0  0
  150.5230  135.0903  157.6921 N   0  0  0  0  0  0  0  0  0  0  0  0
  149.9061  133.9196  157.5047 C   0  0  0  0  0  0  0  0  0  0  0  0
  148.9202  133.6211  156.6555 N   0  0  0  0  0  0  0  0  0  0  0  0
  148.5536  134.7089  155.9183 C   0  0  0  0  0  0  0  0  0  0  0  0
  146.4807  130.5593  154.0230 H   0  0  0  0  0  0  0  0  0  0  0  0
  145.0446  130.3100  153.0362 H   0  0  0  0  0  0  0  0  0  0  0  0
  145.0354  131.5370  154.2928 H   0  0  0  0  0  0  0  0  0  0  0  0
  146.6794  131.5535  151.7041 H   0  0  0  0  0  0  0  0  0  0  0  0
  145.2672  134.3592  150.5352 H   0  0  0  0  0  0  0  0  0  0  0  0
  144.8887  134.8033  152.2008 H   0  0  0  0  0  0  0  0  0  0  0  0
  147.5324  133.9066  151.0445 H   0  0  0  0  0  0  0  0  0  0  0  0
  147.2735  135.2249  152.1705 H   0  0  0  0  0  0  0  0  0  0  0  0
  148.4775  131.8849  152.6398 H   0  0  0  0  0  0  0  0  0  0  0  0
  145.6963  134.1139  154.4308 H   0  0  0  0  0  0  0  0  0  0  0  0
  146.7299  132.9250  155.1761 H   0  0  0  0  0  0  0  0  0  0  0  0
  146.9394  136.4781  153.7495 H   0  0  0  0  0  0  0  0  0  0  0  0
  152.1983  136.9769  155.6419 H   0  0  0  0  0  0  0  0  0  0  0  0
  150.8776  138.0628  155.2376 H   0  0  0  0  0  0  0  0  0  0  0  0
  153.2291  138.6945  157.1138 H   0  0  0  0  0  0  0  0  0  0  0  0
  152.9412  139.3893  155.5294 H   0  0  0  0  0  0  0  0  0  0  0  0
  151.7226  139.2408  158.9135 H   0  0  0  0  0  0  0  0  0  0  0  0
  149.2701  140.9026  158.1905 H   0  0  0  0  0  0  0  0  0  0  0  0
  149.9072  140.5395  159.7910 H   0  0  0  0  0  0  0  0  0  0  0  0
  151.4056  141.9561  160.7529 H   0  0  0  0  0  0  0  0  0  0  0  0
  152.5864  141.0755  159.7807 H   0  0  0  0  0  0  0  0  0  0  0  0
  153.7526  143.1285  160.1223 H   0  0  0  0  0  0  0  0  0  0  0  0
  151.0238  144.6170  159.8629 H   0  0  0  0  0  0  0  0  0  0  0  0
  152.6526  145.3676  160.2687 H   0  0  0  0  0  0  0  0  0  0  0  0
  153.5790  144.5337  158.0852 H   0  0  0  0  0  0  0  0  0  0  0  0
  151.9482  143.7851  157.6821 H   0  0  0  0  0  0  0  0  0  0  0  0
  149.2661  138.7226  157.1612 H   0  0  0  0  0  0  0  0  0  0  0  0
  149.5749  137.9952  158.7298 H   0  0  0  0  0  0  0  0  0  0  0  0
  150.2546  133.1047  158.1218 H   0  0  0  0  0  0  0  0  0  0  0  0
  1  2  1  0  0  0  0
  1 30  1  0  0  0  0
  1 31  1  0  0  0  0
  1 32  1  0  0  0  0
  2  6  1  0  0  0  0
  2  3  1  0  0  0  0
  2 33  1  0  0  0  0
  3  4  1  0  0  0  0
  4  5  1  0  0  0  0
  4 34  1  0  0  0  0
  4 35  1  0  0  0  0
  5  6  1  0  0  0  0
  5 36  1  0  0  0  0
  5 37  1  0  0  0  0
  6  7  1  0  0  0  0
  6  8  1  0  0  0  0
  7 38  1  0  0  0  0
  8  9  1  0  0  0  0
  8 39  1  0  0  0  0
  8 40  1  0  0  0  0
  9 29  1  0  0  0  0
  9 10  1  0  0  0  0
 10 11  2  0  0  0  0
 10 41  1  0  0  0  0
 11 12  1  0  0  0  0
 12 29  2  0  0  0  0
 12 13  1  0  0  0  0
 13 14  1  0  0  0  0
 13 26  2  0  0  0  0
 14 25  1  0  0  0  0
 14 15  1  0  0  0  0
 15 16  1  0  0  0  0
 15 42  1  0  0  0  0
 15 43  1  0  0  0  0
 16 17  1  0  0  0  0
 16 44  1  0  0  0  0
 16 45  1  0  0  0  0
 17 18  1  0  0  0  0
 18 19  1  0  0  0  0
 18 25  1  0  0  0  0
 18 46  1  0  0  0  0
 19 20  1  0  0  0  0
 19 47  1  0  0  0  0
 19 48  1  0  0  0  0
 20 21  1  0  0  0  0
 21 22  1  0  0  0  0
 21 49  1  0  0  0  0
 21 50  1  0  0  0  0
 22 24  1  0  0  0  0
 22 23  1  0  0  0  0
 22 51  1  0  0  0  0
 23 24  1  0  0  0  0
 23 52  1  0  0  0  0
 23 53  1  0  0  0  0
 24 54  1  0  0  0  0
 24 55  1  0  0  0  0
 25 56  1  0  0  0  0
 25 57  1  0  0  0  0
 26 27  1  0  0  0  0
 27 28  2  0  0  0  0
 27 58  1  0  0  0  0
 28 29  1  0  0  0  0
M  END
> <s_m_source_file>
AV-unprocessed.smi

> <i_m_source_file_index>
236

> <i_lp_mmshare_version>
43012

> <i_f3d_flags>
0

> <s_epik_input>
W0NIMl0xW0NIMl1PW0NAQEhdKFtDSDNdKVtDQEBdMShbT0hdKVtDSDJdbihbY0hdbjIpYyhjMjMpbltjSF1uYzNONFtDSDJdW0NIMl1PW0NASF0oW0NIMl00KVtDSDJdT1tDSDJdW0NIXTVbQ0gyXVtDSDJdNQ==

> <s_epik_cmdline>
J2VwaWtfcHl0aG9uJywgJy1waCcsICc3LjAnLCAnLXRuJywgJzgnLCAnLW1hJywgJzIwMCcsICctbWV0YWxfYmluZGluZycsICctaW1hZScsICc8aW5maWxlLm1hZT4nLCAnLW9tYWUnLCAnPG91dGZpbGUubWFlPic=

> <r_lp_tautomer_probability>
1

> <r_epik_Ionization_Penalty>
7.21838e-05

> <r_epik_Ionization_Penalty_Charging>
0

> <r_epik_Ionization_Penalty_Neutral>
7.21838e-05

> <r_epik_State_Penalty>
-0

> <r_epik_Charging_Adjusted_Penalty>
0

> <i_epik_Tot_Q>
0

> <i_epik_Tot_abs_Q>
0

> <r_epik_Metal_State_Penalty>
-0

> <b_epik_Metal_Only>
0

> <s_lp_Force_Field>
OPLS_2005

> <r_lp_Energy>
49.6686

> <b_lp_Chiralities_Consistent>
1

> <s_lp_Variant>
AV-unprocessed.smi:236-4

> <Gold.Version>
5.8.1

> <Gold.Id.Protein>
6NUR|6NUR_protein|mol2

> <Gold.PLP.Fitness>
47.2790

> <Gold.PLP.PLP>
-42.1285

> <Gold.PLP.part.hbond>
-2.1799

> <Gold.PLP.part.metal>
0.0000

> <Gold.PLP.part.buried>
-3.3827

> <Gold.PLP.part.nonpolar>
-35.9561

> <Gold.PLP.part.repulsive>
0.3046

> <Gold.PLP.ligand.clash>
0.0000

> <Gold.PLP.ligand.torsion>
0.8312

> <Gold.PLP.Chemscore.Hbond>
2.0000

> <Gold.PLP.Chemscore.CHOScore>
0.0000

> <Gold.PLP.Chemscore.Metal>
0.0000

> <Gold.Chemscore.Hbonds>
donor molecule, donor type, donor heavy atom, donor atom, acceptor molecule, acceptor atom, score
      L1  C    10    41       P1  7948  0.09

> <Gold.PLP.Chemscore.Internal.Correction>
0.8129

> <Gold.Rescore>
     Score         DG    S(hbond)    S(metal)    S(lipo)     H(rot)  DE(clash)    DE(int)     intcor
     13.41     -14.09       1.12        0.00     104.20       2.87       0.06       0.62       ----

> <Gold.Chemscore.Fitness>
13.4112

> <Gold.Chemscore.DG>
-14.0884

> <Gold.Chemscore.ZeroCoef>
-5.4800

> <Gold.Chemscore.Hbond>
1.1235

> <Gold.Chemscore.Metal>
0.0000

> <Gold.Chemscore.Lipo>
104.2025

> <Gold.Chemscore.Internal_Hbond>
0.0000

> <Gold.Chemscore.DEClash>
0.0561

> <Gold.Chemscore.DEInternal>
0.6210

> <Gold.Chemscore.Rot>
2.8655

> <Gold.Chemscore.Internal.Correction>
   9.000000E+99

> <Gold.Chemscore.Hbond.Weighted>
-3.7525

> <Gold.Chemscore.Metal.Weighted>
-0.0000

> <Gold.Chemscore.Lipo.Weighted>
-12.1917

> <Gold.Chemscore.Internal_Hbond.Weighted>
0.0000

> <Gold.Chemscore.DEClash.Weighted>
0.0561

> <Gold.Chemscore.DEInternal.Weighted>
0.6210

> <Gold.Chemscore.Rot.Weighted>
7.3358

> <Gold.Chemscore.Internal.Correction.Weighted>
   9.000000E+99

> <Gold.Protein.RotatedTorsions>
[ 6907 6896 6895 6894 ] final  -85.01 input  -60.11 | X-H torsion
[ 7974 7965 7964 7962 ] final  -49.46 input  175.53 | X-H torsion
[ 8008 7997 7996 7995 ] final  161.66 input   59.86 | X-H torsion
[ 10167 10162 10161 10158 ] final   62.11 input  -65.29 | X-H torsion
[ 10718 10713 10712 10709 ] final  -67.82 input   66.30 | X-H torsion
[ 10763 10752 10751 10750 ] final   95.07 input  -60.55 | X-H torsion
[ 11005 11000 10999 10996 ] final   80.23 input  -57.11 | X-H torsion

> <Gold.Protein.ActiveResidues>
 VAL166  LYS551  ARG553  GLY616  TRP617  ASP618  TYR619  PRO620  LYS621  CYS622 
 ASP623  PHE694  ASN695  SER759  ASP760  ASP761  ALA762  ILE779  LEU786  VAL792 
 PHE793  MET794  SER795  GLU796  ALA797  LYS798  CYS799  TRP800  GLU811  SER814 

> <Gold.Protein.RotatedAtoms>
  150.6872  134.3271  159.4810 H   0  0  0  0  0  0  0  0  0  0  0  0  # atno 6907 bound_to 6896
  152.1139  134.9251  160.0575 H   0  0  0  0  0  0  0  0  0  0  0  0  # atno 6908 bound_to 6896
  152.0483  133.3973  159.4403 H   0  0  0  0  0  0  0  0  0  0  0  0  # atno 6909 bound_to 6896
  145.9404  140.7668  142.9555 H   0  0  0  0  0  0  0  0  0  0  0  0  # atno 7974 bound_to 7965
  156.2087  140.1771  156.7743 H   0  0  0  0  0  0  0  0  0  0  0  0  # atno 8008 bound_to 7997
  154.5691  140.0685  156.8967 H   0  0  0  0  0  0  0  0  0  0  0  0  # atno 8009 bound_to 7997
  155.2705  140.3342  155.4268 H   0  0  0  0  0  0  0  0  0  0  0  0  # atno 8010 bound_to 7997
  140.1475  144.4495  150.6777 H   0  0  0  0  0  0  0  0  0  0  0  0  # atno 10167 bound_to 10162
  156.0537  130.4284  150.1910 H   0  0  0  0  0  0  0  0  0  0  0  0  # atno 10718 bound_to 10713
  153.2489  135.4267  155.0776 H   0  0  0  0  0  0  0  0  0  0  0  0  # atno 10763 bound_to 10752
  154.8373  135.3421  154.6541 H   0  0  0  0  0  0  0  0  0  0  0  0  # atno 10764 bound_to 10752
  153.6963  135.7031  153.5132 H   0  0  0  0  0  0  0  0  0  0  0  0  # atno 10765 bound_to 10752
  139.9142  134.7904  156.1882 H   0  0  0  0  0  0  0  0  0  0  0  0  # atno 11005 bound_to 11000
  144.6778  140.2270  143.7360 LP  0  0  0  0  0  0  0  0  0  0  0  0  # atno 17320 bound_to 7965
  145.8308  139.2085  143.1884 LP  0  0  0  0  0  0  0  0  0  0  0  0  # atno 17321 bound_to 7965
  140.6723  143.2291  151.5594 LP  0  0  0  0  0  0  0  0  0  0  0  0  # atno 17342 bound_to 10162
  139.5442  144.2566  152.1410 LP  0  0  0  0  0  0  0  0  0  0  0  0  # atno 17343 bound_to 10162
  156.9990  130.9916  151.3396 LP  0  0  0  0  0  0  0  0  0  0  0  0  # atno 17370 bound_to 10713
  157.5488  130.8168  149.8119 LP  0  0  0  0  0  0  0  0  0  0  0  0  # atno 17371 bound_to 10713
  141.0600  133.6846  156.1934 LP  0  0  0  0  0  0  0  0  0  0  0  0  # atno 17394 bound_to 11000
  140.6676  134.4902  157.5586 LP  0  0  0  0  0  0  0  0  0  0  0  0  # atno 17395 bound_to 11000

$$$$
