AV-unprocessed.smi:1973|AV-procd|sdf|7976|dock1
  -GOLD-   2272010153D 1   1.00000     0.00000
 Structure written by MMmdl.
 48 50  0  0  0  0  0  0  0  0  2 V2000
  154.9283  138.2330  158.7207 C   0  0  0  0  0  0  0  0  0  0  0  0
  154.3767  138.7079  157.5051 O   0  0  0  0  0  0  0  0  0  0  0  0
  153.6987  137.6930  156.7843 C   0  0  0  0  0  0  0  0  0  0  0  0
  153.2360  138.2652  155.4357 C   0  0  0  0  0  0  0  0  0  0  0  0
  151.8152  137.9949  155.1903 N   0  0  0  0  0  0  0  0  0  0  0  0
  151.4579  136.6654  155.3424 N   0  0  0  0  0  0  0  0  0  0  0  0
  150.2371  136.2913  155.1407 C   0  0  0  0  0  0  0  0  0  0  0  0
  149.8675  134.8551  155.2948 C   0  0  0  0  0  0  0  0  0  0  0  0
  150.0687  134.2566  156.3530 O   0  0  0  0  0  0  0  0  0  0  0  0
  149.3128  134.2611  154.2237 N   0  0  0  0  0  0  0  0  0  0  0  0
  148.8960  132.8644  154.1560 C   0  0  0  0  0  0  0  0  0  0  0  0
  147.4935  132.7055  153.5384 C   0  0  2  0  0  0  0  0  0  0  0  0
  147.0122  131.2598  153.4535 C   0  0  0  0  0  0  0  0  0  0  0  0
  145.9032  131.3423  152.4086 C   0  0  0  0  0  0  0  0  0  0  0  0
  146.3677  132.3409  151.4226 N   0  3  1  0  0  0  0  0  0  0  0  0
  145.2743  133.0801  150.7569 C   0  0  0  0  0  0  0  0  0  0  0  0
  144.0361  133.2232  151.6090 C   0  0  0  0  0  0  0  0  0  0  0  0
  144.0608  132.2291  150.4680 C   0  0  0  0  0  0  0  0  0  0  0  0
  147.3674  133.2067  152.0909 C   0  0  0  0  0  0  0  0  0  0  0  0
  149.2149  137.2600  154.7646 C   0  0  0  0  0  0  0  0  0  0  0  0
  149.5788  138.5537  154.6276 C   0  0  0  0  0  0  0  0  0  0  0  0
  150.9559  138.9993  154.8423 C   0  0  0  0  0  0  0  0  0  0  0  0
  151.3095  140.1719  154.7219 O   0  0  0  0  0  0  0  0  0  0  0  0
  155.4463  139.0454  159.2305 H   0  0  0  0  0  0  0  0  0  0  0  0
  155.6486  137.4334  158.5424 H   0  0  0  0  0  0  0  0  0  0  0  0
  154.1492  137.8608  159.3871 H   0  0  0  0  0  0  0  0  0  0  0  0
  154.3644  136.8434  156.6235 H   0  0  0  0  0  0  0  0  0  0  0  0
  152.8432  137.3373  157.3605 H   0  0  0  0  0  0  0  0  0  0  0  0
  153.4279  139.3390  155.3998 H   0  0  0  0  0  0  0  0  0  0  0  0
  153.8411  137.8363  154.6348 H   0  0  0  0  0  0  0  0  0  0  0  0
  149.1888  134.8160  153.3888 H   0  0  0  0  0  0  0  0  0  0  0  0
  149.6314  132.3233  153.5596 H   0  0  0  0  0  0  0  0  0  0  0  0
  148.9232  132.4209  155.1527 H   0  0  0  0  0  0  0  0  0  0  0  0
  146.7723  133.2530  154.1477 H   0  0  0  0  0  0  0  0  0  0  0  0
  147.8132  130.6104  153.0968 H   0  0  0  0  0  0  0  0  0  0  0  0
  146.6623  130.8718  154.4106 H   0  0  0  0  0  0  0  0  0  0  0  0
  145.6963  130.3809  151.9378 H   0  0  0  0  0  0  0  0  0  0  0  0
  144.9834  131.6893  152.8828 H   0  0  0  0  0  0  0  0  0  0  0  0
  145.5697  133.8722  150.0706 H   0  0  0  0  0  0  0  0  0  0  0  0
  144.0587  132.8256  152.6223 H   0  0  0  0  0  0  0  0  0  0  0  0
  143.4348  134.1202  151.4751 H   0  0  0  0  0  0  0  0  0  0  0  0
  143.4762  132.4722  149.5829 H   0  0  0  0  0  0  0  0  0  0  0  0
  144.0996  131.1715  150.7235 H   0  0  0  0  0  0  0  0  0  0  0  0
  147.0923  134.2624  152.0623 H   0  0  0  0  0  0  0  0  0  0  0  0
  148.3120  133.1007  151.5563 H   0  0  0  0  0  0  0  0  0  0  0  0
  148.1869  136.9749  154.5990 H   0  0  0  0  0  0  0  0  0  0  0  0
  148.8322  139.2838  154.3515 H   0  0  0  0  0  0  0  0  0  0  0  0
  146.8678  131.8326  150.7074 H   0  0  0  0  0  0  0  0  0  0  0  0
  1  2  1  0  0  0  0
  1 24  1  0  0  0  0
  1 25  1  0  0  0  0
  1 26  1  0  0  0  0
  2  3  1  0  0  0  0
  3  4  1  0  0  0  0
  3 27  1  0  0  0  0
  3 28  1  0  0  0  0
  4  5  1  0  0  0  0
  4 29  1  0  0  0  0
  4 30  1  0  0  0  0
  5 22  1  0  0  0  0
  5  6  1  0  0  0  0
  6  7  2  0  0  0  0
  7  8  1  0  0  0  0
  7 20  1  0  0  0  0
  8  9  2  0  0  0  0
  8 10  1  0  0  0  0
 10 11  1  0  0  0  0
 10 31  1  0  0  0  0
 11 12  1  0  0  0  0
 11 32  1  0  0  0  0
 11 33  1  0  0  0  0
 12 19  1  0  0  0  0
 12 13  1  0  0  0  0
 12 34  1  0  0  0  0
 13 14  1  0  0  0  0
 13 35  1  0  0  0  0
 13 36  1  0  0  0  0
 14 15  1  0  0  0  0
 14 37  1  0  0  0  0
 14 38  1  0  0  0  0
 15 16  1  0  0  0  0
 15 19  1  0  0  0  0
 15 48  1  0  0  0  0
 16 18  1  0  0  0  0
 16 17  1  0  0  0  0
 16 39  1  0  0  0  0
 17 18  1  0  0  0  0
 17 40  1  0  0  0  0
 17 41  1  0  0  0  0
 18 42  1  0  0  0  0
 18 43  1  0  0  0  0
 19 44  1  0  0  0  0
 19 45  1  0  0  0  0
 20 21  2  0  0  0  0
 20 46  1  0  0  0  0
 21 22  1  0  0  0  0
 21 47  1  0  0  0  0
 22 23  2  0  0  0  0
M  CHG  1  15   1
M  END
> <s_m_source_file>
AV-unprocessed.smi

> <i_m_source_file_index>
1973

> <i_lp_mmshare_version>
43012

> <i_f3d_flags>
0

> <s_epik_input>
W0NIM11PW0NIMl1bQ0gyXW4xbmMoW2NIXVtjSF1jMT1PKUMoPU8pW05IXVtDSDJdW0NAQEhdMltDSDJdW0NIMl1OKFtDSDJdMilbQ0hdM1tDSDJdW0NIMl0z

> <s_epik_cmdline>
J2VwaWtfcHl0aG9uJywgJy1waCcsICc3LjAnLCAnLXRuJywgJzgnLCAnLW1hJywgJzIwMCcsICctbWV0YWxfYmluZGluZycsICctaW1hZScsICc8aW5maWxlLm1hZT4nLCAnLW9tYWUnLCAnPG91dGZpbGUubWFlPic=

> <r_lp_tautomer_probability>
1

> <r_epik_Ionization_Penalty>
0.000225706

> <r_epik_Ionization_Penalty_Charging>
0.000223776

> <r_epik_Ionization_Penalty_Neutral>
1.93004e-06

> <r_epik_State_Penalty>
-0

> <r_epik_Charging_Adjusted_Penalty>
0.000223776

> <i_epik_Tot_Q>
1

> <i_epik_Tot_abs_Q>
1

> <r_epik_Metal_State_Penalty>
-0

> <b_epik_Metal_Only>
0

> <s_lp_Force_Field>
OPLS_2005

> <r_lp_Energy>
57.8958

> <b_lp_Chiralities_Consistent>
1

> <s_lp_Variant>
AV-unprocessed.smi:1973-1

> <Gold.Version>
5.8.1

> <Gold.Id.Protein>
6NUR|6NUR_protein|mol2

> <Gold.PLP.Fitness>
47.8193

> <Gold.PLP.PLP>
-37.9241

> <Gold.PLP.part.hbond>
-4.7086

> <Gold.PLP.part.metal>
0.0000

> <Gold.PLP.part.buried>
-3.4365

> <Gold.PLP.part.nonpolar>
-31.1763

> <Gold.PLP.part.repulsive>
0.2229

> <Gold.PLP.ligand.clash>
0.0000

> <Gold.PLP.ligand.torsion>
2.2032

> <Gold.PLP.Chemscore.Hbond>
4.3413

> <Gold.PLP.Chemscore.CHOScore>
0.0000

> <Gold.PLP.Chemscore.Metal>
0.0000

> <Gold.Chemscore.Hbonds>
donor molecule, donor type, donor heavy atom, donor atom, acceptor molecule, acceptor atom, score
      L1  H    10    31       P1  7948  0.67
      L1  H    15    48       P1 10747  0.15
      P1  H  7989  7998       L1    23  0.78
      P1  H  7997  8008       L1     2  0.52
      P1  H 10752 10764       L1     6  1.00

> <Gold.PLP.Chemscore.Internal.Correction>
1.2780

> <Gold.Rescore>
     Score         DG    S(hbond)    S(metal)    S(lipo)     H(rot)  DE(clash)    DE(int)     intcor
     18.69     -21.44       3.19        0.00      88.55       1.97       0.42       2.33       ----

> <Gold.Chemscore.Fitness>
18.6882

> <Gold.Chemscore.DG>
-21.4402

> <Gold.Chemscore.ZeroCoef>
-5.4800

> <Gold.Chemscore.Hbond>
3.1872

> <Gold.Chemscore.Metal>
0.0000

> <Gold.Chemscore.Lipo>
88.5544

> <Gold.Chemscore.Internal_Hbond>
0.0000

> <Gold.Chemscore.DEClash>
0.4211

> <Gold.Chemscore.DEInternal>
2.3310

> <Gold.Chemscore.Rot>
1.9711

> <Gold.Chemscore.Internal.Correction>
   9.000000E+99

> <Gold.Chemscore.Hbonds>
donor molecule, donor type, donor heavy atom, donor atom, acceptor molecule, acceptor atom, score
      L1  H    10    31       P1  7948  0.07
      L1  H    15    48       P1 10747  0.16
      P1  H  7989  7998       L1    23  0.76
      P1  H  7997  8008       L1     2  0.51
      P1  H 10752 10764       L1     6  0.58

> <Gold.Chemscore.Hbond.Weighted>
-10.6454

> <Gold.Chemscore.Metal.Weighted>
-0.0000

> <Gold.Chemscore.Lipo.Weighted>
-10.3609

> <Gold.Chemscore.Internal_Hbond.Weighted>
0.0000

> <Gold.Chemscore.DEClash.Weighted>
0.4211

> <Gold.Chemscore.DEInternal.Weighted>
2.3310

> <Gold.Chemscore.Rot.Weighted>
5.0460

> <Gold.Chemscore.Internal.Correction.Weighted>
   9.000000E+99

> <Gold.Protein.RotatedTorsions>
[ 6907 6896 6895 6894 ] final  177.31 input  -60.11 | X-H torsion
[ 7974 7965 7964 7962 ] final   32.34 input  175.53 | X-H torsion
[ 8008 7997 7996 7995 ] final  -88.19 input   59.86 | X-H torsion
[ 10167 10162 10161 10158 ] final -105.34 input  -65.29 | X-H torsion
[ 10718 10713 10712 10709 ] final -127.16 input   66.30 | X-H torsion
[ 10763 10752 10751 10750 ] final  -53.20 input  -60.55 | X-H torsion
[ 11005 11000 10999 10996 ] final   78.97 input  -57.11 | X-H torsion

> <Gold.Protein.ActiveResidues>
 VAL166  LYS551  ARG553  GLY616  TRP617  ASP618  TYR619  PRO620  LYS621  CYS622 
 ASP623  PHE694  ASN695  SER759  ASP760  ASP761  ALA762  ILE779  LEU786  VAL792 
 PHE793  MET794  SER795  GLU796  ALA797  LYS798  CYS799  TRP800  GLU811  SER814 

> <Gold.Protein.RotatedAtoms>
  151.7061  133.3311  159.3278 H   0  0  0  0  0  0  0  0  0  0  0  0  # atno 6907 bound_to 6896
  150.7714  134.6573  159.6330 H   0  0  0  0  0  0  0  0  0  0  0  0  # atno 6908 bound_to 6896
  152.3740  134.6694  160.0218 H   0  0  0  0  0  0  0  0  0  0  0  0  # atno 6909 bound_to 6896
  146.1493  139.6539  142.9110 H   0  0  0  0  0  0  0  0  0  0  0  0  # atno 7974 bound_to 7965
  154.6719  140.0556  157.0175 H   0  0  0  0  0  0  0  0  0  0  0  0  # atno 8008 bound_to 7997
  155.1076  140.3235  155.4511 H   0  0  0  0  0  0  0  0  0  0  0  0  # atno 8009 bound_to 7997
  156.2661  140.2020  156.6201 H   0  0  0  0  0  0  0  0  0  0  0  0  # atno 8010 bound_to 7997
  140.1996  143.3829  152.1140 H   0  0  0  0  0  0  0  0  0  0  0  0  # atno 10167 bound_to 10162
  156.1832  130.6746  151.0331 H   0  0  0  0  0  0  0  0  0  0  0  0  # atno 10718 bound_to 10713
  154.1550  135.6484  153.4972 H   0  0  0  0  0  0  0  0  0  0  0  0  # atno 10763 bound_to 10752
  153.0127  135.5347  154.6770 H   0  0  0  0  0  0  0  0  0  0  0  0  # atno 10764 bound_to 10752
  154.6068  135.2949  155.0448 H   0  0  0  0  0  0  0  0  0  0  0  0  # atno 10765 bound_to 10752
  139.9191  134.7806  156.1718 H   0  0  0  0  0  0  0  0  0  0  0  0  # atno 11005 bound_to 11000
  145.4863  141.0438  143.2618 LP  0  0  0  0  0  0  0  0  0  0  0  0  # atno 17320 bound_to 7965
  144.7884  139.6379  143.7124 LP  0  0  0  0  0  0  0  0  0  0  0  0  # atno 17321 bound_to 7965
  139.5222  144.7056  151.5363 LP  0  0  0  0  0  0  0  0  0  0  0  0  # atno 17342 bound_to 10162
  140.6399  143.8909  150.6682 LP  0  0  0  0  0  0  0  0  0  0  0  0  # atno 17343 bound_to 10162
  157.6881  131.0818  150.7184 LP  0  0  0  0  0  0  0  0  0  0  0  0  # atno 17370 bound_to 10713
  156.7241  130.4689  149.5515 LP  0  0  0  0  0  0  0  0  0  0  0  0  # atno 17371 bound_to 10713
  141.0695  133.6803  156.2112 LP  0  0  0  0  0  0  0  0  0  0  0  0  # atno 17394 bound_to 11000
  140.6529  134.5048  157.5578 LP  0  0  0  0  0  0  0  0  0  0  0  0  # atno 17395 bound_to 11000

$$$$
