AV-unprocessed.smi:3330|AV-procd|sdf|12809|dock3
  -GOLD-   2272019173D 1   1.00000     0.00000
 Structure written by MMmdl.
 38 39  0  0  0  0  0  0  0  0  3 V2000
  152.4479  144.0047  157.0434 C   0  0  0  0  0  0  0  0  0  0  0  0
  151.5482  143.2095  158.0042 C   0  0  2  0  0  0  0  0  0  0  0  0
  150.1995  143.1118  157.4017 N   0  3  0  0  0  0  0  0  0  0  0  0
  149.2769  142.1687  158.0683 C   0  0  0  0  0  0  0  0  0  0  0  0
  149.9132  140.7788  158.2529 C   0  0  0  0  0  0  0  0  0  0  0  0
  150.5680  140.2946  157.0306 N   0  0  0  0  0  0  0  0  0  0  0  0
  151.8304  139.8584  156.9677 C   0  0  0  0  0  0  0  0  0  0  0  0
  152.6481  139.7806  157.8844 O   0  0  0  0  0  0  0  0  0  0  0  0
  152.0924  139.4248  155.5447 C   0  0  0  0  0  0  0  0  0  0  0  0
  150.8200  139.6768  154.9077 N   0  5  0  0  0  0  0  0  0  0  0  0
  149.9711  140.1885  155.8283 C   0  0  0  0  0  0  0  0  0  0  0  0
  148.7991  140.5170  155.6482 O   0  0  0  0  0  0  0  0  0  0  0  0
  151.4667  143.8464  159.4182 C   0  0  2  0  0  0  0  0  0  0  0  0
  151.6682  145.3742  159.4107 C   0  0  0  0  0  0  0  0  0  0  0  0
  152.4134  143.2283  160.3400 N   0  0  0  0  0  0  0  0  0  0  0  0
  152.6255  143.5245  161.6710 C   0  0  0  0  0  0  0  0  0  0  0  0
  153.6013  142.6851  162.1264 C   0  0  0  0  0  0  0  0  0  0  0  0
  153.9322  141.9010  160.9865 C   0  0  0  0  0  0  0  0  0  0  0  0
  153.2199  142.2269  159.9204 N   0  0  0  0  0  0  0  0  0  0  0  0
  153.4869  144.0095  157.3718 H   0  0  0  0  0  0  0  0  0  0  0  0
  152.1184  145.0404  156.9539 H   0  0  0  0  0  0  0  0  0  0  0  0
  152.4339  143.5658  156.0450 H   0  0  0  0  0  0  0  0  0  0  0  0
  151.9735  142.2080  158.0925 H   0  0  0  0  0  0  0  0  0  0  0  0
  149.7780  144.0294  157.3959 H   0  0  0  0  0  0  0  0  0  0  0  0
  148.9964  142.5783  159.0395 H   0  0  0  0  0  0  0  0  0  0  0  0
  148.3603  142.0770  157.4860 H   0  0  0  0  0  0  0  0  0  0  0  0
  150.6390  140.8110  159.0669 H   0  0  0  0  0  0  0  0  0  0  0  0
  149.1478  140.0707  158.5748 H   0  0  0  0  0  0  0  0  0  0  0  0
  152.9103  140.0097  155.1223 H   0  0  0  0  0  0  0  0  0  0  0  0
  152.3831  138.3740  155.5247 H   0  0  0  0  0  0  0  0  0  0  0  0
  150.4691  143.6551  159.8172 H   0  0  0  0  0  0  0  0  0  0  0  0
  150.8625  145.8844  158.8836 H   0  0  0  0  0  0  0  0  0  0  0  0
  152.6083  145.6526  158.9332 H   0  0  0  0  0  0  0  0  0  0  0  0
  151.6827  145.7711  160.4265 H   0  0  0  0  0  0  0  0  0  0  0  0
  152.0706  144.2994  162.1794 H   0  0  0  0  0  0  0  0  0  0  0  0
  154.0180  142.6393  163.1218 H   0  0  0  0  0  0  0  0  0  0  0  0
  154.6629  141.1100  160.9029 H   0  0  0  0  0  0  0  0  0  0  0  0
  150.3070  142.8060  156.4450 H   0  0  0  0  0  0  0  0  0  0  0  0
  1  2  1  0  0  0  0
  1 20  1  0  0  0  0
  1 21  1  0  0  0  0
  1 22  1  0  0  0  0
  2  3  1  0  0  0  0
  2 13  1  0  0  0  0
  2 23  1  0  0  0  0
  3  4  1  0  0  0  0
  3 24  1  0  0  0  0
  3 38  1  0  0  0  0
  4  5  1  0  0  0  0
  4 25  1  0  0  0  0
  4 26  1  0  0  0  0
  5  6  1  0  0  0  0
  5 27  1  0  0  0  0
  5 28  1  0  0  0  0
  6 11  1  0  0  0  0
  6  7  1  0  0  0  0
  7  8  2  0  0  0  0
  7  9  1  0  0  0  0
  9 10  1  0  0  0  0
  9 29  1  0  0  0  0
  9 30  1  0  0  0  0
 10 11  1  0  0  0  0
 11 12  2  0  0  0  0
 13 14  1  0  0  0  0
 13 15  1  0  0  0  0
 13 31  1  0  0  0  0
 14 32  1  0  0  0  0
 14 33  1  0  0  0  0
 14 34  1  0  0  0  0
 15 19  1  0  0  0  0
 15 16  1  0  0  0  0
 16 17  2  0  0  0  0
 16 35  1  0  0  0  0
 17 18  1  0  0  0  0
 17 36  1  0  0  0  0
 18 19  2  0  0  0  0
 18 37  1  0  0  0  0
M  CHG  1   3   1
M  CHG  1  10  -1
M  END
> <s_m_source_file>
AV-unprocessed.smi

> <i_m_source_file_index>
3330

> <i_lp_mmshare_version>
43012

> <i_f3d_flags>
0

> <s_epik_input>
bjFbY0hdW2NIXVtjSF1uMVtDQEBIXShbQ0gzXSlbQ0BIXShbQ0gzXSlbTkhdW0NIMl1bQ0gyXU4yQyg9TylbQ0gyXVtOSF1DMj1P

> <s_epik_cmdline>
J2VwaWtfcHl0aG9uJywgJy1waCcsICc3LjAnLCAnLXRuJywgJzgnLCAnLW1hJywgJzIwMCcsICctbWV0YWxfYmluZGluZycsICctaW1hZScsICc8aW5maWxlLm1hZT4nLCAnLW9tYWUnLCAnPG91dGZpbGUubWFlPic=

> <r_lp_tautomer_probability>
1

> <r_epik_Ionization_Penalty>
5.18149

> <r_epik_Ionization_Penalty_Charging>
5.18148

> <r_epik_Ionization_Penalty_Neutral>
9.83265e-06

> <r_epik_State_Penalty>
5.18201

> <r_epik_Charging_Adjusted_Penalty>
10.3635

> <i_epik_Tot_Q>
0

> <i_epik_Tot_abs_Q>
2

> <r_epik_Metal_State_Penalty>
1.25422

> <b_epik_Metal_Only>
1

> <s_lp_Force_Field>
OPLS_2005

> <r_lp_Energy>
23.9108

> <b_lp_Chiralities_Consistent>
1

> <s_lp_Variant>
AV-unprocessed.smi:3330-9

> <Gold.Version>
5.8.1

> <Gold.Id.Protein>
6NUR|6NUR_protein|mol2

> <Gold.PLP.Fitness>
48.4371

> <Gold.PLP.PLP>
-42.0116

> <Gold.PLP.part.hbond>
-3.0000

> <Gold.PLP.part.metal>
0.0000

> <Gold.PLP.part.buried>
-6.2112

> <Gold.PLP.part.nonpolar>
-33.8643

> <Gold.PLP.part.repulsive>
0.1757

> <Gold.PLP.ligand.clash>
0.0000

> <Gold.PLP.ligand.torsion>
1.1092

> <Gold.PLP.Chemscore.Hbond>
2.8000

> <Gold.PLP.Chemscore.CHOScore>
0.0000

> <Gold.PLP.Chemscore.Metal>
0.0000

> <Gold.Chemscore.Hbonds>
donor molecule, donor type, donor heavy atom, donor atom, acceptor molecule, acceptor atom, score
      L1  H     3    24       P1  8028  0.80
      P1  H  7989  7998       L1    10  0.65
      P1  H  7997  8008       L1     8  0.81

> <Gold.PLP.Chemscore.Internal.Correction>
0.2438

> <Gold.Rescore>
     Score         DG    S(hbond)    S(metal)    S(lipo)     H(rot)  DE(clash)    DE(int)     intcor
     10.36     -14.24       1.14        0.00      99.05       2.59       1.74       2.14       ----

> <Gold.Chemscore.Fitness>
10.3607

> <Gold.Chemscore.DG>
-14.2386

> <Gold.Chemscore.ZeroCoef>
-5.4800

> <Gold.Chemscore.Hbond>
1.1380

> <Gold.Chemscore.Metal>
0.0000

> <Gold.Chemscore.Lipo>
99.0499

> <Gold.Chemscore.Internal_Hbond>
0.0000

> <Gold.Chemscore.DEClash>
1.7407

> <Gold.Chemscore.DEInternal>
2.1372

> <Gold.Chemscore.Rot>
2.5903

> <Gold.Chemscore.Internal.Correction>
   9.000000E+99

> <Gold.Chemscore.Hbonds>
donor molecule, donor type, donor heavy atom, donor atom, acceptor molecule, acceptor atom, score
      L1  H     3    24       P1  8028  0.21
      P1  H  7989  7998       L1    10  0.05
      P1  H  7997  8008       L1     8  0.24

> <Gold.Chemscore.Hbond.Weighted>
-3.8009

> <Gold.Chemscore.Metal.Weighted>
-0.0000

> <Gold.Chemscore.Lipo.Weighted>
-11.5888

> <Gold.Chemscore.Internal_Hbond.Weighted>
0.0000

> <Gold.Chemscore.DEClash.Weighted>
1.7407

> <Gold.Chemscore.DEInternal.Weighted>
2.1372

> <Gold.Chemscore.Rot.Weighted>
6.6311

> <Gold.Chemscore.Internal.Correction.Weighted>
   9.000000E+99

> <Gold.Protein.RotatedTorsions>
[ 6907 6896 6895 6894 ] final   58.29 input  -60.11 | X-H torsion
[ 7974 7965 7964 7962 ] final -117.51 input  175.53 | X-H torsion
[ 8008 7997 7996 7995 ] final  -72.54 input   59.86 | X-H torsion
[ 10167 10162 10161 10158 ] final -167.08 input  -65.29 | X-H torsion
[ 10718 10713 10712 10709 ] final  116.55 input   66.30 | X-H torsion
[ 10763 10752 10751 10750 ] final   59.02 input  -60.55 | X-H torsion
[ 11005 11000 10999 10996 ] final   93.94 input  -57.11 | X-H torsion

> <Gold.Protein.ActiveResidues>
 VAL166  LYS551  ARG553  GLY616  TRP617  ASP618  TYR619  PRO620  LYS621  CYS622 
 ASP623  PHE694  ASN695  SER759  ASP760  ASP761  ALA762  ILE779  LEU786  VAL792 
 PHE793  MET794  SER795  GLU796  ALA797  LYS798  CYS799  TRP800  GLU811  SER814 

> <Gold.Protein.RotatedAtoms>
  152.3811  134.6589  160.0142 H   0  0  0  0  0  0  0  0  0  0  0  0  # atno 6907 bound_to 6896
  151.6852  133.3306  159.3237 H   0  0  0  0  0  0  0  0  0  0  0  0  # atno 6908 bound_to 6896
  150.7748  134.6682  159.6421 H   0  0  0  0  0  0  0  0  0  0  0  0  # atno 6909 bound_to 6896
  145.0844  140.8447  143.4020 H   0  0  0  0  0  0  0  0  0  0  0  0  # atno 7974 bound_to 7965
  154.5175  140.0795  156.8108 H   0  0  0  0  0  0  0  0  0  0  0  0  # atno 8008 bound_to 7997
  155.3649  140.3420  155.4223 H   0  0  0  0  0  0  0  0  0  0  0  0  # atno 8009 bound_to 7997
  156.1644  140.1599  156.8544 H   0  0  0  0  0  0  0  0  0  0  0  0  # atno 8010 bound_to 7997
  139.6072  144.0888  152.1805 H   0  0  0  0  0  0  0  0  0  0  0  0  # atno 10167 bound_to 10162
  157.6153  131.1026  150.7488 H   0  0  0  0  0  0  0  0  0  0  0  0  # atno 10718 bound_to 10713
  152.9884  135.5586  154.5646 H   0  0  0  0  0  0  0  0  0  0  0  0  # atno 10763 bound_to 10752
  154.5058  135.2799  155.1385 H   0  0  0  0  0  0  0  0  0  0  0  0  # atno 10764 bound_to 10752
  154.2797  135.6347  153.5395 H   0  0  0  0  0  0  0  0  0  0  0  0  # atno 10765 bound_to 10752
  139.8804  134.8818  156.3791 H   0  0  0  0  0  0  0  0  0  0  0  0  # atno 11005 bound_to 11000
  145.1140  139.2738  143.5622 LP  0  0  0  0  0  0  0  0  0  0  0  0  # atno 17320 bound_to 7965
  146.3531  140.0745  142.8621 LP  0  0  0  0  0  0  0  0  0  0  0  0  # atno 17321 bound_to 7965
  140.0498  144.5942  150.7345 LP  0  0  0  0  0  0  0  0  0  0  0  0  # atno 17342 bound_to 10162
  140.7294  143.2672  151.4007 LP  0  0  0  0  0  0  0  0  0  0  0  0  # atno 17343 bound_to 10162
  156.7857  130.4873  149.5393 LP  0  0  0  0  0  0  0  0  0  0  0  0  # atno 17370 bound_to 10713
  156.1273  130.6153  151.0282 LP  0  0  0  0  0  0  0  0  0  0  0  0  # atno 17371 bound_to 10713
  140.9411  133.7514  156.0148 LP  0  0  0  0  0  0  0  0  0  0  0  0  # atno 17394 bound_to 11000
  140.8218  134.3280  157.5379 LP  0  0  0  0  0  0  0  0  0  0  0  0  # atno 17395 bound_to 11000

$$$$
