AV-unprocessed.smi:1824|AV-procd|sdf|7399|dock7
  -GOLD-   22720 9 73D 1   1.00000     0.00000
 Structure written by MMmdl.
 45 47  0  0  0  0  0  0  0  0  2 V2000
  148.6987  131.7272  153.4622 C   0  0  0  0  0  0  0  0  0  0  0  0
  148.5302  133.2294  153.7159 C   0  0  2  0  0  0  0  0  0  0  0  0
  149.7809  133.8490  154.3650 C   0  0  0  0  0  0  0  0  0  0  0  0
  149.5484  135.2786  154.6742 N   0  3  2  0  0  0  0  0  0  0  0  0
  150.7631  135.9550  155.1966 C   0  0  0  0  0  0  0  0  0  0  0  0
  150.7212  137.4829  154.9965 C   0  0  2  0  0  0  0  0  0  0  0  0
  151.3466  137.7986  153.7666 O   0  0  0  0  0  0  0  0  0  0  0  0
  151.4341  138.2270  156.1422 C   0  0  0  0  0  0  0  0  0  0  0  0
  151.1126  139.6430  156.1738 N   0  0  0  0  0  0  0  0  0  0  0  0
  150.3219  140.3135  155.3137 C   0  0  0  0  0  0  0  0  0  0  0  0
  150.1588  141.6164  155.5245 N   0  0  0  0  0  0  0  0  0  0  0  0
  150.9324  141.8162  156.6549 C   0  0  0  0  0  0  0  0  0  0  0  0
  151.1857  142.9918  157.3974 C   0  0  0  0  0  0  0  0  0  0  0  0
  152.0209  142.9543  158.5336 C   0  0  0  0  0  0  0  0  0  0  0  0
  152.2520  144.0898  159.2344 F   0  0  0  0  0  0  0  0  0  0  0  0
  152.6154  141.7421  158.9431 C   0  0  0  0  0  0  0  0  0  0  0  0
  153.4159  141.7141  160.0350 F   0  0  0  0  0  0  0  0  0  0  0  0
  152.3784  140.5581  158.2187 C   0  0  0  0  0  0  0  0  0  0  0  0
  151.5432  140.6002  157.0869 C   0  0  0  0  0  0  0  0  0  0  0  0
  148.3601  135.4286  155.5499 C   0  0  0  0  0  0  0  0  0  0  0  0
  147.1212  134.7614  154.9213 C   0  0  1  0  0  0  0  0  0  0  0  0
  146.5336  135.5495  153.7370 C   0  0  0  0  0  0  0  0  0  0  0  0
  147.4108  133.4056  154.5805 O   0  0  0  0  0  0  0  0  0  0  0  0
  149.5381  131.5323  152.7941 H   0  0  0  0  0  0  0  0  0  0  0  0
  147.8040  131.3077  153.0014 H   0  0  0  0  0  0  0  0  0  0  0  0
  148.8781  131.1863  154.3920 H   0  0  0  0  0  0  0  0  0  0  0  0
  148.3364  133.7132  152.7583 H   0  0  0  0  0  0  0  0  0  0  0  0
  150.0402  133.3152  155.2809 H   0  0  0  0  0  0  0  0  0  0  0  0
  150.6289  133.7515  153.6858 H   0  0  0  0  0  0  0  0  0  0  0  0
  150.8843  135.7090  156.2528 H   0  0  0  0  0  0  0  0  0  0  0  0
  151.6482  135.5645  154.6919 H   0  0  0  0  0  0  0  0  0  0  0  0
  149.6897  137.8309  154.9496 H   0  0  0  0  0  0  0  0  0  0  0  0
  151.0222  137.2110  153.1008 H   0  0  0  0  0  0  0  0  0  0  0  0
  151.1534  137.7937  157.1030 H   0  0  0  0  0  0  0  0  0  0  0  0
  152.5159  138.1159  156.0570 H   0  0  0  0  0  0  0  0  0  0  0  0
  149.8391  139.8168  154.4846 H   0  0  0  0  0  0  0  0  0  0  0  0
  150.7366  143.9257  157.0933 H   0  0  0  0  0  0  0  0  0  0  0  0
  152.8338  139.6307  158.5311 H   0  0  0  0  0  0  0  0  0  0  0  0
  148.5706  134.9673  156.5161 H   0  0  0  0  0  0  0  0  0  0  0  0
  148.1490  136.4795  155.7452 H   0  0  0  0  0  0  0  0  0  0  0  0
  146.3446  134.7196  155.6859 H   0  0  0  0  0  0  0  0  0  0  0  0
  146.2020  136.5375  154.0574 H   0  0  0  0  0  0  0  0  0  0  0  0
  145.6695  135.0334  153.3178 H   0  0  0  0  0  0  0  0  0  0  0  0
  147.2571  135.6967  152.9356 H   0  0  0  0  0  0  0  0  0  0  0  0
  149.3299  135.7269  153.7955 H   0  0  0  0  0  0  0  0  0  0  0  0
  1  2  1  0  0  0  0
  1 24  1  0  0  0  0
  1 25  1  0  0  0  0
  1 26  1  0  0  0  0
  2 23  1  0  0  0  0
  2  3  1  0  0  0  0
  2 27  1  0  0  0  0
  3  4  1  0  0  0  0
  3 28  1  0  0  0  0
  3 29  1  0  0  0  0
  4  5  1  0  0  0  0
  4 20  1  0  0  0  0
  4 45  1  0  0  0  0
  5  6  1  0  0  0  0
  5 30  1  0  0  0  0
  5 31  1  0  0  0  0
  6  7  1  0  0  0  0
  6  8  1  0  0  0  0
  6 32  1  0  0  0  0
  7 33  1  0  0  0  0
  8  9  1  0  0  0  0
  8 34  1  0  0  0  0
  8 35  1  0  0  0  0
  9 19  1  0  0  0  0
  9 10  1  0  0  0  0
 10 11  2  0  0  0  0
 10 36  1  0  0  0  0
 11 12  1  0  0  0  0
 12 19  2  0  0  0  0
 12 13  1  0  0  0  0
 13 14  2  0  0  0  0
 13 37  1  0  0  0  0
 14 15  1  0  0  0  0
 14 16  1  0  0  0  0
 16 17  1  0  0  0  0
 16 18  2  0  0  0  0
 18 19  1  0  0  0  0
 18 38  1  0  0  0  0
 20 21  1  0  0  0  0
 20 39  1  0  0  0  0
 20 40  1  0  0  0  0
 21 22  1  0  0  0  0
 21 23  1  0  0  0  0
 21 41  1  0  0  0  0
 22 42  1  0  0  0  0
 22 43  1  0  0  0  0
 22 44  1  0  0  0  0
M  CHG  1   4   1
M  END
> <s_m_source_file>
AV-unprocessed.smi

> <i_m_source_file_index>
1824

> <i_lp_mmshare_version>
43012

> <i_f3d_flags>
0

> <s_epik_input>
W0NIM11bQ0BASF0xW0NIMl1OKFtDSDJdW0NASF0oTzEpW0NIM10pW0NIMl1bQ0BIXShbT0hdKVtDSDJdbihbY0hdbjIpYyhjMjMpW2NIXWMoRiljKEYpW2NIXTM=

> <s_epik_cmdline>
J2VwaWtfcHl0aG9uJywgJy1waCcsICc3LjAnLCAnLXRuJywgJzgnLCAnLW1hJywgJzIwMCcsICctbWV0YWxfYmluZGluZycsICctaW1hZScsICc8aW5maWxlLm1hZT4nLCAnLW9tYWUnLCAnPG91dGZpbGUubWFlPic=

> <r_epik_Ionization_Penalty>
0.61967

> <r_epik_Ionization_Penalty_Charging>
0.608065

> <r_epik_Ionization_Penalty_Neutral>
0.0116057

> <r_epik_State_Penalty>
0.664205

> <r_epik_Charging_Adjusted_Penalty>
1.27227

> <i_epik_Tot_Q>
1

> <i_epik_Tot_abs_Q>
1

> <r_epik_Metal_State_Penalty>
0.654947

> <b_epik_Metal_Only>
0

> <s_lp_Force_Field>
OPLS_2005

> <r_lp_Energy>
23.0723

> <b_lp_Chiralities_Consistent>
1

> <s_lp_Variant>
AV-unprocessed.smi:1824-7

> <Gold.Version>
5.8.1

> <Gold.Id.Protein>
6NUR|6NUR_protein|mol2

> <Gold.PLP.Fitness>
49.4761

> <Gold.PLP.PLP>
-41.9093

> <Gold.PLP.part.hbond>
-2.4091

> <Gold.PLP.part.metal>
0.0000

> <Gold.PLP.part.buried>
-2.3345

> <Gold.PLP.part.nonpolar>
-36.5157

> <Gold.PLP.part.repulsive>
0.1813

> <Gold.PLP.ligand.clash>
0.0000

> <Gold.PLP.ligand.torsion>
0.7232

> <Gold.PLP.Chemscore.Hbond>
2.9913

> <Gold.PLP.Chemscore.CHOScore>
0.0000

> <Gold.PLP.Chemscore.Metal>
0.0000

> <Gold.Chemscore.Hbonds>
donor molecule, donor type, donor heavy atom, donor atom, acceptor molecule, acceptor atom, score
      L1  H     4    45       P1  7948  2.00
      L1  H     7    33       P1  7949  1.00

> <Gold.PLP.Chemscore.Internal.Correction>
0.0394

> <Gold.Rescore>
     Score         DG    S(hbond)    S(metal)    S(lipo)     H(rot)  DE(clash)    DE(int)     intcor
     12.39     -14.03       1.26        0.00      88.05       2.33       0.88       0.75       ----

> <Gold.Chemscore.Fitness>
12.3921

> <Gold.Chemscore.DG>
-14.0285

> <Gold.Chemscore.ZeroCoef>
-5.4800

> <Gold.Chemscore.Hbond>
1.2573

> <Gold.Chemscore.Metal>
0.0000

> <Gold.Chemscore.Lipo>
88.0474

> <Gold.Chemscore.Internal_Hbond>
0.0000

> <Gold.Chemscore.DEClash>
0.8823

> <Gold.Chemscore.DEInternal>
0.7541

> <Gold.Chemscore.Rot>
2.3251

> <Gold.Chemscore.Internal.Correction>
   9.000000E+99

> <Gold.Chemscore.Hbonds>
donor molecule, donor type, donor heavy atom, donor atom, acceptor molecule, acceptor atom, score
      L1  H     4    45       P1  7948  0.58
      L1  H     7    33       P1  7949  0.28

> <Gold.Chemscore.Hbond.Weighted>
-4.1993

> <Gold.Chemscore.Metal.Weighted>
-0.0000

> <Gold.Chemscore.Lipo.Weighted>
-10.3015

> <Gold.Chemscore.Internal_Hbond.Weighted>
0.0000

> <Gold.Chemscore.DEClash.Weighted>
0.8823

> <Gold.Chemscore.DEInternal.Weighted>
0.7541

> <Gold.Chemscore.Rot.Weighted>
5.9523

> <Gold.Chemscore.Internal.Correction.Weighted>
   9.000000E+99

> <Gold.Protein.RotatedTorsions>
[ 6907 6896 6895 6894 ] final  -91.53 input  -60.11 | X-H torsion
[ 7974 7965 7964 7962 ] final -179.87 input  175.53 | X-H torsion
[ 8008 7997 7996 7995 ] final   29.41 input   59.86 | X-H torsion
[ 10167 10162 10161 10158 ] final -138.85 input  -65.29 | X-H torsion
[ 10718 10713 10712 10709 ] final  148.17 input   66.30 | X-H torsion
[ 10763 10752 10751 10750 ] final  140.33 input  -60.55 | X-H torsion
[ 11005 11000 10999 10996 ] final   91.95 input  -57.11 | X-H torsion

> <Gold.Protein.ActiveResidues>
 VAL166  LYS551  ARG553  GLY616  TRP617  ASP618  TYR619  PRO620  LYS621  CYS622 
 ASP623  PHE694  ASN695  SER759  ASP760  ASP761  ALA762  ILE779  LEU786  VAL792 
 PHE793  MET794  SER795  GLU796  ALA797  LYS798  CYS799  TRP800  GLU811  SER814 

> <Gold.Protein.RotatedAtoms>
  150.6894  134.2263  159.4416 H   0  0  0  0  0  0  0  0  0  0  0  0  # atno 6907 bound_to 6896
  152.0217  134.9816  160.0580 H   0  0  0  0  0  0  0  0  0  0  0  0  # atno 6908 bound_to 6896
  152.1391  133.4418  159.4795 H   0  0  0  0  0  0  0  0  0  0  0  0  # atno 6909 bound_to 6896
  144.7140  140.0653  143.6431 H   0  0  0  0  0  0  0  0  0  0  0  0  # atno 7974 bound_to 7965
  155.0740  140.3203  155.4622 H   0  0  0  0  0  0  0  0  0  0  0  0  # atno 8008 bound_to 7997
  156.2783  140.2107  156.5813 H   0  0  0  0  0  0  0  0  0  0  0  0  # atno 8009 bound_to 7997
  154.7032  140.0505  157.0466 H   0  0  0  0  0  0  0  0  0  0  0  0  # atno 8010 bound_to 7997
  139.8437  143.7288  152.2662 H   0  0  0  0  0  0  0  0  0  0  0  0  # atno 10167 bound_to 10162
  157.3119  131.0889  151.1309 H   0  0  0  0  0  0  0  0  0  0  0  0  # atno 10718 bound_to 10713
  153.9210  135.3000  155.3447 H   0  0  0  0  0  0  0  0  0  0  0  0  # atno 10763 bound_to 10752
  154.7575  135.4950  153.9406 H   0  0  0  0  0  0  0  0  0  0  0  0  # atno 10764 bound_to 10752
  153.1142  135.6766  153.9550 H   0  0  0  0  0  0  0  0  0  0  0  0  # atno 10765 bound_to 10752
  139.8831  134.8704  156.3502 H   0  0  0  0  0  0  0  0  0  0  0  0  # atno 11005 bound_to 11000
  145.9830  139.2955  143.1031 LP  0  0  0  0  0  0  0  0  0  0  0  0  # atno 17320 bound_to 7965
  145.8990  140.9255  143.0513 LP  0  0  0  0  0  0  0  0  0  0  0  0  # atno 17321 bound_to 7965
  139.7533  144.7528  151.0473 LP  0  0  0  0  0  0  0  0  0  0  0  0  # atno 17342 bound_to 10162
  140.7795  143.4834  150.9988 LP  0  0  0  0  0  0  0  0  0  0  0  0  # atno 17343 bound_to 10162
  157.2628  130.6667  149.5982 LP  0  0  0  0  0  0  0  0  0  0  0  0  # atno 17370 bound_to 10713
  155.9678  130.4503  150.5693 LP  0  0  0  0  0  0  0  0  0  0  0  0  # atno 17371 bound_to 10713
  140.9599  133.7395  156.0387 LP  0  0  0  0  0  0  0  0  0  0  0  0  # atno 17394 bound_to 11000
  140.8002  134.3518  157.5441 LP  0  0  0  0  0  0  0  0  0  0  0  0  # atno 17395 bound_to 11000

$$$$
