AV-unprocessed.smi:97|AV-procd|sdf|862|dock7
  -GOLD-   2262017313D 1   1.00000     0.00000
 Structure written by MMmdl.
 46 49  0  0  0  0  0  0  0  0  1 V2000
  151.6882  136.4441  154.7076 O   0  0  0  0  0  0  0  0  0  0  0  0
  151.3060  137.3385  155.4609 C   0  0  0  0  0  0  0  0  0  0  0  0
  152.2373  138.5316  155.7417 C   0  0  0  0  0  0  0  0  0  0  0  0
  151.5383  139.7882  156.0992 N   0  0  0  0  0  0  0  0  0  0  0  0
  150.5466  140.2972  155.2239 C   0  0  0  0  0  0  0  0  0  0  0  0
  150.2583  139.7149  154.1778 O   0  0  0  0  0  0  0  0  0  0  0  0
  149.8998  141.5319  155.6547 C   0  0  0  0  0  0  0  0  0  0  0  0
  148.9636  142.0997  154.8758 F   0  0  0  0  0  0  0  0  0  0  0  0
  150.2255  142.1141  156.8271 C   0  0  0  0  0  0  0  0  0  0  0  0
  151.1748  141.5902  157.6844 N   0  0  0  0  0  0  0  0  0  0  0  0
  151.5024  142.2675  158.9954 C   0  0  1  0  0  0  0  0  0  0  0  0
  152.9645  142.7288  159.0047 C   0  0  0  0  0  0  0  0  0  0  0  0
  152.8378  144.1896  158.6292 C   0  0  0  0  0  0  0  0  0  0  0  0
  151.5105  144.5591  159.2798 C   0  0  0  0  0  0  0  0  0  0  0  0
  150.6948  143.4012  159.1330 O   0  0  0  0  0  0  0  0  0  0  0  0
  151.8689  140.4153  157.3251 C   0  0  0  0  0  0  0  0  0  0  0  0
  152.7364  139.9443  158.0636 O   0  0  0  0  0  0  0  0  0  0  0  0
  150.1147  137.3090  156.0816 N   0  0  0  0  0  0  0  0  0  0  0  0
  149.1729  136.1972  156.0480 C   0  0  0  0  0  0  0  0  0  0  0  0
  148.6827  135.7837  157.4285 C   0  0  0  0  0  0  0  0  0  0  0  0
  148.4241  134.4177  157.7304 C   0  0  0  0  0  0  0  0  0  0  0  0
  147.9720  134.0308  159.0118 C   0  0  0  0  0  0  0  0  0  0  0  0
  147.7944  135.0374  159.9741 C   0  0  0  0  0  0  0  0  0  0  0  0
  148.0496  136.3630  159.6899 C   0  0  0  0  0  0  0  0  0  0  0  0
  148.4988  136.7734  158.4240 C   0  0  0  0  0  0  0  0  0  0  0  0
  147.7994  137.1194  160.7890 O   0  0  0  0  0  0  0  0  0  0  0  0
  147.3747  136.2234  161.7833 C   0  0  0  0  0  0  0  0  0  0  0  0
  147.3766  134.9200  161.2601 O   0  0  0  0  0  0  0  0  0  0  0  0
  152.9278  138.2470  156.5375 H   0  0  0  0  0  0  0  0  0  0  0  0
  152.8828  138.6640  154.8726 H   0  0  0  0  0  0  0  0  0  0  0  0
  149.7175  143.0285  157.0950 H   0  0  0  0  0  0  0  0  0  0  0  0
  151.2604  141.5545  159.7850 H   0  0  0  0  0  0  0  0  0  0  0  0
  153.3544  142.6271  160.0182 H   0  0  0  0  0  0  0  0  0  0  0  0
  153.5892  142.1475  158.3254 H   0  0  0  0  0  0  0  0  0  0  0  0
  153.6708  144.7971  158.9840 H   0  0  0  0  0  0  0  0  0  0  0  0
  152.7723  144.2975  157.5460 H   0  0  0  0  0  0  0  0  0  0  0  0
  151.6505  144.7584  160.3432 H   0  0  0  0  0  0  0  0  0  0  0  0
  151.0476  145.4357  158.8264 H   0  0  0  0  0  0  0  0  0  0  0  0
  149.8739  138.0892  156.6752 H   0  0  0  0  0  0  0  0  0  0  0  0
  148.3094  136.5017  155.4567 H   0  0  0  0  0  0  0  0  0  0  0  0
  149.6137  135.3423  155.5322 H   0  0  0  0  0  0  0  0  0  0  0  0
  148.5715  133.6558  156.9792 H   0  0  0  0  0  0  0  0  0  0  0  0
  147.7721  132.9952  159.2439 H   0  0  0  0  0  0  0  0  0  0  0  0
  148.6933  137.8164  158.2208 H   0  0  0  0  0  0  0  0  0  0  0  0
  148.0522  136.2761  162.6362 H   0  0  0  0  0  0  0  0  0  0  0  0
  146.3662  136.4860  162.1055 H   0  0  0  0  0  0  0  0  0  0  0  0
  1  2  2  0  0  0  0
  2  3  1  0  0  0  0
  2 18  1  0  0  0  0
  3  4  1  0  0  0  0
  3 29  1  0  0  0  0
  3 30  1  0  0  0  0
  4 16  1  0  0  0  0
  4  5  1  0  0  0  0
  5  6  2  0  0  0  0
  5  7  1  0  0  0  0
  7  8  1  0  0  0  0
  7  9  2  0  0  0  0
  9 10  1  0  0  0  0
  9 31  1  0  0  0  0
 10 11  1  0  0  0  0
 10 16  1  0  0  0  0
 11 15  1  0  0  0  0
 11 12  1  0  0  0  0
 11 32  1  0  0  0  0
 12 13  1  0  0  0  0
 12 33  1  0  0  0  0
 12 34  1  0  0  0  0
 13 14  1  0  0  0  0
 13 35  1  0  0  0  0
 13 36  1  0  0  0  0
 14 15  1  0  0  0  0
 14 37  1  0  0  0  0
 14 38  1  0  0  0  0
 16 17  2  0  0  0  0
 18 19  1  0  0  0  0
 18 39  1  0  0  0  0
 19 20  1  0  0  0  0
 19 40  1  0  0  0  0
 19 41  1  0  0  0  0
 20 25  1  0  0  0  0
 20 21  2  0  0  0  0
 21 22  1  0  0  0  0
 21 42  1  0  0  0  0
 22 23  2  0  0  0  0
 22 43  1  0  0  0  0
 23 28  1  0  0  0  0
 23 24  1  0  0  0  0
 24 25  2  0  0  0  0
 24 26  1  0  0  0  0
 25 44  1  0  0  0  0
 26 27  1  0  0  0  0
 27 28  1  0  0  0  0
 27 45  1  0  0  0  0
 27 46  1  0  0  0  0
M  END
> <s_m_source_file>
AV-unprocessed.smi

> <i_m_source_file_index>
97

> <i_lp_mmshare_version>
43012

> <i_f3d_flags>
0

> <s_epik_input>
TzFbQ0gyXU9jKGMxMilbY0hdYyhbY0hdW2NIXTIpW0NIMl1bTkhdQyg9TylbQ0gyXW4zYyg9TyljKEYpW2NIXW4oYzM9TylbQ0BASF00W0NIMl1bQ0gyXVtDSDJdTzQ=

> <s_epik_cmdline>
J2VwaWtfcHl0aG9uJywgJy1waCcsICc3LjAnLCAnLXRuJywgJzgnLCAnLW1hJywgJzIwMCcsICctbWV0YWxfYmluZGluZycsICctaW1hZScsICc8aW5maWxlLm1hZT4nLCAnLW9tYWUnLCAnPG91dGZpbGUubWFlPic=

> <r_lp_tautomer_probability>
1

> <r_epik_Ionization_Penalty>
3.79042e-08

> <r_epik_Ionization_Penalty_Charging>
3.81036e-09

> <r_epik_Ionization_Penalty_Neutral>
3.40938e-08

> <r_epik_State_Penalty>
-0

> <r_epik_Charging_Adjusted_Penalty>
3.81036e-09

> <i_epik_Tot_Q>
0

> <i_epik_Tot_abs_Q>
0

> <r_epik_Metal_State_Penalty>
-0

> <b_epik_Metal_Only>
0

> <s_epik_Chemistry_Notes>
This compound contains an acetal/aminal-like group ( X-CH(R)-Y where X, Y are N, S, or O) that may be acid/base labile, releasing an aldehyde.

> <s_lp_Force_Field>
OPLS_2005

> <r_lp_Energy>
39.492

> <b_lp_Chiralities_Consistent>
1

> <s_lp_Variant>
AV-unprocessed.smi:97-2

> <Gold.Version>
5.8.1

> <Gold.Id.Protein>
6NUR|6NUR_protein|mol2

> <Gold.PLP.Fitness>
59.3448

> <Gold.PLP.PLP>
-46.8913

> <Gold.PLP.part.hbond>
-4.6645

> <Gold.PLP.part.metal>
0.0000

> <Gold.PLP.part.buried>
-2.3016

> <Gold.PLP.part.nonpolar>
-41.1436

> <Gold.PLP.part.repulsive>
0.3905

> <Gold.PLP.ligand.clash>
0.0000

> <Gold.PLP.ligand.torsion>
0.7927

> <Gold.PLP.Chemscore.Hbond>
3.6584

> <Gold.PLP.Chemscore.CHOScore>
1.0000

> <Gold.PLP.Chemscore.Metal>
0.0000

> <Gold.Chemscore.Hbonds>
donor molecule, donor type, donor heavy atom, donor atom, acceptor molecule, acceptor atom, score
      P1  H  6931  6943       L1    26  0.84
      P1  H  6934  6947       L1    26  0.86
      P1  H  7989  7998       L1     6  0.10
      P1  H  7997  8008       L1    17  0.81
      P1  H 10752 10764       L1     1  0.83
      L1  C     9    31       P1  8028  0.98

> <Gold.PLP.Chemscore.Internal.Correction>
0.0638

> <Gold.Rescore>
     Score         DG    S(hbond)    S(metal)    S(lipo)     H(rot)  DE(clash)    DE(int)     intcor
     13.71     -17.05       2.58        0.00      81.55       2.58       0.07       3.27       ----

> <Gold.Chemscore.Fitness>
13.7090

> <Gold.Chemscore.DG>
-17.0451

> <Gold.Chemscore.ZeroCoef>
-5.4800

> <Gold.Chemscore.Hbond>
2.5836

> <Gold.Chemscore.Metal>
0.0000

> <Gold.Chemscore.Lipo>
81.5464

> <Gold.Chemscore.Internal_Hbond>
0.0000

> <Gold.Chemscore.DEClash>
0.0708

> <Gold.Chemscore.DEInternal>
3.2653

> <Gold.Chemscore.Rot>
2.5801

> <Gold.Chemscore.Internal.Correction>
   9.000000E+99

> <Gold.Chemscore.Hbonds>
donor molecule, donor type, donor heavy atom, donor atom, acceptor molecule, acceptor atom, score
      P1  H  6931  6943       L1    26  0.18
      P1  H  6934  6947       L1    26  0.80
      P1  H  7997  8008       L1    17  0.35
      P1  H 10752 10764       L1     1  0.83

> <Gold.Chemscore.Hbond.Weighted>
-8.6292

> <Gold.Chemscore.Metal.Weighted>
-0.0000

> <Gold.Chemscore.Lipo.Weighted>
-9.5409

> <Gold.Chemscore.Internal_Hbond.Weighted>
0.0000

> <Gold.Chemscore.DEClash.Weighted>
0.0708

> <Gold.Chemscore.DEInternal.Weighted>
3.2653

> <Gold.Chemscore.Rot.Weighted>
6.6050

> <Gold.Chemscore.Internal.Correction.Weighted>
   9.000000E+99

> <Gold.Protein.RotatedTorsions>
[ 6907 6896 6895 6894 ] final -102.26 input  -60.11 | X-H torsion
[ 7974 7965 7964 7962 ] final   23.40 input  175.53 | X-H torsion
[ 8008 7997 7996 7995 ] final  -76.46 input   59.86 | X-H torsion
[ 10167 10162 10161 10158 ] final -107.90 input  -65.29 | X-H torsion
[ 10718 10713 10712 10709 ] final  -72.94 input   66.30 | X-H torsion
[ 10763 10752 10751 10750 ] final  -40.72 input  -60.55 | X-H torsion
[ 11005 11000 10999 10996 ] final -112.72 input  -57.11 | X-H torsion

> <Gold.Protein.ActiveResidues>
 VAL166  LYS551  ARG553  GLY616  TRP617  ASP618  TYR619  PRO620  LYS621  CYS622 
 ASP623  PHE694  ASN695  SER759  ASP760  ASP761  ALA762  ILE779  LEU786  VAL792 
 PHE793  MET794  SER795  GLU796  ALA797  LYS798  CYS799  TRP800  GLU811  SER814 

> <Gold.Protein.RotatedAtoms>
  150.7189  134.0608  159.3830 H   0  0  0  0  0  0  0  0  0  0  0  0  # atno 6907 bound_to 6896
  151.8588  135.0529  160.0476 H   0  0  0  0  0  0  0  0  0  0  0  0  # atno 6908 bound_to 6896
  152.2733  133.5367  159.5489 H   0  0  0  0  0  0  0  0  0  0  0  0  # atno 6909 bound_to 6896
  146.1986  139.7750  142.8778 H   0  0  0  0  0  0  0  0  0  0  0  0  # atno 7974 bound_to 7965
  154.5507  140.0727  156.8663 H   0  0  0  0  0  0  0  0  0  0  0  0  # atno 8008 bound_to 7997
  155.2998  140.3383  155.4230 H   0  0  0  0  0  0  0  0  0  0  0  0  # atno 8009 bound_to 7997
  156.1959  140.1703  156.7985 H   0  0  0  0  0  0  0  0  0  0  0  0  # atno 8010 bound_to 7997
  140.1719  143.4036  152.1348 H   0  0  0  0  0  0  0  0  0  0  0  0  # atno 10167 bound_to 10162
  156.0300  130.4383  150.2668 H   0  0  0  0  0  0  0  0  0  0  0  0  # atno 10718 bound_to 10713
  153.9506  135.6751  153.4744 H   0  0  0  0  0  0  0  0  0  0  0  0  # atno 10763 bound_to 10752
  153.0886  135.4886  154.8643 H   0  0  0  0  0  0  0  0  0  0  0  0  # atno 10764 bound_to 10752
  154.7327  135.3142  154.8823 H   0  0  0  0  0  0  0  0  0  0  0  0  # atno 10765 bound_to 10752
  141.0658  133.9461  157.2581 H   0  0  0  0  0  0  0  0  0  0  0  0  # atno 11005 bound_to 11000
  145.3560  141.0317  143.3311 LP  0  0  0  0  0  0  0  0  0  0  0  0  # atno 17320 bound_to 7965
  144.8634  139.5144  143.6802 LP  0  0  0  0  0  0  0  0  0  0  0  0  # atno 17321 bound_to 7965
  139.5334  144.7184  151.4977 LP  0  0  0  0  0  0  0  0  0  0  0  0  # atno 17342 bound_to 10162
  140.6576  143.8566  150.6852 LP  0  0  0  0  0  0  0  0  0  0  0  0  # atno 17343 bound_to 10162
  157.0771  131.0133  151.3170 LP  0  0  0  0  0  0  0  0  0  0  0  0  # atno 17370 bound_to 10713
  157.4956  130.7848  149.7552 LP  0  0  0  0  0  0  0  0  0  0  0  0  # atno 17371 bound_to 10713
  139.9475  135.0181  156.8896 LP  0  0  0  0  0  0  0  0  0  0  0  0  # atno 17394 bound_to 11000
  140.5776  134.0383  155.7452 LP  0  0  0  0  0  0  0  0  0  0  0  0  # atno 17395 bound_to 11000

$$$$
