AV-unprocessed.smi:3170|AV-procd|sdf|12108|dock1
  -GOLD-   2272017543D 1   1.00000     0.00000
 Structure written by MMmdl.
 36 37  0  0  0  0  0  0  0  0  2 V2000
  145.0969  136.5619  154.1103 O   0  0  0  0  0  0  0  0  0  0  0  0
  146.2424  136.4840  153.6654 C   0  0  0  0  0  0  0  0  0  0  0  0
  146.7944  135.3489  153.2149 N   0  0  0  0  0  0  0  0  0  0  0  0
  146.1214  134.0560  153.1815 C   0  0  0  0  0  0  0  0  0  0  0  0
  146.6388  133.1785  152.0296 C   0  0  0  0  0  0  0  0  0  0  0  0
  145.6236  132.9965  150.9916 N   0  0  0  0  0  0  0  0  0  0  0  0
  145.7160  132.2236  149.8630 C   0  0  0  0  0  0  0  0  0  0  0  0
  144.5282  132.3682  149.1931 C   0  0  0  0  0  0  0  0  0  0  0  0
  143.7628  133.2231  149.9404 N   0  3  0  0  0  0  0  0  0  0  0  0
  144.4314  133.6048  151.0336 C   0  0  0  0  0  0  0  0  0  0  0  0
  147.0873  137.5203  153.5779 N   0  0  0  0  0  0  0  0  0  0  0  0
  146.7809  138.8847  153.9943 C   0  0  0  0  0  0  0  0  0  0  0  0
  147.9934  139.8231  153.8432 C   0  0  1  0  0  0  0  0  0  0  0  0
  147.9041  141.1126  154.6355 C   0  0  0  0  0  0  0  0  0  0  0  0
  149.3634  141.5552  154.6758 C   0  0  0  0  0  0  0  0  0  0  0  0
  150.1328  140.3558  154.6768 O   0  0  0  0  0  0  0  0  0  0  0  0
  149.3002  139.2387  154.3784 C   0  0  0  0  0  0  0  0  0  0  0  0
  147.7414  135.3831  152.8664 H   0  0  0  0  0  0  0  0  0  0  0  0
  146.2494  133.5480  154.1390 H   0  0  0  0  0  0  0  0  0  0  0  0
  145.0519  134.2320  153.0646 H   0  0  0  0  0  0  0  0  0  0  0  0
  147.5172  133.6288  151.5655 H   0  0  0  0  0  0  0  0  0  0  0  0
  146.9358  132.1915  152.3880 H   0  0  0  0  0  0  0  0  0  0  0  0
  146.5968  131.6441  149.6264 H   0  0  0  0  0  0  0  0  0  0  0  0
  144.1799  131.9386  148.2651 H   0  0  0  0  0  0  0  0  0  0  0  0
  144.0783  134.2734  151.7987 H   0  0  0  0  0  0  0  0  0  0  0  0
  148.0082  137.3563  153.1982 H   0  0  0  0  0  0  0  0  0  0  0  0
  145.9496  139.2437  153.3868 H   0  0  0  0  0  0  0  0  0  0  0  0
  146.4292  138.8866  155.0274 H   0  0  0  0  0  0  0  0  0  0  0  0
  148.1366  140.0716  152.7902 H   0  0  0  0  0  0  0  0  0  0  0  0
  147.2497  141.8551  154.1781 H   0  0  0  0  0  0  0  0  0  0  0  0
  147.5452  140.9155  155.6469 H   0  0  0  0  0  0  0  0  0  0  0  0
  149.6124  142.1253  153.7800 H   0  0  0  0  0  0  0  0  0  0  0  0
  149.5876  142.1742  155.5447 H   0  0  0  0  0  0  0  0  0  0  0  0
  149.1280  138.6850  155.3025 H   0  0  0  0  0  0  0  0  0  0  0  0
  149.7777  138.5654  153.6664 H   0  0  0  0  0  0  0  0  0  0  0  0
  142.8265  133.5253  149.7022 H   0  0  0  0  0  0  0  0  0  0  0  0
  1  2  2  0  0  0  0
  2  3  1  0  0  0  0
  2 11  1  0  0  0  0
  3  4  1  0  0  0  0
  3 18  1  0  0  0  0
  4  5  1  0  0  0  0
  4 19  1  0  0  0  0
  4 20  1  0  0  0  0
  5  6  1  0  0  0  0
  5 21  1  0  0  0  0
  5 22  1  0  0  0  0
  6 10  1  0  0  0  0
  6  7  1  0  0  0  0
  7  8  2  0  0  0  0
  7 23  1  0  0  0  0
  8  9  1  0  0  0  0
  8 24  1  0  0  0  0
  9 10  2  0  0  0  0
  9 36  1  0  0  0  0
 10 25  1  0  0  0  0
 11 12  1  0  0  0  0
 11 26  1  0  0  0  0
 12 13  1  0  0  0  0
 12 27  1  0  0  0  0
 12 28  1  0  0  0  0
 13 17  1  0  0  0  0
 13 14  1  0  0  0  0
 13 29  1  0  0  0  0
 14 15  1  0  0  0  0
 14 30  1  0  0  0  0
 14 31  1  0  0  0  0
 15 16  1  0  0  0  0
 15 32  1  0  0  0  0
 15 33  1  0  0  0  0
 16 17  1  0  0  0  0
 17 34  1  0  0  0  0
 17 35  1  0  0  0  0
M  CHG  1   9   1
M  END
> <s_m_source_file>
AV-unprocessed.smi

> <i_m_source_file_index>
3170

> <i_lp_mmshare_version>
43012

> <i_f3d_flags>
0

> <s_epik_input>
W0NIMl0xT1tDSDJdW0NIMl1bQ0BIXTFbQ0gyXVtOSF1DKD1PKVtOSF1bQ0gyXVtDSDJdbjJbY0hdW2NIXW5bY0hdMg==

> <s_epik_cmdline>
J2VwaWtfcHl0aG9uJywgJy1waCcsICc3LjAnLCAnLXRuJywgJzgnLCAnLW1hJywgJzIwMCcsICctbWV0YWxfYmluZGluZycsICctaW1hZScsICc8aW5maWxlLm1hZT4nLCAnLW9tYWUnLCAnPG91dGZpbGUubWFlPic=

> <r_lp_tautomer_probability>
1

> <r_epik_Ionization_Penalty>
0.255699

> <r_epik_Ionization_Penalty_Charging>
0

> <r_epik_Ionization_Penalty_Neutral>
0.255699

> <r_epik_State_Penalty>
0.247169

> <r_epik_Charging_Adjusted_Penalty>
0.247169

> <i_epik_Tot_Q>
1

> <i_epik_Tot_abs_Q>
1

> <r_epik_Metal_State_Penalty>
0.536793

> <b_epik_Metal_Only>
0

> <s_lp_Force_Field>
OPLS_2005

> <r_lp_Energy>
18.8209

> <b_lp_Chiralities_Consistent>
1

> <s_lp_Variant>
AV-unprocessed.smi:3170-2

> <Gold.Version>
5.8.1

> <Gold.Id.Protein>
6NUR|6NUR_protein|mol2

> <Gold.PLP.Fitness>
45.4704

> <Gold.PLP.PLP>
-29.6802

> <Gold.PLP.part.hbond>
-4.0000

> <Gold.PLP.part.metal>
0.0000

> <Gold.PLP.part.buried>
-3.5329

> <Gold.PLP.part.nonpolar>
-22.6029

> <Gold.PLP.part.repulsive>
0.2257

> <Gold.PLP.ligand.clash>
0.0000

> <Gold.PLP.ligand.torsion>
0.6899

> <Gold.PLP.Chemscore.Hbond>
4.7665

> <Gold.PLP.Chemscore.CHOScore>
0.9258

> <Gold.PLP.Chemscore.Metal>
0.0000

> <Gold.Chemscore.Hbonds>
donor molecule, donor type, donor heavy atom, donor atom, acceptor molecule, acceptor atom, score
      L1  H     3    18       P1  7948  0.98
      L1  H     9    36       P1 10186  1.98
      L1  H    11    26       P1  7948  0.83
      P1  H  7989  7998       L1    16  0.99
      L1  C     7    23       P1 10747  0.90

> <Gold.PLP.Chemscore.Internal.Correction>
0.0931

> <Gold.Rescore>
     Score         DG    S(hbond)    S(metal)    S(lipo)     H(rot)  DE(clash)    DE(int)     intcor
     17.34     -18.11       3.37        0.00      62.71       2.33       0.04       0.73       ----

> <Gold.Chemscore.Fitness>
17.3442

> <Gold.Chemscore.DG>
-18.1112

> <Gold.Chemscore.ZeroCoef>
-5.4800

> <Gold.Chemscore.Hbond>
3.3702

> <Gold.Chemscore.Metal>
0.0000

> <Gold.Chemscore.Lipo>
62.7051

> <Gold.Chemscore.Internal_Hbond>
0.0000

> <Gold.Chemscore.DEClash>
0.0399

> <Gold.Chemscore.DEInternal>
0.7271

> <Gold.Chemscore.Rot>
2.3288

> <Gold.Chemscore.Internal.Correction>
   9.000000E+99

> <Gold.Chemscore.Hbonds>
donor molecule, donor type, donor heavy atom, donor atom, acceptor molecule, acceptor atom, score
      L1  H     3    18       P1  7948  0.93
      L1  H     9    36       P1 10186  0.92
      L1  H    11    26       P1  7948  0.81
      P1  H  7989  7998       L1    16  0.23

> <Gold.Chemscore.Hbond.Weighted>
-11.2564

> <Gold.Chemscore.Metal.Weighted>
-0.0000

> <Gold.Chemscore.Lipo.Weighted>
-7.3365

> <Gold.Chemscore.Internal_Hbond.Weighted>
0.0000

> <Gold.Chemscore.DEClash.Weighted>
0.0399

> <Gold.Chemscore.DEInternal.Weighted>
0.7271

> <Gold.Chemscore.Rot.Weighted>
5.9617

> <Gold.Chemscore.Internal.Correction.Weighted>
   9.000000E+99

> <Gold.Protein.RotatedTorsions>
[ 6907 6896 6895 6894 ] final -164.72 input  -60.11 | X-H torsion
[ 7974 7965 7964 7962 ] final  -88.37 input  175.53 | X-H torsion
[ 8008 7997 7996 7995 ] final    7.54 input   59.86 | X-H torsion
[ 10167 10162 10161 10158 ] final   59.81 input  -65.29 | X-H torsion
[ 10718 10713 10712 10709 ] final   -0.33 input   66.30 | X-H torsion
[ 10763 10752 10751 10750 ] final    7.08 input  -60.55 | X-H torsion
[ 11005 11000 10999 10996 ] final   51.25 input  -57.11 | X-H torsion

> <Gold.Protein.ActiveResidues>
 VAL166  LYS551  ARG553  GLY616  TRP617  ASP618  TYR619  PRO620  LYS621  CYS622 
 ASP623  PHE694  ASN695  SER759  ASP760  ASP761  ALA762  ILE779  LEU786  VAL792 
 PHE793  MET794  SER795  GLU796  ALA797  LYS798  CYS799  TRP800  GLU811  SER814 

> <Gold.Protein.RotatedAtoms>
  151.4163  133.3712  159.2750 H   0  0  0  0  0  0  0  0  0  0  0  0  # atno 6907 bound_to 6896
  150.9326  134.8742  159.7572 H   0  0  0  0  0  0  0  0  0  0  0  0  # atno 6908 bound_to 6896
  152.5035  134.4108  159.9500 H   0  0  0  0  0  0  0  0  0  0  0  0  # atno 6909 bound_to 6896
  145.4541  140.9561  143.2006 H   0  0  0  0  0  0  0  0  0  0  0  0  # atno 7974 bound_to 7965
  154.7551  140.2774  155.6260 H   0  0  0  0  0  0  0  0  0  0  0  0  # atno 8008 bound_to 7997
  156.2904  140.2671  156.2242 H   0  0  0  0  0  0  0  0  0  0  0  0  # atno 8009 bound_to 7997
  155.0087  140.0372  157.2380 H   0  0  0  0  0  0  0  0  0  0  0  0  # atno 8010 bound_to 7997
  140.1724  144.4263  150.6655 H   0  0  0  0  0  0  0  0  0  0  0  0  # atno 10167 bound_to 10162
  156.8220  130.5459  149.5696 H   0  0  0  0  0  0  0  0  0  0  0  0  # atno 10718 bound_to 10713
  153.2404  135.6903  153.7790 H   0  0  0  0  0  0  0  0  0  0  0  0  # atno 10763 bound_to 10752
  153.6921  135.3311  155.3205 H   0  0  0  0  0  0  0  0  0  0  0  0  # atno 10764 bound_to 10752
  154.8353  135.4548  154.1323 H   0  0  0  0  0  0  0  0  0  0  0  0  # atno 10765 bound_to 10752
  140.0949  134.5159  155.8817 H   0  0  0  0  0  0  0  0  0  0  0  0  # atno 11005 bound_to 11000
  144.8043  139.6081  143.7058 LP  0  0  0  0  0  0  0  0  0  0  0  0  # atno 17320 bound_to 7965
  146.2488  139.6155  142.9441 LP  0  0  0  0  0  0  0  0  0  0  0  0  # atno 17321 bound_to 7965
  140.6573  143.2241  151.5938 LP  0  0  0  0  0  0  0  0  0  0  0  0  # atno 17342 bound_to 10162
  139.5332  144.2856  152.1194 LP  0  0  0  0  0  0  0  0  0  0  0  0  # atno 17343 bound_to 10162
  156.0983  130.5949  150.9851 LP  0  0  0  0  0  0  0  0  0  0  0  0  # atno 17370 bound_to 10713
  157.6452  131.0905  150.8169 LP  0  0  0  0  0  0  0  0  0  0  0  0  # atno 17371 bound_to 10713
  141.2089  133.6678  156.6402 LP  0  0  0  0  0  0  0  0  0  0  0  0  # atno 17394 bound_to 11000
  140.3301  134.7936  157.4319 LP  0  0  0  0  0  0  0  0  0  0  0  0  # atno 17395 bound_to 11000

$$$$
