#       Name:                AV-unprocessed.smi:1867
#       Creating user name   scv26
#       Creation time:       Fri Mar 27 09:28:03 2020


#       File generated by GOLD software.
#

@<TRIPOS>MOLECULE
AV-unprocessed.smi:1867
    56    59     1
SMALL
NO_CHARGES


@<TRIPOS>ATOM
      1 ****        -0.7964   3.0967   1.1117 O.2            1 S1                 0.0000
      2 ****        -1.1483   1.9212   1.0546 C.2            1 S1                 0.0000
      3 ****        -0.3103   0.8677   0.9930 N.am           1 S1                 0.0000
      4 ****         1.1105   0.8573   0.9798 C.ar           1 S1                 0.0000
      5 ****         1.9249   1.9231   1.4319 C.ar           1 S1                 0.0000
      6 ****         3.3245   1.7788   1.3801 C.ar           1 S1                 0.0000
      7 ****         3.8694   0.5751   0.8884 C.ar           1 S1                 0.0000
      8 ****         5.2648   0.4356   0.8396 N.3            1 S1                 0.0000
      9 ****         5.8097  -0.6582   1.6270 C.3            1 S1                 0.0000
     10 ****         7.2440  -0.8423   1.1269 C.3            1 S1                 0.0000
     11 ****         7.2451  -0.2489  -0.2871 C.3            1 S1                 0.0000
     12 ****         5.8237   0.2832  -0.4939 C.3            1 S1                 0.0000
     13 ****         3.0955  -0.4528   0.4652 N.ar           1 S1                 0.0000
     14 ****         1.7549  -0.3083   0.5173 C.ar           1 S1                 0.0000
     15 ****        -2.4518   1.5897   1.0297 N.am           1 S1                 0.0000
     16 ****        -3.6147   2.4795   1.0801 C.3            1 S1                 0.0000
     17 ****        -4.9200   1.7803   0.6757 C.3            1 S1                 0.0000
     18 ****        -6.0202   2.4696   1.5021 C.3            1 S1                 0.0000
     19 ****        -5.3339   3.4720   2.3470 N.4            1 S1                 1.0000
     20 ****        -6.0193   3.8545   3.6081 C.3            1 S1                 0.0000
     21 ****        -5.8390   2.8100   4.7221 C.3            1 S1                 0.0000
     22 ****        -4.3535   2.5058   4.9409 C.3            1 S1                 0.0000
     23 ****        -3.7299   2.0169   3.6295 C.3            1 S1                 0.0000
     24 ****        -3.9247   3.0396   2.4803 C.3            1 S1                 0.0000
     25 ****        -0.7461  -0.0364   0.8875 H              1 S1                 0.0000
     26 ****         1.5117   2.8372   1.8277 H              1 S1                 0.0000
     27 ****         3.9669   2.5790   1.7178 H              1 S1                 0.0000
     28 ****         5.7820  -0.4282   2.6925 H              1 S1                 0.0000
     29 ****         5.2370  -1.5724   1.4642 H              1 S1                 0.0000
     30 ****         7.9379  -0.2884   1.7603 H              1 S1                 0.0000
     31 ****         7.5447  -1.8903   1.1406 H              1 S1                 0.0000
     32 ****         7.9702   0.5636  -0.3494 H              1 S1                 0.0000
     33 ****         7.5079  -0.9872  -1.0452 H              1 S1                 0.0000
     34 ****         5.2378  -0.4295  -1.0761 H              1 S1                 0.0000
     35 ****         5.8258   1.2331  -1.0290 H              1 S1                 0.0000
     36 ****         1.1767  -1.1537   0.1737 H              1 S1                 0.0000
     37 ****        -2.6578   0.6021   0.9796 H              1 S1                 0.0000
     38 ****        -3.4652   3.3137   0.3914 H              1 S1                 0.0000
     39 ****        -5.1017   1.8570  -0.3967 H              1 S1                 0.0000
     40 ****        -4.8875   0.7188   0.9260 H              1 S1                 0.0000
     41 ****        -6.7592   2.9606   0.8685 H              1 S1                 0.0000
     42 ****        -6.5425   1.7328   2.1133 H              1 S1                 0.0000
     43 ****        -5.6009   4.8055   3.9400 H              1 S1                 0.0000
     44 ****        -7.0774   4.0335   3.4133 H              1 S1                 0.0000
     45 ****        -6.2841   3.1761   5.6477 H              1 S1                 0.0000
     46 ****        -6.3717   1.8926   4.4693 H              1 S1                 0.0000
     47 ****        -3.8357   3.3997   5.2911 H              1 S1                 0.0000
     48 ****        -4.2353   1.7494   5.7174 H              1 S1                 0.0000
     49 ****        -2.6678   1.8240   3.7843 H              1 S1                 0.0000
     50 ****        -4.1777   1.0588   3.3622 H              1 S1                 0.0000
     51 ****        -3.3093   3.9168   2.6857 H              1 S1                 0.0000
     52 ****        -5.3052   4.3071   1.7795 H              1 S1                 0.0000
     53 ****         0.1765   3.3278   1.1147 LP             1 S1                 0.0000
     54 ****        -1.4829   3.8226   1.1551 LP             1 S1                 0.0000
     55 ****         5.5371   1.3132   1.2342 LP             1 S1                 0.0000
     56 ****         3.5072  -1.2974   0.1228 LP             1 S1                 0.0000
@<TRIPOS>BOND
    1    1    2 2     
    2    2    3 am    
    3    2   15 am    
    4    3    4 1     
    5    3   25 1     
    6    4   14 ar    
    7    4    5 ar    
    8    5    6 ar    
    9    5   26 1     
   10    6    7 ar    
   11    6   27 1     
   12    7    8 1     
   13    7   13 ar    
   14    8   12 1     
   15    8    9 1     
   16    9   10 1     
   17    9   28 1     
   18    9   29 1     
   19   10   11 1     
   20   10   30 1     
   21   10   31 1     
   22   11   12 1     
   23   11   32 1     
   24   11   33 1     
   25   12   34 1     
   26   12   35 1     
   27   13   14 ar    
   28   14   36 1     
   29   15   16 1     
   30   15   37 1     
   31   16   24 1     
   32   16   17 1     
   33   16   38 1     
   34   17   18 1     
   35   17   39 1     
   36   17   40 1     
   37   18   19 1     
   38   18   41 1     
   39   18   42 1     
   40   19   24 1     
   41   19   20 1     
   42   19   52 1     
   43   20   21 1     
   44   20   43 1     
   45   20   44 1     
   46   21   22 1     
   47   21   45 1     
   48   21   46 1     
   49   22   23 1     
   50   22   47 1     
   51   22   48 1     
   52   23   24 1     
   53   23   49 1     
   54   23   50 1     
   55   24   51 1     
   56    1   53 1     
   57    1   54 1     
   58    8   55 1     
   59   13   56 1     
@<TRIPOS>SUBSTRUCTURE
      1 S1             1
@<TRIPOS>SET
LONE_PAIRS      STATIC     ATOMS    <user>   **** ""
4 53 54 55 56
DONOR_HYDROGENS      STATIC     ATOMS    <user>   **** ""
3 25 37 52
ATOM$BLUE        STATIC     ATOMS    COLORGROUP SYSTEM
4 53 54 55 56
ATOM$RED        STATIC     ATOMS    COLORGROUP SYSTEM
3 25 37 52
