AV-unprocessed.smi:786|AV-procd|sdf|3721|dock3
  -GOLD-   22720 1143D 1   1.00000     0.00000
 Structure written by MMmdl.
 39 40  0  0  0  0  0  0  0  0  1 V2000
  152.2527  137.0472  159.3503 O   0  0  0  0  0  0  0  0  0  0  0  0
  152.8158  138.3553  158.9848 S   0  0  0  0  0  0  0  0  0  0  0  0
  153.6081  138.5043  157.7547 O   0  0  0  0  0  0  0  0  0  0  0  0
  151.4737  139.6300  158.9781 C   0  0  0  0  0  0  0  0  0  0  0  0
  150.7619  139.7542  157.6147 C   0  0  0  0  0  0  0  0  0  0  0  0
  151.0898  138.5982  156.6502 C   0  0  0  0  0  0  0  0  0  0  0  0
  150.4139  138.8165  155.2866 C   0  0  0  0  0  0  0  0  0  0  0  0
  150.8184  140.0657  154.7374 O   0  0  0  0  0  0  0  0  0  0  0  0
  150.4351  141.1747  155.5429 C   0  0  0  0  0  0  0  0  0  0  0  0
  151.1098  141.0819  156.9214 C   0  0  0  0  0  0  0  0  0  0  0  0
  153.8119  138.8555  160.3027 N   0  0  0  0  0  0  0  0  0  0  0  0
  154.4392  140.1771  160.3070 C   0  0  0  0  0  0  0  0  0  0  0  0
  153.7664  141.0819  161.3477 C   0  0  0  0  0  0  0  0  0  0  0  0
  153.2070  142.3498  160.7299 C   0  0  0  0  0  0  0  0  0  0  0  0
  152.5600  143.3163  161.5292 C   0  0  0  0  0  0  0  0  0  0  0  0
  152.0648  144.4790  160.9076 C   0  0  0  0  0  0  0  0  0  0  0  0
  152.2350  144.6301  159.5181 C   0  0  0  0  0  0  0  0  0  0  0  0
  152.8969  143.6077  158.8090 C   0  0  0  0  0  0  0  0  0  0  0  0
  153.3765  142.4894  159.3954 N   0  0  0  0  0  0  0  0  0  0  0  0
  150.7718  139.3680  159.7690 H   0  0  0  0  0  0  0  0  0  0  0  0
  151.9153  140.5853  159.2625 H   0  0  0  0  0  0  0  0  0  0  0  0
  149.6858  139.7583  157.7944 H   0  0  0  0  0  0  0  0  0  0  0  0
  152.1691  138.5316  156.5073 H   0  0  0  0  0  0  0  0  0  0  0  0
  150.7744  137.6401  157.0592 H   0  0  0  0  0  0  0  0  0  0  0  0
  150.6982  138.0214  154.5973 H   0  0  0  0  0  0  0  0  0  0  0  0
  149.3275  138.7822  155.3802 H   0  0  0  0  0  0  0  0  0  0  0  0
  150.7353  142.0941  155.0401 H   0  0  0  0  0  0  0  0  0  0  0  0
  149.3490  141.2069  155.6424 H   0  0  0  0  0  0  0  0  0  0  0  0
  150.7983  141.9244  157.5400 H   0  0  0  0  0  0  0  0  0  0  0  0
  152.1909  141.1654  156.8019 H   0  0  0  0  0  0  0  0  0  0  0  0
  153.4872  138.5297  161.2129 H   0  0  0  0  0  0  0  0  0  0  0  0
  155.5008  140.0742  160.5335 H   0  0  0  0  0  0  0  0  0  0  0  0
  154.3584  140.6147  159.3117 H   0  0  0  0  0  0  0  0  0  0  0  0
  152.9573  140.5444  161.8447 H   0  0  0  0  0  0  0  0  0  0  0  0
  154.4814  141.3489  162.1269 H   0  0  0  0  0  0  0  0  0  0  0  0
  152.4461  143.1730  162.5939 H   0  0  0  0  0  0  0  0  0  0  0  0
  151.5637  145.2409  161.4864 H   0  0  0  0  0  0  0  0  0  0  0  0
  151.8681  145.5083  159.0076 H   0  0  0  0  0  0  0  0  0  0  0  0
  153.0454  143.6904  157.7427 H   0  0  0  0  0  0  0  0  0  0  0  0
  1  2  2  0  0  0  0
  2  3  2  0  0  0  0
  2  4  1  0  0  0  0
  2 11  1  0  0  0  0
  4  5  1  0  0  0  0
  4 20  1  0  0  0  0
  4 21  1  0  0  0  0
  5 10  1  0  0  0  0
  5  6  1  0  0  0  0
  5 22  1  0  0  0  0
  6  7  1  0  0  0  0
  6 23  1  0  0  0  0
  6 24  1  0  0  0  0
  7  8  1  0  0  0  0
  7 25  1  0  0  0  0
  7 26  1  0  0  0  0
  8  9  1  0  0  0  0
  9 10  1  0  0  0  0
  9 27  1  0  0  0  0
  9 28  1  0  0  0  0
 10 29  1  0  0  0  0
 10 30  1  0  0  0  0
 11 12  1  0  0  0  0
 11 31  1  0  0  0  0
 12 13  1  0  0  0  0
 12 32  1  0  0  0  0
 12 33  1  0  0  0  0
 13 14  1  0  0  0  0
 13 34  1  0  0  0  0
 13 35  1  0  0  0  0
 14 19  1  0  0  0  0
 14 15  2  0  0  0  0
 15 16  1  0  0  0  0
 15 36  1  0  0  0  0
 16 17  2  0  0  0  0
 16 37  1  0  0  0  0
 17 18  1  0  0  0  0
 17 38  1  0  0  0  0
 18 19  2  0  0  0  0
 18 39  1  0  0  0  0
M  END
> <s_m_source_file>
AV-unprocessed.smi

> <i_m_source_file_index>
786

> <i_lp_mmshare_version>
43012

> <i_f3d_flags>
0

> <s_epik_input>
W0NIMl0xW0NIMl1PW0NIMl1bQ0gyXVtDSF0xW0NIMl1TKD1PKSg9TylbTkhdW0NIMl1bQ0gyXWMyW2NIXVtjSF1bY0hdW2NIXW4y

> <s_epik_cmdline>
J2VwaWtfcHl0aG9uJywgJy1waCcsICc3LjAnLCAnLXRuJywgJzgnLCAnLW1hJywgJzIwMCcsICctbWV0YWxfYmluZGluZycsICctaW1hZScsICc8aW5maWxlLm1hZT4nLCAnLW9tYWUnLCAnPG91dGZpbGUubWFlPic=

> <r_epik_Ionization_Penalty>
0.0207022

> <r_epik_Ionization_Penalty_Charging>
0

> <r_epik_Ionization_Penalty_Neutral>
0.0207022

> <r_epik_State_Penalty>
0.0165999

> <r_epik_Charging_Adjusted_Penalty>
0.0165999

> <i_epik_Tot_Q>
0

> <i_epik_Tot_abs_Q>
0

> <r_epik_Metal_State_Penalty>
0.0248737

> <b_epik_Metal_Only>
0

> <s_lp_Force_Field>
OPLS_2005

> <r_lp_Energy>
3.32782

> <b_lp_Chiralities_Consistent>
1

> <s_lp_Variant>
AV-unprocessed.smi:786-1

> <Gold.Version>
5.8.1

> <Gold.Id.Protein>
6NUR|6NUR_protein|mol2

> <Gold.PLP.Fitness>
46.8612

> <Gold.PLP.PLP>
-41.7632

> <Gold.PLP.part.hbond>
-2.9901

> <Gold.PLP.part.metal>
0.0000

> <Gold.PLP.part.buried>
-6.6056

> <Gold.PLP.part.nonpolar>
-33.3948

> <Gold.PLP.part.repulsive>
0.0678

> <Gold.PLP.ligand.clash>
0.0000

> <Gold.PLP.ligand.torsion>
1.8723

> <Gold.PLP.Chemscore.Hbond>
2.8775

> <Gold.PLP.Chemscore.CHOScore>
0.0000

> <Gold.PLP.Chemscore.Metal>
0.0000

> <Gold.Chemscore.Hbonds>
donor molecule, donor type, donor heavy atom, donor atom, acceptor molecule, acceptor atom, score
      P1  H  6896  6908       L1     1  0.89
      P1  H  7989  7998       L1     8  1.00
      P1  H  7997  8009       L1     3  1.00

> <Gold.PLP.Chemscore.Internal.Correction>
0.2102

> <Gold.Rescore>
     Score         DG    S(hbond)    S(metal)    S(lipo)     H(rot)  DE(clash)    DE(int)     intcor
     20.02     -23.59       2.86        0.00     112.80       1.81       0.00       3.57       ----

> <Gold.Chemscore.Fitness>
20.0175

> <Gold.Chemscore.DG>
-23.5939

> <Gold.Chemscore.ZeroCoef>
-5.4800

> <Gold.Chemscore.Hbond>
2.8620

> <Gold.Chemscore.Metal>
0.0000

> <Gold.Chemscore.Lipo>
112.8029

> <Gold.Chemscore.Internal_Hbond>
0.0000

> <Gold.Chemscore.DEClash>
0.0040

> <Gold.Chemscore.DEInternal>
3.5724

> <Gold.Chemscore.Rot>
1.8138

> <Gold.Chemscore.Internal.Correction>
   9.000000E+99

> <Gold.Chemscore.Hbonds>
donor molecule, donor type, donor heavy atom, donor atom, acceptor molecule, acceptor atom, score
      P1  H  6896  6908       L1     1  0.84
      P1  H  7989  7998       L1     8  0.26
      P1  H  7997  8009       L1     3  0.97

> <Gold.Chemscore.Hbond.Weighted>
-9.5592

> <Gold.Chemscore.Metal.Weighted>
-0.0000

> <Gold.Chemscore.Lipo.Weighted>
-13.1979

> <Gold.Chemscore.Internal_Hbond.Weighted>
0.0000

> <Gold.Chemscore.DEClash.Weighted>
0.0040

> <Gold.Chemscore.DEInternal.Weighted>
3.5724

> <Gold.Chemscore.Rot.Weighted>
4.6432

> <Gold.Chemscore.Internal.Correction.Weighted>
   9.000000E+99

> <Gold.Protein.RotatedTorsions>
[ 6907 6896 6895 6894 ] final -104.66 input  -60.11 | X-H torsion
[ 7974 7965 7964 7962 ] final   39.97 input  175.53 | X-H torsion
[ 8008 7997 7996 7995 ] final  160.79 input   59.86 | X-H torsion
[ 10167 10162 10161 10158 ] final  106.71 input  -65.29 | X-H torsion
[ 10718 10713 10712 10709 ] final -178.32 input   66.30 | X-H torsion
[ 10763 10752 10751 10750 ] final   75.09 input  -60.55 | X-H torsion
[ 11005 11000 10999 10996 ] final -104.28 input  -57.11 | X-H torsion

> <Gold.Protein.ActiveResidues>
 VAL166  LYS551  ARG553  GLY616  TRP617  ASP618  TYR619  PRO620  LYS621  CYS622 
 ASP623  PHE694  ASN695  SER759  ASP760  ASP761  ALA762  ILE779  LEU786  VAL792 
 PHE793  MET794  SER795  GLU796  ALA797  LYS798  CYS799  TRP800  GLU811  SER814 

> <Gold.Protein.RotatedAtoms>
  150.7298  134.0244  159.3711 H   0  0  0  0  0  0  0  0  0  0  0  0  # atno 6907 bound_to 6896
  151.8211  135.0649  160.0434 H   0  0  0  0  0  0  0  0  0  0  0  0  # atno 6908 bound_to 6896
  152.3003  133.5613  159.5650 H   0  0  0  0  0  0  0  0  0  0  0  0  # atno 6909 bound_to 6896
  146.0942  139.5588  142.9456 H   0  0  0  0  0  0  0  0  0  0  0  0  # atno 7974 bound_to 7965
  156.2148  140.1794  156.7614 H   0  0  0  0  0  0  0  0  0  0  0  0  # atno 8008 bound_to 7997
  154.5775  140.0672  156.9085 H   0  0  0  0  0  0  0  0  0  0  0  0  # atno 8009 bound_to 7997
  155.2561  140.3332  155.4280 H   0  0  0  0  0  0  0  0  0  0  0  0  # atno 8010 bound_to 7997
  139.6987  144.7097  151.1223 H   0  0  0  0  0  0  0  0  0  0  0  0  # atno 10167 bound_to 10162
  156.8426  130.9691  151.3099 H   0  0  0  0  0  0  0  0  0  0  0  0  # atno 10718 bound_to 10713
  153.0631  135.5001  154.8139 H   0  0  0  0  0  0  0  0  0  0  0  0  # atno 10763 bound_to 10752
  154.6913  135.2985  154.9478 H   0  0  0  0  0  0  0  0  0  0  0  0  # atno 10764 bound_to 10752
  154.0232  135.6739  153.4827 H   0  0  0  0  0  0  0  0  0  0  0  0  # atno 10765 bound_to 10752
  141.1108  133.8710  157.1591 H   0  0  0  0  0  0  0  0  0  0  0  0  # atno 11005 bound_to 11000
  145.5981  141.0359  143.2033 LP  0  0  0  0  0  0  0  0  0  0  0  0  # atno 17320 bound_to 7965
  144.7382  139.7523  143.7321 LP  0  0  0  0  0  0  0  0  0  0  0  0  # atno 17321 bound_to 7965
  140.7703  143.5455  150.9263 LP  0  0  0  0  0  0  0  0  0  0  0  0  # atno 17342 bound_to 10162
  139.9136  143.6690  152.3110 LP  0  0  0  0  0  0  0  0  0  0  0  0  # atno 17343 bound_to 10162
  157.6347  130.8757  149.9338 LP  0  0  0  0  0  0  0  0  0  0  0  0  # atno 17370 bound_to 10713
  156.0872  130.3667  150.0464 LP  0  0  0  0  0  0  0  0  0  0  0  0  # atno 17371 bound_to 10713
  140.0000  135.0031  157.0169 LP  0  0  0  0  0  0  0  0  0  0  0  0  # atno 17394 bound_to 11000
  140.4781  134.1317  155.7213 LP  0  0  0  0  0  0  0  0  0  0  0  0  # atno 17395 bound_to 11000

$$$$
