AV-unprocessed.smi:1666|AV-procd|sdf|6672|dock8
  -GOLD-   22720 7383D 1   1.00000     0.00000
 Structure written by MMmdl.
 40 41  0  0  0  0  0  0  0  0  2 V2000
  150.5813  145.0209  159.5244 C   0  0  0  0  0  0  0  0  0  0  0  0
  151.4796  143.8744  159.9599 C   0  0  0  0  0  0  0  0  0  0  0  0
  152.1923  143.9788  161.1733 C   0  0  0  0  0  0  0  0  0  0  0  0
  153.0218  142.9179  161.5749 C   0  0  0  0  0  0  0  0  0  0  0  0
  153.1046  141.7902  160.7406 C   0  0  0  0  0  0  0  0  0  0  0  0
  152.4270  141.6817  159.5797 N   0  0  0  0  0  0  0  0  0  0  0  0
  151.6210  142.6966  159.1780 C   0  0  0  0  0  0  0  0  0  0  0  0
  150.8769  142.6511  157.9654 N   0  0  0  0  0  0  0  0  0  0  0  0
  150.7223  141.6188  157.1177 C   0  0  0  0  0  0  0  0  0  0  0  0
  151.2113  140.4972  157.2588 O   0  0  0  0  0  0  0  0  0  0  0  0
  149.9564  141.9593  156.0711 N   0  0  0  0  0  0  0  0  0  0  0  0
  149.6021  141.0639  154.9762 C   0  0  0  0  0  0  0  0  0  0  0  0
  148.5131  141.6785  154.0760 C   0  0  0  0  0  0  0  0  0  0  0  0
  147.4154  142.2985  154.8583 N   0  3  0  0  0  0  0  0  0  0  0  0
  146.3166  142.7925  153.9942 C   0  0  0  0  0  0  0  0  0  0  0  0
  145.2245  143.4669  154.8414 C   0  0  0  0  0  0  0  0  0  0  0  0
  144.7402  142.5487  155.8130 O   0  0  0  0  0  0  0  0  0  0  0  0
  145.7645  142.1324  156.7073 C   0  0  0  0  0  0  0  0  0  0  0  0
  146.8768  141.4155  155.9231 C   0  0  0  0  0  0  0  0  0  0  0  0
  150.6133  145.8438  160.2391 H   0  0  0  0  0  0  0  0  0  0  0  0
  149.5467  144.6862  159.4452 H   0  0  0  0  0  0  0  0  0  0  0  0
  150.8967  145.4074  158.5548 H   0  0  0  0  0  0  0  0  0  0  0  0
  152.1063  144.8604  161.7915 H   0  0  0  0  0  0  0  0  0  0  0  0
  153.5799  142.9673  162.4982 H   0  0  0  0  0  0  0  0  0  0  0  0
  153.7305  140.9528  161.0112 H   0  0  0  0  0  0  0  0  0  0  0  0
  150.4088  143.5095  157.7157 H   0  0  0  0  0  0  0  0  0  0  0  0
  149.5926  142.9004  156.0307 H   0  0  0  0  0  0  0  0  0  0  0  0
  150.5015  140.8216  154.4096 H   0  0  0  0  0  0  0  0  0  0  0  0
  149.2444  140.1277  155.4057 H   0  0  0  0  0  0  0  0  0  0  0  0
  148.9825  142.4408  153.4520 H   0  0  0  0  0  0  0  0  0  0  0  0
  148.0987  140.9354  153.3928 H   0  0  0  0  0  0  0  0  0  0  0  0
  146.7077  143.5054  153.2672 H   0  0  0  0  0  0  0  0  0  0  0  0
  145.8918  141.9599  153.4310 H   0  0  0  0  0  0  0  0  0  0  0  0
  145.6077  144.3644  155.3299 H   0  0  0  0  0  0  0  0  0  0  0  0
  144.3952  143.7793  154.2065 H   0  0  0  0  0  0  0  0  0  0  0  0
  146.1618  142.9914  157.2506 H   0  0  0  0  0  0  0  0  0  0  0  0
  145.3332  141.4589  157.4481 H   0  0  0  0  0  0  0  0  0  0  0  0
  146.4840  140.5006  155.4765 H   0  0  0  0  0  0  0  0  0  0  0  0
  147.6671  141.1192  156.6119 H   0  0  0  0  0  0  0  0  0  0  0  0
  147.8060  143.1111  155.3139 H   0  0  0  0  0  0  0  0  0  0  0  0
  1  2  1  0  0  0  0
  1 20  1  0  0  0  0
  1 21  1  0  0  0  0
  1 22  1  0  0  0  0
  2  7  1  0  0  0  0
  2  3  2  0  0  0  0
  3  4  1  0  0  0  0
  3 23  1  0  0  0  0
  4  5  2  0  0  0  0
  4 24  1  0  0  0  0
  5  6  1  0  0  0  0
  5 25  1  0  0  0  0
  6  7  2  0  0  0  0
  7  8  1  0  0  0  0
  8  9  1  0  0  0  0
  8 26  1  0  0  0  0
  9 10  2  0  0  0  0
  9 11  1  0  0  0  0
 11 12  1  0  0  0  0
 11 27  1  0  0  0  0
 12 13  1  0  0  0  0
 12 28  1  0  0  0  0
 12 29  1  0  0  0  0
 13 14  1  0  0  0  0
 13 30  1  0  0  0  0
 13 31  1  0  0  0  0
 14 19  1  0  0  0  0
 14 15  1  0  0  0  0
 14 40  1  0  0  0  0
 15 16  1  0  0  0  0
 15 32  1  0  0  0  0
 15 33  1  0  0  0  0
 16 17  1  0  0  0  0
 16 34  1  0  0  0  0
 16 35  1  0  0  0  0
 17 18  1  0  0  0  0
 18 19  1  0  0  0  0
 18 36  1  0  0  0  0
 18 37  1  0  0  0  0
 19 38  1  0  0  0  0
 19 39  1  0  0  0  0
M  CHG  1  14   1
M  END
> <s_m_source_file>
AV-unprocessed.smi

> <i_m_source_file_index>
1666

> <i_lp_mmshare_version>
43012

> <i_f3d_flags>
0

> <s_epik_input>
W0NIM11jMVtjSF1bY0hdW2NIXW5jMVtOSF1DKD1PKVtOSF1bQ0gyXVtDSDJdTjJbQ0gyXVtDSDJdT1tDSDJdW0NIMl0y

> <s_epik_cmdline>
J2VwaWtfcHl0aG9uJywgJy1waCcsICc3LjAnLCAnLXRuJywgJzgnLCAnLW1hJywgJzIwMCcsICctbWV0YWxfYmluZGluZycsICctaW1hZScsICc8aW5maWxlLm1hZT4nLCAnLW9tYWUnLCAnPG91dGZpbGUubWFlPic=

> <r_epik_Ionization_Penalty>
0.602573

> <r_epik_Ionization_Penalty_Charging>
0.602531

> <r_epik_Ionization_Penalty_Neutral>
4.20806e-05

> <r_epik_State_Penalty>
0.617039

> <r_epik_Charging_Adjusted_Penalty>
1.21957

> <i_epik_Tot_Q>
1

> <i_epik_Tot_abs_Q>
1

> <r_epik_Metal_State_Penalty>
0.617042

> <b_epik_Metal_Only>
0

> <s_lp_Force_Field>
OPLS_2005

> <r_lp_Energy>
16.3818

> <b_lp_Chiralities_Consistent>
1

> <s_lp_Variant>
AV-unprocessed.smi:1666-2

> <Gold.Version>
5.8.1

> <Gold.Id.Protein>
6NUR|6NUR_protein|mol2

> <Gold.PLP.Fitness>
48.5879

> <Gold.PLP.PLP>
-39.8786

> <Gold.PLP.part.hbond>
-2.0000

> <Gold.PLP.part.metal>
0.0000

> <Gold.PLP.part.buried>
-6.4189

> <Gold.PLP.part.nonpolar>
-31.8407

> <Gold.PLP.part.repulsive>
0.3679

> <Gold.PLP.ligand.clash>
0.0000

> <Gold.PLP.ligand.torsion>
0.1519

> <Gold.PLP.Chemscore.Hbond>
3.0000

> <Gold.PLP.Chemscore.CHOScore>
0.0000

> <Gold.PLP.Chemscore.Metal>
0.0000

> <Gold.Chemscore.Hbonds>
donor molecule, donor type, donor heavy atom, donor atom, acceptor molecule, acceptor atom, score
      L1  H    11    27       P1  8028  1.00
      L1  H    14    40       P1  8028  2.00

> <Gold.PLP.Chemscore.Internal.Correction>
0.0132

> <Gold.Rescore>
     Score         DG    S(hbond)    S(metal)    S(lipo)     H(rot)  DE(clash)    DE(int)     intcor
     16.10     -17.77       1.75        0.00      88.69       1.54       0.26       1.42       ----

> <Gold.Chemscore.Fitness>
16.0961

> <Gold.Chemscore.DG>
-17.7721

> <Gold.Chemscore.ZeroCoef>
-5.4800

> <Gold.Chemscore.Hbond>
1.7522

> <Gold.Chemscore.Metal>
0.0000

> <Gold.Chemscore.Lipo>
88.6927

> <Gold.Chemscore.Internal_Hbond>
0.0000

> <Gold.Chemscore.DEClash>
0.2578

> <Gold.Chemscore.DEInternal>
1.4181

> <Gold.Chemscore.Rot>
1.5381

> <Gold.Chemscore.Internal.Correction>
   9.000000E+99

> <Gold.Chemscore.Hbonds>
donor molecule, donor type, donor heavy atom, donor atom, acceptor molecule, acceptor atom, score
      L1  H    11    27       P1  8028  0.97
      L1  H    14    40       P1  8028  0.60

> <Gold.Chemscore.Hbond.Weighted>
-5.8525

> <Gold.Chemscore.Metal.Weighted>
-0.0000

> <Gold.Chemscore.Lipo.Weighted>
-10.3770

> <Gold.Chemscore.Internal_Hbond.Weighted>
0.0000

> <Gold.Chemscore.DEClash.Weighted>
0.2578

> <Gold.Chemscore.DEInternal.Weighted>
1.4181

> <Gold.Chemscore.Rot.Weighted>
3.9375

> <Gold.Chemscore.Internal.Correction.Weighted>
   9.000000E+99

> <Gold.Protein.RotatedTorsions>
[ 6907 6896 6895 6894 ] final  -89.64 input  -60.11 | X-H torsion
[ 7974 7965 7964 7962 ] final -137.92 input  175.53 | X-H torsion
[ 8008 7997 7996 7995 ] final   94.95 input   59.86 | X-H torsion
[ 10167 10162 10161 10158 ] final   -7.64 input  -65.29 | X-H torsion
[ 10718 10713 10712 10709 ] final  -64.81 input   66.30 | X-H torsion
[ 10763 10752 10751 10750 ] final    5.03 input  -60.55 | X-H torsion
[ 11005 11000 10999 10996 ] final   94.93 input  -57.11 | X-H torsion

> <Gold.Protein.ActiveResidues>
 VAL166  LYS551  ARG553  GLY616  TRP617  ASP618  TYR619  PRO620  LYS621  CYS622 
 ASP623  PHE694  ASN695  SER759  ASP760  ASP761  ALA762  ILE779  LEU786  VAL792 
 PHE793  MET794  SER795  GLU796  ALA797  LYS798  CYS799  TRP800  GLU811  SER814 

> <Gold.Protein.RotatedAtoms>
  150.6875  134.2556  159.4528 H   0  0  0  0  0  0  0  0  0  0  0  0  # atno 6907 bound_to 6896
  152.0490  134.9662  160.0584 H   0  0  0  0  0  0  0  0  0  0  0  0  # atno 6908 bound_to 6896
  152.1134  133.4278  159.4678 H   0  0  0  0  0  0  0  0  0  0  0  0  # atno 6909 bound_to 6896
  144.8801  140.6495  143.5211 H   0  0  0  0  0  0  0  0  0  0  0  0  # atno 7974 bound_to 7965
  156.0636  140.3293  155.7491 H   0  0  0  0  0  0  0  0  0  0  0  0  # atno 8008 bound_to 7997
  155.5416  140.0602  157.2886 H   0  0  0  0  0  0  0  0  0  0  0  0  # atno 8009 bound_to 7997
  154.4494  140.1909  156.0585 H   0  0  0  0  0  0  0  0  0  0  0  0  # atno 8010 bound_to 7997
  140.7035  143.6058  150.8752 H   0  0  0  0  0  0  0  0  0  0  0  0  # atno 10167 bound_to 10162
  156.0706  130.4238  150.1474 H   0  0  0  0  0  0  0  0  0  0  0  0  # atno 10718 bound_to 10713
  153.2642  135.6926  153.7547 H   0  0  0  0  0  0  0  0  0  0  0  0  # atno 10763 bound_to 10752
  153.6595  135.3363  155.3124 H   0  0  0  0  0  0  0  0  0  0  0  0  # atno 10764 bound_to 10752
  154.8441  135.4473  154.1642 H   0  0  0  0  0  0  0  0  0  0  0  0  # atno 10765 bound_to 10752
  139.8794  134.8872  156.3936 H   0  0  0  0  0  0  0  0  0  0  0  0  # atno 11005 bound_to 11000
  145.3969  139.1605  143.4198 LP  0  0  0  0  0  0  0  0  0  0  0  0  # atno 17320 bound_to 7965
  146.2989  140.4063  142.8711 LP  0  0  0  0  0  0  0  0  0  0  0  0  # atno 17321 bound_to 7965
  139.9782  143.5981  152.2952 LP  0  0  0  0  0  0  0  0  0  0  0  0  # atno 17342 bound_to 10162
  139.6592  144.7662  151.1995 LP  0  0  0  0  0  0  0  0  0  0  0  0  # atno 17343 bound_to 10162
  156.9525  130.9779  151.3495 LP  0  0  0  0  0  0  0  0  0  0  0  0  # atno 17370 bound_to 10713
  157.5775  130.8353  149.8476 LP  0  0  0  0  0  0  0  0  0  0  0  0  # atno 17371 bound_to 10713
  140.9316  133.7575  156.0031 LP  0  0  0  0  0  0  0  0  0  0  0  0  # atno 17394 bound_to 11000
  140.8324  134.3162  157.5344 LP  0  0  0  0  0  0  0  0  0  0  0  0  # atno 17395 bound_to 11000

$$$$
