AV-unprocessed.smi:53|AV-procd|sdf|513|dock2
  -GOLD-   2262016383D 1   1.00000     0.00000
 Structure written by MMmdl.
 30 31  0  0  0  0  0  0  0  0  1 V2000
  152.9524  140.8450  158.8726 N   0  0  0  0  0  0  0  0  0  0  0  0
  152.1456  140.8182  157.8024 C   0  0  0  0  0  0  0  0  0  0  0  0
  151.0371  141.7408  157.6993 C   0  0  0  0  0  0  0  0  0  0  0  0
  150.2720  141.6528  156.5890 C   0  0  0  0  0  0  0  0  0  0  0  0
  150.5314  140.7319  155.5841 N   0  0  0  0  0  0  0  0  0  0  0  0
  149.6501  140.6587  154.3552 C   0  0  2  0  0  0  0  0  0  0  0  0
  148.8973  141.8274  154.2823 O   0  0  0  0  0  0  0  0  0  0  0  0
  147.6657  141.5316  153.6425 C   0  0  2  0  0  0  0  0  0  0  0  0
  146.6316  142.6211  153.9655 C   0  0  0  0  0  0  0  0  0  0  0  0
  146.5723  142.8366  155.3593 O   0  0  0  0  0  0  0  0  0  0  0  0
  147.3089  140.1579  154.2218 C   0  0  1  0  0  0  0  0  0  0  0  0
  146.4814  139.4472  153.3217 O   0  0  0  0  0  0  0  0  0  0  0  0
  148.6628  139.4689  154.3747 C   0  0  2  0  0  0  0  0  0  0  0  0
  148.6980  138.6971  155.5623 O   0  0  0  0  0  0  0  0  0  0  0  0
  151.6120  139.8283  155.7215 C   0  0  0  0  0  0  0  0  0  0  0  0
  151.8542  138.9699  154.8740 O   0  0  0  0  0  0  0  0  0  0  0  0
  152.3786  139.9344  156.8510 N   0  0  0  0  0  0  0  0  0  0  0  0
  150.3073  140.6453  153.4837 H   0  0  0  0  0  0  0  0  0  0  0  0
  147.8341  141.4502  152.5662 H   0  0  0  0  0  0  0  0  0  0  0  0
  146.8172  140.2727  155.1894 H   0  0  0  0  0  0  0  0  0  0  0  0
  148.8936  138.8311  153.5201 H   0  0  0  0  0  0  0  0  0  0  0  0
  153.7236  140.1972  158.9435 H   0  0  0  0  0  0  0  0  0  0  0  0
  152.7853  141.5153  159.6094 H   0  0  0  0  0  0  0  0  0  0  0  0
  150.8024  142.4763  158.4554 H   0  0  0  0  0  0  0  0  0  0  0  0
  149.4305  142.3244  156.4971 H   0  0  0  0  0  0  0  0  0  0  0  0
  146.9239  143.5642  153.5029 H   0  0  0  0  0  0  0  0  0  0  0  0
  145.6464  142.3615  153.5769 H   0  0  0  0  0  0  0  0  0  0  0  0
  147.4112  143.1611  155.6493 H   0  0  0  0  0  0  0  0  0  0  0  0
  145.6482  139.8892  153.2655 H   0  0  0  0  0  0  0  0  0  0  0  0
  148.0784  137.9886  155.4749 H   0  0  0  0  0  0  0  0  0  0  0  0
  1  2  1  0  0  0  0
  1 22  1  0  0  0  0
  1 23  1  0  0  0  0
  2 17  2  0  0  0  0
  2  3  1  0  0  0  0
  3  4  2  0  0  0  0
  3 24  1  0  0  0  0
  4  5  1  0  0  0  0
  4 25  1  0  0  0  0
  5  6  1  0  0  0  0
  5 15  1  0  0  0  0
  6 18  1  0  0  0  0
  6 13  1  0  0  0  0
  6  7  1  0  0  0  0
  7  8  1  0  0  0  0
  8 19  1  0  0  0  0
  8  9  1  0  0  0  0
  8 11  1  0  0  0  0
  9 10  1  0  0  0  0
  9 26  1  0  0  0  0
  9 27  1  0  0  0  0
 10 28  1  0  0  0  0
 11 20  1  0  0  0  0
 11 12  1  0  0  0  0
 11 13  1  0  0  0  0
 12 29  1  0  0  0  0
 13 21  1  0  0  0  0
 13 14  1  0  0  0  0
 14 30  1  0  0  0  0
 15 16  2  0  0  0  0
 15 17  1  0  0  0  0
M  END
> <s_m_source_file>
AV-unprocessed.smi

> <i_m_source_file_index>
53

> <i_lp_mmshare_version>
43012

> <i_f3d_flags>
0

> <s_epik_input>
W05IMl1jMVtjSF1bY0hdbihjKD1PKW4xKVtDQEBIXTJPW0NASF0oW0NIMl1bT0hdKVtDQEBIXShbT0hdKVtDQEBIXTJbT0hd

> <s_epik_cmdline>
J2VwaWtfcHl0aG9uJywgJy1waCcsICc3LjAnLCAnLXRuJywgJzgnLCAnLW1hJywgJzIwMCcsICctbWV0YWxfYmluZGluZycsICctaW1hZScsICc8aW5maWxlLm1hZT4nLCAnLW9tYWUnLCAnPG91dGZpbGUubWFlPic=

> <r_lp_tautomer_probability>
0.99996

> <r_epik_Ionization_Penalty>
0.00069087

> <r_epik_Ionization_Penalty_Charging>
2.61959e-08

> <r_epik_Ionization_Penalty_Neutral>
0.000690844

> <r_epik_State_Penalty>
1.15523e-05

> <r_epik_Charging_Adjusted_Penalty>
1.15785e-05

> <i_epik_Tot_Q>
0

> <i_epik_Tot_abs_Q>
0

> <r_epik_Metal_State_Penalty>
-0

> <b_epik_Metal_Only>
0

> <s_epik_Chemistry_Notes>
This compound contains an acetal/aminal-like group ( X-CH(R)-Y where X, Y are N, S, or O) that may be acid/base labile, releasing an aldehyde.

> <s_lp_Force_Field>
OPLS_2005

> <r_lp_Energy>
35.6127

> <b_lp_Chiralities_Consistent>
1

> <s_lp_Variant>
AV-unprocessed.smi:53-1

> <Gold.Version>
5.8.1

> <Gold.Id.Protein>
6NUR|6NUR_protein|mol2

> <Gold.PLP.Fitness>
37.7150

> <Gold.PLP.PLP>
-27.6857

> <Gold.PLP.part.hbond>
-3.9169

> <Gold.PLP.part.metal>
0.0000

> <Gold.PLP.part.buried>
-1.9974

> <Gold.PLP.part.nonpolar>
-20.9110

> <Gold.PLP.part.repulsive>
0.3287

> <Gold.PLP.ligand.clash>
0.0000

> <Gold.PLP.ligand.torsion>
0.4355

> <Gold.PLP.Chemscore.Hbond>
2.5448

> <Gold.PLP.Chemscore.CHOScore>
1.0000

> <Gold.PLP.Chemscore.Metal>
0.0000

> <Gold.Chemscore.Hbonds>
donor molecule, donor type, donor heavy atom, donor atom, acceptor molecule, acceptor atom, score
      L1  H    10    28       P1  8028  0.58
      L1  H    12    29       P1 10175  0.59
      P1  H  7997  8009       L1    17  1.00
      P1  H  8011  8017       L1     7  0.09
      L1  C     4    25       P1  8028  0.84

> <Gold.PLP.Chemscore.Internal.Correction>
0.2659

> <Gold.Rescore>
     Score         DG    S(hbond)    S(metal)    S(lipo)     H(rot)  DE(clash)    DE(int)     intcor
      3.53      -5.00       1.34        0.00      38.80       3.71       0.77       0.70       ----

> <Gold.Chemscore.Fitness>
3.5269

> <Gold.Chemscore.DG>
-4.9977

> <Gold.Chemscore.ZeroCoef>
-5.4800

> <Gold.Chemscore.Hbond>
1.3397

> <Gold.Chemscore.Metal>
0.0000

> <Gold.Chemscore.Lipo>
38.7990

> <Gold.Chemscore.Internal_Hbond>
0.0000

> <Gold.Chemscore.DEClash>
0.7705

> <Gold.Chemscore.DEInternal>
0.7002

> <Gold.Chemscore.Rot>
3.7095

> <Gold.Chemscore.Internal.Correction>
   9.000000E+99

> <Gold.Chemscore.Hbonds>
donor molecule, donor type, donor heavy atom, donor atom, acceptor molecule, acceptor atom, score
      L1  H    10    28       P1  8028  0.07
      L1  H    12    29       P1 10175  0.58
      P1  H  7997  8009       L1    17  0.35

> <Gold.Chemscore.Hbond.Weighted>
-4.4746

> <Gold.Chemscore.Metal.Weighted>
-0.0000

> <Gold.Chemscore.Lipo.Weighted>
-4.5395

> <Gold.Chemscore.Internal_Hbond.Weighted>
0.0000

> <Gold.Chemscore.DEClash.Weighted>
0.7705

> <Gold.Chemscore.DEInternal.Weighted>
0.7002

> <Gold.Chemscore.Rot.Weighted>
9.4964

> <Gold.Chemscore.Internal.Correction.Weighted>
   9.000000E+99

> <Gold.Protein.RotatedTorsions>
[ 6907 6896 6895 6894 ] final   56.75 input  -60.11 | X-H torsion
[ 7974 7965 7964 7962 ] final   36.92 input  175.53 | X-H torsion
[ 8008 7997 7996 7995 ] final -175.96 input   59.86 | X-H torsion
[ 10167 10162 10161 10158 ] final  -12.07 input  -65.29 | X-H torsion
[ 10718 10713 10712 10709 ] final  148.43 input   66.30 | X-H torsion
[ 10763 10752 10751 10750 ] final  -32.41 input  -60.55 | X-H torsion
[ 11005 11000 10999 10996 ] final  -54.06 input  -57.11 | X-H torsion

> <Gold.Protein.ActiveResidues>
 VAL166  LYS551  ARG553  GLY616  TRP617  ASP618  TYR619  PRO620  LYS621  CYS622 
 ASP623  PHE694  ASN695  SER759  ASP760  ASP761  ALA762  ILE779  LEU786  VAL792 
 PHE793  MET794  SER795  GLU796  ALA797  LYS798  CYS799  TRP800  GLU811  SER814 

> <Gold.Protein.RotatedAtoms>
  152.3666  134.6795  160.0189 H   0  0  0  0  0  0  0  0  0  0  0  0  # atno 6907 bound_to 6896
  151.7101  133.3307  159.3296 H   0  0  0  0  0  0  0  0  0  0  0  0  # atno 6908 bound_to 6896
  150.7643  134.6474  159.6314 H   0  0  0  0  0  0  0  0  0  0  0  0  # atno 6909 bound_to 6896
  146.1176  139.5958  142.9311 H   0  0  0  0  0  0  0  0  0  0  0  0  # atno 7974 bound_to 7965
  155.9890  140.1197  157.0656 H   0  0  0  0  0  0  0  0  0  0  0  0  # atno 8008 bound_to 7997
  154.4205  140.1129  156.5607 H   0  0  0  0  0  0  0  0  0  0  0  0  # atno 8009 bound_to 7997
  155.6369  140.3473  155.4704 H   0  0  0  0  0  0  0  0  0  0  0  0  # atno 8010 bound_to 7997
  140.7153  143.5571  150.9236 H   0  0  0  0  0  0  0  0  0  0  0  0  # atno 10167 bound_to 10162
  157.3087  131.0884  151.1334 H   0  0  0  0  0  0  0  0  0  0  0  0  # atno 10718 bound_to 10713
  153.8134  135.6880  153.4837 H   0  0  0  0  0  0  0  0  0  0  0  0  # atno 10763 bound_to 10752
  153.1614  135.4578  154.9776 H   0  0  0  0  0  0  0  0  0  0  0  0  # atno 10764 bound_to 10752
  154.7958  135.3318  154.7612 H   0  0  0  0  0  0  0  0  0  0  0  0  # atno 10765 bound_to 10752
  141.1007  133.6618  156.4264 H   0  0  0  0  0  0  0  0  0  0  0  0  # atno 11005 bound_to 11000
  145.5534  141.0411  143.2266 LP  0  0  0  0  0  0  0  0  0  0  0  0  # atno 17320 bound_to 7965
  144.7567  139.7057  143.7251 LP  0  0  0  0  0  0  0  0  0  0  0  0  # atno 17321 bound_to 7965
  139.9296  143.6508  152.3079 LP  0  0  0  0  0  0  0  0  0  0  0  0  # atno 17342 bound_to 10162
  139.6955  144.7642  151.1365 LP  0  0  0  0  0  0  0  0  0  0  0  0  # atno 17343 bound_to 10162
  157.2664  130.6683  149.5999 LP  0  0  0  0  0  0  0  0  0  0  0  0  # atno 17370 bound_to 10713
  155.9676  130.4492  150.5651 LP  0  0  0  0  0  0  0  0  0  0  0  0  # atno 17371 bound_to 10713
  140.5029  134.6468  157.5255 LP  0  0  0  0  0  0  0  0  0  0  0  0  # atno 17394 bound_to 11000
  139.9858  134.7064  155.9777 LP  0  0  0  0  0  0  0  0  0  0  0  0  # atno 17395 bound_to 11000

$$$$
