AV-unprocessed.smi:3011|AV-procd|sdf|11460|dock10
  -GOLD-   2272016393D 1   1.00000     0.00000
 Structure written by MMmdl.
 47 49  0  0  0  0  0  0  0  0  2 V2000
  146.0104  143.3672  153.8124 C   0  0  0  0  0  0  0  0  0  0  0  0
  147.3230  142.8664  154.0176 O   0  0  0  0  0  0  0  0  0  0  0  0
  147.5331  141.5088  153.8919 C   0  0  0  0  0  0  0  0  0  0  0  0
  146.5713  140.6115  153.3621 C   0  0  0  0  0  0  0  0  0  0  0  0
  146.8577  139.2387  153.2554 C   0  0  0  0  0  0  0  0  0  0  0  0
  148.1059  138.7471  153.6732 C   0  0  0  0  0  0  0  0  0  0  0  0
  149.0671  139.6278  154.2014 C   0  0  0  0  0  0  0  0  0  0  0  0
  148.7873  141.0130  154.3178 C   0  0  0  0  0  0  0  0  0  0  0  0
  149.6772  141.9317  154.8336 O   0  0  0  0  0  0  0  0  0  0  0  0
  150.6395  141.4892  155.7810 C   0  0  0  0  0  0  0  0  0  0  0  0
  150.0346  141.5900  157.1875 C   0  0  0  0  0  0  0  0  0  0  0  0
  151.0633  141.5343  158.2377 N   0  0  0  0  0  0  0  0  0  0  0  0
  151.9138  140.5291  158.6027 C   0  0  0  0  0  0  0  0  0  0  0  0
  152.0058  139.1537  158.0077 C   0  0  1  0  0  0  0  0  0  0  0  0
  150.6673  138.4101  158.1299 C   0  0  0  0  0  0  0  0  0  0  0  0
  152.4082  139.2014  156.6076 N   0  0  0  0  0  0  0  0  0  0  0  0
  152.6026  138.1219  155.8403 C   0  0  0  0  0  0  0  0  0  0  0  0
  152.4563  136.9732  156.2495 O   0  0  0  0  0  0  0  0  0  0  0  0
  152.6568  140.9952  159.6477 N   0  3  0  0  0  0  0  0  0  0  0  0
  152.3012  142.3124  159.9350 C   0  0  0  0  0  0  0  0  0  0  0  0
  152.7839  143.1981  160.8935 C   0  0  0  0  0  0  0  0  0  0  0  0
  152.2036  144.4832  160.9163 C   0  0  0  0  0  0  0  0  0  0  0  0
  151.1855  144.8450  160.0105 C   0  0  0  0  0  0  0  0  0  0  0  0
  150.7026  143.9369  159.0451 C   0  0  0  0  0  0  0  0  0  0  0  0
  151.2811  142.6677  159.0299 C   0  0  0  0  0  0  0  0  0  0  0  0
  146.0157  144.4495  153.9399 H   0  0  0  0  0  0  0  0  0  0  0  0
  145.3084  142.9538  154.5375 H   0  0  0  0  0  0  0  0  0  0  0  0
  145.6557  143.1564  152.8027 H   0  0  0  0  0  0  0  0  0  0  0  0
  145.6030  140.9518  153.0283 H   0  0  0  0  0  0  0  0  0  0  0  0
  146.1191  138.5624  152.8507 H   0  0  0  0  0  0  0  0  0  0  0  0
  148.3261  137.6932  153.5899 H   0  0  0  0  0  0  0  0  0  0  0  0
  150.0133  139.2129  154.5131 H   0  0  0  0  0  0  0  0  0  0  0  0
  150.9290  140.4566  155.5808 H   0  0  0  0  0  0  0  0  0  0  0  0
  151.5346  142.1100  155.7227 H   0  0  0  0  0  0  0  0  0  0  0  0
  149.4612  142.5102  157.3004 H   0  0  0  0  0  0  0  0  0  0  0  0
  149.3320  140.7743  157.3548 H   0  0  0  0  0  0  0  0  0  0  0  0
  152.7495  138.5794  158.5619 H   0  0  0  0  0  0  0  0  0  0  0  0
  150.3432  138.3562  159.1694 H   0  0  0  0  0  0  0  0  0  0  0  0
  150.7519  137.3885  157.7582 H   0  0  0  0  0  0  0  0  0  0  0  0
  149.8774  138.9038  157.5628 H   0  0  0  0  0  0  0  0  0  0  0  0
  152.5473  140.1125  156.1949 H   0  0  0  0  0  0  0  0  0  0  0  0
  152.9026  138.3921  154.8159 H   0  0  0  0  0  0  0  0  0  0  0  0
  153.5650  142.9235  161.5872 H   0  0  0  0  0  0  0  0  0  0  0  0
  152.5475  145.2061  161.6420 H   0  0  0  0  0  0  0  0  0  0  0  0
  150.7663  145.8397  160.0569 H   0  0  0  0  0  0  0  0  0  0  0  0
  149.9238  144.2259  158.3551 H   0  0  0  0  0  0  0  0  0  0  0  0
  153.3631  140.4485  160.1229 H   0  0  0  0  0  0  0  0  0  0  0  0
  1  2  1  0  0  0  0
  1 26  1  0  0  0  0
  1 27  1  0  0  0  0
  1 28  1  0  0  0  0
  2  3  1  0  0  0  0
  3  8  1  0  0  0  0
  3  4  2  0  0  0  0
  4  5  1  0  0  0  0
  4 29  1  0  0  0  0
  5  6  2  0  0  0  0
  5 30  1  0  0  0  0
  6  7  1  0  0  0  0
  6 31  1  0  0  0  0
  7  8  2  0  0  0  0
  7 32  1  0  0  0  0
  8  9  1  0  0  0  0
  9 10  1  0  0  0  0
 10 11  1  0  0  0  0
 10 33  1  0  0  0  0
 10 34  1  0  0  0  0
 11 12  1  0  0  0  0
 11 35  1  0  0  0  0
 11 36  1  0  0  0  0
 12 25  1  0  0  0  0
 12 13  1  0  0  0  0
 13 14  1  0  0  0  0
 13 19  2  0  0  0  0
 14 15  1  0  0  0  0
 14 16  1  0  0  0  0
 14 37  1  0  0  0  0
 15 38  1  0  0  0  0
 15 39  1  0  0  0  0
 15 40  1  0  0  0  0
 16 17  1  0  0  0  0
 16 41  1  0  0  0  0
 17 18  2  0  0  0  0
 17 42  1  0  0  0  0
 19 20  1  0  0  0  0
 19 47  1  0  0  0  0
 20 25  2  0  0  0  0
 20 21  1  0  0  0  0
 21 22  2  0  0  0  0
 21 43  1  0  0  0  0
 22 23  1  0  0  0  0
 22 44  1  0  0  0  0
 23 24  2  0  0  0  0
 23 45  1  0  0  0  0
 24 25  1  0  0  0  0
 24 46  1  0  0  0  0
M  CHG  1  19   1
M  END
> <s_m_source_file>
AV-unprocessed.smi

> <i_m_source_file_index>
3011

> <i_lp_mmshare_version>
43012

> <i_f3d_flags>
0

> <s_epik_input>
W0NIM11PYzFbY0hdW2NIXVtjSF1bY0hdYzFPW0NIMl1bQ0gyXW4oYyhuMilbQ0BIXShbQ0gzXSlbTkhdW0NIXT1PKWMoYzIzKVtjSF1bY0hdW2NIXVtjSF0z

> <s_epik_cmdline>
J2VwaWtfcHl0aG9uJywgJy1waCcsICc3LjAnLCAnLXRuJywgJzgnLCAnLW1hJywgJzIwMCcsICctbWV0YWxfYmluZGluZycsICctaW1hZScsICc8aW5maWxlLm1hZT4nLCAnLW9tYWUnLCAnPG91dGZpbGUubWFlPic=

> <r_lp_tautomer_probability>
1

> <r_epik_Ionization_Penalty>
1.14644

> <r_epik_Ionization_Penalty_Charging>
1.14644

> <r_epik_Ionization_Penalty_Neutral>
5.5802e-08

> <r_epik_State_Penalty>
1.20743

> <r_epik_Charging_Adjusted_Penalty>
2.35387

> <i_epik_Tot_Q>
1

> <i_epik_Tot_abs_Q>
1

> <r_epik_Metal_State_Penalty>
1.28856

> <b_epik_Metal_Only>
0

> <s_lp_Force_Field>
OPLS_2005

> <r_lp_Energy>
19.9928

> <b_lp_Chiralities_Consistent>
1

> <s_lp_Variant>
AV-unprocessed.smi:3011-4

> <Gold.Version>
5.8.1

> <Gold.Id.Protein>
6NUR|6NUR_protein|mol2

> <Gold.PLP.Fitness>
47.6263

> <Gold.PLP.PLP>
-45.6109

> <Gold.PLP.part.hbond>
-3.4605

> <Gold.PLP.part.metal>
0.0000

> <Gold.PLP.part.buried>
-2.5449

> <Gold.PLP.part.nonpolar>
-42.3037

> <Gold.PLP.part.repulsive>
2.9513

> <Gold.PLP.ligand.clash>
0.0000

> <Gold.PLP.ligand.torsion>
0.7515

> <Gold.PLP.Chemscore.Hbond>
1.1468

> <Gold.PLP.Chemscore.CHOScore>
0.0000

> <Gold.PLP.Chemscore.Metal>
0.0000

> <Gold.Chemscore.Hbonds>
donor molecule, donor type, donor heavy atom, donor atom, acceptor molecule, acceptor atom, score
      P1  H  8022  8030       L1     2  0.20
      P1  H 10752 10764       L1    18  0.94

> <Gold.PLP.Chemscore.Internal.Correction>
0.0780

> <Gold.Rescore>
     Score         DG    S(hbond)    S(metal)    S(lipo)     H(rot)  DE(clash)    DE(int)     intcor
     13.91     -16.61       0.84        0.00     129.44       2.66       0.79       1.90       ----

> <Gold.Chemscore.Fitness>
13.9143

> <Gold.Chemscore.DG>
-16.6059

> <Gold.Chemscore.ZeroCoef>
-5.4800

> <Gold.Chemscore.Hbond>
0.8361

> <Gold.Chemscore.Metal>
0.0000

> <Gold.Chemscore.Lipo>
129.4364

> <Gold.Chemscore.Internal_Hbond>
0.0000

> <Gold.Chemscore.DEClash>
0.7892

> <Gold.Chemscore.DEInternal>
1.9025

> <Gold.Chemscore.Rot>
2.6604

> <Gold.Chemscore.Internal.Correction>
   9.000000E+99

> <Gold.Chemscore.Hbonds>
donor molecule, donor type, donor heavy atom, donor atom, acceptor molecule, acceptor atom, score
      P1  H  8022  8030       L1     2  0.05
      P1  H 10752 10764       L1    18  0.80

> <Gold.Chemscore.Hbond.Weighted>
-2.7925

> <Gold.Chemscore.Metal.Weighted>
-0.0000

> <Gold.Chemscore.Lipo.Weighted>
-15.1441

> <Gold.Chemscore.Internal_Hbond.Weighted>
0.0000

> <Gold.Chemscore.DEClash.Weighted>
0.7892

> <Gold.Chemscore.DEInternal.Weighted>
1.9025

> <Gold.Chemscore.Rot.Weighted>
6.8106

> <Gold.Chemscore.Internal.Correction.Weighted>
   9.000000E+99

> <Gold.Protein.RotatedTorsions>
[ 6907 6896 6895 6894 ] final   82.63 input  -60.11 | X-H torsion
[ 7974 7965 7964 7962 ] final  -91.95 input  175.53 | X-H torsion
[ 8008 7997 7996 7995 ] final  165.47 input   59.86 | X-H torsion
[ 10167 10162 10161 10158 ] final    6.44 input  -65.29 | X-H torsion
[ 10718 10713 10712 10709 ] final    0.64 input   66.30 | X-H torsion
[ 10763 10752 10751 10750 ] final  -24.66 input  -60.55 | X-H torsion
[ 11005 11000 10999 10996 ] final    9.74 input  -57.11 | X-H torsion

> <Gold.Protein.ActiveResidues>
 VAL166  LYS551  ARG553  GLY616  TRP617  ASP618  TYR619  PRO620  LYS621  CYS622 
 ASP623  PHE694  ASN695  SER759  ASP760  ASP761  ALA762  ILE779  LEU786  VAL792 
 PHE793  MET794  SER795  GLU796  ALA797  LYS798  CYS799  TRP800  GLU811  SER814 

> <Gold.Protein.RotatedAtoms>
  152.5304  134.3020  159.9081 H   0  0  0  0  0  0  0  0  0  0  0  0  # atno 6907 bound_to 6896
  151.2971  133.4132  159.2645 H   0  0  0  0  0  0  0  0  0  0  0  0  # atno 6908 bound_to 6896
  151.0151  134.9443  159.8086 H   0  0  0  0  0  0  0  0  0  0  0  0  # atno 6909 bound_to 6896
  145.4062  140.9541  143.2259 H   0  0  0  0  0  0  0  0  0  0  0  0  # atno 7974 bound_to 7965
  156.1798  140.1669  156.8295 H   0  0  0  0  0  0  0  0  0  0  0  0  # atno 8008 bound_to 7997
  154.5347  140.0749  156.8440 H   0  0  0  0  0  0  0  0  0  0  0  0  # atno 8009 bound_to 7997
  155.3335  140.3380  155.4241 H   0  0  0  0  0  0  0  0  0  0  0  0  # atno 8010 bound_to 7997
  140.6428  143.7734  150.7453 H   0  0  0  0  0  0  0  0  0  0  0  0  # atno 10167 bound_to 10162
  156.8364  130.5506  149.5682 H   0  0  0  0  0  0  0  0  0  0  0  0  # atno 10718 bound_to 10713
  153.6874  135.6963  153.5100 H   0  0  0  0  0  0  0  0  0  0  0  0  # atno 10763 bound_to 10752
  153.2439  135.4297  155.0726 H   0  0  0  0  0  0  0  0  0  0  0  0  # atno 10764 bound_to 10752
  154.8382  135.3514  154.6416 H   0  0  0  0  0  0  0  0  0  0  0  0  # atno 10765 bound_to 10752
  140.5223  134.0547  155.7848 H   0  0  0  0  0  0  0  0  0  0  0  0  # atno 11005 bound_to 11000
  144.8340  139.5581  143.6931 LP  0  0  0  0  0  0  0  0  0  0  0  0  # atno 17320 bound_to 7965
  146.2727  139.6676  142.9284 LP  0  0  0  0  0  0  0  0  0  0  0  0  # atno 17321 bound_to 7965
  140.1369  143.4476  152.2218 LP  0  0  0  0  0  0  0  0  0  0  0  0  # atno 17342 bound_to 10162
  139.5637  144.7422  151.4082 LP  0  0  0  0  0  0  0  0  0  0  0  0  # atno 17343 bound_to 10162
  156.0905  130.5892  150.9724 LP  0  0  0  0  0  0  0  0  0  0  0  0  # atno 17370 bound_to 10713
  157.6379  131.0914  150.8311 LP  0  0  0  0  0  0  0  0  0  0  0  0  # atno 17371 bound_to 10713
  141.1327  133.9274  157.2500 LP  0  0  0  0  0  0  0  0  0  0  0  0  # atno 17394 bound_to 11000
  139.9599  135.0157  156.9232 LP  0  0  0  0  0  0  0  0  0  0  0  0  # atno 17395 bound_to 11000

$$$$
