AV-unprocessed.smi:2807|AV-procd|sdf|10818|dock7
  -GOLD-   2272015253D 1   1.00000     0.00000
 Structure written by MMmdl.
 32 33  0  0  0  0  0  0  0  0  1 V2000
  150.5251  141.0145  158.3682 O   0  0  0  0  0  0  0  0  0  0  0  0
  150.3046  142.1523  157.9515 C   0  0  0  0  0  0  0  0  0  0  0  0
  149.4463  142.4151  156.9515 N   0  0  0  0  0  0  0  0  0  0  0  0
  148.6593  141.4246  156.2154 C   0  0  2  0  0  0  0  0  0  0  0  0
  149.1172  141.3563  154.7446 C   0  0  0  0  0  0  0  0  0  0  0  0
  147.8495  141.4609  153.8929 C   0  0  0  0  0  0  0  0  0  0  0  0
  146.8787  142.2623  154.7538 C   0  0  0  0  0  0  0  0  0  0  0  0
  147.1472  141.7576  156.1727 C   0  0  2  0  0  0  0  0  0  0  0  0
  146.7044  142.6959  157.1354 O   0  0  0  0  0  0  0  0  0  0  0  0
  151.0264  143.3570  158.5739 C   0  0  0  0  0  0  0  0  0  0  0  0
  151.6999  144.0055  157.6201 F   0  0  0  0  0  0  0  0  0  0  0  0
  150.1143  144.1964  159.0701 F   0  0  0  0  0  0  0  0  0  0  0  0
  151.9775  142.8961  159.6752 C   0  0  0  0  0  0  0  0  0  0  0  0
  153.0728  142.0515  159.3837 C   0  0  0  0  0  0  0  0  0  0  0  0
  153.9268  141.6653  160.4344 C   0  0  0  0  0  0  0  0  0  0  0  0
  153.6603  142.1363  161.7338 C   0  0  0  0  0  0  0  0  0  0  0  0
  152.5473  142.9780  161.9250 C   0  0  0  0  0  0  0  0  0  0  0  0
  151.7221  143.3542  160.9248 N   0  0  0  0  0  0  0  0  0  0  0  0
  149.3367  143.3793  156.6716 H   0  0  0  0  0  0  0  0  0  0  0  0
  148.7876  140.4396  156.6682 H   0  0  0  0  0  0  0  0  0  0  0  0
  149.7753  142.1937  154.5062 H   0  0  0  0  0  0  0  0  0  0  0  0
  149.6734  140.4430  154.5304 H   0  0  0  0  0  0  0  0  0  0  0  0
  148.0325  141.9240  152.9230 H   0  0  0  0  0  0  0  0  0  0  0  0
  147.4427  140.4644  153.7147 H   0  0  0  0  0  0  0  0  0  0  0  0
  147.1191  143.3240  154.6767 H   0  0  0  0  0  0  0  0  0  0  0  0
  145.8394  142.1319  154.4503 H   0  0  0  0  0  0  0  0  0  0  0  0
  146.5857  140.8342  156.3226 H   0  0  0  0  0  0  0  0  0  0  0  0
  147.4552  143.0084  157.6166 H   0  0  0  0  0  0  0  0  0  0  0  0
  153.2605  141.7079  158.3771 H   0  0  0  0  0  0  0  0  0  0  0  0
  154.7726  141.0204  160.2463 H   0  0  0  0  0  0  0  0  0  0  0  0
  154.2947  141.8609  162.5632 H   0  0  0  0  0  0  0  0  0  0  0  0
  152.3132  143.3597  162.9079 H   0  0  0  0  0  0  0  0  0  0  0  0
  1  2  2  0  0  0  0
  2  3  1  0  0  0  0
  2 10  1  0  0  0  0
  3  4  1  0  0  0  0
  3 19  1  0  0  0  0
  4  8  1  0  0  0  0
  4  5  1  0  0  0  0
  4 20  1  0  0  0  0
  5  6  1  0  0  0  0
  5 21  1  0  0  0  0
  5 22  1  0  0  0  0
  6  7  1  0  0  0  0
  6 23  1  0  0  0  0
  6 24  1  0  0  0  0
  7  8  1  0  0  0  0
  7 25  1  0  0  0  0
  7 26  1  0  0  0  0
  8  9  1  0  0  0  0
  8 27  1  0  0  0  0
  9 28  1  0  0  0  0
 10 11  1  0  0  0  0
 10 12  1  0  0  0  0
 10 13  1  0  0  0  0
 13 18  1  0  0  0  0
 13 14  2  0  0  0  0
 14 15  1  0  0  0  0
 14 29  1  0  0  0  0
 15 16  2  0  0  0  0
 15 30  1  0  0  0  0
 16 17  1  0  0  0  0
 16 31  1  0  0  0  0
 17 18  2  0  0  0  0
 17 32  1  0  0  0  0
M  END
> <s_m_source_file>
AV-unprocessed.smi

> <i_m_source_file_index>
2807

> <i_lp_mmshare_version>
43012

> <i_f3d_flags>
0

> <s_epik_input>
bjFbY0hdW2NIXVtjSF1bY0hdYzFDKEYpKEYpQyg9TylbTkhdW0NAQEhdMltDSDJdW0NIMl1bQ0gyXVtDQEhdMltPSF0=

> <s_epik_cmdline>
J2VwaWtfcHl0aG9uJywgJy1waCcsICc3LjAnLCAnLXRuJywgJzgnLCAnLW1hJywgJzIwMCcsICctbWV0YWxfYmluZGluZycsICctaW1hZScsICc8aW5maWxlLm1hZT4nLCAnLW9tYWUnLCAnPG91dGZpbGUubWFlPic=

> <r_lp_tautomer_probability>
1

> <r_epik_Ionization_Penalty>
4.08325e-05

> <r_epik_Ionization_Penalty_Charging>
0

> <r_epik_Ionization_Penalty_Neutral>
4.08325e-05

> <r_epik_State_Penalty>
-0

> <r_epik_Charging_Adjusted_Penalty>
0

> <i_epik_Tot_Q>
0

> <i_epik_Tot_abs_Q>
0

> <r_epik_Metal_State_Penalty>
0.034564

> <b_epik_Metal_Only>
0

> <s_lp_Force_Field>
OPLS_2005

> <r_lp_Energy>
28.2651

> <b_lp_Chiralities_Consistent>
1

> <s_lp_Variant>
AV-unprocessed.smi:2807-3

> <Gold.Version>
5.8.1

> <Gold.Id.Protein>
6NUR|6NUR_protein|mol2

> <Gold.PLP.Fitness>
45.8946

> <Gold.PLP.PLP>
-43.0200

> <Gold.PLP.part.hbond>
-1.6461

> <Gold.PLP.part.metal>
0.0000

> <Gold.PLP.part.buried>
-5.4829

> <Gold.PLP.part.nonpolar>
-36.1927

> <Gold.PLP.part.repulsive>
0.1169

> <Gold.PLP.ligand.clash>
0.0000

> <Gold.PLP.ligand.torsion>
0.0688

> <Gold.PLP.Chemscore.Hbond>
1.0000

> <Gold.PLP.Chemscore.CHOScore>
0.0000

> <Gold.PLP.Chemscore.Metal>
0.0000

> <Gold.Chemscore.Hbonds>
donor molecule, donor type, donor heavy atom, donor atom, acceptor molecule, acceptor atom, score
      L1  H     3    19       P1  8028  1.00

> <Gold.PLP.Chemscore.Internal.Correction>
0.0122

> <Gold.Rescore>
     Score         DG    S(hbond)    S(metal)    S(lipo)     H(rot)  DE(clash)    DE(int)     intcor
     13.98     -14.51       1.00        0.00      93.45       2.05       0.03       0.50       ----

> <Gold.Chemscore.Fitness>
13.9847

> <Gold.Chemscore.DG>
-14.5104

> <Gold.Chemscore.ZeroCoef>
-5.4800

> <Gold.Chemscore.Hbond>
0.9980

> <Gold.Chemscore.Metal>
0.0000

> <Gold.Chemscore.Lipo>
93.4535

> <Gold.Chemscore.Internal_Hbond>
0.0000

> <Gold.Chemscore.DEClash>
0.0280

> <Gold.Chemscore.DEInternal>
0.4977

> <Gold.Chemscore.Rot>
2.0457

> <Gold.Chemscore.Internal.Correction>
   9.000000E+99

> <Gold.Chemscore.Hbonds>
donor molecule, donor type, donor heavy atom, donor atom, acceptor molecule, acceptor atom, score
      L1  H     3    19       P1  8028  0.98

> <Gold.Chemscore.Hbond.Weighted>
-3.3334

> <Gold.Chemscore.Metal.Weighted>
-0.0000

> <Gold.Chemscore.Lipo.Weighted>
-10.9341

> <Gold.Chemscore.Internal_Hbond.Weighted>
0.0000

> <Gold.Chemscore.DEClash.Weighted>
0.0280

> <Gold.Chemscore.DEInternal.Weighted>
0.4977

> <Gold.Chemscore.Rot.Weighted>
5.2371

> <Gold.Chemscore.Internal.Correction.Weighted>
   9.000000E+99

> <Gold.Protein.RotatedTorsions>
[ 6907 6896 6895 6894 ] final   96.92 input  -60.11 | X-H torsion
[ 7974 7965 7964 7962 ] final   90.69 input  175.53 | X-H torsion
[ 8008 7997 7996 7995 ] final  -92.49 input   59.86 | X-H torsion
[ 10167 10162 10161 10158 ] final -100.55 input  -65.29 | X-H torsion
[ 10718 10713 10712 10709 ] final  151.22 input   66.30 | X-H torsion
[ 10763 10752 10751 10750 ] final  129.64 input  -60.55 | X-H torsion
[ 11005 11000 10999 10996 ] final  -55.50 input  -57.11 | X-H torsion

> <Gold.Protein.ActiveResidues>
 VAL166  LYS551  ARG553  GLY616  TRP617  ASP618  TYR619  PRO620  LYS621  CYS622 
 ASP623  PHE694  ASN695  SER759  ASP760  ASP761  ALA762  ILE779  LEU786  VAL792 
 PHE793  MET794  SER795  GLU796  ALA797  LYS798  CYS799  TRP800  GLU811  SER814 

> <Gold.Protein.RotatedAtoms>
  152.5429  134.0812  159.8235 H   0  0  0  0  0  0  0  0  0  0  0  0  # atno 6907 bound_to 6896
  151.0913  133.5306  159.2622 H   0  0  0  0  0  0  0  0  0  0  0  0  # atno 6908 bound_to 6896
  151.2096  135.0484  159.8960 H   0  0  0  0  0  0  0  0  0  0  0  0  # atno 6909 bound_to 6896
  145.5156  139.2278  143.2700 H   0  0  0  0  0  0  0  0  0  0  0  0  # atno 7974 bound_to 7965
  154.7238  140.0508  157.0664 H   0  0  0  0  0  0  0  0  0  0  0  0  # atno 8008 bound_to 7997
  155.0392  140.3166  155.4711 H   0  0  0  0  0  0  0  0  0  0  0  0  # atno 8009 bound_to 7997
  156.2823  140.2136  156.5515 H   0  0  0  0  0  0  0  0  0  0  0  0  # atno 8010 bound_to 7997
  140.2507  143.3474  152.0717 H   0  0  0  0  0  0  0  0  0  0  0  0  # atno 10167 bound_to 10162
  157.2735  131.0821  151.1583 H   0  0  0  0  0  0  0  0  0  0  0  0  # atno 10718 bound_to 10713
  153.7451  135.3218  155.3311 H   0  0  0  0  0  0  0  0  0  0  0  0  # atno 10763 bound_to 10752
  154.8282  135.4554  154.0987 H   0  0  0  0  0  0  0  0  0  0  0  0  # atno 10764 bound_to 10752
  153.2174  135.6943  153.8123 H   0  0  0  0  0  0  0  0  0  0  0  0  # atno 10765 bound_to 10752
  141.1077  133.6612  156.4479 H   0  0  0  0  0  0  0  0  0  0  0  0  # atno 11005 bound_to 11000
  146.2139  140.5965  142.9047 LP  0  0  0  0  0  0  0  0  0  0  0  0  # atno 17320 bound_to 7965
  144.7703  140.5623  143.6674 LP  0  0  0  0  0  0  0  0  0  0  0  0  # atno 17321 bound_to 7965
  139.5047  144.6780  151.6079 LP  0  0  0  0  0  0  0  0  0  0  0  0  # atno 17342 bound_to 10162
  140.6042  143.9554  150.6407 LP  0  0  0  0  0  0  0  0  0  0  0  0  # atno 17343 bound_to 10162
  157.3045  130.6859  149.6182 LP  0  0  0  0  0  0  0  0  0  0  0  0  # atno 17370 bound_to 10713
  155.9663  130.4382  150.5207 LP  0  0  0  0  0  0  0  0  0  0  0  0  # atno 17371 bound_to 10713
  140.4860  134.6620  157.5191 LP  0  0  0  0  0  0  0  0  0  0  0  0  # atno 17394 bound_to 11000
  139.9954  134.6919  155.9618 LP  0  0  0  0  0  0  0  0  0  0  0  0  # atno 17395 bound_to 11000

$$$$
