#       Name:                AV-unprocessed.smi:138
#       Creating user name   scv26
#       Creation time:       Thu Mar 26 18:33:02 2020


#       File generated by GOLD software.
#

@<TRIPOS>MOLECULE
AV-unprocessed.smi:138
    62    65     1
SMALL
NO_CHARGES


@<TRIPOS>ATOM
      1 ****        -5.0785   1.9949  -0.0682 C.3            1 S1                 0.0000
      2 ****        -3.8608   1.1622   0.1779 C.2            1 S1                 0.0000
      3 ****        -2.5755   1.5558   0.4062 C.2            1 S1                 0.0000
      4 ****        -1.7721   0.3965   0.5907 C.2            1 S1                 0.0000
      5 ****        -0.3195   0.3173   0.8883 C.2            1 S1                 0.0000
      6 ****         0.2727  -0.7466   1.0777 O.2            1 S1                 0.0000
      7 ****         0.4259   1.6636   0.9553 C.3            1 S1                 0.0000
      8 ****         1.8289   1.5204   1.3247 N.am           1 S1                 0.0000
      9 ****         2.1579   1.5526   2.7030 C.2            1 S1                 0.0000
     10 ****         1.3024   1.7003   3.5776 O.2            1 S1                 0.0000
     11 ****         3.5781   1.3839   2.9910 C.2            1 S1                 0.0000
     12 ****         4.0050   1.4082   4.2650 F              1 S1                 0.0000
     13 ****         4.4753   1.2015   1.9982 C.2            1 S1                 0.0000
     14 ****         4.1224   1.1601   0.6592 N.am           1 S1                 0.0000
     15 ****         5.1440   0.9354  -0.4336 C.3            1 S1                 0.0000
     16 ****         5.0833  -0.5176  -0.9371 C.3            1 S1                 0.0000
     17 ****         6.5384  -0.9385  -0.9073 C.3            1 S1                 0.0000
     18 ****         7.0808  -0.1070   0.2454 C.3            1 S1                 0.0000
     19 ****         6.4330   1.1467   0.0688 O.3            1 S1                 0.0000
     20 ****         2.7700   1.3187   0.2867 C.2            1 S1                 0.0000
     21 ****         2.4325   1.2676  -0.8987 O.2            1 S1                 0.0000
     22 ****        -2.5940  -0.6984   0.4517 C.2            1 S1                 0.0000
     23 ****        -2.2811  -2.1676   0.5293 C.3            1 S1                 0.0000
     24 ****        -3.8875  -0.2275   0.2140 N.pl3          1 S1                 0.0000
     25 ****        -5.0806  -1.0477   0.0261 C.3            1 S1                 0.0000
     26 ****        -5.2106  -1.5650  -1.3700 C.2            1 S1                 0.0000
     27 ****        -5.1552  -2.8165  -1.9189 C.2            1 S1                 0.0000
     28 ****        -5.3584  -2.6519  -3.3167 C.2            1 S1                 0.0000
     29 ****        -5.5241  -1.3113  -3.5172 C.2            1 S1                 0.0000
     30 ****        -5.4384  -0.6345  -2.3401 O.3            1 S1                 0.0000
     31 ****        -4.8163   3.0499  -0.1501 H              1 S1                 0.0000
     32 ****        -5.7919   1.8937   0.7497 H              1 S1                 0.0000
     33 ****        -5.5745   1.7049  -0.9943 H              1 S1                 0.0000
     34 ****        -2.2477   2.5842   0.4442 H              1 S1                 0.0000
     35 ****         0.3790   2.1837  -0.0027 H              1 S1                 0.0000
     36 ****        -0.0446   2.3366   1.6734 H              1 S1                 0.0000
     37 ****         5.5091   1.0834   2.2831 H              1 S1                 0.0000
     38 ****         4.9340   1.6836  -1.2000 H              1 S1                 0.0000
     39 ****         4.4972  -1.1304  -0.2500 H              1 S1                 0.0000
     40 ****         4.6364  -0.5706  -1.9302 H              1 S1                 0.0000
     41 ****         6.6712  -2.0107  -0.7602 H              1 S1                 0.0000
     42 ****         7.0311  -0.6548  -1.8381 H              1 S1                 0.0000
     43 ****         6.7992  -0.5443   1.2041 H              1 S1                 0.0000
     44 ****         8.1658  -0.0046   0.2184 H              1 S1                 0.0000
     45 ****        -1.4157  -2.4095  -0.0876 H              1 S1                 0.0000
     46 ****        -3.0941  -2.8001   0.1802 H              1 S1                 0.0000
     47 ****        -2.0527  -2.4562   1.5553 H              1 S1                 0.0000
     48 ****        -5.0605  -1.8727   0.7380 H              1 S1                 0.0000
     49 ****        -5.9667  -0.4699   0.2866 H              1 S1                 0.0000
     50 ****        -4.9874  -3.7372  -1.3803 H              1 S1                 0.0000
     51 ****        -5.3804  -3.4169  -4.0788 H              1 S1                 0.0000
     52 ****        -5.7035  -0.6996  -4.3890 H              1 S1                 0.0000
     53 ****        -0.2271  -1.6116   1.0342 LP             1 S1                 0.0000
     54 ****         1.2530  -0.7449   1.2749 LP             1 S1                 0.0000
     55 ****         0.3404   1.8022   3.3240 LP             1 S1                 0.0000
     56 ****         1.5701   1.7183   4.5409 LP             1 S1                 0.0000
     57 ****         6.3753   1.6196   0.9480 LP             1 S1                 0.0000
     58 ****         6.9554   1.7046  -0.5761 LP             1 S1                 0.0000
     59 ****         1.4698   1.3700  -1.1494 LP             1 S1                 0.0000
     60 ****         3.1215   1.1239  -1.6090 LP             1 S1                 0.0000
     61 ****        -4.6838   0.0209  -2.3733 LP             1 S1                 0.0000
     62 ****        -6.2936  -0.1491  -2.1584 LP             1 S1                 0.0000
@<TRIPOS>BOND
    1    1    2 1     
    2    1   31 1     
    3    1   32 1     
    4    1   33 1     
    5    2   24 1     
    6    2    3 2     
    7    3    4 1     
    8    3   34 1     
    9    4    5 1     
   10    4   22 2     
   11    5    6 2     
   12    5    7 1     
   13    7    8 1     
   14    7   35 1     
   15    7   36 1     
   16    8   20 am    
   17    8    9 am    
   18    9   10 2     
   19    9   11 1     
   20   11   12 1     
   21   11   13 2     
   22   13   14 1     
   23   13   37 1     
   24   14   15 1     
   25   14   20 am    
   26   15   19 1     
   27   15   16 1     
   28   15   38 1     
   29   16   17 1     
   30   16   39 1     
   31   16   40 1     
   32   17   18 1     
   33   17   41 1     
   34   17   42 1     
   35   18   19 1     
   36   18   43 1     
   37   18   44 1     
   38   20   21 2     
   39   22   23 1     
   40   22   24 1     
   41   23   45 1     
   42   23   46 1     
   43   23   47 1     
   44   24   25 1     
   45   25   26 1     
   46   25   48 1     
   47   25   49 1     
   48   26   30 1     
   49   26   27 2     
   50   27   28 1     
   51   27   50 1     
   52   28   29 2     
   53   28   51 1     
   54   29   30 1     
   55   29   52 1     
   56    6   53 1     
   57    6   54 1     
   58   10   55 1     
   59   10   56 1     
   60   19   57 1     
   61   19   58 1     
   62   21   59 1     
   63   21   60 1     
   64   30   61 1     
   65   30   62 1     
@<TRIPOS>SUBSTRUCTURE
      1 S1             1
@<TRIPOS>SET
LONE_PAIRS      STATIC     ATOMS    <user>   **** ""
10 53 54 55 56 57 58 59 60 61 62
ATOM$BLUE        STATIC     ATOMS    COLORGROUP SYSTEM
10 53 54 55 56 57 58 59 60 61 62
