AV-unprocessed.smi:798|AV-procd|sdf|3776|dock4
  -GOLD-   22720 1213D 1   1.00000     0.00000
 Structure written by MMmdl.
 34 36  0  0  0  0  0  0  0  0  1 V2000
  146.2094  138.1131  154.7437 O   0  0  0  0  0  0  0  0  0  0  0  0
  146.9687  137.6077  153.9164 C   0  0  0  0  0  0  0  0  0  0  0  0
  148.1601  138.1080  153.5443 N   0  0  0  0  0  0  0  0  0  0  0  0
  148.8080  139.2808  154.0147 C   0  0  0  0  0  0  0  0  0  0  0  0
  150.0601  139.2972  154.4982 N   0  0  0  0  0  0  0  0  0  0  0  0
  150.4506  140.5723  154.8866 N   0  0  0  0  0  0  0  0  0  0  0  0
  149.4787  141.4658  154.6818 C   0  0  0  0  0  0  0  0  0  0  0  0
  147.9907  140.8369  153.9957 S   0  0  0  0  0  0  0  0  0  0  0  0
  146.6984  136.4675  153.2663 N   0  0  0  0  0  0  0  0  0  0  0  0
  145.4965  135.6598  153.4625 C   0  0  1  0  0  0  0  0  0  0  0  0
  144.4349  135.8434  152.3485 C   0  0  1  0  0  0  0  0  0  0  0  0
  145.0495  135.6574  150.9445 C   0  0  0  0  0  0  0  0  0  0  0  0
  145.3487  134.1473  150.9053 C   0  0  0  0  0  0  0  0  0  0  0  0
  144.8429  133.6637  152.2785 C   0  0  2  0  0  0  0  0  0  0  0  0
  143.6268  134.5595  152.4860 C   0  0  0  0  0  0  0  0  0  0  0  0
  145.8148  134.1432  153.3818 C   0  0  2  0  0  0  0  0  0  0  0  0
  145.6150  133.4026  154.7178 C   0  0  0  0  0  0  0  0  0  0  0  0
  144.4022  133.8027  155.3202 O   0  0  0  0  0  0  0  0  0  0  0  0
  148.6705  137.5802  152.8519 H   0  0  0  0  0  0  0  0  0  0  0  0
  149.6391  142.5028  154.9367 H   0  0  0  0  0  0  0  0  0  0  0  0
  147.3762  136.1211  152.6033 H   0  0  0  0  0  0  0  0  0  0  0  0
  145.0522  135.9016  154.4303 H   0  0  0  0  0  0  0  0  0  0  0  0
  143.8523  136.7598  152.4489 H   0  0  0  0  0  0  0  0  0  0  0  0
  144.3231  135.9188  150.1739 H   0  0  0  0  0  0  0  0  0  0  0  0
  145.9366  136.2669  150.7723 H   0  0  0  0  0  0  0  0  0  0  0  0
  144.7944  133.6694  150.0966 H   0  0  0  0  0  0  0  0  0  0  0  0
  146.4078  133.9360  150.7529 H   0  0  0  0  0  0  0  0  0  0  0  0
  144.6364  132.5932  152.3061 H   0  0  0  0  0  0  0  0  0  0  0  0
  143.1581  134.4456  153.4646 H   0  0  0  0  0  0  0  0  0  0  0  0
  142.8647  134.4421  151.7134 H   0  0  0  0  0  0  0  0  0  0  0  0
  146.8408  133.9690  153.0511 H   0  0  0  0  0  0  0  0  0  0  0  0
  145.6079  132.3214  154.5796 H   0  0  0  0  0  0  0  0  0  0  0  0
  146.4302  133.6343  155.4037 H   0  0  0  0  0  0  0  0  0  0  0  0
  143.8072  133.0684  155.3151 H   0  0  0  0  0  0  0  0  0  0  0  0
  1  2  2  0  0  0  0
  2  3  1  0  0  0  0
  2  9  1  0  0  0  0
  3  4  1  0  0  0  0
  3 19  1  0  0  0  0
  4  8  1  0  0  0  0
  4  5  2  0  0  0  0
  5  6  1  0  0  0  0
  6  7  2  0  0  0  0
  7  8  1  0  0  0  0
  7 20  1  0  0  0  0
  9 10  1  0  0  0  0
  9 21  1  0  0  0  0
 10 16  1  0  0  0  0
 10 11  1  0  0  0  0
 10 22  1  0  0  0  0
 11 15  1  0  0  0  0
 11 12  1  0  0  0  0
 11 23  1  0  0  0  0
 12 13  1  0  0  0  0
 12 24  1  0  0  0  0
 12 25  1  0  0  0  0
 13 14  1  0  0  0  0
 13 26  1  0  0  0  0
 13 27  1  0  0  0  0
 14 15  1  0  0  0  0
 14 16  1  0  0  0  0
 14 28  1  0  0  0  0
 15 29  1  0  0  0  0
 15 30  1  0  0  0  0
 16 17  1  0  0  0  0
 16 31  1  0  0  0  0
 17 18  1  0  0  0  0
 17 32  1  0  0  0  0
 17 33  1  0  0  0  0
 18 34  1  0  0  0  0
M  END
> <s_m_source_file>
AV-unprocessed.smi

> <i_m_source_file_index>
798

> <i_lp_mmshare_version>
43012

> <i_f3d_flags>
0

> <s_epik_input>
W0NIMl0xW0NIMl1bQ0BASF0oW0NIMl0yKVtDQEBIXShbQ0gyXVtPSF0pW0NAQEhdKFtDQEhdMTIpW05IXUMoPU8pW05IXWMzbm5bY0hdczM=

> <s_epik_cmdline>
J2VwaWtfcHl0aG9uJywgJy1waCcsICc3LjAnLCAnLXRuJywgJzgnLCAnLW1hJywgJzIwMCcsICctbWV0YWxfYmluZGluZycsICctaW1hZScsICc8aW5maWxlLm1hZT4nLCAnLW9tYWUnLCAnPG91dGZpbGUubWFlPic=

> <r_lp_tautomer_probability>
1

> <r_epik_Ionization_Penalty>
0.000329046

> <r_epik_Ionization_Penalty_Charging>
0

> <r_epik_Ionization_Penalty_Neutral>
0.000329046

> <r_epik_State_Penalty>
-0

> <r_epik_Charging_Adjusted_Penalty>
0

> <i_epik_Tot_Q>
0

> <i_epik_Tot_abs_Q>
0

> <r_epik_Metal_State_Penalty>
0.173433

> <b_epik_Metal_Only>
0

> <s_lp_Force_Field>
OPLS_2005

> <r_lp_Energy>
48.2964

> <b_lp_Chiralities_Consistent>
1

> <s_lp_Variant>
AV-unprocessed.smi:798-8

> <Gold.Version>
5.8.1

> <Gold.Id.Protein>
6NUR|6NUR_protein|mol2

> <Gold.PLP.Fitness>
37.2221

> <Gold.PLP.PLP>
-24.2206

> <Gold.PLP.part.hbond>
-4.0000

> <Gold.PLP.part.metal>
0.0000

> <Gold.PLP.part.buried>
-2.9670

> <Gold.PLP.part.nonpolar>
-18.0245

> <Gold.PLP.part.repulsive>
0.3164

> <Gold.PLP.ligand.clash>
0.0000

> <Gold.PLP.ligand.torsion>
0.8582

> <Gold.PLP.Chemscore.Hbond>
3.9000

> <Gold.PLP.Chemscore.CHOScore>
1.0000

> <Gold.PLP.Chemscore.Metal>
0.0000

> <Gold.Chemscore.Hbonds>
donor molecule, donor type, donor heavy atom, donor atom, acceptor molecule, acceptor atom, score
      L1  H     3    19       P1  7948  1.00
      L1  H     9    21       P1  7948  1.00
      L1  H    18    34       P1 10957  1.00
      P1  H  7989  7998       L1     6  0.82
      L1  C     7    20       P1  8028  1.00

> <Gold.PLP.Chemscore.Internal.Correction>
0.0178

> <Gold.Rescore>
     Score         DG    S(hbond)    S(metal)    S(lipo)     H(rot)  DE(clash)    DE(int)     intcor
     15.01     -15.87       3.05        0.00      44.19       1.94       0.05       0.81       ----

> <Gold.Chemscore.Fitness>
15.0088

> <Gold.Chemscore.DG>
-15.8683

> <Gold.Chemscore.ZeroCoef>
-5.4800

> <Gold.Chemscore.Hbond>
3.0524

> <Gold.Chemscore.Metal>
0.0000

> <Gold.Chemscore.Lipo>
44.1918

> <Gold.Chemscore.Internal_Hbond>
0.0000

> <Gold.Chemscore.DEClash>
0.0458

> <Gold.Chemscore.DEInternal>
0.8137

> <Gold.Chemscore.Rot>
1.9442

> <Gold.Chemscore.Internal.Correction>
   9.000000E+99

> <Gold.Chemscore.Hbonds>
donor molecule, donor type, donor heavy atom, donor atom, acceptor molecule, acceptor atom, score
      L1  H     3    19       P1  7948  0.98
      L1  H     9    21       P1  7948  0.95
      L1  H    18    34       P1 10957  1.00
      P1  H  7989  7998       L1     6  0.05

> <Gold.Chemscore.Hbond.Weighted>
-10.1949

> <Gold.Chemscore.Metal.Weighted>
-0.0000

> <Gold.Chemscore.Lipo.Weighted>
-5.1704

> <Gold.Chemscore.Internal_Hbond.Weighted>
0.0000

> <Gold.Chemscore.DEClash.Weighted>
0.0458

> <Gold.Chemscore.DEInternal.Weighted>
0.8137

> <Gold.Chemscore.Rot.Weighted>
4.9771

> <Gold.Chemscore.Internal.Correction.Weighted>
   9.000000E+99

> <Gold.Protein.RotatedTorsions>
[ 6907 6896 6895 6894 ] final  -27.65 input  -60.11 | X-H torsion
[ 7974 7965 7964 7962 ] final   49.38 input  175.53 | X-H torsion
[ 8008 7997 7996 7995 ] final  -59.67 input   59.86 | X-H torsion
[ 10167 10162 10161 10158 ] final  -54.41 input  -65.29 | X-H torsion
[ 10718 10713 10712 10709 ] final   54.80 input   66.30 | X-H torsion
[ 10763 10752 10751 10750 ] final -155.77 input  -60.55 | X-H torsion
[ 11005 11000 10999 10996 ] final  169.65 input  -57.11 | X-H torsion

> <Gold.Protein.ActiveResidues>
 VAL166  LYS551  ARG553  GLY616  TRP617  ASP618  TYR619  PRO620  LYS621  CYS622 
 ASP623  PHE694  ASN695  SER759  ASP760  ASP761  ALA762  ILE779  LEU786  VAL792 
 PHE793  MET794  SER795  GLU796  ALA797  LYS798  CYS799  TRP800  GLU811  SER814 

> <Gold.Protein.RotatedAtoms>
  151.1439  135.0193  159.8637 H   0  0  0  0  0  0  0  0  0  0  0  0  # atno 6907 bound_to 6896
  152.5453  134.1467  159.8511 H   0  0  0  0  0  0  0  0  0  0  0  0  # atno 6908 bound_to 6896
  151.1545  133.4840  159.2627 H   0  0  0  0  0  0  0  0  0  0  0  0  # atno 6909 bound_to 6896
  146.0114  139.4548  142.9953 H   0  0  0  0  0  0  0  0  0  0  0  0  # atno 7974 bound_to 7965
  154.4363  140.1056  156.6152 H   0  0  0  0  0  0  0  0  0  0  0  0  # atno 8008 bound_to 7997
  155.5767  140.3490  155.4510 H   0  0  0  0  0  0  0  0  0  0  0  0  # atno 8009 bound_to 7997
  156.0349  140.1269  157.0207 H   0  0  0  0  0  0  0  0  0  0  0  0  # atno 8010 bound_to 7997
  140.6432  143.2520  151.4932 H   0  0  0  0  0  0  0  0  0  0  0  0  # atno 10167 bound_to 10162
  157.5289  130.8616  149.8660 H   0  0  0  0  0  0  0  0  0  0  0  0  # atno 10718 bound_to 10713
  154.7763  135.3160  154.8085 H   0  0  0  0  0  0  0  0  0  0  0  0  # atno 10763 bound_to 10752
  153.8808  135.6835  153.4771 H   0  0  0  0  0  0  0  0  0  0  0  0  # atno 10764 bound_to 10752
  153.1387  135.4748  154.9399 H   0  0  0  0  0  0  0  0  0  0  0  0  # atno 10765 bound_to 10752
  140.3000  134.7603  157.3908 H   0  0  0  0  0  0  0  0  0  0  0  0  # atno 11005 bound_to 11000
  145.7335  141.0034  143.1339 LP  0  0  0  0  0  0  0  0  0  0  0  0  # atno 17320 bound_to 7965
  144.6954  139.9013  143.7458 LP  0  0  0  0  0  0  0  0  0  0  0  0  # atno 17321 bound_to 7965
  139.5642  144.2083  152.1738 LP  0  0  0  0  0  0  0  0  0  0  0  0  # atno 17342 bound_to 10162
  140.1360  144.5245  150.6773 LP  0  0  0  0  0  0  0  0  0  0  0  0  # atno 17343 bound_to 10162
  156.0407  130.3739  150.1442 LP  0  0  0  0  0  0  0  0  0  0  0  0  # atno 17370 bound_to 10713
  156.9627  130.9810  151.3475 LP  0  0  0  0  0  0  0  0  0  0  0  0  # atno 17371 bound_to 10713
  140.1118  134.5335  155.8259 LP  0  0  0  0  0  0  0  0  0  0  0  0  # atno 17394 bound_to 11000
  141.2130  133.6727  156.6703 LP  0  0  0  0  0  0  0  0  0  0  0  0  # atno 17395 bound_to 11000

$$$$
