#       Name:                AV-unprocessed.smi:2855
#       Creating user name   scv26
#       Creation time:       Fri Mar 27 15:43:58 2020


#       File generated by GOLD software.
#

@<TRIPOS>MOLECULE
AV-unprocessed.smi:2855
    53    54     1
SMALL
NO_CHARGES


@<TRIPOS>ATOM
      1 ****        -4.5071   0.2812   1.2051 C.3            1 S1                 0.0000
      2 ****        -2.9729   0.3006   1.2573 C.3            1 S1                 0.0000
      3 ****        -2.4590   1.0491   2.4970 C.3            1 S1                 0.0000
      4 ****        -0.9234   1.0705   2.5522 C.3            1 S1                 0.0000
      5 ****        -0.2931   1.6963   1.2819 C.3            1 S1                 0.0000
      6 ****         1.2650   1.7538   1.3555 C.3            1 S1                 0.0000
      7 ****         1.7687   2.5800   2.5546 C.3            1 S1                 0.0000
      8 ****         1.9043   2.3088   0.0674 C.3            1 S1                 0.0000
      9 ****        -0.8332   0.9733   0.0151 C.3            1 S1                 0.0000
     10 ****        -0.2662  -0.3697  -0.1034 N.am           1 S1                 0.0000
     11 ****        -0.0312  -1.0202  -1.2517 C.2            1 S1                 0.0000
     12 ****        -0.3295  -0.5714  -2.3590 O.2            1 S1                 0.0000
     13 ****         0.6246  -2.4000  -1.1218 C.3            1 S1                 0.0000
     14 ****         1.6865  -2.6080  -2.1183 N.am           1 S1                 0.0000
     15 ****         1.3717  -3.3572  -3.2656 C.2            1 S1                 0.0000
     16 ****         2.2789  -3.5888  -4.2333 C.2            1 S1                 0.0000
     17 ****         3.6191  -3.0397  -4.0689 C.2            1 S1                 0.0000
     18 ****         4.4619  -3.2453  -4.9402 O.2            1 S1                 0.0000
     19 ****         3.8744  -2.3156  -2.9400 N.pl3          1 S1                -1.0000
     20 ****         2.9412  -2.0860  -1.9649 C.2            1 S1                 0.0000
     21 ****         3.1916  -1.4268  -0.9547 O.2            1 S1                 0.0000
     22 ****        -2.3753   0.9260  -0.0152 C.3            1 S1                 0.0000
     23 ****        -4.9145   1.2899   1.1309 H              1 S1                 0.0000
     24 ****        -4.9248  -0.1823   2.0992 H              1 S1                 0.0000
     25 ****        -4.8626  -0.2857   0.3443 H              1 S1                 0.0000
     26 ****        -2.6357  -0.7348   1.3225 H              1 S1                 0.0000
     27 ****        -2.8360   2.0729   2.4943 H              1 S1                 0.0000
     28 ****        -2.8483   0.5808   3.4018 H              1 S1                 0.0000
     29 ****        -0.6332   1.6274   3.4418 H              1 S1                 0.0000
     30 ****        -0.5490   0.0554   2.6914 H              1 S1                 0.0000
     31 ****        -0.6472   2.7270   1.2274 H              1 S1                 0.0000
     32 ****         1.6433   0.7393   1.4881 H              1 S1                 0.0000
     33 ****         1.3498   3.5866   2.5473 H              1 S1                 0.0000
     34 ****         2.8548   2.6756   2.5377 H              1 S1                 0.0000
     35 ****         1.5167   2.1153   3.5068 H              1 S1                 0.0000
     36 ****         1.5048   3.2920  -0.1829 H              1 S1                 0.0000
     37 ****         1.7407   1.6501  -0.7853 H              1 S1                 0.0000
     38 ****         2.9847   2.4079   0.1749 H              1 S1                 0.0000
     39 ****        -0.5270   1.5511  -0.8579 H              1 S1                 0.0000
     40 ****         0.0082  -0.8226   0.7561 H              1 S1                 0.0000
     41 ****         1.0264  -2.5337  -0.1153 H              1 S1                 0.0000
     42 ****        -0.1536  -3.1575  -1.2229 H              1 S1                 0.0000
     43 ****         0.3562  -3.7220  -3.3129 H              1 S1                 0.0000
     44 ****         2.0198  -4.1633  -5.1103 H              1 S1                 0.0000
     45 ****        -2.7149   0.3799  -0.8963 H              1 S1                 0.0000
     46 ****        -2.7565   1.9417  -0.1286 H              1 S1                 0.0000
     47 ****        -0.7710   0.3227  -2.4338 LP             1 S1                 0.0000
     48 ****        -0.1302  -1.1011  -3.1835 LP             1 S1                 0.0000
     49 ****         4.2241  -3.7834  -5.7489 LP             1 S1                 0.0000
     50 ****         5.3852  -2.8745  -4.8402 LP             1 S1                 0.0000
     51 ****         4.7904  -1.9332  -2.8191 LP             1 S1                 0.0000
     52 ****         2.4830  -1.2813  -0.2643 LP             1 S1                 0.0000
     53 ****         4.1035  -1.0373  -0.8252 LP             1 S1                 0.0000
@<TRIPOS>BOND
    1    1    2 1     
    2    1   23 1     
    3    1   24 1     
    4    1   25 1     
    5    2   22 1     
    6    2    3 1     
    7    2   26 1     
    8    3    4 1     
    9    3   27 1     
   10    3   28 1     
   11    4    5 1     
   12    4   29 1     
   13    4   30 1     
   14    5    6 1     
   15    5    9 1     
   16    5   31 1     
   17    6    7 1     
   18    6    8 1     
   19    6   32 1     
   20    7   33 1     
   21    7   34 1     
   22    7   35 1     
   23    8   36 1     
   24    8   37 1     
   25    8   38 1     
   26    9   10 1     
   27    9   22 1     
   28    9   39 1     
   29   10   11 am    
   30   10   40 1     
   31   11   12 2     
   32   11   13 1     
   33   13   14 1     
   34   13   41 1     
   35   13   42 1     
   36   14   20 am    
   37   14   15 1     
   38   15   16 2     
   39   15   43 1     
   40   16   17 1     
   41   16   44 1     
   42   17   18 2     
   43   17   19 1     
   44   19   20 1     
   45   20   21 2     
   46   22   45 1     
   47   22   46 1     
   48   12   47 1     
   49   12   48 1     
   50   18   49 1     
   51   18   50 1     
   52   19   51 1     
   53   21   52 1     
   54   21   53 1     
@<TRIPOS>SUBSTRUCTURE
      1 S1             1
@<TRIPOS>SET
LONE_PAIRS      STATIC     ATOMS    <user>   **** ""
7 47 48 49 50 51 52 53
DONOR_HYDROGENS      STATIC     ATOMS    <user>   **** ""
1 40
ATOM$BLUE        STATIC     ATOMS    COLORGROUP SYSTEM
7 47 48 49 50 51 52 53
ATOM$RED        STATIC     ATOMS    COLORGROUP SYSTEM
1 40
