AV-unprocessed.smi:2489|AV-procd|sdf|9802|dock10
  -GOLD-   2272013433D 1   1.00000     0.00000
 Structure written by MMmdl.
 33 34  0  0  0  0  0  0  0  0  1 V2000
  151.8560  145.8822  160.0783 C   0  0  0  0  0  0  0  0  0  0  0  0
  151.0569  144.7115  159.9833 O   0  0  0  0  0  0  0  0  0  0  0  0
  151.6732  143.5541  159.5663 C   0  0  0  0  0  0  0  0  0  0  0  0
  152.7848  142.9318  160.2816 C   0  0  0  0  0  0  0  0  0  0  0  0
  153.3059  141.8001  159.7846 C   0  0  0  0  0  0  0  0  0  0  0  0
  152.8259  141.2110  158.6239 N   0  0  0  0  0  0  0  0  0  0  0  0
  151.7624  141.7577  157.8836 C   0  0  0  0  0  0  0  0  0  0  0  0
  151.2684  141.2573  156.7886 N   0  0  0  0  0  0  0  0  0  0  0  0
  151.7471  140.0827  156.2150 C   0  0  0  0  0  0  0  0  0  0  0  0
  152.5838  139.2848  156.6478 O   0  0  0  0  0  0  0  0  0  0  0  0
  151.0976  139.8091  154.8510 C   0  0  1  0  0  0  0  0  0  0  0  0
  150.3657  138.4571  154.7977 C   0  0  0  0  0  0  0  0  0  0  0  0
  149.0331  138.8031  154.1653 C   0  0  0  0  0  0  0  0  0  0  0  0
  148.8087  140.2263  154.6613 C   0  0  2  0  0  0  0  0  0  0  0  0
  147.8150  141.0352  153.8213 C   0  0  0  0  0  0  0  0  0  0  0  0
  150.1053  140.8039  154.5912 O   0  0  0  0  0  0  0  0  0  0  0  0
  151.2024  142.9854  158.4317 C   0  0  0  0  0  0  0  0  0  0  0  0
  151.2366  146.7119  160.4188 H   0  0  0  0  0  0  0  0  0  0  0  0
  152.2733  146.1612  159.1099 H   0  0  0  0  0  0  0  0  0  0  0  0
  152.6639  145.7590  160.8009 H   0  0  0  0  0  0  0  0  0  0  0  0
  153.1984  143.3476  161.1878 H   0  0  0  0  0  0  0  0  0  0  0  0
  154.1276  141.2741  160.2478 H   0  0  0  0  0  0  0  0  0  0  0  0
  151.8395  139.8722  154.0529 H   0  0  0  0  0  0  0  0  0  0  0  0
  150.9121  137.7117  154.2196 H   0  0  0  0  0  0  0  0  0  0  0  0
  150.2031  138.0468  155.7960 H   0  0  0  0  0  0  0  0  0  0  0  0
  149.1240  138.7889  153.0783 H   0  0  0  0  0  0  0  0  0  0  0  0
  148.2331  138.1195  154.4510 H   0  0  0  0  0  0  0  0  0  0  0  0
  148.4919  140.2072  155.7053 H   0  0  0  0  0  0  0  0  0  0  0  0
  146.8225  140.5849  153.8466 H   0  0  0  0  0  0  0  0  0  0  0  0
  148.1323  141.0905  152.7796 H   0  0  0  0  0  0  0  0  0  0  0  0
  147.7284  142.0548  154.1975 H   0  0  0  0  0  0  0  0  0  0  0  0
  150.3791  143.4803  157.9368 H   0  0  0  0  0  0  0  0  0  0  0  0
  153.2825  140.3595  158.3290 H   0  0  0  0  0  0  0  0  0  0  0  0
  1  2  1  0  0  0  0
  1 18  1  0  0  0  0
  1 19  1  0  0  0  0
  1 20  1  0  0  0  0
  2  3  1  0  0  0  0
  3 17  2  0  0  0  0
  3  4  1  0  0  0  0
  4  5  2  0  0  0  0
  4 21  1  0  0  0  0
  5  6  1  0  0  0  0
  5 22  1  0  0  0  0
  6  7  1  0  0  0  0
  6 33  1  0  0  0  0
  7  8  2  0  0  0  0
  7 17  1  0  0  0  0
  8  9  1  0  0  0  0
  9 10  2  0  0  0  0
  9 11  1  0  0  0  0
 11 16  1  0  0  0  0
 11 12  1  0  0  0  0
 11 23  1  0  0  0  0
 12 13  1  0  0  0  0
 12 24  1  0  0  0  0
 12 25  1  0  0  0  0
 13 14  1  0  0  0  0
 13 26  1  0  0  0  0
 13 27  1  0  0  0  0
 14 15  1  0  0  0  0
 14 16  1  0  0  0  0
 14 28  1  0  0  0  0
 15 29  1  0  0  0  0
 15 30  1  0  0  0  0
 15 31  1  0  0  0  0
 17 32  1  0  0  0  0
M  END
> <s_m_source_file>
AV-unprocessed.smi

> <i_m_source_file_index>
2489

> <i_lp_mmshare_version>
43012

> <i_f3d_flags>
0

> <s_epik_input>
W0NIM11PYzFbY0hdW2NIXW5jKFtjSF0xKVtOSF1DKD1PKVtDQEBIXTJbQ0gyXVtDSDJdW0NASF0oTzIpW0NIM10=

> <s_epik_cmdline>
J2VwaWtfcHl0aG9uJywgJy1waCcsICc3LjAnLCAnLXRuJywgJzgnLCAnLW1hJywgJzIwMCcsICctbWV0YWxfYmluZGluZycsICctaW1hZScsICc8aW5maWxlLm1hZT4nLCAnLW9tYWUnLCAnPG91dGZpbGUubWFlPic=

> <r_epik_Ionization_Penalty>
0.410206

> <r_epik_Ionization_Penalty_Charging>
0.410206

> <r_epik_Ionization_Penalty_Neutral>
6.57528e-13

> <r_epik_State_Penalty>
1.30987

> <r_epik_Charging_Adjusted_Penalty>
1.72007

> <i_epik_Tot_Q>
0

> <i_epik_Tot_abs_Q>
0

> <r_epik_Metal_State_Penalty>
1.32171

> <b_epik_Metal_Only>
0

> <s_lp_Force_Field>
OPLS_2005

> <r_lp_Energy>
36.1754

> <b_lp_Chiralities_Consistent>
1

> <s_lp_Variant>
AV-unprocessed.smi:2489-8

> <Gold.Version>
5.8.1

> <Gold.Id.Protein>
6NUR|6NUR_protein|mol2

> <Gold.PLP.Fitness>
38.5564

> <Gold.PLP.PLP>
-35.6063

> <Gold.PLP.part.hbond>
-2.0000

> <Gold.PLP.part.metal>
0.0000

> <Gold.PLP.part.buried>
-0.1074

> <Gold.PLP.part.nonpolar>
-32.1889

> <Gold.PLP.part.repulsive>
0.3728

> <Gold.PLP.ligand.clash>
0.0000

> <Gold.PLP.ligand.torsion>
0.0279

> <Gold.PLP.Chemscore.Hbond>
1.0000

> <Gold.PLP.Chemscore.CHOScore>
0.0000

> <Gold.PLP.Chemscore.Metal>
0.0000

> <Gold.Chemscore.Hbonds>
donor molecule, donor type, donor heavy atom, donor atom, acceptor molecule, acceptor atom, score
      P1  H  7997  8009       L1    10  1.00

> <Gold.PLP.Chemscore.Internal.Correction>
0.0059

> <Gold.Rescore>
     Score         DG    S(hbond)    S(metal)    S(lipo)     H(rot)  DE(clash)    DE(int)     intcor
     13.06     -16.07       0.98        0.00      89.27       1.23       1.57       1.44       ----

> <Gold.Chemscore.Fitness>
13.0592

> <Gold.Chemscore.DG>
-16.0702

> <Gold.Chemscore.ZeroCoef>
-5.4800

> <Gold.Chemscore.Hbond>
0.9834

> <Gold.Chemscore.Metal>
0.0000

> <Gold.Chemscore.Lipo>
89.2749

> <Gold.Chemscore.Internal_Hbond>
0.0000

> <Gold.Chemscore.DEClash>
1.5689

> <Gold.Chemscore.DEInternal>
1.4421

> <Gold.Chemscore.Rot>
1.2264

> <Gold.Chemscore.Internal.Correction>
   9.000000E+99

> <Gold.Chemscore.Hbonds>
donor molecule, donor type, donor heavy atom, donor atom, acceptor molecule, acceptor atom, score
      P1  H  7997  8009       L1    10  0.54

> <Gold.Chemscore.Hbond.Weighted>
-3.2846

> <Gold.Chemscore.Metal.Weighted>
-0.0000

> <Gold.Chemscore.Lipo.Weighted>
-10.4452

> <Gold.Chemscore.Internal_Hbond.Weighted>
0.0000

> <Gold.Chemscore.DEClash.Weighted>
1.5689

> <Gold.Chemscore.DEInternal.Weighted>
1.4421

> <Gold.Chemscore.Rot.Weighted>
3.1396

> <Gold.Chemscore.Internal.Correction.Weighted>
   9.000000E+99

> <Gold.Protein.RotatedTorsions>
[ 6907 6896 6895 6894 ] final -176.64 input  -60.11 | X-H torsion
[ 7974 7965 7964 7962 ] final -139.25 input  175.53 | X-H torsion
[ 8008 7997 7996 7995 ] final -161.22 input   59.86 | X-H torsion
[ 10167 10162 10161 10158 ] final  -60.76 input  -65.29 | X-H torsion
[ 10718 10713 10712 10709 ] final   77.16 input   66.30 | X-H torsion
[ 10763 10752 10751 10750 ] final  -48.33 input  -60.55 | X-H torsion
[ 11005 11000 10999 10996 ] final -133.98 input  -57.11 | X-H torsion

> <Gold.Protein.ActiveResidues>
 VAL166  LYS551  ARG553  GLY616  TRP617  ASP618  TYR619  PRO620  LYS621  CYS622 
 ASP623  PHE694  ASN695  SER759  ASP760  ASP761  ALA762  ILE779  LEU786  VAL792 
 PHE793  MET794  SER795  GLU796  ALA797  LYS798  CYS799  TRP800  GLU811  SER814 

> <Gold.Protein.RotatedAtoms>
  151.6080  133.3350  159.3061 H   0  0  0  0  0  0  0  0  0  0  0  0  # atno 6907 bound_to 6896
  150.8171  134.7363  159.6751 H   0  0  0  0  0  0  0  0  0  0  0  0  # atno 6908 bound_to 6896
  152.4267  134.5860  160.0012 H   0  0  0  0  0  0  0  0  0  0  0  0  # atno 6909 bound_to 6896
  144.8692  140.6341  143.5278 H   0  0  0  0  0  0  0  0  0  0  0  0  # atno 7974 bound_to 7965
  155.7890  140.0875  157.2019 H   0  0  0  0  0  0  0  0  0  0  0  0  # atno 8008 bound_to 7997
  154.3986  140.1493  156.3199 H   0  0  0  0  0  0  0  0  0  0  0  0  # atno 8009 bound_to 7997
  155.8578  140.3431  155.5738 H   0  0  0  0  0  0  0  0  0  0  0  0  # atno 8010 bound_to 7997
  140.6050  143.2371  151.5841 H   0  0  0  0  0  0  0  0  0  0  0  0  # atno 10167 bound_to 10162
  157.6700  130.9808  150.1601 H   0  0  0  0  0  0  0  0  0  0  0  0  # atno 10718 bound_to 10713
  154.0759  135.6598  153.4831 H   0  0  0  0  0  0  0  0  0  0  0  0  # atno 10763 bound_to 10752
  153.0373  135.5168  154.7521 H   0  0  0  0  0  0  0  0  0  0  0  0  # atno 10764 bound_to 10752
  154.6601  135.3014  154.9845 H   0  0  0  0  0  0  0  0  0  0  0  0  # atno 10765 bound_to 10752
  140.9032  134.1664  157.4445 H   0  0  0  0  0  0  0  0  0  0  0  0  # atno 11005 bound_to 11000
  145.4162  139.1571  143.4099 LP  0  0  0  0  0  0  0  0  0  0  0  0  # atno 17320 bound_to 7965
  146.2918  140.4269  142.8736 LP  0  0  0  0  0  0  0  0  0  0  0  0  # atno 17321 bound_to 7965
  139.5319  144.2893  152.1166 LP  0  0  0  0  0  0  0  0  0  0  0  0  # atno 17342 bound_to 10162
  140.2081  144.4591  150.6399 LP  0  0  0  0  0  0  0  0  0  0  0  0  # atno 17343 bound_to 10162
  156.2380  130.3688  149.8369 LP  0  0  0  0  0  0  0  0  0  0  0  0  # atno 17370 bound_to 10713
  156.6177  130.8613  151.3468 LP  0  0  0  0  0  0  0  0  0  0  0  0  # atno 17371 bound_to 10713
  139.8745  134.9906  156.5511 LP  0  0  0  0  0  0  0  0  0  0  0  0  # atno 17394 bound_to 11000
  140.8204  133.8358  155.8890 LP  0  0  0  0  0  0  0  0  0  0  0  0  # atno 17395 bound_to 11000

$$$$
