AV-unprocessed.smi:1695|AV-procd|sdf|6796|dock2
  -GOLD-   22720 7563D 1   1.00000     0.00000
 Structure written by MMmdl.
 52 54  0  0  0  0  0  0  0  0  3 V2000
  153.3983  142.3120  161.0868 C   0  0  0  0  0  0  0  0  0  0  0  0
  152.6179  142.0291  159.8141 C   0  0  0  0  0  0  0  0  0  0  0  0
  152.4763  140.6877  159.3938 C   0  0  0  0  0  0  0  0  0  0  0  0
  151.7576  140.4610  158.2261 C   0  0  0  0  0  0  0  0  0  0  0  0
  151.4411  139.2728  157.5649 N   0  3  0  0  0  0  0  0  0  0  0  0
  150.7074  139.5531  156.4530 C   0  0  0  0  0  0  0  0  0  0  0  0
  150.5608  140.9051  156.3855 N   0  0  0  0  0  0  0  0  0  0  0  0
  149.8477  141.7278  155.3944 C   0  0  0  0  0  0  0  0  0  0  0  0
  148.9868  140.9220  154.3947 C   0  0  1  0  0  0  0  0  0  0  0  0
  149.8332  140.1455  153.5697 O   0  0  0  0  0  0  0  0  0  0  0  0
  147.9673  139.9855  155.0808 C   0  0  0  0  0  0  0  0  0  0  0  0
  147.4899  138.8994  154.1863 N   0  3  1  0  0  0  0  0  0  0  0  0
  146.5938  137.9429  154.8862 C   0  0  0  0  0  0  0  0  0  0  0  0
  146.2366  136.7521  153.9805 C   0  0  0  0  0  0  0  0  0  0  0  0
  145.5909  137.2252  152.6641 C   0  0  2  0  0  0  0  0  0  0  0  0
  145.2948  136.0403  151.7350 C   0  0  0  0  0  0  0  0  0  0  0  0
  144.7015  136.3115  150.5699 N   0  0  0  0  0  0  0  0  0  0  0  0
  145.5973  134.8949  152.0642 O   0  0  0  0  0  0  0  0  0  0  0  0
  146.5267  138.2414  151.9823 C   0  0  0  0  0  0  0  0  0  0  0  0
  146.8706  139.4013  152.9306 C   0  0  0  0  0  0  0  0  0  0  0  0
  151.1906  141.5125  157.4796 C   0  0  0  0  0  0  0  0  0  0  0  0
  151.3185  142.8401  157.8826 C   0  0  0  0  0  0  0  0  0  0  0  0
  152.0455  143.0917  159.0681 C   0  0  0  0  0  0  0  0  0  0  0  0
  152.2020  144.5303  159.5307 C   0  0  0  0  0  0  0  0  0  0  0  0
  153.7513  141.3911  161.5519 H   0  0  0  0  0  0  0  0  0  0  0  0
  152.7727  142.8322  161.8125 H   0  0  0  0  0  0  0  0  0  0  0  0
  154.2692  142.9314  160.8717 H   0  0  0  0  0  0  0  0  0  0  0  0
  152.9072  139.8735  159.9582 H   0  0  0  0  0  0  0  0  0  0  0  0
  150.3135  138.8317  155.7516 H   0  0  0  0  0  0  0  0  0  0  0  0
  149.2073  142.4105  155.9544 H   0  0  0  0  0  0  0  0  0  0  0  0
  150.5682  142.3586  154.8722 H   0  0  0  0  0  0  0  0  0  0  0  0
  148.4753  141.6404  153.7553 H   0  0  0  0  0  0  0  0  0  0  0  0
  149.5249  140.1956  152.6778 H   0  0  0  0  0  0  0  0  0  0  0  0
  148.4332  139.5524  155.9674 H   0  0  0  0  0  0  0  0  0  0  0  0
  147.1076  140.5539  155.4393 H   0  0  0  0  0  0  0  0  0  0  0  0
  147.0836  137.5686  155.7860 H   0  0  0  0  0  0  0  0  0  0  0  0
  145.6879  138.4586  155.2086 H   0  0  0  0  0  0  0  0  0  0  0  0
  147.1403  136.1757  153.7743 H   0  0  0  0  0  0  0  0  0  0  0  0
  145.5587  136.0815  154.5106 H   0  0  0  0  0  0  0  0  0  0  0  0
  144.6504  137.7260  152.9015 H   0  0  0  0  0  0  0  0  0  0  0  0
  144.4847  135.5663  149.9239 H   0  0  0  0  0  0  0  0  0  0  0  0
  144.4696  137.2669  150.3380 H   0  0  0  0  0  0  0  0  0  0  0  0
  147.4494  137.7540  151.6622 H   0  0  0  0  0  0  0  0  0  0  0  0
  146.0573  138.6356  151.0798 H   0  0  0  0  0  0  0  0  0  0  0  0
  145.9692  139.9681  153.1691 H   0  0  0  0  0  0  0  0  0  0  0  0
  147.5448  140.0865  152.4181 H   0  0  0  0  0  0  0  0  0  0  0  0
  150.8855  143.6503  157.3151 H   0  0  0  0  0  0  0  0  0  0  0  0
  151.7281  145.2266  158.8382 H   0  0  0  0  0  0  0  0  0  0  0  0
  153.2564  144.7983  159.6021 H   0  0  0  0  0  0  0  0  0  0  0  0
  151.7418  144.6692  160.5094 H   0  0  0  0  0  0  0  0  0  0  0  0
  148.3073  138.3687  153.9213 H   0  0  0  0  0  0  0  0  0  0  0  0
  151.6989  138.3378  157.8545 H   0  0  0  0  0  0  0  0  0  0  0  0
  1  2  1  0  0  0  0
  1 25  1  0  0  0  0
  1 26  1  0  0  0  0
  1 27  1  0  0  0  0
  2 23  1  0  0  0  0
  2  3  2  0  0  0  0
  3  4  1  0  0  0  0
  3 28  1  0  0  0  0
  4 21  2  0  0  0  0
  4  5  1  0  0  0  0
  5  6  2  0  0  0  0
  5 52  1  0  0  0  0
  6  7  1  0  0  0  0
  6 29  1  0  0  0  0
  7  8  1  0  0  0  0
  7 21  1  0  0  0  0
  8  9  1  0  0  0  0
  8 30  1  0  0  0  0
  8 31  1  0  0  0  0
  9 10  1  0  0  0  0
  9 11  1  0  0  0  0
  9 32  1  0  0  0  0
 10 33  1  0  0  0  0
 11 12  1  0  0  0  0
 11 34  1  0  0  0  0
 11 35  1  0  0  0  0
 12 20  1  0  0  0  0
 12 13  1  0  0  0  0
 12 51  1  0  0  0  0
 13 14  1  0  0  0  0
 13 36  1  0  0  0  0
 13 37  1  0  0  0  0
 14 15  1  0  0  0  0
 14 38  1  0  0  0  0
 14 39  1  0  0  0  0
 15 16  1  0  0  0  0
 15 19  1  0  0  0  0
 15 40  1  0  0  0  0
 16 17  1  0  0  0  0
 16 18  2  0  0  0  0
 17 41  1  0  0  0  0
 17 42  1  0  0  0  0
 19 20  1  0  0  0  0
 19 43  1  0  0  0  0
 19 44  1  0  0  0  0
 20 45  1  0  0  0  0
 20 46  1  0  0  0  0
 21 22  1  0  0  0  0
 22 23  2  0  0  0  0
 22 47  1  0  0  0  0
 23 24  1  0  0  0  0
 24 48  1  0  0  0  0
 24 49  1  0  0  0  0
 24 50  1  0  0  0  0
M  CHG  1   5   1
M  CHG  1  12   1
M  END
> <s_m_source_file>
AV-unprocessed.smi

> <i_m_source_file_index>
1695

> <i_lp_mmshare_version>
43012

> <i_f3d_flags>
0

> <s_epik_input>
W0NIM11jKFtjSF0xKWMoW0NIM10pW2NIXWMoYzEyKW4oW2NIXW4yKVtDSDJdW0NASF0oW09IXSlbQ0gyXU4zW0NIMl1bQ0gyXVtDSF0oQyg9TylbTkgyXSlbQ0gyXVtDSDJdMw==

> <s_epik_cmdline>
J2VwaWtfcHl0aG9uJywgJy1waCcsICc3LjAnLCAnLXRuJywgJzgnLCAnLW1hJywgJzIwMCcsICctbWV0YWxfYmluZGluZycsICctaW1hZScsICc8aW5maWxlLm1hZT4nLCAnLW9tYWUnLCAnPG91dGZpbGUubWFlPic=

> <r_epik_Ionization_Penalty>
1.20173

> <r_epik_Ionization_Penalty_Charging>
1.20172

> <r_epik_Ionization_Penalty_Neutral>
1.7852e-06

> <r_epik_State_Penalty>
1.28089

> <r_epik_Charging_Adjusted_Penalty>
2.48261

> <i_epik_Tot_Q>
2

> <i_epik_Tot_abs_Q>
2

> <r_epik_Metal_State_Penalty>
1.35652

> <b_epik_Metal_Only>
0

> <s_lp_Force_Field>
OPLS_2005

> <r_lp_Energy>
30.0744

> <b_lp_Chiralities_Consistent>
1

> <s_lp_Variant>
AV-unprocessed.smi:1695-8

> <Gold.Version>
5.8.1

> <Gold.Id.Protein>
6NUR|6NUR_protein|mol2

> <Gold.PLP.Fitness>
53.7933

> <Gold.PLP.PLP>
-46.4933

> <Gold.PLP.part.hbond>
-2.5992

> <Gold.PLP.part.metal>
0.0000

> <Gold.PLP.part.buried>
-6.1337

> <Gold.PLP.part.nonpolar>
-39.9852

> <Gold.PLP.part.repulsive>
0.2378

> <Gold.PLP.ligand.clash>
0.0000

> <Gold.PLP.ligand.torsion>
0.3214

> <Gold.PLP.Chemscore.Hbond>
2.6313

> <Gold.PLP.Chemscore.CHOScore>
0.0000

> <Gold.PLP.Chemscore.Metal>
0.0000

> <Gold.Chemscore.Hbonds>
donor molecule, donor type, donor heavy atom, donor atom, acceptor molecule, acceptor atom, score
      L1  H    10    33       P1  7957  0.99
      L1  H    17    42       P1 10171  1.00
      P1  H  7989  7998       L1    10  0.64

> <Gold.PLP.Chemscore.Internal.Correction>
0.0490

> <Gold.Rescore>
     Score         DG    S(hbond)    S(metal)    S(lipo)     H(rot)  DE(clash)    DE(int)     intcor
     17.78     -19.00       2.03        0.00     121.32       2.91       0.11       1.11       ----

> <Gold.Chemscore.Fitness>
17.7770

> <Gold.Chemscore.DG>
-18.9976

> <Gold.Chemscore.ZeroCoef>
-5.4800

> <Gold.Chemscore.Hbond>
2.0299

> <Gold.Chemscore.Metal>
0.0000

> <Gold.Chemscore.Lipo>
121.3181

> <Gold.Chemscore.Internal_Hbond>
0.0000

> <Gold.Chemscore.DEClash>
0.1073

> <Gold.Chemscore.DEInternal>
1.1133

> <Gold.Chemscore.Rot>
2.9127

> <Gold.Chemscore.Internal.Correction>
   9.000000E+99

> <Gold.Chemscore.Hbonds>
donor molecule, donor type, donor heavy atom, donor atom, acceptor molecule, acceptor atom, score
      L1  H    10    33       P1  7957  0.91
      L1  H    17    42       P1 10171  0.93
      P1  H  7989  7998       L1    10  0.21

> <Gold.Chemscore.Hbond.Weighted>
-6.7799

> <Gold.Chemscore.Metal.Weighted>
-0.0000

> <Gold.Chemscore.Lipo.Weighted>
-14.1942

> <Gold.Chemscore.Internal_Hbond.Weighted>
0.0000

> <Gold.Chemscore.DEClash.Weighted>
0.1073

> <Gold.Chemscore.DEInternal.Weighted>
1.1133

> <Gold.Chemscore.Rot.Weighted>
7.4565

> <Gold.Chemscore.Internal.Correction.Weighted>
   9.000000E+99

> <Gold.Protein.RotatedTorsions>
[ 6907 6896 6895 6894 ] final  -15.07 input  -60.11 | X-H torsion
[ 7974 7965 7964 7962 ] final   97.81 input  175.53 | X-H torsion
[ 8008 7997 7996 7995 ] final  -60.42 input   59.86 | X-H torsion
[ 10167 10162 10161 10158 ] final  -31.06 input  -65.29 | X-H torsion
[ 10718 10713 10712 10709 ] final   36.17 input   66.30 | X-H torsion
[ 10763 10752 10751 10750 ] final  -55.54 input  -60.55 | X-H torsion
[ 11005 11000 10999 10996 ] final  170.06 input  -57.11 | X-H torsion

> <Gold.Protein.ActiveResidues>
 VAL166  LYS551  ARG553  GLY616  TRP617  ASP618  TYR619  PRO620  LYS621  CYS622 
 ASP623  PHE694  ASN695  SER759  ASP760  ASP761  ALA762  ILE779  LEU786  VAL792 
 PHE793  MET794  SER795  GLU796  ALA797  LYS798  CYS799  TRP800  GLU811  SER814 

> <Gold.Protein.RotatedAtoms>
  151.3297  135.0838  159.9333 H   0  0  0  0  0  0  0  0  0  0  0  0  # atno 6907 bound_to 6896
  152.5237  133.9555  159.7703 H   0  0  0  0  0  0  0  0  0  0  0  0  # atno 6908 bound_to 6896
  150.9892  133.6114  159.2741 H   0  0  0  0  0  0  0  0  0  0  0  0  # atno 6909 bound_to 6896
  145.4205  139.2322  143.3199 H   0  0  0  0  0  0  0  0  0  0  0  0  # atno 7974 bound_to 7965
  154.4398  140.1040  156.6270 H   0  0  0  0  0  0  0  0  0  0  0  0  # atno 8008 bound_to 7997
  155.5646  140.3488  155.4481 H   0  0  0  0  0  0  0  0  0  0  0  0  # atno 8009 bound_to 7997
  156.0435  140.1287  157.0119 H   0  0  0  0  0  0  0  0  0  0  0  0  # atno 8010 bound_to 7997
  140.7241  143.3800  151.1618 H   0  0  0  0  0  0  0  0  0  0  0  0  # atno 10167 bound_to 10162
  157.3316  130.7501  149.6851 H   0  0  0  0  0  0  0  0  0  0  0  0  # atno 10718 bound_to 10713
  154.1924  135.6425  153.5063 H   0  0  0  0  0  0  0  0  0  0  0  0  # atno 10763 bound_to 10752
  153.0032  135.5432  154.6401 H   0  0  0  0  0  0  0  0  0  0  0  0  # atno 10764 bound_to 10752
  154.5793  135.2924  155.0721 H   0  0  0  0  0  0  0  0  0  0  0  0  # atno 10765 bound_to 10752
  140.3044  134.7569  157.3942 H   0  0  0  0  0  0  0  0  0  0  0  0  # atno 11005 bound_to 11000
  146.2659  140.4929  142.8834 LP  0  0  0  0  0  0  0  0  0  0  0  0  # atno 17320 bound_to 7965
  144.8248  140.6611  143.6329 LP  0  0  0  0  0  0  0  0  0  0  0  0  # atno 17321 bound_to 7965
  139.7387  143.8958  152.3043 LP  0  0  0  0  0  0  0  0  0  0  0  0  # atno 17342 bound_to 10162
  139.8772  144.7037  150.8919 LP  0  0  0  0  0  0  0  0  0  0  0  0  # atno 17343 bound_to 10162
  155.9696  130.4193  150.4370 LP  0  0  0  0  0  0  0  0  0  0  0  0  # atno 17370 bound_to 10713
  157.2403  131.0524  151.2440 LP  0  0  0  0  0  0  0  0  0  0  0  0  # atno 17371 bound_to 10713
  140.1080  134.5383  155.8291 LP  0  0  0  0  0  0  0  0  0  0  0  0  # atno 17394 bound_to 11000
  141.2121  133.6715  156.6636 LP  0  0  0  0  0  0  0  0  0  0  0  0  # atno 17395 bound_to 11000

$$$$
