AV-unprocessed.smi:1430|AV-procd|sdf|5828|dock6
  -GOLD-   22720 5483D 1   1.00000     0.00000
 Structure written by MMmdl.
 47 48  0  0  0  0  0  0  0  0  2 V2000
  152.0648  140.4111  158.9943 C   0  0  0  0  0  0  0  0  0  0  0  0
  152.0221  140.5393  157.5772 O   0  0  0  0  0  0  0  0  0  0  0  0
  151.5743  139.4657  156.8356 C   0  0  0  0  0  0  0  0  0  0  0  0
  151.5926  139.5619  155.4305 C   0  0  0  0  0  0  0  0  0  0  0  0
  151.1396  138.4676  154.6704 C   0  0  0  0  0  0  0  0  0  0  0  0
  150.6841  137.3082  155.3308 C   0  0  0  0  0  0  0  0  0  0  0  0
  150.2266  136.2292  154.5244 N   0  0  0  0  0  0  0  0  0  0  0  0
  149.3535  135.2517  154.8243 C   0  0  0  0  0  0  0  0  0  0  0  0
  148.7774  135.1081  155.9018 O   0  0  0  0  0  0  0  0  0  0  0  0
  149.1812  134.4219  153.7856 N   0  0  0  0  0  0  0  0  0  0  0  0
  148.3020  133.2580  153.7851 C   0  0  0  0  0  0  0  0  0  0  0  0
  146.8222  133.6708  153.9033 C   0  0  0  0  0  0  0  0  0  0  0  0
  146.3832  134.5388  152.7784 N   0  3  1  0  0  0  0  0  0  0  0  0
  146.4224  133.8627  151.4586 C   0  0  0  0  0  0  0  0  0  0  0  0
  145.2185  132.9151  151.2776 C   0  0  2  0  0  0  0  0  0  0  0  0
  145.1933  132.2742  149.8857 C   0  0  0  0  0  0  0  0  0  0  0  0
  144.0169  133.6601  151.4431 O   0  0  0  0  0  0  0  0  0  0  0  0
  143.8951  134.2347  152.7399 C   0  0  2  0  0  0  0  0  0  0  0  0
  142.5382  134.9429  152.8185 C   0  0  0  0  0  0  0  0  0  0  0  0
  145.0712  135.2068  152.9769 C   0  0  0  0  0  0  0  0  0  0  0  0
  150.6964  137.3139  156.7480 C   0  0  0  0  0  0  0  0  0  0  0  0
  151.1308  138.3600  157.4826 N   0  0  0  0  0  0  0  0  0  0  0  0
  152.4398  141.3375  159.4288 H   0  0  0  0  0  0  0  0  0  0  0  0
  152.7346  139.6067  159.3021 H   0  0  0  0  0  0  0  0  0  0  0  0
  151.0724  140.2294  159.4092 H   0  0  0  0  0  0  0  0  0  0  0  0
  151.9475  140.4591  154.9450 H   0  0  0  0  0  0  0  0  0  0  0  0
  151.1442  138.5208  153.5912 H   0  0  0  0  0  0  0  0  0  0  0  0
  150.6423  136.1792  153.6058 H   0  0  0  0  0  0  0  0  0  0  0  0
  149.6976  134.6060  152.9374 H   0  0  0  0  0  0  0  0  0  0  0  0
  148.4826  132.7193  152.8560 H   0  0  0  0  0  0  0  0  0  0  0  0
  148.5765  132.5808  154.5957 H   0  0  0  0  0  0  0  0  0  0  0  0
  146.2149  132.7645  153.8988 H   0  0  0  0  0  0  0  0  0  0  0  0
  146.6367  134.1549  154.8620 H   0  0  0  0  0  0  0  0  0  0  0  0
  146.4011  134.6302  150.6834 H   0  0  0  0  0  0  0  0  0  0  0  0
  147.3639  133.3276  151.3300 H   0  0  0  0  0  0  0  0  0  0  0  0
  145.2530  132.1171  152.0211 H   0  0  0  0  0  0  0  0  0  0  0  0
  146.0883  131.6762  149.7122 H   0  0  0  0  0  0  0  0  0  0  0  0
  145.1387  133.0310  149.1026 H   0  0  0  0  0  0  0  0  0  0  0  0
  144.3296  131.6180  149.7747 H   0  0  0  0  0  0  0  0  0  0  0  0
  143.9050  133.4395  153.4864 H   0  0  0  0  0  0  0  0  0  0  0  0
  142.3877  135.3965  153.7984 H   0  0  0  0  0  0  0  0  0  0  0  0
  141.7217  134.2404  152.6493 H   0  0  0  0  0  0  0  0  0  0  0  0
  142.4589  135.7306  152.0687 H   0  0  0  0  0  0  0  0  0  0  0  0
  145.0044  135.6602  153.9649 H   0  0  0  0  0  0  0  0  0  0  0  0
  145.0058  136.0302  152.2643 H   0  0  0  0  0  0  0  0  0  0  0  0
  150.3435  136.4812  157.3340 H   0  0  0  0  0  0  0  0  0  0  0  0
  147.0762  135.2722  152.7299 H   0  0  0  0  0  0  0  0  0  0  0  0
  1  2  1  0  0  0  0
  1 23  1  0  0  0  0
  1 24  1  0  0  0  0
  1 25  1  0  0  0  0
  2  3  1  0  0  0  0
  3 22  1  0  0  0  0
  3  4  2  0  0  0  0
  4  5  1  0  0  0  0
  4 26  1  0  0  0  0
  5  6  2  0  0  0  0
  5 27  1  0  0  0  0
  6  7  1  0  0  0  0
  6 21  1  0  0  0  0
  7  8  1  0  0  0  0
  7 28  1  0  0  0  0
  8  9  2  0  0  0  0
  8 10  1  0  0  0  0
 10 11  1  0  0  0  0
 10 29  1  0  0  0  0
 11 12  1  0  0  0  0
 11 30  1  0  0  0  0
 11 31  1  0  0  0  0
 12 13  1  0  0  0  0
 12 32  1  0  0  0  0
 12 33  1  0  0  0  0
 13 20  1  0  0  0  0
 13 14  1  0  0  0  0
 13 47  1  0  0  0  0
 14 15  1  0  0  0  0
 14 34  1  0  0  0  0
 14 35  1  0  0  0  0
 15 16  1  0  0  0  0
 15 17  1  0  0  0  0
 15 36  1  0  0  0  0
 16 37  1  0  0  0  0
 16 38  1  0  0  0  0
 16 39  1  0  0  0  0
 17 18  1  0  0  0  0
 18 19  1  0  0  0  0
 18 20  1  0  0  0  0
 18 40  1  0  0  0  0
 19 41  1  0  0  0  0
 19 42  1  0  0  0  0
 19 43  1  0  0  0  0
 20 44  1  0  0  0  0
 20 45  1  0  0  0  0
 21 22  2  0  0  0  0
 21 46  1  0  0  0  0
M  CHG  1  13   1
M  END
> <s_m_source_file>
AV-unprocessed.smi

> <i_m_source_file_index>
1430

> <i_lp_mmshare_version>
43012

> <i_f3d_flags>
0

> <s_epik_input>
W0NIM11PYzFbY0hdW2NIXWMoW2NIXW4xKVtOSF1DKD1PKVtOSF1bQ0gyXVtDSDJdTjJbQ0gyXVtDQEBIXShbQ0gzXSlPW0NAQEhdKFtDSDNdKVtDSDJdMg==

> <s_epik_cmdline>
J2VwaWtfcHl0aG9uJywgJy1waCcsICc3LjAnLCAnLXRuJywgJzgnLCAnLW1hJywgJzIwMCcsICctbWV0YWxfYmluZGluZycsICctaW1hZScsICc8aW5maWxlLm1hZT4nLCAnLW9tYWUnLCAnPG91dGZpbGUubWFlPic=

> <r_lp_tautomer_probability>
1

> <r_epik_Ionization_Penalty>
0.602607

> <r_epik_Ionization_Penalty_Charging>
0.602531

> <r_epik_Ionization_Penalty_Neutral>
7.66983e-05

> <r_epik_State_Penalty>
0.617039

> <r_epik_Charging_Adjusted_Penalty>
1.21957

> <i_epik_Tot_Q>
1

> <i_epik_Tot_abs_Q>
1

> <r_epik_Metal_State_Penalty>
0.617043

> <b_epik_Metal_Only>
0

> <s_lp_Force_Field>
OPLS_2005

> <r_lp_Energy>
19.3268

> <b_lp_Chiralities_Consistent>
1

> <s_lp_Variant>
AV-unprocessed.smi:1430-7

> <Gold.Version>
5.8.1

> <Gold.Id.Protein>
6NUR|6NUR_protein|mol2

> <Gold.PLP.Fitness>
45.3276

> <Gold.PLP.PLP>
-34.3912

> <Gold.PLP.part.hbond>
-5.1122

> <Gold.PLP.part.metal>
0.0000

> <Gold.PLP.part.buried>
-0.9154

> <Gold.PLP.part.nonpolar>
-27.4867

> <Gold.PLP.part.repulsive>
0.5143

> <Gold.PLP.ligand.clash>
0.0000

> <Gold.PLP.ligand.torsion>
0.2061

> <Gold.PLP.Chemscore.Hbond>
3.7648

> <Gold.PLP.Chemscore.CHOScore>
0.0000

> <Gold.PLP.Chemscore.Metal>
0.0000

> <Gold.Chemscore.Hbonds>
donor molecule, donor type, donor heavy atom, donor atom, acceptor molecule, acceptor atom, score
      L1  H     7    28       P1  7949  0.31
      L1  H    13    47       P1  7948  0.85

> <Gold.PLP.Chemscore.Internal.Correction>
0.0542

> <Gold.Rescore>
     Score         DG    S(hbond)    S(metal)    S(lipo)     H(rot)  DE(clash)    DE(int)     intcor
     13.64     -15.19       1.53        0.00      77.88       1.76       0.33       1.21       ----

> <Gold.Chemscore.Fitness>
13.6443

> <Gold.Chemscore.DG>
-15.1890

> <Gold.Chemscore.ZeroCoef>
-5.4800

> <Gold.Chemscore.Hbond>
1.5281

> <Gold.Chemscore.Metal>
0.0000

> <Gold.Chemscore.Lipo>
77.8823

> <Gold.Chemscore.Internal_Hbond>
0.0000

> <Gold.Chemscore.DEClash>
0.3302

> <Gold.Chemscore.DEInternal>
1.2145

> <Gold.Chemscore.Rot>
1.7606

> <Gold.Chemscore.Internal.Correction>
   9.000000E+99

> <Gold.Chemscore.Hbonds>
donor molecule, donor type, donor heavy atom, donor atom, acceptor molecule, acceptor atom, score
      L1  H     7    28       P1  7949  0.01
      L1  H    13    47       P1  7948  0.42

> <Gold.Chemscore.Hbond.Weighted>
-5.1040

> <Gold.Chemscore.Metal.Weighted>
-0.0000

> <Gold.Chemscore.Lipo.Weighted>
-9.1122

> <Gold.Chemscore.Internal_Hbond.Weighted>
0.0000

> <Gold.Chemscore.DEClash.Weighted>
0.3302

> <Gold.Chemscore.DEInternal.Weighted>
1.2145

> <Gold.Chemscore.Rot.Weighted>
4.5072

> <Gold.Chemscore.Internal.Correction.Weighted>
   9.000000E+99

> <Gold.Protein.RotatedTorsions>
[ 6907 6896 6895 6894 ] final   93.38 input  -60.11 | X-H torsion
[ 7974 7965 7964 7962 ] final   55.83 input  175.53 | X-H torsion
[ 8008 7997 7996 7995 ] final   40.20 input   59.86 | X-H torsion
[ 10167 10162 10161 10158 ] final  110.86 input  -65.29 | X-H torsion
[ 10718 10713 10712 10709 ] final  -62.23 input   66.30 | X-H torsion
[ 10763 10752 10751 10750 ] final -123.08 input  -60.55 | X-H torsion
[ 11005 11000 10999 10996 ] final  -18.01 input  -57.11 | X-H torsion

> <Gold.Protein.ActiveResidues>
 VAL166  LYS551  ARG553  GLY616  TRP617  ASP618  TYR619  PRO620  LYS621  CYS622 
 ASP623  PHE694  ASN695  SER759  ASP760  ASP761  ALA762  ILE779  LEU786  VAL792 
 PHE793  MET794  SER795  GLU796  ALA797  LYS798  CYS799  TRP800  GLU811  SER814 

> <Gold.Protein.RotatedAtoms>
  152.5452  134.1357  159.8457 H   0  0  0  0  0  0  0  0  0  0  0  0  # atno 6907 bound_to 6896
  151.1398  133.4972  159.2604 H   0  0  0  0  0  0  0  0  0  0  0  0  # atno 6908 bound_to 6896
  151.1585  135.0272  159.8754 H   0  0  0  0  0  0  0  0  0  0  0  0  # atno 6909 bound_to 6896
  145.9462  139.3932  143.0333 H   0  0  0  0  0  0  0  0  0  0  0  0  # atno 7974 bound_to 7965
  155.2492  140.3351  155.4284 H   0  0  0  0  0  0  0  0  0  0  0  0  # atno 8008 bound_to 7997
  156.2223  140.1814  156.7492 H   0  0  0  0  0  0  0  0  0  0  0  0  # atno 8009 bound_to 7997
  154.5844  140.0648  156.9135 H   0  0  0  0  0  0  0  0  0  0  0  0  # atno 8010 bound_to 7997
  139.6656  144.7127  151.1783 H   0  0  0  0  0  0  0  0  0  0  0  0  # atno 10167 bound_to 10162
  156.0869  130.4207  150.1106 H   0  0  0  0  0  0  0  0  0  0  0  0  # atno 10718 bound_to 10713
  154.8701  135.4111  154.2885 H   0  0  0  0  0  0  0  0  0  0  0  0  # atno 10763 bound_to 10752
  153.3765  135.7010  153.6603 H   0  0  0  0  0  0  0  0  0  0  0  0  # atno 10764 bound_to 10752
  153.5443  135.3641  155.2704 H   0  0  0  0  0  0  0  0  0  0  0  0  # atno 10765 bound_to 10752
  140.8225  133.8057  155.9674 H   0  0  0  0  0  0  0  0  0  0  0  0  # atno 11005 bound_to 11000
  145.8233  140.9668  143.0887 LP  0  0  0  0  0  0  0  0  0  0  0  0  # atno 17320 bound_to 7965
  144.6787  140.0069  143.7484 LP  0  0  0  0  0  0  0  0  0  0  0  0  # atno 17321 bound_to 7965
  140.7598  143.5925  150.8782 LP  0  0  0  0  0  0  0  0  0  0  0  0  # atno 17342 bound_to 10162
  139.9586  143.6189  152.3009 LP  0  0  0  0  0  0  0  0  0  0  0  0  # atno 17343 bound_to 10162
  156.9125  130.9656  151.3561 LP  0  0  0  0  0  0  0  0  0  0  0  0  # atno 17370 bound_to 10713
  157.6006  130.8509  149.8796 LP  0  0  0  0  0  0  0  0  0  0  0  0  # atno 17371 bound_to 10713
  140.9084  134.2291  157.5000 LP  0  0  0  0  0  0  0  0  0  0  0  0  # atno 17394 bound_to 11000
  139.8708  134.9739  156.4825 LP  0  0  0  0  0  0  0  0  0  0  0  0  # atno 17395 bound_to 11000

$$$$
