AV-unprocessed.smi:633|AV-procd|sdf|3131|dock5
  -GOLD-   22720 0 53D 1   1.00000     0.00000
 Structure written by MMmdl.
 53 56  0  0  0  0  0  0  0  0  1 V2000
  151.2722  145.2164  158.8596 C   0  0  0  0  0  0  0  0  0  0  0  0
  151.9216  143.9102  158.3910 C   0  0  2  0  0  0  0  0  0  0  0  0
  150.9245  143.0009  157.6483 C   0  0  0  0  0  0  0  0  0  0  0  0
  151.5495  141.7222  157.3173 N   0  0  0  0  0  0  0  0  0  0  0  0
  150.8720  140.8652  156.4235 C   0  0  0  0  0  0  0  0  0  0  0  0
  151.5930  139.8955  155.6887 C   0  0  0  0  0  0  0  0  0  0  0  0
  150.9025  139.0426  154.8068 C   0  0  0  0  0  0  0  0  0  0  0  0
  149.4992  139.1745  154.6820 C   0  0  0  0  0  0  0  0  0  0  0  0
  148.6792  138.3850  153.8282 N   0  0  0  0  0  0  0  0  0  0  0  0
  147.3485  138.4333  153.6407 C   0  0  0  0  0  0  0  0  0  0  0  0
  146.5760  139.2139  154.1952 O   0  0  0  0  0  0  0  0  0  0  0  0
  146.9541  137.5116  152.7503 N   0  0  0  0  0  0  0  0  0  0  0  0
  145.5779  137.2748  152.3249 C   0  0  0  0  0  0  0  0  0  0  0  0
  144.7054  136.7594  153.4574 C   0  0  0  0  0  0  0  0  0  0  0  0
  143.2002  136.8791  153.4094 C   0  0  0  0  0  0  0  0  0  0  0  0
  143.9941  137.7070  154.3942 C   0  0  0  0  0  0  0  0  0  0  0  0
  145.5138  136.3339  151.1358 C   0  0  0  0  0  0  0  0  0  0  0  0
  144.3754  135.3545  150.9794 C   0  0  0  0  0  0  0  0  0  0  0  0
  145.7684  134.8528  151.2884 C   0  0  0  0  0  0  0  0  0  0  0  0
  148.8719  140.1802  155.4446 C   0  0  0  0  0  0  0  0  0  0  0  0
  149.5303  141.0017  156.2890 N   0  0  0  0  0  0  0  0  0  0  0  0
  152.1626  141.0655  158.4685 C   0  0  0  0  0  0  0  0  0  0  0  0
  153.1201  142.0305  159.1935 C   0  0  2  0  0  0  0  0  0  0  0  0
  153.6859  141.4208  160.4805 C   0  0  0  0  0  0  0  0  0  0  0  0
  152.4171  143.2218  159.5360 O   0  0  0  0  0  0  0  0  0  0  0  0
  150.8857  145.7874  158.0151 H   0  0  0  0  0  0  0  0  0  0  0  0
  151.9939  145.8442  159.3827 H   0  0  0  0  0  0  0  0  0  0  0  0
  150.4433  145.0226  159.5410 H   0  0  0  0  0  0  0  0  0  0  0  0
  152.7564  144.1559  157.7320 H   0  0  0  0  0  0  0  0  0  0  0  0
  150.0446  142.8215  158.2679 H   0  0  0  0  0  0  0  0  0  0  0  0
  150.5871  143.4993  156.7385 H   0  0  0  0  0  0  0  0  0  0  0  0
  152.6654  139.8066  155.7792 H   0  0  0  0  0  0  0  0  0  0  0  0
  151.4709  138.3196  154.2447 H   0  0  0  0  0  0  0  0  0  0  0  0
  149.1761  137.7109  153.2641 H   0  0  0  0  0  0  0  0  0  0  0  0
  147.6601  136.9169  152.3417 H   0  0  0  0  0  0  0  0  0  0  0  0
  145.1525  138.2242  151.9931 H   0  0  0  0  0  0  0  0  0  0  0  0
  145.0862  135.8468  153.9130 H   0  0  0  0  0  0  0  0  0  0  0  0
  142.7543  137.4024  152.5662 H   0  0  0  0  0  0  0  0  0  0  0  0
  142.6181  136.0488  153.8036 H   0  0  0  0  0  0  0  0  0  0  0  0
  143.9431  137.4289  155.4449 H   0  0  0  0  0  0  0  0  0  0  0  0
  144.0765  138.7742  154.1984 H   0  0  0  0  0  0  0  0  0  0  0  0
  145.8800  136.7788  150.2122 H   0  0  0  0  0  0  0  0  0  0  0  0
  143.6357  135.3072  151.7763 H   0  0  0  0  0  0  0  0  0  0  0  0
  143.9906  135.1888  149.9753 H   0  0  0  0  0  0  0  0  0  0  0  0
  146.3119  134.3522  150.4899 H   0  0  0  0  0  0  0  0  0  0  0  0
  145.9483  134.4650  152.2890 H   0  0  0  0  0  0  0  0  0  0  0  0
  147.8040  140.3315  155.3796 H   0  0  0  0  0  0  0  0  0  0  0  0
  151.3720  140.7404  159.1462 H   0  0  0  0  0  0  0  0  0  0  0  0
  152.7128  140.1727  158.1742 H   0  0  0  0  0  0  0  0  0  0  0  0
  153.9531  142.2836  158.5352 H   0  0  0  0  0  0  0  0  0  0  0  0
  154.2461  140.5093  160.2701 H   0  0  0  0  0  0  0  0  0  0  0  0
  152.8893  141.1704  161.1815 H   0  0  0  0  0  0  0  0  0  0  0  0
  154.3601  142.1183  160.9778 H   0  0  0  0  0  0  0  0  0  0  0  0
  1  2  1  0  0  0  0
  1 26  1  0  0  0  0
  1 27  1  0  0  0  0
  1 28  1  0  0  0  0
  2 25  1  0  0  0  0
  2  3  1  0  0  0  0
  2 29  1  0  0  0  0
  3  4  1  0  0  0  0
  3 30  1  0  0  0  0
  3 31  1  0  0  0  0
  4  5  1  0  0  0  0
  4 22  1  0  0  0  0
  5 21  1  0  0  0  0
  5  6  2  0  0  0  0
  6  7  1  0  0  0  0
  6 32  1  0  0  0  0
  7  8  2  0  0  0  0
  7 33  1  0  0  0  0
  8  9  1  0  0  0  0
  8 20  1  0  0  0  0
  9 10  1  0  0  0  0
  9 34  1  0  0  0  0
 10 11  2  0  0  0  0
 10 12  1  0  0  0  0
 12 13  1  0  0  0  0
 12 35  1  0  0  0  0
 13 14  1  0  0  0  0
 13 17  1  0  0  0  0
 13 36  1  0  0  0  0
 14 16  1  0  0  0  0
 14 15  1  0  0  0  0
 14 37  1  0  0  0  0
 15 16  1  0  0  0  0
 15 38  1  0  0  0  0
 15 39  1  0  0  0  0
 16 40  1  0  0  0  0
 16 41  1  0  0  0  0
 17 19  1  0  0  0  0
 17 18  1  0  0  0  0
 17 42  1  0  0  0  0
 18 19  1  0  0  0  0
 18 43  1  0  0  0  0
 18 44  1  0  0  0  0
 19 45  1  0  0  0  0
 19 46  1  0  0  0  0
 20 21  2  0  0  0  0
 20 47  1  0  0  0  0
 22 23  1  0  0  0  0
 22 48  1  0  0  0  0
 22 49  1  0  0  0  0
 23 24  1  0  0  0  0
 23 25  1  0  0  0  0
 23 50  1  0  0  0  0
 24 51  1  0  0  0  0
 24 52  1  0  0  0  0
 24 53  1  0  0  0  0
M  END
> <s_m_source_file>
AV-unprocessed.smi

> <i_m_source_file_index>
633

> <i_lp_mmshare_version>
43012

> <i_f3d_flags>
0

> <s_epik_input>
W0NIM11bQ0BASF0xW0NIMl1OKFtDSDJdW0NASF0oTzEpW0NIM10pYzJbY0hdW2NIXWMoW2NIXW4yKVtOSF1DKD1PKVtOSF1bQ0hdKFtDSF0zW0NIMl1bQ0gyXTMpW0NIXTRbQ0gyXVtDSDJdNA==

> <s_epik_cmdline>
J2VwaWtfcHl0aG9uJywgJy1waCcsICc3LjAnLCAnLXRuJywgJzgnLCAnLW1hJywgJzIwMCcsICctbWV0YWxfYmluZGluZycsICctaW1hZScsICc8aW5maWxlLm1hZT4nLCAnLW9tYWUnLCAnPG91dGZpbGUubWFlPic=

> <r_lp_tautomer_probability>
1

> <r_epik_Ionization_Penalty>
0.00291159

> <r_epik_Ionization_Penalty_Charging>
0

> <r_epik_Ionization_Penalty_Neutral>
0.00291159

> <r_epik_State_Penalty>
0.00200877

> <r_epik_Charging_Adjusted_Penalty>
0.00200877

> <i_epik_Tot_Q>
0

> <i_epik_Tot_abs_Q>
0

> <r_epik_Metal_State_Penalty>
-0

> <b_epik_Metal_Only>
0

> <s_lp_Force_Field>
OPLS_2005

> <r_lp_Energy>
40.0006

> <b_lp_Chiralities_Consistent>
1

> <s_lp_Variant>
AV-unprocessed.smi:633-2

> <Gold.Version>
5.8.1

> <Gold.Id.Protein>
6NUR|6NUR_protein|mol2

> <Gold.PLP.Fitness>
51.4456

> <Gold.PLP.PLP>
-46.3359

> <Gold.PLP.part.hbond>
-2.3285

> <Gold.PLP.part.metal>
0.0000

> <Gold.PLP.part.buried>
-4.3550

> <Gold.PLP.part.nonpolar>
-41.1271

> <Gold.PLP.part.repulsive>
0.3098

> <Gold.PLP.ligand.clash>
0.0000

> <Gold.PLP.ligand.torsion>
1.5339

> <Gold.PLP.Chemscore.Hbond>
1.9033

> <Gold.PLP.Chemscore.CHOScore>
0.0000

> <Gold.PLP.Chemscore.Metal>
0.0000

> <Gold.Chemscore.Hbonds>
donor molecule, donor type, donor heavy atom, donor atom, acceptor molecule, acceptor atom, score
      L1  H     9    34       P1  7948  0.91
      L1  H    12    35       P1  7948  1.00

> <Gold.PLP.Chemscore.Internal.Correction>
2.4677

> <Gold.Rescore>
     Score         DG    S(hbond)    S(metal)    S(lipo)     H(rot)  DE(clash)    DE(int)     intcor
     18.39     -21.92       1.93        0.00     116.03       1.40       0.05       3.48       ----

> <Gold.Chemscore.Fitness>
18.3884

> <Gold.Chemscore.DG>
-21.9212

> <Gold.Chemscore.ZeroCoef>
-5.4800

> <Gold.Chemscore.Hbond>
1.9329

> <Gold.Chemscore.Metal>
0.0000

> <Gold.Chemscore.Lipo>
116.0266

> <Gold.Chemscore.Internal_Hbond>
0.0000

> <Gold.Chemscore.DEClash>
0.0531

> <Gold.Chemscore.DEInternal>
3.4797

> <Gold.Chemscore.Rot>
1.4022

> <Gold.Chemscore.Internal.Correction>
   9.000000E+99

> <Gold.Chemscore.Hbonds>
donor molecule, donor type, donor heavy atom, donor atom, acceptor molecule, acceptor atom, score
      L1  H     9    34       P1  7948  0.82
      L1  H    12    35       P1  7948  0.93

> <Gold.Chemscore.Hbond.Weighted>
-6.4557

> <Gold.Chemscore.Metal.Weighted>
-0.0000

> <Gold.Chemscore.Lipo.Weighted>
-13.5751

> <Gold.Chemscore.Internal_Hbond.Weighted>
0.0000

> <Gold.Chemscore.DEClash.Weighted>
0.0531

> <Gold.Chemscore.DEInternal.Weighted>
3.4797

> <Gold.Chemscore.Rot.Weighted>
3.5897

> <Gold.Chemscore.Internal.Correction.Weighted>
   9.000000E+99

> <Gold.Protein.RotatedTorsions>
[ 6907 6896 6895 6894 ] final  -53.41 input  -60.11 | X-H torsion
[ 7974 7965 7964 7962 ] final -151.28 input  175.53 | X-H torsion
[ 8008 7997 7996 7995 ] final  168.74 input   59.86 | X-H torsion
[ 10167 10162 10161 10158 ] final   95.85 input  -65.29 | X-H torsion
[ 10718 10713 10712 10709 ] final    2.64 input   66.30 | X-H torsion
[ 10763 10752 10751 10750 ] final -119.20 input  -60.55 | X-H torsion
[ 11005 11000 10999 10996 ] final  -22.12 input  -57.11 | X-H torsion

> <Gold.Protein.ActiveResidues>
 VAL166  LYS551  ARG553  GLY616  TRP617  ASP618  TYR619  PRO620  LYS621  CYS622 
 ASP623  PHE694  ASN695  SER759  ASP760  ASP761  ALA762  ILE779  LEU786  VAL792 
 PHE793  MET794  SER795  GLU796  ALA797  LYS798  CYS799  TRP800  GLU811  SER814 

> <Gold.Protein.RotatedAtoms>
  150.8429  134.7728  159.6946 H   0  0  0  0  0  0  0  0  0  0  0  0  # atno 6907 bound_to 6896
  152.4512  134.5385  159.9842 H   0  0  0  0  0  0  0  0  0  0  0  0  # atno 6908 bound_to 6896
  151.5521  133.3378  159.2991 H   0  0  0  0  0  0  0  0  0  0  0  0  # atno 6909 bound_to 6896
  144.7859  140.4819  143.5807 H   0  0  0  0  0  0  0  0  0  0  0  0  # atno 7974 bound_to 7965
  156.1520  140.1582  156.8755 H   0  0  0  0  0  0  0  0  0  0  0  0  # atno 8008 bound_to 7997
  154.5079  140.0808  156.7969 H   0  0  0  0  0  0  0  0  0  0  0  0  # atno 8009 bound_to 7997
  155.3878  140.3408  155.4252 H   0  0  0  0  0  0  0  0  0  0  0  0  # atno 8010 bound_to 7997
  139.7950  144.6837  150.9841 H   0  0  0  0  0  0  0  0  0  0  0  0  # atno 10167 bound_to 10162
  156.8661  130.5603  149.5660 H   0  0  0  0  0  0  0  0  0  0  0  0  # atno 10718 bound_to 10713
  154.8610  135.4247  154.2261 H   0  0  0  0  0  0  0  0  0  0  0  0  # atno 10763 bound_to 10752
  153.3256  135.6985  153.6998 H   0  0  0  0  0  0  0  0  0  0  0  0  # atno 10764 bound_to 10752
  153.6036  135.3532  155.2927 H   0  0  0  0  0  0  0  0  0  0  0  0  # atno 10765 bound_to 10752
  140.8626  133.7777  156.0093 H   0  0  0  0  0  0  0  0  0  0  0  0  # atno 11005 bound_to 11000
  145.5924  139.1497  143.3175 LP  0  0  0  0  0  0  0  0  0  0  0  0  # atno 17320 bound_to 7965
  146.2090  140.6049  142.9068 LP  0  0  0  0  0  0  0  0  0  0  0  0  # atno 17321 bound_to 7965
  140.7820  143.4341  151.0650 LP  0  0  0  0  0  0  0  0  0  0  0  0  # atno 17342 bound_to 10162
  139.8016  143.8076  152.3163 LP  0  0  0  0  0  0  0  0  0  0  0  0  # atno 17343 bound_to 10162
  156.0751  130.5775  150.9458 LP  0  0  0  0  0  0  0  0  0  0  0  0  # atno 17370 bound_to 10713
  157.6222  131.0928  150.8600 LP  0  0  0  0  0  0  0  0  0  0  0  0  # atno 17371 bound_to 10713
  140.8665  134.2778  157.5211 LP  0  0  0  0  0  0  0  0  0  0  0  0  # atno 17394 bound_to 11000
  139.8707  134.9545  156.4178 LP  0  0  0  0  0  0  0  0  0  0  0  0  # atno 17395 bound_to 11000

$$$$
