AV-unprocessed.smi:3253|AV-procd|sdf|12450|dock9
  -GOLD-   2272018343D 1   1.00000     0.00000
 Structure written by MMmdl.
 36 37  0  0  0  0  0  0  0  0  1 V2000
  154.1366  140.6607  160.8509 C   0  0  0  0  0  0  0  0  0  0  0  0
  153.1151  141.6644  160.2993 C   0  0  1  0  0  0  0  0  0  0  0  0
  153.8014  142.7574  159.4522 C   0  0  0  0  0  0  0  0  0  0  0  0
  152.9255  143.8800  159.1693 N   0  0  0  0  0  0  0  0  0  0  0  0
  152.4641  144.2921  157.9256 C   0  0  0  0  0  0  0  0  0  0  0  0
  151.6570  145.3846  158.1480 C   0  0  0  0  0  0  0  0  0  0  0  0
  151.6140  145.6658  159.5114 N   0  0  0  0  0  0  0  0  0  0  0  0
  152.3899  144.7349  160.0513 C   0  0  0  0  0  0  0  0  0  0  0  0
  152.1202  140.9431  159.5065 N   0  0  0  0  0  0  0  0  0  0  0  0
  152.3778  139.9436  158.6478 C   0  0  0  0  0  0  0  0  0  0  0  0
  153.5144  139.5409  158.3978 O   0  0  0  0  0  0  0  0  0  0  0  0
  151.1607  139.2824  157.9841 C   0  0  2  0  0  0  0  0  0  0  0  0
  151.1100  137.7722  158.2939 C   0  0  0  0  0  0  0  0  0  0  0  0
  151.3679  137.1120  156.9500 C   0  0  0  0  0  0  0  0  0  0  0  0
  151.4993  135.8962  156.8171 O   0  0  0  0  0  0  0  0  0  0  0  0
  151.4354  138.0227  155.9752 N   0  0  0  0  0  0  0  0  0  0  0  0
  151.6840  137.7471  154.5667 C   0  0  0  0  0  0  0  0  0  0  0  0
  151.2005  139.3779  156.4430 C   0  0  0  0  0  0  0  0  0  0  0  0
  154.8805  141.1599  161.4723 H   0  0  0  0  0  0  0  0  0  0  0  0
  154.6655  140.1477  160.0467 H   0  0  0  0  0  0  0  0  0  0  0  0
  153.6499  139.9036  161.4666 H   0  0  0  0  0  0  0  0  0  0  0  0
  152.6348  142.1374  161.1580 H   0  0  0  0  0  0  0  0  0  0  0  0
  154.6776  143.1423  159.9755 H   0  0  0  0  0  0  0  0  0  0  0  0
  154.1590  142.3437  158.5081 H   0  0  0  0  0  0  0  0  0  0  0  0
  152.7336  143.7833  157.0120 H   0  0  0  0  0  0  0  0  0  0  0  0
  151.1084  145.9854  157.4376 H   0  0  0  0  0  0  0  0  0  0  0  0
  152.5677  144.6688  161.1148 H   0  0  0  0  0  0  0  0  0  0  0  0
  151.1552  141.2060  159.6448 H   0  0  0  0  0  0  0  0  0  0  0  0
  150.2520  139.7631  158.3505 H   0  0  0  0  0  0  0  0  0  0  0  0
  151.8522  137.4480  159.0256 H   0  0  0  0  0  0  0  0  0  0  0  0
  150.1261  137.4786  158.6610 H   0  0  0  0  0  0  0  0  0  0  0  0
  151.0037  136.9789  154.1973 H   0  0  0  0  0  0  0  0  0  0  0  0
  152.7073  137.3991  154.4233 H   0  0  0  0  0  0  0  0  0  0  0  0
  151.5417  138.6424  153.9608 H   0  0  0  0  0  0  0  0  0  0  0  0
  150.2463  139.7343  156.0527 H   0  0  0  0  0  0  0  0  0  0  0  0
  151.9781  140.0496  156.0743 H   0  0  0  0  0  0  0  0  0  0  0  0
  1  2  1  0  0  0  0
  1 19  1  0  0  0  0
  1 20  1  0  0  0  0
  1 21  1  0  0  0  0
  2  3  1  0  0  0  0
  2  9  1  0  0  0  0
  2 22  1  0  0  0  0
  3  4  1  0  0  0  0
  3 23  1  0  0  0  0
  3 24  1  0  0  0  0
  4  8  1  0  0  0  0
  4  5  1  0  0  0  0
  5  6  2  0  0  0  0
  5 25  1  0  0  0  0
  6  7  1  0  0  0  0
  6 26  1  0  0  0  0
  7  8  2  0  0  0  0
  8 27  1  0  0  0  0
  9 10  1  0  0  0  0
  9 28  1  0  0  0  0
 10 11  2  0  0  0  0
 10 12  1  0  0  0  0
 12 18  1  0  0  0  0
 12 13  1  0  0  0  0
 12 29  1  0  0  0  0
 13 14  1  0  0  0  0
 13 30  1  0  0  0  0
 13 31  1  0  0  0  0
 14 15  2  0  0  0  0
 14 16  1  0  0  0  0
 16 17  1  0  0  0  0
 16 18  1  0  0  0  0
 17 32  1  0  0  0  0
 17 33  1  0  0  0  0
 17 34  1  0  0  0  0
 18 35  1  0  0  0  0
 18 36  1  0  0  0  0
M  END
> <s_m_source_file>
AV-unprocessed.smi

> <i_m_source_file_index>
3253

> <i_lp_mmshare_version>
43012

> <i_f3d_flags>
0

> <s_epik_input>
W2NIXTFuW2NIXVtjSF1uMVtDSDJdW0NAQEhdKFtDSDNdKVtOSF1DKD1PKVtDQEBIXTJbQ0gyXUMoPU8pTihbQ0gzXSlbQ0gyXTI=

> <s_epik_cmdline>
J2VwaWtfcHl0aG9uJywgJy1waCcsICc3LjAnLCAnLXRuJywgJzgnLCAnLW1hJywgJzIwMCcsICctbWV0YWxfYmluZGluZycsICctaW1hZScsICc8aW5maWxlLm1hZT4nLCAnLW9tYWUnLCAnPG91dGZpbGUubWFlPic=

> <r_lp_tautomer_probability>
1

> <r_epik_Ionization_Penalty>
0.628884

> <r_epik_Ionization_Penalty_Charging>
0.628884

> <r_epik_Ionization_Penalty_Neutral>
2.35084e-08

> <r_epik_State_Penalty>
0.64556

> <r_epik_Charging_Adjusted_Penalty>
1.27444

> <i_epik_Tot_Q>
0

> <i_epik_Tot_abs_Q>
0

> <r_epik_Metal_State_Penalty>
0.308736

> <b_epik_Metal_Only>
0

> <s_lp_Force_Field>
OPLS_2005

> <r_lp_Energy>
12.6473

> <b_lp_Chiralities_Consistent>
1

> <s_lp_Variant>
AV-unprocessed.smi:3253-6

> <Gold.Version>
5.8.1

> <Gold.Id.Protein>
6NUR|6NUR_protein|mol2

> <Gold.PLP.Fitness>
47.4600

> <Gold.PLP.PLP>
-39.1874

> <Gold.PLP.part.hbond>
-2.0761

> <Gold.PLP.part.metal>
0.0000

> <Gold.PLP.part.buried>
-4.5282

> <Gold.PLP.part.nonpolar>
-32.3040

> <Gold.PLP.part.repulsive>
0.3508

> <Gold.PLP.ligand.clash>
0.0000

> <Gold.PLP.ligand.torsion>
0.3741

> <Gold.PLP.Chemscore.Hbond>
2.0000

> <Gold.PLP.Chemscore.CHOScore>
1.0000

> <Gold.PLP.Chemscore.Metal>
0.0000

> <Gold.Chemscore.Hbonds>
donor molecule, donor type, donor heavy atom, donor atom, acceptor molecule, acceptor atom, score
      P1  H  7997  8008       L1    11  1.00

> <Gold.PLP.Chemscore.Internal.Correction>
0.0207

> <Gold.Rescore>
     Score         DG    S(hbond)    S(metal)    S(lipo)     H(rot)  DE(clash)    DE(int)     intcor
     14.88     -16.36       1.99        0.00      79.29       1.97       0.06       1.42       ----

> <Gold.Chemscore.Fitness>
14.8760

> <Gold.Chemscore.DG>
-16.3593

> <Gold.Chemscore.ZeroCoef>
-5.4800

> <Gold.Chemscore.Hbond>
1.9871

> <Gold.Chemscore.Metal>
0.0000

> <Gold.Chemscore.Lipo>
79.2948

> <Gold.Chemscore.Internal_Hbond>
0.0000

> <Gold.Chemscore.DEClash>
0.0588

> <Gold.Chemscore.DEInternal>
1.4245

> <Gold.Chemscore.Rot>
1.9669

> <Gold.Chemscore.Internal.Correction>
   9.000000E+99

> <Gold.Chemscore.Hbonds>
donor molecule, donor type, donor heavy atom, donor atom, acceptor molecule, acceptor atom, score
      P1  H  7997  8008       L1    11  0.97
      P1  H 10752 10763       L1    15  0.03

> <Gold.Chemscore.Hbond.Weighted>
-6.6370

> <Gold.Chemscore.Metal.Weighted>
-0.0000

> <Gold.Chemscore.Lipo.Weighted>
-9.2775

> <Gold.Chemscore.Internal_Hbond.Weighted>
0.0000

> <Gold.Chemscore.DEClash.Weighted>
0.0588

> <Gold.Chemscore.DEInternal.Weighted>
1.4245

> <Gold.Chemscore.Rot.Weighted>
5.0352

> <Gold.Chemscore.Internal.Correction.Weighted>
   9.000000E+99

> <Gold.Protein.RotatedTorsions>
[ 6907 6896 6895 6894 ] final   59.20 input  -60.11 | X-H torsion
[ 7974 7965 7964 7962 ] final   49.32 input  175.53 | X-H torsion
[ 8008 7997 7996 7995 ] final  -77.10 input   59.86 | X-H torsion
[ 10167 10162 10161 10158 ] final  152.78 input  -65.29 | X-H torsion
[ 10718 10713 10712 10709 ] final   98.84 input   66.30 | X-H torsion
[ 10763 10752 10751 10750 ] final  103.60 input  -60.55 | X-H torsion
[ 11005 11000 10999 10996 ] final -105.19 input  -57.11 | X-H torsion

> <Gold.Protein.ActiveResidues>
 VAL166  LYS551  ARG553  GLY616  TRP617  ASP618  TYR619  PRO620  LYS621  CYS622 
 ASP623  PHE694  ASN695  SER759  ASP760  ASP761  ALA762  ILE779  LEU786  VAL792 
 PHE793  MET794  SER795  GLU796  ALA797  LYS798  CYS799  TRP800  GLU811  SER814 

> <Gold.Protein.RotatedAtoms>
  152.3893  134.6467  160.0113 H   0  0  0  0  0  0  0  0  0  0  0  0  # atno 6907 bound_to 6896
  151.6706  133.3308  159.3203 H   0  0  0  0  0  0  0  0  0  0  0  0  # atno 6908 bound_to 6896
  150.7812  134.6803  159.6485 H   0  0  0  0  0  0  0  0  0  0  0  0  # atno 6909 bound_to 6896
  146.0120  139.4554  142.9950 H   0  0  0  0  0  0  0  0  0  0  0  0  # atno 7974 bound_to 7965
  154.5565  140.0716  156.8751 H   0  0  0  0  0  0  0  0  0  0  0  0  # atno 8008 bound_to 7997
  155.2892  140.3377  155.4235 H   0  0  0  0  0  0  0  0  0  0  0  0  # atno 8009 bound_to 7997
  156.2006  140.1720  156.7892 H   0  0  0  0  0  0  0  0  0  0  0  0  # atno 8010 bound_to 7997
  139.4831  144.5329  151.7693 H   0  0  0  0  0  0  0  0  0  0  0  0  # atno 10167 bound_to 10162
  157.6888  131.0652  150.4858 H   0  0  0  0  0  0  0  0  0  0  0  0  # atno 10718 bound_to 10713
  153.3548  135.3971  155.1673 H   0  0  0  0  0  0  0  0  0  0  0  0  # atno 10763 bound_to 10752
  154.8669  135.3665  154.5176 H   0  0  0  0  0  0  0  0  0  0  0  0  # atno 10764 bound_to 10752
  153.5630  135.7080  153.5599 H   0  0  0  0  0  0  0  0  0  0  0  0  # atno 10765 bound_to 10752
  141.1065  133.8787  157.1704 H   0  0  0  0  0  0  0  0  0  0  0  0  # atno 11005 bound_to 11000
  145.7326  141.0037  143.1343 LP  0  0  0  0  0  0  0  0  0  0  0  0  # atno 17320 bound_to 7965
  144.6957  139.9003  143.7458 LP  0  0  0  0  0  0  0  0  0  0  0  0  # atno 17321 bound_to 7965
  140.4858  144.1383  150.5940 LP  0  0  0  0  0  0  0  0  0  0  0  0  # atno 17342 bound_to 10162
  140.4227  143.2604  151.9695 LP  0  0  0  0  0  0  0  0  0  0  0  0  # atno 17343 bound_to 10162
  156.5187  130.4156  149.6262 LP  0  0  0  0  0  0  0  0  0  0  0  0  # atno 17370 bound_to 10713
  156.3174  130.7262  151.2167 LP  0  0  0  0  0  0  0  0  0  0  0  0  # atno 17371 bound_to 10713
  139.9937  135.0055  157.0034 LP  0  0  0  0  0  0  0  0  0  0  0  0  # atno 17394 bound_to 11000
  140.4889  134.1213  155.7229 LP  0  0  0  0  0  0  0  0  0  0  0  0  # atno 17395 bound_to 11000

$$$$
