#       Name:                AV-unprocessed.smi:2026
#       Creating user name   scv26
#       Creation time:       Fri Mar 27 10:46:59 2020


#       File generated by GOLD software.
#

@<TRIPOS>MOLECULE
AV-unprocessed.smi:2026
    53    55     1
SMALL
NO_CHARGES


@<TRIPOS>ATOM
      1 ****        -4.6929   3.8110   2.5173 C.3            1 S1                 0.0000
      2 ****        -3.8378   2.9087   1.6439 C.ar           1 S1                 0.0000
      3 ****        -3.3676   3.4124   0.4104 C.ar           1 S1                 0.0000
      4 ****        -2.5918   2.5616  -0.3681 C.ar           1 S1                 0.0000
      5 ****        -1.9886   2.7587  -1.6121 N.pl3          1 S1                 1.0000
      6 ****        -1.3266   1.6271  -1.9798 C.2            1 S1                 0.0000
      7 ****        -1.4996   0.7097  -0.9902 N.pl3          1 S1                 0.0000
      8 ****        -0.9935  -0.6673  -0.8970 C.3            1 S1                 0.0000
      9 ****         0.4727  -0.7310  -0.4280 C.3            1 S1                 0.0000
     10 ****         0.5569  -0.1789   0.8714 O.3            1 S1                 0.0000
     11 ****         0.9917  -2.1832  -0.3880 C.3            1 S1                 0.0000
     12 ****         2.4541  -2.2464  -0.4822 N.am           1 S1                 0.0000
     13 ****         3.2949  -2.3437   0.5646 C.2            1 S1                 0.0000
     14 ****         2.8946  -2.3954   1.7271 O.2            1 S1                 0.0000
     15 ****         4.5839  -2.3725   0.1506 N.pl3          1 S1                -1.0000
     16 ****         4.6143  -2.2790  -1.2957 C.3            1 S1                 0.0000
     17 ****         5.3630  -1.0042  -1.7291 C.3            1 S1                 0.0000
     18 ****         5.2538  -3.5452  -1.8966 C.3            1 S1                 0.0000
     19 ****         3.1362  -2.1934  -1.6312 C.2            1 S1                 0.0000
     20 ****         2.6809  -2.0864  -2.7711 O.2            1 S1                 0.0000
     21 ****        -2.2793   1.2499   0.0399 C.ar           1 S1                 0.0000
     22 ****        -2.7302   0.7405   1.2560 C.ar           1 S1                 0.0000
     23 ****        -3.5214   1.5903   2.0621 C.ar           1 S1                 0.0000
     24 ****        -4.0285   1.0611   3.3928 C.3            1 S1                 0.0000
     25 ****        -4.8316   4.7923   2.0625 H              1 S1                 0.0000
     26 ****        -4.2252   3.9588   3.4910 H              1 S1                 0.0000
     27 ****        -5.6791   3.3720   2.6692 H              1 S1                 0.0000
     28 ****        -3.6022   4.4161   0.0868 H              1 S1                 0.0000
     29 ****        -0.7648   1.4821  -2.8913 H              1 S1                 0.0000
     30 ****        -1.6450  -1.2566  -0.2516 H              1 S1                 0.0000
     31 ****        -1.0802  -1.1019  -1.8937 H              1 S1                 0.0000
     32 ****         1.0818  -0.1284  -1.1035 H              1 S1                 0.0000
     33 ****         0.1454  -0.7747   1.4784 H              1 S1                 0.0000
     34 ****         0.6247  -2.7061   0.4970 H              1 S1                 0.0000
     35 ****         0.5816  -2.7390  -1.2331 H              1 S1                 0.0000
     36 ****         5.4116  -0.9247  -2.8158 H              1 S1                 0.0000
     37 ****         6.3877  -1.0033  -1.3554 H              1 S1                 0.0000
     38 ****         4.8771  -0.1016  -1.3547 H              1 S1                 0.0000
     39 ****         5.2904  -3.4903  -2.9851 H              1 S1                 0.0000
     40 ****         4.6967  -4.4455  -1.6320 H              1 S1                 0.0000
     41 ****         6.2766  -3.6767  -1.5418 H              1 S1                 0.0000
     42 ****        -2.4866  -0.2607   1.5789 H              1 S1                 0.0000
     43 ****        -3.7094   0.0322   3.5611 H              1 S1                 0.0000
     44 ****        -5.1181   1.0809   3.4232 H              1 S1                 0.0000
     45 ****        -3.6471   1.6668   4.2152 H              1 S1                 0.0000
     46 ****        -2.0229   3.6023  -2.1701 H              1 S1                 0.0000
     47 ****         0.0867   0.7034   0.8939 LP             1 S1                 0.0000
     48 ****         1.5166  -0.0517   1.1220 LP             1 S1                 0.0000
     49 ****         1.9138  -2.3653   1.9200 LP             1 S1                 0.0000
     50 ****         3.5501  -2.4674   2.4788 LP             1 S1                 0.0000
     51 ****         5.3843  -2.4462   0.7455 LP             1 S1                 0.0000
     52 ****         1.6925  -2.0284  -2.9114 LP             1 S1                 0.0000
     53 ****         3.2998  -2.0575  -3.5561 LP             1 S1                 0.0000
@<TRIPOS>BOND
    1    1    2 1     
    2    1   25 1     
    3    1   26 1     
    4    1   27 1     
    5    2   23 ar    
    6    2    3 ar    
    7    3    4 ar    
    8    3   28 1     
    9    4   21 ar    
   10    4    5 1     
   11    5    6 2     
   12    5   46 1     
   13    6    7 1     
   14    6   29 1     
   15    7    8 1     
   16    7   21 1     
   17    8    9 1     
   18    8   30 1     
   19    8   31 1     
   20    9   10 1     
   21    9   11 1     
   22    9   32 1     
   23   10   33 1     
   24   11   12 1     
   25   11   34 1     
   26   11   35 1     
   27   12   19 am    
   28   12   13 am    
   29   13   14 2     
   30   13   15 1     
   31   15   16 1     
   32   16   17 1     
   33   16   18 1     
   34   16   19 1     
   35   17   36 1     
   36   17   37 1     
   37   17   38 1     
   38   18   39 1     
   39   18   40 1     
   40   18   41 1     
   41   19   20 2     
   42   21   22 ar    
   43   22   23 ar    
   44   22   42 1     
   45   23   24 1     
   46   24   43 1     
   47   24   44 1     
   48   24   45 1     
   49   10   47 1     
   50   10   48 1     
   51   14   49 1     
   52   14   50 1     
   53   15   51 1     
   54   20   52 1     
   55   20   53 1     
@<TRIPOS>SUBSTRUCTURE
      1 S1             1
@<TRIPOS>SET
LONE_PAIRS      STATIC     ATOMS    <user>   **** ""
7 47 48 49 50 51 52 53
DONOR_HYDROGENS      STATIC     ATOMS    <user>   **** ""
2 46 33
ATOM$BLUE        STATIC     ATOMS    COLORGROUP SYSTEM
7 47 48 49 50 51 52 53
ATOM$RED        STATIC     ATOMS    COLORGROUP SYSTEM
2 46 33
