AV-unprocessed.smi:3189|AV-procd|sdf|12190|dock1
  -GOLD-   2272018 33D 1   1.00000     0.00000
 Structure written by MMmdl.
 30 31  0  0  0  0  0  0  0  0  1 V2000
  147.5182  139.2463  153.0749 C   0  0  0  0  0  0  0  0  0  0  0  0
  148.7909  139.5427  153.8457 C   0  0  0  0  0  0  0  0  0  0  0  0
  149.7313  138.5733  153.8175 N   0  0  0  0  0  0  0  0  0  0  0  0
  150.8797  138.7837  154.4928 C   0  0  0  0  0  0  0  0  0  0  0  0
  151.1483  139.9600  155.2186 C   0  0  0  0  0  0  0  0  0  0  0  0
  150.1705  140.9837  155.2394 C   0  0  0  0  0  0  0  0  0  0  0  0
  150.3196  142.2106  155.9445 N   0  0  0  0  0  0  0  0  0  0  0  0
  151.0811  142.5036  157.0173 C   0  0  0  0  0  0  0  0  0  0  0  0
  151.8092  141.7063  157.6043 O   0  0  0  0  0  0  0  0  0  0  0  0
  151.0291  143.7965  157.3841 N   0  0  0  0  0  0  0  0  0  0  0  0
  151.7184  144.4174  158.4743 C   0  0  1  0  0  0  0  0  0  0  0  0
  150.8835  145.2345  159.4347 C   0  0  0  0  0  0  0  0  0  0  0  0
  151.4541  143.9115  159.8764 C   0  0  2  0  0  0  0  0  0  0  0  0
  152.5665  143.8655  160.9013 C   0  0  0  0  0  0  0  0  0  0  0  0
  148.9585  140.7615  154.5440 C   0  0  0  0  0  0  0  0  0  0  0  0
  147.7060  141.9589  154.5447 Cl  0  0  0  0  0  0  0  0  0  0  0  0
  147.3344  140.0218  152.3309 H   0  0  0  0  0  0  0  0  0  0  0  0
  146.6658  139.2094  153.7537 H   0  0  0  0  0  0  0  0  0  0  0  0
  147.5781  138.2897  152.5541 H   0  0  0  0  0  0  0  0  0  0  0  0
  151.6067  137.9860  154.4584 H   0  0  0  0  0  0  0  0  0  0  0  0
  152.0856  140.0421  155.7454 H   0  0  0  0  0  0  0  0  0  0  0  0
  149.8294  142.9939  155.5372 H   0  0  0  0  0  0  0  0  0  0  0  0
  150.5009  144.4161  156.7864 H   0  0  0  0  0  0  0  0  0  0  0  0
  152.7070  144.8271  158.2703 H   0  0  0  0  0  0  0  0  0  0  0  0
  151.3305  146.1401  159.8404 H   0  0  0  0  0  0  0  0  0  0  0  0
  149.8093  145.2834  159.2659 H   0  0  0  0  0  0  0  0  0  0  0  0
  150.7431  143.0922  159.9668 H   0  0  0  0  0  0  0  0  0  0  0  0
  153.2578  144.6968  160.7604 H   0  0  0  0  0  0  0  0  0  0  0  0
  153.1222  142.9326  160.8058 H   0  0  0  0  0  0  0  0  0  0  0  0
  152.1519  143.9237  161.9077 H   0  0  0  0  0  0  0  0  0  0  0  0
  1  2  1  0  0  0  0
  1 17  1  0  0  0  0
  1 18  1  0  0  0  0
  1 19  1  0  0  0  0
  2 15  1  0  0  0  0
  2  3  2  0  0  0  0
  3  4  1  0  0  0  0
  4  5  2  0  0  0  0
  4 20  1  0  0  0  0
  5  6  1  0  0  0  0
  5 21  1  0  0  0  0
  6  7  1  0  0  0  0
  6 15  2  0  0  0  0
  7  8  1  0  0  0  0
  7 22  1  0  0  0  0
  8  9  2  0  0  0  0
  8 10  1  0  0  0  0
 10 11  1  0  0  0  0
 10 23  1  0  0  0  0
 11 13  1  0  0  0  0
 11 12  1  0  0  0  0
 11 24  1  0  0  0  0
 12 13  1  0  0  0  0
 12 25  1  0  0  0  0
 12 26  1  0  0  0  0
 13 14  1  0  0  0  0
 13 27  1  0  0  0  0
 14 28  1  0  0  0  0
 14 29  1  0  0  0  0
 14 30  1  0  0  0  0
 15 16  1  0  0  0  0
M  END
> <s_m_source_file>
AV-unprocessed.smi

> <i_m_source_file_index>
3189

> <i_lp_mmshare_version>
43012

> <i_f3d_flags>
0

> <s_epik_input>
W0NIM11jMW5bY0hdW2NIXWMoYzFDbClbTkhdQyg9TylbTkhdW0NAQEhdMltDSDJdW0NASF0yW0NIM10=

> <s_epik_cmdline>
J2VwaWtfcHl0aG9uJywgJy1waCcsICc3LjAnLCAnLXRuJywgJzgnLCAnLW1hJywgJzIwMCcsICctbWV0YWxfYmluZGluZycsICctaW1hZScsICc8aW5maWxlLm1hZT4nLCAnLW9tYWUnLCAnPG91dGZpbGUubWFlPic=

> <r_epik_Ionization_Penalty>
0.00994309

> <r_epik_Ionization_Penalty_Charging>
0

> <r_epik_Ionization_Penalty_Neutral>
0.00994309

> <r_epik_State_Penalty>
0.00754503

> <r_epik_Charging_Adjusted_Penalty>
0.00754503

> <i_epik_Tot_Q>
0

> <i_epik_Tot_abs_Q>
0

> <r_epik_Metal_State_Penalty>
0.00742071

> <b_epik_Metal_Only>
0

> <s_lp_Force_Field>
OPLS_2005

> <r_lp_Energy>
33.6012

> <b_lp_Chiralities_Consistent>
1

> <s_lp_Variant>
AV-unprocessed.smi:3189-4

> <Gold.Version>
5.8.1

> <Gold.Id.Protein>
6NUR|6NUR_protein|mol2

> <Gold.PLP.Fitness>
42.3189

> <Gold.PLP.PLP>
-36.6230

> <Gold.PLP.part.hbond>
-2.0000

> <Gold.PLP.part.metal>
0.0000

> <Gold.PLP.part.buried>
-2.1545

> <Gold.PLP.part.nonpolar>
-31.8964

> <Gold.PLP.part.repulsive>
0.3924

> <Gold.PLP.ligand.clash>
0.0000

> <Gold.PLP.ligand.torsion>
0.1701

> <Gold.PLP.Chemscore.Hbond>
2.0000

> <Gold.PLP.Chemscore.CHOScore>
0.0000

> <Gold.PLP.Chemscore.Metal>
0.0000

> <Gold.Chemscore.Hbonds>
donor molecule, donor type, donor heavy atom, donor atom, acceptor molecule, acceptor atom, score
      L1  H     7    22       P1  8028  1.00
      L1  H    10    23       P1  8028  0.99

> <Gold.PLP.Chemscore.Internal.Correction>
0.0362

> <Gold.Rescore>
     Score         DG    S(hbond)    S(metal)    S(lipo)     H(rot)  DE(clash)    DE(int)     intcor
     18.58     -20.17       1.87        0.00      94.04       1.00       0.43       1.16       ----

> <Gold.Chemscore.Fitness>
18.5756

> <Gold.Chemscore.DG>
-20.1700

> <Gold.Chemscore.ZeroCoef>
-5.4800

> <Gold.Chemscore.Hbond>
1.8706

> <Gold.Chemscore.Metal>
0.0000

> <Gold.Chemscore.Lipo>
94.0351

> <Gold.Chemscore.Internal_Hbond>
0.0000

> <Gold.Chemscore.DEClash>
0.4313

> <Gold.Chemscore.DEInternal>
1.1632

> <Gold.Chemscore.Rot>
1.0000

> <Gold.Chemscore.Internal.Correction>
   9.000000E+99

> <Gold.Chemscore.Hbonds>
donor molecule, donor type, donor heavy atom, donor atom, acceptor molecule, acceptor atom, score
      L1  H     7    22       P1  8028  0.95
      L1  H    10    23       P1  8028  0.89

> <Gold.Chemscore.Hbond.Weighted>
-6.2479

> <Gold.Chemscore.Metal.Weighted>
-0.0000

> <Gold.Chemscore.Lipo.Weighted>
-11.0021

> <Gold.Chemscore.Internal_Hbond.Weighted>
0.0000

> <Gold.Chemscore.DEClash.Weighted>
0.4313

> <Gold.Chemscore.DEInternal.Weighted>
1.1632

> <Gold.Chemscore.Rot.Weighted>
2.5600

> <Gold.Chemscore.Internal.Correction.Weighted>
   9.000000E+99

> <Gold.Protein.RotatedTorsions>
[ 6907 6896 6895 6894 ] final -127.10 input  -60.11 | X-H torsion
[ 7974 7965 7964 7962 ] final   66.20 input  175.53 | X-H torsion
[ 8008 7997 7996 7995 ] final  -14.53 input   59.86 | X-H torsion
[ 10167 10162 10161 10158 ] final   85.40 input  -65.29 | X-H torsion
[ 10718 10713 10712 10709 ] final  -52.35 input   66.30 | X-H torsion
[ 10763 10752 10751 10750 ] final   -7.70 input  -60.55 | X-H torsion
[ 11005 11000 10999 10996 ] final -156.49 input  -57.11 | X-H torsion

> <Gold.Protein.ActiveResidues>
 VAL166  LYS551  ARG553  GLY616  TRP617  ASP618  TYR619  PRO620  LYS621  CYS622 
 ASP623  PHE694  ASN695  SER759  ASP760  ASP761  ALA762  ILE779  LEU786  VAL792 
 PHE793  MET794  SER795  GLU796  ALA797  LYS798  CYS799  TRP800  GLU811  SER814 

> <Gold.Protein.RotatedAtoms>
  150.9038  133.7084  159.2871 H   0  0  0  0  0  0  0  0  0  0  0  0  # atno 6907 bound_to 6896
  151.4594  135.1035  159.9730 H   0  0  0  0  0  0  0  0  0  0  0  0  # atno 6908 bound_to 6896
  152.4892  133.8405  159.7205 H   0  0  0  0  0  0  0  0  0  0  0  0  # atno 6909 bound_to 6896
  145.8294  139.3130  143.0996 H   0  0  0  0  0  0  0  0  0  0  0  0  # atno 7974 bound_to 7965
  154.5202  140.2220  155.8990 H   0  0  0  0  0  0  0  0  0  0  0  0  # atno 8008 bound_to 7997
  156.1653  140.3133  155.8844 H   0  0  0  0  0  0  0  0  0  0  0  0  # atno 8009 bound_to 7997
  155.3668  140.0464  157.3036 H   0  0  0  0  0  0  0  0  0  0  0  0  # atno 8010 bound_to 7997
  139.8981  144.6346  150.8666 H   0  0  0  0  0  0  0  0  0  0  0  0  # atno 10167 bound_to 10162
  156.1629  130.4149  149.9765 H   0  0  0  0  0  0  0  0  0  0  0  0  # atno 10718 bound_to 10713
  153.4301  135.7012  153.6236 H   0  0  0  0  0  0  0  0  0  0  0  0  # atno 10763 bound_to 10752
  153.4655  135.3726  155.2362 H   0  0  0  0  0  0  0  0  0  0  0  0  # atno 10764 bound_to 10752
  154.8725  135.4030  154.3683 H   0  0  0  0  0  0  0  0  0  0  0  0  # atno 10765 bound_to 10752
  140.6750  134.4207  157.5230 H   0  0  0  0  0  0  0  0  0  0  0  0  # atno 11005 bound_to 11000
  145.9588  140.8852  143.0221 LP  0  0  0  0  0  0  0  0  0  0  0  0  # atno 17320 bound_to 7965
  144.6741  140.1783  143.7408 LP  0  0  0  0  0  0  0  0  0  0  0  0  # atno 17321 bound_to 7965
  140.7712  143.3458  151.2115 LP  0  0  0  0  0  0  0  0  0  0  0  0  # atno 17342 bound_to 10162
  139.7050  143.9471  152.2922 LP  0  0  0  0  0  0  0  0  0  0  0  0  # atno 17343 bound_to 10162
  156.7589  130.9143  151.3640 LP  0  0  0  0  0  0  0  0  0  0  0  0  # atno 17370 bound_to 10713
  157.6746  130.9082  150.0120 LP  0  0  0  0  0  0  0  0  0  0  0  0  # atno 17371 bound_to 10713
  139.8970  134.8647  156.2065 LP  0  0  0  0  0  0  0  0  0  0  0  0  # atno 17394 bound_to 11000
  141.0363  133.6962  156.1518 LP  0  0  0  0  0  0  0  0  0  0  0  0  # atno 17395 bound_to 11000

$$$$
