AV-unprocessed.smi:3013|AV-procd|sdf|11464|dock7
  -GOLD-   2272016403D 1   1.00000     0.00000
 Structure written by MMmdl.
 45 46  0  0  0  0  0  0  0  0  2 V2000
  143.7696  136.9788  152.5123 C   0  0  0  0  0  0  0  0  0  0  0  0
  145.1597  136.3526  152.2705 C   0  0  2  0  0  0  0  0  0  0  0  0
  146.0514  137.2170  151.3524 C   0  0  0  0  0  0  0  0  0  0  0  0
  146.5115  138.5388  151.9970 C   0  0  0  0  0  0  0  0  0  0  0  0
  147.7938  138.3914  152.6769 N   0  0  0  0  0  0  0  0  0  0  0  0
  148.2862  139.2528  153.5792 C   0  0  0  0  0  0  0  0  0  0  0  0
  147.6865  140.2634  153.9474 O   0  0  0  0  0  0  0  0  0  0  0  0
  149.4985  138.8689  154.0145 N   0  0  0  0  0  0  0  0  0  0  0  0
  150.3240  139.5186  154.9715 C   0  0  0  0  0  0  0  0  0  0  0  0
  149.9986  140.5917  155.6858 N   0  0  0  0  0  0  0  0  0  0  0  0
  151.1488  140.7430  156.4069 C   0  0  0  0  0  0  0  0  0  0  0  0
  152.1088  139.8486  156.1707 N   0  0  0  0  0  0  0  0  0  0  0  0
  151.5506  139.0542  155.2273 N   0  0  0  0  0  0  0  0  0  0  0  0
  152.2768  137.9254  154.6780 C   0  0  0  0  0  0  0  0  0  0  0  0
  145.0858  134.9502  151.7641 N   0  3  0  0  0  0  0  0  0  0  0  0
  146.3650  134.1889  151.8103 C   0  0  0  0  0  0  0  0  0  0  0  0
  146.1286  132.7026  151.4951 C   0  0  0  0  0  0  0  0  0  0  0  0
  145.4421  132.5335  150.1330 C   0  0  0  0  0  0  0  0  0  0  0  0
  144.1475  133.3561  150.0919 C   0  0  0  0  0  0  0  0  0  0  0  0
  144.4179  134.8300  150.4400 C   0  0  0  0  0  0  0  0  0  0  0  0
  143.8533  137.9364  153.0257 H   0  0  0  0  0  0  0  0  0  0  0  0
  143.1432  136.3430  153.1376 H   0  0  0  0  0  0  0  0  0  0  0  0
  143.2370  137.1589  151.5783 H   0  0  0  0  0  0  0  0  0  0  0  0
  145.6694  136.3065  153.2340 H   0  0  0  0  0  0  0  0  0  0  0  0
  146.9338  136.6360  151.0805 H   0  0  0  0  0  0  0  0  0  0  0  0
  145.5341  137.4361  150.4179 H   0  0  0  0  0  0  0  0  0  0  0  0
  146.6288  139.3119  151.2382 H   0  0  0  0  0  0  0  0  0  0  0  0
  145.7615  138.9049  152.7003 H   0  0  0  0  0  0  0  0  0  0  0  0
  148.3509  137.5862  152.4306 H   0  0  0  0  0  0  0  0  0  0  0  0
  149.8770  138.0223  153.6160 H   0  0  0  0  0  0  0  0  0  0  0  0
  151.2821  141.5352  157.1287 H   0  0  0  0  0  0  0  0  0  0  0  0
  152.2860  137.9885  153.5897 H   0  0  0  0  0  0  0  0  0  0  0  0
  151.7907  136.9970  154.9780 H   0  0  0  0  0  0  0  0  0  0  0  0
  153.3060  137.9194  155.0391 H   0  0  0  0  0  0  0  0  0  0  0  0
  147.0737  134.6042  151.0925 H   0  0  0  0  0  0  0  0  0  0  0  0
  146.8234  134.2732  152.7951 H   0  0  0  0  0  0  0  0  0  0  0  0
  147.0769  132.1644  151.5031 H   0  0  0  0  0  0  0  0  0  0  0  0
  145.5120  132.2553  152.2759 H   0  0  0  0  0  0  0  0  0  0  0  0
  146.1133  132.8619  149.3382 H   0  0  0  0  0  0  0  0  0  0  0  0
  145.2273  131.4810  149.9462 H   0  0  0  0  0  0  0  0  0  0  0  0
  143.6912  133.2833  149.1042 H   0  0  0  0  0  0  0  0  0  0  0  0
  143.4266  132.9396  150.7968 H   0  0  0  0  0  0  0  0  0  0  0  0
  143.4712  135.3711  150.4491 H   0  0  0  0  0  0  0  0  0  0  0  0
  145.0373  135.2862  149.6670 H   0  0  0  0  0  0  0  0  0  0  0  0
  144.4663  134.4784  152.4075 H   0  0  0  0  0  0  0  0  0  0  0  0
  1  2  1  0  0  0  0
  1 21  1  0  0  0  0
  1 22  1  0  0  0  0
  1 23  1  0  0  0  0
  2  3  1  0  0  0  0
  2 15  1  0  0  0  0
  2 24  1  0  0  0  0
  3  4  1  0  0  0  0
  3 25  1  0  0  0  0
  3 26  1  0  0  0  0
  4  5  1  0  0  0  0
  4 27  1  0  0  0  0
  4 28  1  0  0  0  0
  5  6  1  0  0  0  0
  5 29  1  0  0  0  0
  6  7  2  0  0  0  0
  6  8  1  0  0  0  0
  8  9  1  0  0  0  0
  8 30  1  0  0  0  0
  9 13  1  0  0  0  0
  9 10  2  0  0  0  0
 10 11  1  0  0  0  0
 11 12  2  0  0  0  0
 11 31  1  0  0  0  0
 12 13  1  0  0  0  0
 13 14  1  0  0  0  0
 14 32  1  0  0  0  0
 14 33  1  0  0  0  0
 14 34  1  0  0  0  0
 15 20  1  0  0  0  0
 15 16  1  0  0  0  0
 15 45  1  0  0  0  0
 16 17  1  0  0  0  0
 16 35  1  0  0  0  0
 16 36  1  0  0  0  0
 17 18  1  0  0  0  0
 17 37  1  0  0  0  0
 17 38  1  0  0  0  0
 18 19  1  0  0  0  0
 18 39  1  0  0  0  0
 18 40  1  0  0  0  0
 19 20  1  0  0  0  0
 19 41  1  0  0  0  0
 19 42  1  0  0  0  0
 20 43  1  0  0  0  0
 20 44  1  0  0  0  0
M  CHG  1  15   1
M  END
> <s_m_source_file>
AV-unprocessed.smi

> <i_m_source_file_index>
3013

> <i_lp_mmshare_version>
43012

> <i_f3d_flags>
0

> <s_epik_input>
W0NIMl0xW0NIMl1bQ0gyXVtDSDJdW0NIMl1OMVtDQEhdKFtDSDNdKVtDSDJdW0NIMl1bTkhdQyg9TylbTkhdYzJuW2NIXW5uMltDSDNd

> <s_epik_cmdline>
J2VwaWtfcHl0aG9uJywgJy1waCcsICc3LjAnLCAnLXRuJywgJzgnLCAnLW1hJywgJzIwMCcsICctbWV0YWxfYmluZGluZycsICctaW1hZScsICc8aW5maWxlLm1hZT4nLCAnLW9tYWUnLCAnPG91dGZpbGUubWFlPic=

> <r_lp_tautomer_probability>
1

> <r_epik_Ionization_Penalty>
0.000375855

> <r_epik_Ionization_Penalty_Charging>
0.000355659

> <r_epik_Ionization_Penalty_Neutral>
2.01955e-05

> <r_epik_State_Penalty>
0.000216264

> <r_epik_Charging_Adjusted_Penalty>
0.000571923

> <i_epik_Tot_Q>
1

> <i_epik_Tot_abs_Q>
1

> <r_epik_Metal_State_Penalty>
-0

> <b_epik_Metal_Only>
0

> <s_lp_Force_Field>
OPLS_2005

> <r_lp_Energy>
21.7492

> <b_lp_Chiralities_Consistent>
1

> <s_lp_Variant>
AV-unprocessed.smi:3013-1

> <Gold.Version>
5.8.1

> <Gold.Id.Protein>
6NUR|6NUR_protein|mol2

> <Gold.PLP.Fitness>
43.1316

> <Gold.PLP.PLP>
-38.5182

> <Gold.PLP.part.hbond>
-3.7763

> <Gold.PLP.part.metal>
0.0000

> <Gold.PLP.part.buried>
2.0191

> <Gold.PLP.part.nonpolar>
-36.6700

> <Gold.PLP.part.repulsive>
0.3587

> <Gold.PLP.ligand.clash>
0.0000

> <Gold.PLP.ligand.torsion>
0.4695

> <Gold.PLP.Chemscore.Hbond>
1.7963

> <Gold.PLP.Chemscore.CHOScore>
0.0000

> <Gold.PLP.Chemscore.Metal>
0.0000

> <Gold.Chemscore.Hbonds>
donor molecule, donor type, donor heavy atom, donor atom, acceptor molecule, acceptor atom, score
      L1  H     5    29       P1  7948  1.00
      P1  H  7997  8008       L1    12  0.46

> <Gold.PLP.Chemscore.Internal.Correction>
0.1637

> <Gold.Rescore>
     Score         DG    S(hbond)    S(metal)    S(lipo)     H(rot)  DE(clash)    DE(int)     intcor
     12.81     -14.80       2.00        0.00      66.76       2.01       0.32       1.66       ----

> <Gold.Chemscore.Fitness>
12.8143

> <Gold.Chemscore.DG>
-14.8013

> <Gold.Chemscore.ZeroCoef>
-5.4800

> <Gold.Chemscore.Hbond>
1.9964

> <Gold.Chemscore.Metal>
0.0000

> <Gold.Chemscore.Lipo>
66.7614

> <Gold.Chemscore.Internal_Hbond>
0.0000

> <Gold.Chemscore.DEClash>
0.3249

> <Gold.Chemscore.DEInternal>
1.6621

> <Gold.Chemscore.Rot>
2.0148

> <Gold.Chemscore.Internal.Correction>
   9.000000E+99

> <Gold.Chemscore.Hbonds>
donor molecule, donor type, donor heavy atom, donor atom, acceptor molecule, acceptor atom, score
      L1  H     5    29       P1  7948  0.97
      P1  H  7997  8008       L1    12  0.45

> <Gold.Chemscore.Hbond.Weighted>
-6.6680

> <Gold.Chemscore.Metal.Weighted>
-0.0000

> <Gold.Chemscore.Lipo.Weighted>
-7.8111

> <Gold.Chemscore.Internal_Hbond.Weighted>
0.0000

> <Gold.Chemscore.DEClash.Weighted>
0.3249

> <Gold.Chemscore.DEInternal.Weighted>
1.6621

> <Gold.Chemscore.Rot.Weighted>
5.1579

> <Gold.Chemscore.Internal.Correction.Weighted>
   9.000000E+99

> <Gold.Protein.RotatedTorsions>
[ 6907 6896 6895 6894 ] final -125.96 input  -60.11 | X-H torsion
[ 7974 7965 7964 7962 ] final   45.24 input  175.53 | X-H torsion
[ 8008 7997 7996 7995 ] final  -36.91 input   59.86 | X-H torsion
[ 10167 10162 10161 10158 ] final   93.78 input  -65.29 | X-H torsion
[ 10718 10713 10712 10709 ] final  -97.63 input   66.30 | X-H torsion
[ 10763 10752 10751 10750 ] final  158.39 input  -60.55 | X-H torsion
[ 11005 11000 10999 10996 ] final -155.95 input  -57.11 | X-H torsion

> <Gold.Protein.ActiveResidues>
 VAL166  LYS551  ARG553  GLY616  TRP617  ASP618  TYR619  PRO620  LYS621  CYS622 
 ASP623  PHE694  ASN695  SER759  ASP760  ASP761  ALA762  ILE779  LEU786  VAL792 
 PHE793  MET794  SER795  GLU796  ALA797  LYS798  CYS799  TRP800  GLU811  SER814 

> <Gold.Protein.RotatedAtoms>
  150.8921  133.7229  159.2901 H   0  0  0  0  0  0  0  0  0  0  0  0  # atno 6907 bound_to 6896
  151.4776  135.1048  159.9778 H   0  0  0  0  0  0  0  0  0  0  0  0  # atno 6908 bound_to 6896
  152.4826  133.8245  159.7126 H   0  0  0  0  0  0  0  0  0  0  0  0  # atno 6909 bound_to 6896
  146.0497  139.4986  142.9726 H   0  0  0  0  0  0  0  0  0  0  0  0  # atno 7974 bound_to 7965
  154.4063  140.1618  156.2451 H   0  0  0  0  0  0  0  0  0  0  0  0  # atno 8008 bound_to 7997
  155.9167  140.3424  155.6118 H   0  0  0  0  0  0  0  0  0  0  0  0  # atno 8009 bound_to 7997
  155.7271  140.0775  157.2296 H   0  0  0  0  0  0  0  0  0  0  0  0  # atno 8010 bound_to 7997
  139.8147  144.6758  150.9595 H   0  0  0  0  0  0  0  0  0  0  0  0  # atno 10167 bound_to 10162
  156.0088  130.5203  150.6403 H   0  0  0  0  0  0  0  0  0  0  0  0  # atno 10718 bound_to 10713
  154.2153  135.2784  155.2944 H   0  0  0  0  0  0  0  0  0  0  0  0  # atno 10763 bound_to 10752
  154.5746  135.5608  153.7130 H   0  0  0  0  0  0  0  0  0  0  0  0  # atno 10764 bound_to 10752
  153.0054  135.6329  154.2292 H   0  0  0  0  0  0  0  0  0  0  0  0  # atno 10765 bound_to 10752
  140.6809  134.4145  157.5226 H   0  0  0  0  0  0  0  0  0  0  0  0  # atno 11005 bound_to 11000
  145.6745  141.0208  143.1640 LP  0  0  0  0  0  0  0  0  0  0  0  0  # atno 17320 bound_to 7965
  144.7116  139.8349  143.7412 LP  0  0  0  0  0  0  0  0  0  0  0  0  # atno 17321 bound_to 7965
  140.7816  143.4150  151.0931 LP  0  0  0  0  0  0  0  0  0  0  0  0  # atno 17342 bound_to 10162
  139.7815  143.8349  152.3138 LP  0  0  0  0  0  0  0  0  0  0  0  0  # atno 17343 bound_to 10162
  157.4184  131.0833  151.1154 LP  0  0  0  0  0  0  0  0  0  0  0  0  # atno 17370 bound_to 10713
  157.1764  130.6290  149.5657 LP  0  0  0  0  0  0  0  0  0  0  0  0  # atno 17371 bound_to 10713
  139.8952  134.8689  156.2143 LP  0  0  0  0  0  0  0  0  0  0  0  0  # atno 17394 bound_to 11000
  141.0318  133.6984  156.1443 LP  0  0  0  0  0  0  0  0  0  0  0  0  # atno 17395 bound_to 11000

$$$$
