#       Name:                AV-unprocessed.smi:3341
#       Creating user name   scv26
#       Creation time:       Fri Mar 27 19:29:14 2020


#       File generated by GOLD software.
#

@<TRIPOS>MOLECULE
AV-unprocessed.smi:3341
    49    50     1
SMALL
NO_CHARGES


@<TRIPOS>ATOM
      1 ****        -4.7062   5.5422  -2.0427 C.3            1 S1                 0.0000
      2 ****        -4.5610   4.9750  -0.6259 C.3            1 S1                 0.0000
      3 ****        -4.5060   3.5263  -0.6333 N.pl3          1 S1                 0.0000
      4 ****        -3.3884   2.7156  -0.6372 C.2            1 S1                 0.0000
      5 ****        -3.8619   1.4340  -0.6509 C.2            1 S1                 0.0000
      6 ****        -3.1461   0.2101  -0.6586 N.am           1 S1                 0.0000
      7 ****        -1.8132   0.0457  -0.6539 C.2            1 S1                 0.0000
      8 ****        -0.9858   0.9575  -0.6571 O.2            1 S1                 0.0000
      9 ****        -1.4800  -1.2529  -0.6411 N.am           1 S1                 0.0000
     10 ****        -0.1131  -1.7618  -0.6312 C.3            1 S1                 0.0000
     11 ****         0.5281  -1.6317   0.7645 C.3            1 S1                 0.0000
     12 ****         1.9055  -2.1839   0.8135 N.4            1 S1                 1.0000
     13 ****         2.3085  -2.5535   2.1953 C.3            1 S1                 0.0000
     14 ****         3.6815  -3.2435   2.2087 C.3            1 S1                 0.0000
     15 ****         4.7466  -2.3574   1.5512 C.3            1 S1                 0.0000
     16 ****         4.3069  -1.9607   0.1321 C.3            1 S1                 0.0000
     17 ****         5.3438  -1.0512  -0.5425 C.3            1 S1                 0.0000
     18 ****         2.9143  -1.2990   0.1692 C.3            1 S1                 0.0000
     19 ****        -5.2769   1.5442  -0.6560 C.2            1 S1                 0.0000
     20 ****        -5.6589   2.8123  -0.6471 N.2            1 S1                 0.0000
     21 ****        -4.7359   6.6316  -2.0232 H              1 S1                 0.0000
     22 ****        -5.6242   5.1923  -2.5157 H              1 S1                 0.0000
     23 ****        -3.8684   5.2431  -2.6733 H              1 S1                 0.0000
     24 ****        -3.6516   5.3551  -0.1590 H              1 S1                 0.0000
     25 ****        -5.3959   5.2949  -0.0008 H              1 S1                 0.0000
     26 ****        -2.3872   3.1205  -0.6315 H              1 S1                 0.0000
     27 ****        -3.7100  -0.6273  -0.6616 H              1 S1                 0.0000
     28 ****        -2.2237  -1.9360  -0.6421 H              1 S1                 0.0000
     29 ****        -0.1399  -2.8096  -0.9309 H              1 S1                 0.0000
     30 ****         0.4653  -1.2363  -1.3916 H              1 S1                 0.0000
     31 ****         0.5423  -0.5930   1.0986 H              1 S1                 0.0000
     32 ****        -0.1017  -2.1722   1.4729 H              1 S1                 0.0000
     33 ****         2.3297  -1.6594   2.8207 H              1 S1                 0.0000
     34 ****         1.5684  -3.2273   2.6290 H              1 S1                 0.0000
     35 ****         3.9719  -3.4755   3.2338 H              1 S1                 0.0000
     36 ****         3.6190  -4.1968   1.6820 H              1 S1                 0.0000
     37 ****         4.9045  -1.4635   2.1565 H              1 S1                 0.0000
     38 ****         5.7004  -2.8853   1.5198 H              1 S1                 0.0000
     39 ****         4.2319  -2.8709  -0.4649 H              1 S1                 0.0000
     40 ****         5.4643  -0.1140   0.0021 H              1 S1                 0.0000
     41 ****         5.0480  -0.8071  -1.5633 H              1 S1                 0.0000
     42 ****         6.3193  -1.5358  -0.5902 H              1 S1                 0.0000
     43 ****         2.6098  -1.0643  -0.8500 H              1 S1                 0.0000
     44 ****         2.9610  -0.3508   0.7076 H              1 S1                 0.0000
     45 ****        -6.0237   0.7640  -0.6661 H              1 S1                 0.0000
     46 ****         1.8884  -3.0454   0.2864 H              1 S1                 0.0000
     47 ****        -1.2911   1.9098  -0.6637 LP             1 S1                 0.0000
     48 ****        -0.0085   0.7459  -0.6532 LP             1 S1                 0.0000
     49 ****        -6.5941   3.1664  -0.6500 LP             1 S1                 0.0000
@<TRIPOS>BOND
    1    1    2 1     
    2    1   21 1     
    3    1   22 1     
    4    1   23 1     
    5    2    3 1     
    6    2   24 1     
    7    2   25 1     
    8    3   20 1     
    9    3    4 1     
   10    4    5 2     
   11    4   26 1     
   12    5    6 1     
   13    5   19 1     
   14    6    7 am    
   15    6   27 1     
   16    7    8 2     
   17    7    9 am    
   18    9   10 1     
   19    9   28 1     
   20   10   11 1     
   21   10   29 1     
   22   10   30 1     
   23   11   12 1     
   24   11   31 1     
   25   11   32 1     
   26   12   18 1     
   27   12   13 1     
   28   12   46 1     
   29   13   14 1     
   30   13   33 1     
   31   13   34 1     
   32   14   15 1     
   33   14   35 1     
   34   14   36 1     
   35   15   16 1     
   36   15   37 1     
   37   15   38 1     
   38   16   17 1     
   39   16   18 1     
   40   16   39 1     
   41   17   40 1     
   42   17   41 1     
   43   17   42 1     
   44   18   43 1     
   45   18   44 1     
   46   19   20 2     
   47   19   45 1     
   48    8   47 1     
   49    8   48 1     
   50   20   49 1     
@<TRIPOS>SUBSTRUCTURE
      1 S1             1
@<TRIPOS>SET
LONE_PAIRS      STATIC     ATOMS    <user>   **** ""
3 47 48 49
DONOR_HYDROGENS      STATIC     ATOMS    <user>   **** ""
3 27 28 46
ATOM$BLUE        STATIC     ATOMS    COLORGROUP SYSTEM
3 47 48 49
ATOM$RED        STATIC     ATOMS    COLORGROUP SYSTEM
3 27 28 46
