AV-unprocessed.smi:249|AV-procd|sdf|1912|dock1
  -GOLD-   2262021 03D 1   1.00000     0.00000
 Structure written by MMmdl.
 64 67  0  0  0  0  0  0  0  0  2 V2000
  146.0941  132.0322  151.0246 C   0  0  0  0  0  0  0  0  0  0  0  0
  145.0713  131.0560  151.6290 C   0  0  0  0  0  0  0  0  0  0  0  0
  145.5778  130.3366  152.8339 N   0  3  2  0  0  0  0  0  0  0  0  0
  146.3430  131.2438  153.7363 C   0  0  0  0  0  0  0  0  0  0  0  0
  146.7887  130.5373  155.0256 C   0  0  0  0  0  0  0  0  0  0  0  0
  147.6575  129.2989  154.7227 C   0  0  2  0  0  0  0  0  0  0  0  0
  148.9638  129.6192  154.1237 N   0  0  0  0  0  0  0  0  0  0  0  0
  149.8108  128.5035  153.7136 C   0  0  0  0  0  0  0  0  0  0  0  0
  149.7017  130.5677  154.7441 C   0  0  0  0  0  0  0  0  0  0  0  0
  150.6756  130.1395  155.5842 N   0  0  0  0  0  0  0  0  0  0  0  0
  151.4450  131.0276  156.2209 C   0  0  0  0  0  0  0  0  0  0  0  0
  151.4053  132.3604  156.1617 N   0  0  0  0  0  0  0  0  0  0  0  0
  150.4154  132.7932  155.3291 C   0  0  0  0  0  0  0  0  0  0  0  0
  149.5234  131.9710  154.5852 C   0  0  0  0  0  0  0  0  0  0  0  0
  148.6549  132.7622  153.8435 N   0  0  0  0  0  0  0  0  0  0  0  0
  149.0190  133.9836  154.1248 C   0  0  0  0  0  0  0  0  0  0  0  0
  150.0559  134.0948  155.0241 N   0  0  0  0  0  0  0  0  0  0  0  0
  150.6606  135.3278  155.4984 C   0  0  0  0  0  0  0  0  0  0  0  0
  149.9415  136.6256  155.0437 C   0  0  1  0  0  0  0  0  0  0  0  0
  148.4709  136.5845  155.5203 C   0  0  0  0  0  0  0  0  0  0  0  0
  147.6787  137.5428  154.8481 O   0  0  0  0  0  0  0  0  0  0  0  0
  150.6585  137.9449  155.4549 C   0  0  1  0  0  0  0  0  0  0  0  0
  152.1573  138.0001  155.2011 C   0  0  0  0  0  0  0  0  0  0  0  0
  152.4492  139.4965  155.2267 C   0  0  0  0  0  0  0  0  0  0  0  0
  151.2643  140.1324  154.7661 O   0  0  0  0  0  0  0  0  0  0  0  0
  150.2168  139.1766  154.6543 C   0  0  0  0  0  0  0  0  0  0  0  0
  146.8102  128.3853  153.8174 C   0  0  0  0  0  0  0  0  0  0  0  0
  146.3470  129.0877  152.5190 C   0  0  1  0  0  0  0  0  0  0  0  0
  145.5425  128.0770  151.6751 C   0  0  0  0  0  0  0  0  0  0  0  0
  145.6254  132.6430  150.2526 H   0  0  0  0  0  0  0  0  0  0  0  0
  146.9312  131.5192  150.5527 H   0  0  0  0  0  0  0  0  0  0  0  0
  146.4904  132.7094  151.7819 H   0  0  0  0  0  0  0  0  0  0  0  0
  144.2035  131.6596  151.8834 H   0  0  0  0  0  0  0  0  0  0  0  0
  144.7402  130.3374  150.8780 H   0  0  0  0  0  0  0  0  0  0  0  0
  147.2075  131.6440  153.2048 H   0  0  0  0  0  0  0  0  0  0  0  0
  145.7333  132.0977  154.0262 H   0  0  0  0  0  0  0  0  0  0  0  0
  147.3034  131.2413  155.6795 H   0  0  0  0  0  0  0  0  0  0  0  0
  145.9038  130.2259  155.5821 H   0  0  0  0  0  0  0  0  0  0  0  0
  147.8444  128.7666  155.6557 H   0  0  0  0  0  0  0  0  0  0  0  0
  150.8420  128.8129  153.5328 H   0  0  0  0  0  0  0  0  0  0  0  0
  149.4384  128.0672  152.7868 H   0  0  0  0  0  0  0  0  0  0  0  0
  149.8210  127.7266  154.4789 H   0  0  0  0  0  0  0  0  0  0  0  0
  152.2013  130.6116  156.8702 H   0  0  0  0  0  0  0  0  0  0  0  0
  148.5296  134.8431  153.6900 H   0  0  0  0  0  0  0  0  0  0  0  0
  150.6773  135.2745  156.5876 H   0  0  0  0  0  0  0  0  0  0  0  0
  151.7033  135.3469  155.1787 H   0  0  0  0  0  0  0  0  0  0  0  0
  149.8945  136.6121  153.9547 H   0  0  0  0  0  0  0  0  0  0  0  0
  148.0342  135.5976  155.3679 H   0  0  0  0  0  0  0  0  0  0  0  0
  148.4141  136.7769  156.5921 H   0  0  0  0  0  0  0  0  0  0  0  0
  147.4734  137.2127  153.9867 H   0  0  0  0  0  0  0  0  0  0  0  0
  150.4803  138.1406  156.5137 H   0  0  0  0  0  0  0  0  0  0  0  0
  152.7479  137.4711  155.9466 H   0  0  0  0  0  0  0  0  0  0  0  0
  152.3947  137.5884  154.2189 H   0  0  0  0  0  0  0  0  0  0  0  0
  152.6438  139.8282  156.2473 H   0  0  0  0  0  0  0  0  0  0  0  0
  153.3106  139.7629  154.6138 H   0  0  0  0  0  0  0  0  0  0  0  0
  150.0976  138.9279  153.5989 H   0  0  0  0  0  0  0  0  0  0  0  0
  149.2744  139.5924  155.0111 H   0  0  0  0  0  0  0  0  0  0  0  0
  147.3562  127.4716  153.5822 H   0  0  0  0  0  0  0  0  0  0  0  0
  145.9314  128.0560  154.3744 H   0  0  0  0  0  0  0  0  0  0  0  0
  147.2312  129.3725  151.9462 H   0  0  0  0  0  0  0  0  0  0  0  0
  146.0666  127.1231  151.6066 H   0  0  0  0  0  0  0  0  0  0  0  0
  145.3989  128.4120  150.6485 H   0  0  0  0  0  0  0  0  0  0  0  0
  144.5633  127.8808  152.1133 H   0  0  0  0  0  0  0  0  0  0  0  0
  144.7625  130.0382  153.3500 H   0  0  0  0  0  0  0  0  0  0  0  0
  1  2  1  0  0  0  0
  1 30  1  0  0  0  0
  1 31  1  0  0  0  0
  1 32  1  0  0  0  0
  2  3  1  0  0  0  0
  2 33  1  0  0  0  0
  2 34  1  0  0  0  0
  3 28  1  0  0  0  0
  3  4  1  0  0  0  0
  3 64  1  0  0  0  0
  4  5  1  0  0  0  0
  4 35  1  0  0  0  0
  4 36  1  0  0  0  0
  5  6  1  0  0  0  0
  5 37  1  0  0  0  0
  5 38  1  0  0  0  0
  6  7  1  0  0  0  0
  6 27  1  0  0  0  0
  6 39  1  0  0  0  0
  7  8  1  0  0  0  0
  7  9  1  0  0  0  0
  8 40  1  0  0  0  0
  8 41  1  0  0  0  0
  8 42  1  0  0  0  0
  9 14  1  0  0  0  0
  9 10  2  0  0  0  0
 10 11  1  0  0  0  0
 11 12  2  0  0  0  0
 11 43  1  0  0  0  0
 12 13  1  0  0  0  0
 13 17  1  0  0  0  0
 13 14  2  0  0  0  0
 14 15  1  0  0  0  0
 15 16  2  0  0  0  0
 16 17  1  0  0  0  0
 16 44  1  0  0  0  0
 17 18  1  0  0  0  0
 18 19  1  0  0  0  0
 18 45  1  0  0  0  0
 18 46  1  0  0  0  0
 19 20  1  0  0  0  0
 19 22  1  0  0  0  0
 19 47  1  0  0  0  0
 20 21  1  0  0  0  0
 20 48  1  0  0  0  0
 20 49  1  0  0  0  0
 21 50  1  0  0  0  0
 22 26  1  0  0  0  0
 22 23  1  0  0  0  0
 22 51  1  0  0  0  0
 23 24  1  0  0  0  0
 23 52  1  0  0  0  0
 23 53  1  0  0  0  0
 24 25  1  0  0  0  0
 24 54  1  0  0  0  0
 24 55  1  0  0  0  0
 25 26  1  0  0  0  0
 26 56  1  0  0  0  0
 26 57  1  0  0  0  0
 27 28  1  0  0  0  0
 27 58  1  0  0  0  0
 27 59  1  0  0  0  0
 28 29  1  0  0  0  0
 28 60  1  0  0  0  0
 29 61  1  0  0  0  0
 29 62  1  0  0  0  0
 29 63  1  0  0  0  0
M  CHG  1   3   1
M  END
> <s_m_source_file>
AV-unprocessed.smi

> <i_m_source_file_index>
249

> <i_lp_mmshare_version>
43012

> <i_f3d_flags>
0

> <s_epik_input>
W0NIM11bQ0gyXU4xW0NIMl1bQ0gyXVtDQEhdKFtDSDJdW0NASF0xW0NIM10pTihbQ0gzXSljKG5bY0hdbjIpYyhjMjMpbltjSF1uM1tDSDJdW0NASF0oW0NIMl1bT0hdKVtDQEBIXTRbQ0gyXVtDSDJdT1tDSDJdNA==

> <s_epik_cmdline>
J2VwaWtfcHl0aG9uJywgJy1waCcsICc3LjAnLCAnLXRuJywgJzgnLCAnLW1hJywgJzIwMCcsICctbWV0YWxfYmluZGluZycsICctaW1hZScsICc8aW5maWxlLm1hZT4nLCAnLW9tYWUnLCAnPG91dGZpbGUubWFlPic=

> <r_lp_tautomer_probability>
1

> <r_epik_Ionization_Penalty>
0.00294688

> <r_epik_Ionization_Penalty_Charging>
0.00169971

> <r_epik_Ionization_Penalty_Neutral>
0.00124717

> <r_epik_State_Penalty>
-0

> <r_epik_Charging_Adjusted_Penalty>
0.00169971

> <i_epik_Tot_Q>
1

> <i_epik_Tot_abs_Q>
1

> <r_epik_Metal_State_Penalty>
-0

> <b_epik_Metal_Only>
0

> <s_lp_Force_Field>
OPLS_2005

> <r_lp_Energy>
57.4157

> <b_lp_Chiralities_Consistent>
1

> <s_lp_Variant>
AV-unprocessed.smi:249-15

> <Gold.Version>
5.8.1

> <Gold.Id.Protein>
6NUR|6NUR_protein|mol2

> <Gold.PLP.Fitness>
46.3781

> <Gold.PLP.PLP>
-39.1226

> <Gold.PLP.part.hbond>
-1.9275

> <Gold.PLP.part.metal>
0.0000

> <Gold.PLP.part.buried>
-3.9778

> <Gold.PLP.part.nonpolar>
-34.1045

> <Gold.PLP.part.repulsive>
0.2854

> <Gold.PLP.ligand.clash>
0.0000

> <Gold.PLP.ligand.torsion>
1.1880

> <Gold.PLP.Chemscore.Hbond>
1.9913

> <Gold.PLP.Chemscore.CHOScore>
1.0000

> <Gold.PLP.Chemscore.Metal>
0.0000

> <Gold.Chemscore.Hbonds>
donor molecule, donor type, donor heavy atom, donor atom, acceptor molecule, acceptor atom, score
      L1  H     3    64       P1 10956  0.75
      P1  H  7989  7998       L1    25  0.94
      L1  C    16    44       P1  7948  1.00

> <Gold.PLP.Chemscore.Internal.Correction>
0.6578

> <Gold.Rescore>
     Score         DG    S(hbond)    S(metal)    S(lipo)     H(rot)  DE(clash)    DE(int)     intcor
      6.97     -12.03       0.68        0.00      99.97       2.90       1.30       3.76       ----

> <Gold.Chemscore.Fitness>
6.9748

> <Gold.Chemscore.DG>
-12.0280

> <Gold.Chemscore.ZeroCoef>
-5.4800

> <Gold.Chemscore.Hbond>
0.6819

> <Gold.Chemscore.Metal>
0.0000

> <Gold.Chemscore.Lipo>
99.9673

> <Gold.Chemscore.Internal_Hbond>
0.0000

> <Gold.Chemscore.DEClash>
1.2956

> <Gold.Chemscore.DEInternal>
3.7576

> <Gold.Chemscore.Rot>
2.9006

> <Gold.Chemscore.Internal.Correction>
   9.000000E+99

> <Gold.Chemscore.Hbonds>
donor molecule, donor type, donor heavy atom, donor atom, acceptor molecule, acceptor atom, score
      L1  H     3    64       P1 10956  0.01
      P1  H  7989  7998       L1    25  0.47

> <Gold.Chemscore.Hbond.Weighted>
-2.2775

> <Gold.Chemscore.Metal.Weighted>
-0.0000

> <Gold.Chemscore.Lipo.Weighted>
-11.6962

> <Gold.Chemscore.Internal_Hbond.Weighted>
0.0000

> <Gold.Chemscore.DEClash.Weighted>
1.2956

> <Gold.Chemscore.DEInternal.Weighted>
3.7576

> <Gold.Chemscore.Rot.Weighted>
7.4256

> <Gold.Chemscore.Internal.Correction.Weighted>
   9.000000E+99

> <Gold.Protein.RotatedTorsions>
[ 6907 6896 6895 6894 ] final -167.83 input  -60.11 | X-H torsion
[ 7974 7965 7964 7962 ] final   11.56 input  175.53 | X-H torsion
[ 8008 7997 7996 7995 ] final  -87.27 input   59.86 | X-H torsion
[ 10167 10162 10161 10158 ] final -161.29 input  -65.29 | X-H torsion
[ 10718 10713 10712 10709 ] final  135.12 input   66.30 | X-H torsion
[ 10763 10752 10751 10750 ] final  -83.01 input  -60.55 | X-H torsion
[ 11005 11000 10999 10996 ] final    2.75 input  -57.11 | X-H torsion

> <Gold.Protein.ActiveResidues>
 VAL166  LYS551  ARG553  GLY616  TRP617  ASP618  TYR619  PRO620  LYS621  CYS622 
 ASP623  PHE694  ASN695  SER759  ASP760  ASP761  ALA762  ILE779  LEU786  VAL792 
 PHE793  MET794  SER795  GLU796  ALA797  LYS798  CYS799  TRP800  GLU811  SER814 

> <Gold.Protein.RotatedAtoms>
  151.4659  133.3581  159.2815 H   0  0  0  0  0  0  0  0  0  0  0  0  # atno 6907 bound_to 6896
  150.8994  134.8407  159.7360 H   0  0  0  0  0  0  0  0  0  0  0  0  # atno 6908 bound_to 6896
  152.4870  134.4577  159.9647 H   0  0  0  0  0  0  0  0  0  0  0  0  # atno 6909 bound_to 6896
  146.2368  139.9467  142.8476 H   0  0  0  0  0  0  0  0  0  0  0  0  # atno 7974 bound_to 7965
  154.6613  140.0568  157.0065 H   0  0  0  0  0  0  0  0  0  0  0  0  # atno 8008 bound_to 7997
  155.1225  140.3249  155.4475 H   0  0  0  0  0  0  0  0  0  0  0  0  # atno 8009 bound_to 7997
  156.2619  140.1995  156.6346 H   0  0  0  0  0  0  0  0  0  0  0  0  # atno 8010 bound_to 7997
  139.6476  144.0143  152.2138 H   0  0  0  0  0  0  0  0  0  0  0  0  # atno 10167 bound_to 10162
  157.4603  131.1073  150.9927 H   0  0  0  0  0  0  0  0  0  0  0  0  # atno 10718 bound_to 10713
  154.5826  135.5571  153.7200 H   0  0  0  0  0  0  0  0  0  0  0  0  # atno 10763 bound_to 10752
  153.0087  135.6323  154.1962 H   0  0  0  0  0  0  0  0  0  0  0  0  # atno 10764 bound_to 10752
  154.1902  135.2883  155.3004 H   0  0  0  0  0  0  0  0  0  0  0  0  # atno 10765 bound_to 10752
  140.6008  133.9838  155.8131 H   0  0  0  0  0  0  0  0  0  0  0  0  # atno 11005 bound_to 11000
  145.1901  140.9807  143.4216 LP  0  0  0  0  0  0  0  0  0  0  0  0  # atno 17320 bound_to 7965
  144.9865  139.3731  143.6236 LP  0  0  0  0  0  0  0  0  0  0  0  0  # atno 17321 bound_to 7965
  139.9849  144.6402  150.7867 LP  0  0  0  0  0  0  0  0  0  0  0  0  # atno 17342 bound_to 10162
  140.7522  143.2986  151.3139 LP  0  0  0  0  0  0  0  0  0  0  0  0  # atno 17343 bound_to 10162
  157.0727  130.5870  149.5405 LP  0  0  0  0  0  0  0  0  0  0  0  0  # atno 17370 bound_to 10713
  156.0026  130.5107  150.7717 LP  0  0  0  0  0  0  0  0  0  0  0  0  # atno 17371 bound_to 10713
  141.0874  133.9970  157.3292 LP  0  0  0  0  0  0  0  0  0  0  0  0  # atno 17394 bound_to 11000
  139.9233  135.0201  156.8145 LP  0  0  0  0  0  0  0  0  0  0  0  0  # atno 17395 bound_to 11000

$$$$
