#       Name:                AV-unprocessed.smi:1013
#       Creating user name   scv26
#       Creation time:       Fri Mar 27 02:38:09 2020


#       File generated by GOLD software.
#

@<TRIPOS>MOLECULE
AV-unprocessed.smi:1013
    35    36     1
SMALL
NO_CHARGES


@<TRIPOS>ATOM
      1 ****        -1.9210  -1.3089   0.9644 O.co2          1 S1                 0.0000
      2 ****        -1.2882  -0.2791   1.2845 C.2            1 S1                 0.0000
      3 ****        -1.1827   0.1700   2.4485 O.co2          1 S1                -1.0000
      4 ****        -0.5993   0.4973   0.1465 C.3            1 S1                 0.0000
      5 ****         0.9394   0.4282   0.2785 C.3            1 S1                 0.0000
      6 ****         1.4610  -0.9121   0.0694 N.pl3          1 S1                 0.0000
      7 ****         1.4927  -1.6479  -1.0954 C.2            1 S1                 0.0000
      8 ****         2.0754  -2.8469  -0.8018 C.2            1 S1                 0.0000
      9 ****         2.3783  -2.7540   0.5879 C.2            1 S1                 0.0000
     10 ****         3.0322  -3.7823   1.4728 C.3            1 S1                 0.0000
     11 ****         3.3084  -4.8838   0.7745 F              1 S1                 0.0000
     12 ****         4.1684  -3.2957   1.9718 F              1 S1                 0.0000
     13 ****         2.2181  -4.1044   2.4777 F              1 S1                 0.0000
     14 ****         2.0136  -1.5861   1.0997 N.2            1 S1                 0.0000
     15 ****        -1.0426   1.9084   0.1773 N.4            1 S1                 1.0000
     16 ****        -2.3940   2.1422  -0.3725 C.3            1 S1                 0.0000
     17 ****        -2.4032   2.4888  -1.8409 C.3            1 S1                 0.0000
     18 ****        -2.6197   3.5704  -0.8027 C.3            1 S1                 0.0000
     19 ****        -0.8845   0.0779  -0.8208 H              1 S1                 0.0000
     20 ****         1.4029   1.0771  -0.4655 H              1 S1                 0.0000
     21 ****         1.2695   0.7978   1.2515 H              1 S1                 0.0000
     22 ****         1.0976  -1.2643  -2.0243 H              1 S1                 0.0000
     23 ****         2.2568  -3.6693  -1.4776 H              1 S1                 0.0000
     24 ****        -1.0165   2.2207   1.1379 H              1 S1                 0.0000
     25 ****        -3.2082   1.5768   0.0772 H              1 S1                 0.0000
     26 ****        -1.4550   2.4844  -2.3757 H              1 S1                 0.0000
     27 ****        -3.2674   2.1762  -2.4236 H              1 S1                 0.0000
     28 ****        -3.6265   3.9714  -0.7044 H              1 S1                 0.0000
     29 ****        -1.8162   4.2894  -0.6517 H              1 S1                 0.0000
     30 ****        -0.3894   2.4569  -0.3623 H              1 S1                 0.0000
     31 ****        -2.3937  -1.8433   1.6651 LP             1 S1                 0.0000
     32 ****        -1.9544  -1.5980   0.0077 LP             1 S1                 0.0000
     33 ****        -1.6253  -0.3043   3.2094 LP             1 S1                 0.0000
     34 ****        -0.6558   1.0031   2.6172 LP             1 S1                 0.0000
     35 ****         2.1240  -1.2732   2.0430 LP             1 S1                 0.0000
@<TRIPOS>BOND
    1    1    2 ar    
    2    2    3 ar    
    3    2    4 1     
    4    4    5 1     
    5    4   15 1     
    6    4   19 1     
    7    5    6 1     
    8    5   20 1     
    9    5   21 1     
   10    6   14 1     
   11    6    7 1     
   12    7    8 2     
   13    7   22 1     
   14    8    9 1     
   15    8   23 1     
   16    9   10 1     
   17    9   14 2     
   18   10   11 1     
   19   10   12 1     
   20   10   13 1     
   21   15   16 1     
   22   15   24 1     
   23   15   30 1     
   24   16   18 1     
   25   16   17 1     
   26   16   25 1     
   27   17   18 1     
   28   17   26 1     
   29   17   27 1     
   30   18   28 1     
   31   18   29 1     
   32    1   31 1     
   33    1   32 1     
   34    3   33 1     
   35    3   34 1     
   36   14   35 1     
@<TRIPOS>SUBSTRUCTURE
      1 S1             1
@<TRIPOS>SET
LONE_PAIRS      STATIC     ATOMS    <user>   **** ""
5 31 32 33 34 35
DONOR_HYDROGENS      STATIC     ATOMS    <user>   **** ""
2 24 30
ATOM$BLUE        STATIC     ATOMS    COLORGROUP SYSTEM
5 31 32 33 34 35
ATOM$RED        STATIC     ATOMS    COLORGROUP SYSTEM
2 24 30
