AV-unprocessed.smi:688|AV-procd|sdf|3357|dock5
  -GOLD-   22720 0333D 1   1.00000     0.00000
 Structure written by MMmdl.
 35 36  0  0  0  0  0  0  0  0  2 V2000
  150.3602  131.5831  156.8746 O   0  0  0  0  0  0  0  0  0  0  0  0
  150.2712  132.7472  156.4877 C   0  0  0  0  0  0  0  0  0  0  0  0
  150.6206  133.8111  157.2681 N   0  5  0  0  0  0  0  0  0  0  0  0
  150.5220  135.1134  156.8588 C   0  0  0  0  0  0  0  0  0  0  0  0
  150.8441  136.0553  157.5829 O   0  0  0  0  0  0  0  0  0  0  0  0
  150.0483  135.3764  155.6041 N   0  0  0  0  0  0  0  0  0  0  0  0
  149.8961  136.7493  155.0911 C   0  0  0  0  0  0  0  0  0  0  0  0
  151.2371  137.5167  155.0373 C   0  0  1  0  0  0  0  0  0  0  0  0
  152.0543  136.9142  154.0549 O   0  0  0  0  0  0  0  0  0  0  0  0
  151.0827  139.0135  154.7044 C   0  0  0  0  0  0  0  0  0  0  0  0
  150.5240  139.6813  155.8280 O   0  0  0  0  0  0  0  0  0  0  0  0
  150.5536  141.0978  155.7249 C   0  0  0  0  0  0  0  0  0  0  0  0
  151.0467  141.7655  156.9985 C   0  0  0  0  0  0  0  0  0  0  0  0
  151.3084  140.9883  158.1467 C   0  0  0  0  0  0  0  0  0  0  0  0
  151.7523  141.6040  159.3326 C   0  0  0  0  0  0  0  0  0  0  0  0
  151.9338  142.9998  159.3765 C   0  0  0  0  0  0  0  0  0  0  0  0
  152.4619  143.7567  160.8339 Cl  0  0  0  0  0  0  0  0  0  0  0  0
  151.6795  143.7783  158.2304 C   0  0  0  0  0  0  0  0  0  0  0  0
  151.2407  143.1621  157.0421 C   0  0  0  0  0  0  0  0  0  0  0  0
  149.6823  134.3145  154.7580 C   0  0  0  0  0  0  0  0  0  0  0  0
  149.7680  133.0272  155.1449 C   0  0  0  0  0  0  0  0  0  0  0  0
  149.2861  131.7456  154.0911 Cl  0  0  0  0  0  0  0  0  0  0  0  0
  149.4554  136.7047  154.0933 H   0  0  0  0  0  0  0  0  0  0  0  0
  149.1765  137.3074  155.6919 H   0  0  0  0  0  0  0  0  0  0  0  0
  151.7460  137.4070  155.9955 H   0  0  0  0  0  0  0  0  0  0  0  0
  151.5719  136.8901  153.2427 H   0  0  0  0  0  0  0  0  0  0  0  0
  152.0309  139.4718  154.4192 H   0  0  0  0  0  0  0  0  0  0  0  0
  150.4248  139.1326  153.8460 H   0  0  0  0  0  0  0  0  0  0  0  0
  151.2373  141.3652  154.9191 H   0  0  0  0  0  0  0  0  0  0  0  0
  149.5702  141.4759  155.4401 H   0  0  0  0  0  0  0  0  0  0  0  0
  151.1591  139.9185  158.1244 H   0  0  0  0  0  0  0  0  0  0  0  0
  151.9407  141.0052  160.2116 H   0  0  0  0  0  0  0  0  0  0  0  0
  151.8175  144.8490  158.2625 H   0  0  0  0  0  0  0  0  0  0  0  0
  151.0446  143.7668  156.1688 H   0  0  0  0  0  0  0  0  0  0  0  0
  149.3162  134.6089  153.7854 H   0  0  0  0  0  0  0  0  0  0  0  0
  1  2  2  0  0  0  0
  2 21  1  0  0  0  0
  2  3  1  0  0  0  0
  3  4  1  0  0  0  0
  4  5  2  0  0  0  0
  4  6  1  0  0  0  0
  6  7  1  0  0  0  0
  6 20  1  0  0  0  0
  7  8  1  0  0  0  0
  7 23  1  0  0  0  0
  7 24  1  0  0  0  0
  8  9  1  0  0  0  0
  8 10  1  0  0  0  0
  8 25  1  0  0  0  0
  9 26  1  0  0  0  0
 10 11  1  0  0  0  0
 10 27  1  0  0  0  0
 10 28  1  0  0  0  0
 11 12  1  0  0  0  0
 12 13  1  0  0  0  0
 12 29  1  0  0  0  0
 12 30  1  0  0  0  0
 13 19  1  0  0  0  0
 13 14  2  0  0  0  0
 14 15  1  0  0  0  0
 14 31  1  0  0  0  0
 15 16  2  0  0  0  0
 15 32  1  0  0  0  0
 16 17  1  0  0  0  0
 16 18  1  0  0  0  0
 18 19  2  0  0  0  0
 18 33  1  0  0  0  0
 19 34  1  0  0  0  0
 20 21  2  0  0  0  0
 20 35  1  0  0  0  0
 21 22  1  0  0  0  0
M  CHG  1   3  -1
M  END
> <s_m_source_file>
AV-unprocessed.smi

> <i_m_source_file_index>
688

> <i_lp_mmshare_version>
43012

> <i_f3d_flags>
0

> <s_epik_input>
Tz1jMVtuSF1jKD1PKW4oW2NIXWMxQ2wpW0NIMl1bQ0BIXShbT0hdKVtDSDJdT1tDSDJdYzJbY0hdW2NIXWMoQ2wpW2NIXVtjSF0y

> <s_epik_cmdline>
J2VwaWtfcHl0aG9uJywgJy1waCcsICc3LjAnLCAnLXRuJywgJzgnLCAnLW1hJywgJzIwMCcsICctbWV0YWxfYmluZGluZycsICctaW1hZScsICc8aW5maWxlLm1hZT4nLCAnLW9tYWUnLCAnPG91dGZpbGUubWFlPic=

> <r_epik_Ionization_Penalty>
1.82111

> <r_epik_Ionization_Penalty_Charging>
5.03334e-08

> <r_epik_Ionization_Penalty_Neutral>
1.82111

> <r_epik_State_Penalty>
1.93633

> <r_epik_Charging_Adjusted_Penalty>
1.93633

> <i_epik_Tot_Q>
-1

> <i_epik_Tot_abs_Q>
1

> <r_epik_Metal_State_Penalty>
0.0147818

> <b_epik_Metal_Only>
0

> <s_lp_Force_Field>
OPLS_2005

> <r_lp_Energy>
20.5354

> <b_lp_Chiralities_Consistent>
1

> <s_lp_Variant>
AV-unprocessed.smi:688-4

> <Gold.Version>
5.8.1

> <Gold.Id.Protein>
6NUR|6NUR_protein|mol2

> <Gold.PLP.Fitness>
55.3676

> <Gold.PLP.PLP>
-43.8442

> <Gold.PLP.part.hbond>
-3.8428

> <Gold.PLP.part.metal>
0.0000

> <Gold.PLP.part.buried>
-6.8831

> <Gold.PLP.part.nonpolar>
-35.3146

> <Gold.PLP.part.repulsive>
0.0044

> <Gold.PLP.ligand.clash>
0.0000

> <Gold.PLP.ligand.torsion>
0.4917

> <Gold.PLP.Chemscore.Hbond>
3.3143

> <Gold.PLP.Chemscore.CHOScore>
0.7937

> <Gold.PLP.Chemscore.Metal>
0.0000

> <Gold.Chemscore.Hbonds>
donor molecule, donor type, donor heavy atom, donor atom, acceptor molecule, acceptor atom, score
      L1  H     9    26       P1  7949  0.99
      P1  H  6896  6908       L1     3  1.47
      P1  H 10752 10763       L1     9  0.82
      L1  C    20    35       P1  7948  0.71

> <Gold.PLP.Chemscore.Internal.Correction>
0.1831

> <Gold.Rescore>
     Score         DG    S(hbond)    S(metal)    S(lipo)     H(rot)  DE(clash)    DE(int)     intcor
     15.85     -19.02       2.16        0.00     116.54       2.85       1.95       1.22       ----

> <Gold.Chemscore.Fitness>
15.8478

> <Gold.Chemscore.DG>
-19.0178

> <Gold.Chemscore.ZeroCoef>
-5.4800

> <Gold.Chemscore.Hbond>
2.1583

> <Gold.Chemscore.Metal>
0.0000

> <Gold.Chemscore.Lipo>
116.5440

> <Gold.Chemscore.Internal_Hbond>
0.0000

> <Gold.Chemscore.DEClash>
1.9528

> <Gold.Chemscore.DEInternal>
1.2173

> <Gold.Chemscore.Rot>
2.8542

> <Gold.Chemscore.Internal.Correction>
   9.000000E+99

> <Gold.Chemscore.Hbonds>
donor molecule, donor type, donor heavy atom, donor atom, acceptor molecule, acceptor atom, score
      L1  H     9    26       P1  7949  0.82
      P1  H  6896  6908       L1     3  0.59
      P1  H 10752 10763       L1     9  0.28

> <Gold.Chemscore.Hbond.Weighted>
-7.2089

> <Gold.Chemscore.Metal.Weighted>
-0.0000

> <Gold.Chemscore.Lipo.Weighted>
-13.6357

> <Gold.Chemscore.Internal_Hbond.Weighted>
0.0000

> <Gold.Chemscore.DEClash.Weighted>
1.9528

> <Gold.Chemscore.DEInternal.Weighted>
1.2173

> <Gold.Chemscore.Rot.Weighted>
7.3067

> <Gold.Chemscore.Internal.Correction.Weighted>
   9.000000E+99

> <Gold.Protein.RotatedTorsions>
[ 6907 6896 6895 6894 ] final  107.90 input  -60.11 | X-H torsion
[ 7974 7965 7964 7962 ] final -102.21 input  175.53 | X-H torsion
[ 8008 7997 7996 7995 ] final  -80.02 input   59.86 | X-H torsion
[ 10167 10162 10161 10158 ] final  -13.38 input  -65.29 | X-H torsion
[ 10718 10713 10712 10709 ] final -167.76 input   66.30 | X-H torsion
[ 10763 10752 10751 10750 ] final   11.64 input  -60.55 | X-H torsion
[ 11005 11000 10999 10996 ] final   93.65 input  -57.11 | X-H torsion

> <Gold.Protein.ActiveResidues>
 VAL166  LYS551  ARG553  GLY616  TRP617  ASP618  TYR619  PRO620  LYS621  CYS622 
 ASP623  PHE694  ASN695  SER759  ASP760  ASP761  ALA762  ILE779  LEU786  VAL792 
 PHE793  MET794  SER795  GLU796  ALA797  LYS798  CYS799  TRP800  GLU811  SER814 

> <Gold.Protein.RotatedAtoms>
  152.5135  133.9167  159.7514 H   0  0  0  0  0  0  0  0  0  0  0  0  # atno 6907 bound_to 6896
  150.9548  133.6501  159.2772 H   0  0  0  0  0  0  0  0  0  0  0  0  # atno 6908 bound_to 6896
  151.3767  135.0937  159.9535 H   0  0  0  0  0  0  0  0  0  0  0  0  # atno 6909 bound_to 6896
  145.2716  140.9300  143.2983 H   0  0  0  0  0  0  0  0  0  0  0  0  # atno 7974 bound_to 7965
  154.5842  140.0669  156.9147 H   0  0  0  0  0  0  0  0  0  0  0  0  # atno 8008 bound_to 7997
  155.2409  140.3344  155.4274 H   0  0  0  0  0  0  0  0  0  0  0  0  # atno 8009 bound_to 7997
  156.2211  140.1799  156.7460 H   0  0  0  0  0  0  0  0  0  0  0  0  # atno 8010 bound_to 7997
  140.7181  143.5433  150.9384 H   0  0  0  0  0  0  0  0  0  0  0  0  # atno 10167 bound_to 10162
  156.6870  130.9144  151.3064 H   0  0  0  0  0  0  0  0  0  0  0  0  # atno 10718 bound_to 10713
  153.1905  135.6841  153.8359 H   0  0  0  0  0  0  0  0  0  0  0  0  # atno 10763 bound_to 10752
  153.7660  135.3203  155.3345 H   0  0  0  0  0  0  0  0  0  0  0  0  # atno 10764 bound_to 10752
  154.8114  135.4715  154.0625 H   0  0  0  0  0  0  0  0  0  0  0  0  # atno 10765 bound_to 10752
  139.8807  134.8801  156.3748 H   0  0  0  0  0  0  0  0  0  0  0  0  # atno 11005 bound_to 11000
  144.9330  139.4277  143.6486 LP  0  0  0  0  0  0  0  0  0  0  0  0  # atno 17320 bound_to 7965
  146.3244  139.8250  142.8919 LP  0  0  0  0  0  0  0  0  0  0  0  0  # atno 17321 bound_to 7965
  139.9156  143.6668  152.3107 LP  0  0  0  0  0  0  0  0  0  0  0  0  # atno 17342 bound_to 10162
  139.7066  144.7627  151.1182 LP  0  0  0  0  0  0  0  0  0  0  0  0  # atno 17343 bound_to 10162
  157.7023  130.9346  150.0822 LP  0  0  0  0  0  0  0  0  0  0  0  0  # atno 17370 bound_to 10713
  156.1825  130.3651  149.9016 LP  0  0  0  0  0  0  0  0  0  0  0  0  # atno 17371 bound_to 10713
  140.9439  133.7496  156.0183 LP  0  0  0  0  0  0  0  0  0  0  0  0  # atno 17394 bound_to 11000
  140.8186  134.3315  157.5389 LP  0  0  0  0  0  0  0  0  0  0  0  0  # atno 17395 bound_to 11000

$$$$
