AV-unprocessed.smi:1867|AV-procd|sdf|7579|dock1
  -GOLD-   22720 9293D 1   1.00000     0.00000
 Structure written by MMmdl.
 52 55  0  0  0  0  0  0  0  0  4 V2000
  147.6044  140.6856  153.5544 O   0  0  0  0  0  0  0  0  0  0  0  0
  148.0018  139.5378  153.7446 C   0  0  0  0  0  0  0  0  0  0  0  0
  149.0354  139.3311  154.5977 N   0  0  0  0  0  0  0  0  0  0  0  0
  149.7248  140.2660  155.4158 C   0  0  0  0  0  0  0  0  0  0  0  0
  150.7227  139.7733  156.2819 C   0  0  0  0  0  0  0  0  0  0  0  0
  151.4173  140.6623  157.1275 C   0  0  0  0  0  0  0  0  0  0  0  0
  151.1009  142.0412  157.1062 C   0  0  0  0  0  0  0  0  0  0  0  0
  151.7509  142.9861  157.9227 N   0  0  0  0  0  0  0  0  0  0  0  0
  151.9853  142.7298  159.3353 C   0  0  0  0  0  0  0  0  0  0  0  0
  152.5078  144.0550  159.8873 C   0  0  0  0  0  0  0  0  0  0  0  0
  151.7839  145.0949  159.0325 C   0  0  0  0  0  0  0  0  0  0  0  0
  151.6298  144.4148  157.6670 C   0  0  0  0  0  0  0  0  0  0  0  0
  150.1187  142.4658  156.2761 N   0  3  0  0  0  0  0  0  0  0  0  0
  149.4301  141.6494  155.4495 C   0  0  0  0  0  0  0  0  0  0  0  0
  147.4338  138.4770  153.0957 N   0  5  0  0  0  0  0  0  0  0  0  0
  146.0208  138.2423  152.7509 C   0  0  1  0  0  0  0  0  0  0  0  0
  145.8930  136.9828  151.8842 C   0  0  0  0  0  0  0  0  0  0  0  0
  145.8141  135.8034  152.8725 C   0  0  0  0  0  0  0  0  0  0  0  0
  145.4648  136.3644  154.2030 N   0  3  1  0  0  0  0  0  0  0  0  0
  146.4701  136.0231  155.2510 C   0  0  0  0  0  0  0  0  0  0  0  0
  146.2366  136.7922  156.5565 C   0  0  0  0  0  0  0  0  0  0  0  0
  146.3087  138.2977  156.2934 C   0  0  0  0  0  0  0  0  0  0  0  0
  145.2297  138.6939  155.2766 C   0  0  0  0  0  0  0  0  0  0  0  0
  145.2086  137.8173  153.9927 C   0  0  1  0  0  0  0  0  0  0  0  0
  149.3914  138.3868  154.6237 H   0  0  0  0  0  0  0  0  0  0  0  0
  150.9601  138.7196  156.2977 H   0  0  0  0  0  0  0  0  0  0  0  0
  152.1787  140.2734  157.7871 H   0  0  0  0  0  0  0  0  0  0  0  0
  151.0459  142.4563  159.8182 H   0  0  0  0  0  0  0  0  0  0  0  0
  152.7010  141.9207  159.4850 H   0  0  0  0  0  0  0  0  0  0  0  0
  152.3213  144.1733  160.9550 H   0  0  0  0  0  0  0  0  0  0  0  0
  153.5837  144.1269  159.7217 H   0  0  0  0  0  0  0  0  0  0  0  0
  150.7979  145.2901  159.4566 H   0  0  0  0  0  0  0  0  0  0  0  0
  152.3165  146.0445  158.9745 H   0  0  0  0  0  0  0  0  0  0  0  0
  152.4296  144.7202  156.9916 H   0  0  0  0  0  0  0  0  0  0  0  0
  150.6759  144.6764  157.2086 H   0  0  0  0  0  0  0  0  0  0  0  0
  148.6655  142.1350  154.8617 H   0  0  0  0  0  0  0  0  0  0  0  0
  145.5623  139.1040  152.2637 H   0  0  0  0  0  0  0  0  0  0  0  0
  144.9627  137.0354  151.3168 H   0  0  0  0  0  0  0  0  0  0  0  0
  146.7005  136.8698  151.1592 H   0  0  0  0  0  0  0  0  0  0  0  0
  145.0573  135.0831  152.5606 H   0  0  0  0  0  0  0  0  0  0  0  0
  146.7660  135.2693  152.9029 H   0  0  0  0  0  0  0  0  0  0  0  0
  146.4320  134.9497  155.4385 H   0  0  0  0  0  0  0  0  0  0  0  0
  147.4766  136.2397  154.8893 H   0  0  0  0  0  0  0  0  0  0  0  0
  145.2678  136.5279  156.9828 H   0  0  0  0  0  0  0  0  0  0  0  0
  146.9900  136.5089  157.2920 H   0  0  0  0  0  0  0  0  0  0  0  0
  146.1663  138.8498  157.2226 H   0  0  0  0  0  0  0  0  0  0  0  0
  147.2985  138.5662  155.9227 H   0  0  0  0  0  0  0  0  0  0  0  0
  144.2641  138.5821  155.7718 H   0  0  0  0  0  0  0  0  0  0  0  0
  145.3052  139.7565  155.0385 H   0  0  0  0  0  0  0  0  0  0  0  0
  144.1710  137.8538  153.6549 H   0  0  0  0  0  0  0  0  0  0  0  0
  144.5913  135.9559  154.5014 H   0  0  0  0  0  0  0  0  0  0  0  0
  149.8827  143.4581  156.2740 H   0  0  0  0  0  0  0  0  0  0  0  0
  1  2  2  0  0  0  0
  2  3  1  0  0  0  0
  2 15  1  0  0  0  0
  3  4  1  0  0  0  0
  3 25  1  0  0  0  0
  4 14  1  0  0  0  0
  4  5  2  0  0  0  0
  5  6  1  0  0  0  0
  5 26  1  0  0  0  0
  6  7  2  0  0  0  0
  6 27  1  0  0  0  0
  7  8  1  0  0  0  0
  7 13  1  0  0  0  0
  8 12  1  0  0  0  0
  8  9  1  0  0  0  0
  9 10  1  0  0  0  0
  9 28  1  0  0  0  0
  9 29  1  0  0  0  0
 10 11  1  0  0  0  0
 10 30  1  0  0  0  0
 10 31  1  0  0  0  0
 11 12  1  0  0  0  0
 11 32  1  0  0  0  0
 11 33  1  0  0  0  0
 12 34  1  0  0  0  0
 12 35  1  0  0  0  0
 13 14  2  0  0  0  0
 13 52  1  0  0  0  0
 14 36  1  0  0  0  0
 15 16  1  0  0  0  0
 16 24  1  0  0  0  0
 16 17  1  0  0  0  0
 16 37  1  0  0  0  0
 17 18  1  0  0  0  0
 17 38  1  0  0  0  0
 17 39  1  0  0  0  0
 18 19  1  0  0  0  0
 18 40  1  0  0  0  0
 18 41  1  0  0  0  0
 19 24  1  0  0  0  0
 19 20  1  0  0  0  0
 19 51  1  0  0  0  0
 20 21  1  0  0  0  0
 20 42  1  0  0  0  0
 20 43  1  0  0  0  0
 21 22  1  0  0  0  0
 21 44  1  0  0  0  0
 21 45  1  0  0  0  0
 22 23  1  0  0  0  0
 22 46  1  0  0  0  0
 22 47  1  0  0  0  0
 23 24  1  0  0  0  0
 23 48  1  0  0  0  0
 23 49  1  0  0  0  0
 24 50  1  0  0  0  0
M  CHG  1  13   1
M  CHG  1  15  -1
M  CHG  1  19   1
M  END
> <s_m_source_file>
AV-unprocessed.smi

> <i_m_source_file_index>
1867

> <i_lp_mmshare_version>
43012

> <i_f3d_flags>
0

> <s_epik_input>
W0NIMl0xW0NIMl1bQ0gyXVtDSDJdW0NASF0oTjEyKVtDQEBIXShbQ0gyXVtDSDJdMilbTkhdQyg9TylbTkhdYzNbY0hdW2NIXWMobltjSF0zKU40W0NIMl1bQ0gyXVtDSDJdW0NIMl00

> <s_epik_cmdline>
J2VwaWtfcHl0aG9uJywgJy1waCcsICc3LjAnLCAnLXRuJywgJzgnLCAnLW1hJywgJzIwMCcsICctbWV0YWxfYmluZGluZycsICctaW1hZScsICc8aW5maWxlLm1hZT4nLCAnLW9tYWUnLCAnPG91dGZpbGUubWFlPic=

> <r_lp_tautomer_probability>
0.999994

> <r_epik_Ionization_Penalty>
8.56137

> <r_epik_Ionization_Penalty_Charging>
8.56136

> <r_epik_Ionization_Penalty_Neutral>
3.91889e-06

> <r_epik_State_Penalty>
8.16255

> <r_epik_Charging_Adjusted_Penalty>
16.7239

> <i_epik_Tot_Q>
1

> <i_epik_Tot_abs_Q>
3

> <r_epik_Metal_State_Penalty>
4.14279

> <b_epik_Metal_Only>
1

> <s_lp_Force_Field>
OPLS_2005

> <r_lp_Energy>
73.5992

> <b_lp_Chiralities_Consistent>
1

> <s_lp_Variant>
AV-unprocessed.smi:1867-20

> <Gold.Version>
5.8.1

> <Gold.Id.Protein>
6NUR|6NUR_protein|mol2

> <Gold.PLP.Fitness>
38.4149

> <Gold.PLP.PLP>
-33.9146

> <Gold.PLP.part.hbond>
-1.0000

> <Gold.PLP.part.metal>
0.0000

> <Gold.PLP.part.buried>
-2.8685

> <Gold.PLP.part.nonpolar>
-32.8617

> <Gold.PLP.part.repulsive>
1.6302

> <Gold.PLP.ligand.clash>
0.0000

> <Gold.PLP.ligand.torsion>
0.8329

> <Gold.PLP.Chemscore.Hbond>
1.9520

> <Gold.PLP.Chemscore.CHOScore>
0.0000

> <Gold.PLP.Chemscore.Metal>
0.0000

> <Gold.Chemscore.Hbonds>
donor molecule, donor type, donor heavy atom, donor atom, acceptor molecule, acceptor atom, score
      L1  H    13    52       P1  8028  1.95

> <Gold.PLP.Chemscore.Internal.Correction>
0.3101

> <Gold.Rescore>
     Score         DG    S(hbond)    S(metal)    S(lipo)     H(rot)  DE(clash)    DE(int)     intcor
     14.48     -16.72       0.92        0.00      91.68       1.00       0.22       2.02       ----

> <Gold.Chemscore.Fitness>
14.4811

> <Gold.Chemscore.DG>
-16.7246

> <Gold.Chemscore.ZeroCoef>
-5.4800

> <Gold.Chemscore.Hbond>
0.9216

> <Gold.Chemscore.Metal>
0.0000

> <Gold.Chemscore.Lipo>
91.6789

> <Gold.Chemscore.Internal_Hbond>
0.0000

> <Gold.Chemscore.DEClash>
0.2203

> <Gold.Chemscore.DEInternal>
2.0233

> <Gold.Chemscore.Rot>
1.0000

> <Gold.Chemscore.Internal.Correction>
   9.000000E+99

> <Gold.Chemscore.Hbonds>
donor molecule, donor type, donor heavy atom, donor atom, acceptor molecule, acceptor atom, score
      L1  H    13    52       P1  8028  0.93

> <Gold.Chemscore.Hbond.Weighted>
-3.0782

> <Gold.Chemscore.Metal.Weighted>
-0.0000

> <Gold.Chemscore.Lipo.Weighted>
-10.7264

> <Gold.Chemscore.Internal_Hbond.Weighted>
0.0000

> <Gold.Chemscore.DEClash.Weighted>
0.2203

> <Gold.Chemscore.DEInternal.Weighted>
2.0233

> <Gold.Chemscore.Rot.Weighted>
2.5600

> <Gold.Chemscore.Internal.Correction.Weighted>
   9.000000E+99

> <Gold.Protein.RotatedTorsions>
[ 6907 6896 6895 6894 ] final -111.80 input  -60.11 | X-H torsion
[ 7974 7965 7964 7962 ] final   45.07 input  175.53 | X-H torsion
[ 8008 7997 7996 7995 ] final   14.07 input   59.86 | X-H torsion
[ 10167 10162 10161 10158 ] final  110.50 input  -65.29 | X-H torsion
[ 10718 10713 10712 10709 ] final   18.08 input   66.30 | X-H torsion
[ 10763 10752 10751 10750 ] final -165.27 input  -60.55 | X-H torsion
[ 11005 11000 10999 10996 ] final  -28.94 input  -57.11 | X-H torsion

> <Gold.Protein.ActiveResidues>
 VAL166  LYS551  ARG553  GLY616  TRP617  ASP618  TYR619  PRO620  LYS621  CYS622 
 ASP623  PHE694  ASN695  SER759  ASP760  ASP761  ALA762  ILE779  LEU786  VAL792 
 PHE793  MET794  SER795  GLU796  ALA797  LYS798  CYS799  TRP800  GLU811  SER814 

> <Gold.Protein.RotatedAtoms>
  150.7715  133.9182  159.3389 H   0  0  0  0  0  0  0  0  0  0  0  0  # atno 6907 bound_to 6896
  151.7067  135.0918  160.0270 H   0  0  0  0  0  0  0  0  0  0  0  0  # atno 6908 bound_to 6896
  152.3734  133.6411  159.6140 H   0  0  0  0  0  0  0  0  0  0  0  0  # atno 6909 bound_to 6896
  146.0513  139.5005  142.9717 H   0  0  0  0  0  0  0  0  0  0  0  0  # atno 7974 bound_to 7965
  154.8433  140.2918  155.5645 H   0  0  0  0  0  0  0  0  0  0  0  0  # atno 8008 bound_to 7997
  156.3013  140.2510  156.3311 H   0  0  0  0  0  0  0  0  0  0  0  0  # atno 8009 bound_to 7997
  154.9101  140.0389  157.1931 H   0  0  0  0  0  0  0  0  0  0  0  0  # atno 8010 bound_to 7997
  139.6683  144.7126  151.1735 H   0  0  0  0  0  0  0  0  0  0  0  0  # atno 10167 bound_to 10162
  157.0912  130.6428  149.5849 H   0  0  0  0  0  0  0  0  0  0  0  0  # atno 10718 bound_to 10713
  154.6948  135.2977  154.9427 H   0  0  0  0  0  0  0  0  0  0  0  0  # atno 10763 bound_to 10752
  154.0379  135.6661  153.4791 H   0  0  0  0  0  0  0  0  0  0  0  0  # atno 10764 bound_to 10752
  153.0638  135.5100  154.8060 H   0  0  0  0  0  0  0  0  0  0  0  0  # atno 10765 bound_to 10752
  140.9253  133.7373  156.0858 H   0  0  0  0  0  0  0  0  0  0  0  0  # atno 11005 bound_to 11000
  145.6720  141.0214  143.1652 LP  0  0  0  0  0  0  0  0  0  0  0  0  # atno 17320 bound_to 7965
  144.7124  139.8322  143.7410 LP  0  0  0  0  0  0  0  0  0  0  0  0  # atno 17321 bound_to 7965
  140.7608  143.5884  150.8822 LP  0  0  0  0  0  0  0  0  0  0  0  0  # atno 17342 bound_to 10162
  139.9547  143.6231  152.3019 LP  0  0  0  0  0  0  0  0  0  0  0  0  # atno 17343 bound_to 10162
  155.9897  130.4946  150.7227 LP  0  0  0  0  0  0  0  0  0  0  0  0  # atno 17370 bound_to 10713
  157.4719  131.0894  151.0633 LP  0  0  0  0  0  0  0  0  0  0  0  0  # atno 17371 bound_to 10713
  140.7934  134.3591  157.5458 LP  0  0  0  0  0  0  0  0  0  0  0  0  # atno 17394 bound_to 11000
  139.8784  134.9154  156.3130 LP  0  0  0  0  0  0  0  0  0  0  0  0  # atno 17395 bound_to 11000

$$$$
