AV-unprocessed.smi:2104|AV-procd|sdf|8584|dock2
  -GOLD-   2272011313D 1   1.00000     0.00000
 Structure written by MMmdl.
 43 44  0  0  0  0  0  0  0  0  1 V2000
  143.8537  144.0847  162.4910 C   0  0  0  0  0  0  0  0  0  0  0  0
  144.5211  144.2348  161.1672 C   0  0  0  0  0  0  0  0  0  0  0  0
  145.6561  143.6948  160.6305 C   0  0  0  0  0  0  0  0  0  0  0  0
  145.6994  144.2675  159.3315 C   0  0  0  0  0  0  0  0  0  0  0  0
  146.7467  143.9488  158.4300 N   0  0  0  0  0  0  0  0  0  0  0  0
  147.5558  142.8767  158.4643 C   0  0  0  0  0  0  0  0  0  0  0  0
  147.4565  141.9403  159.2579 O   0  0  0  0  0  0  0  0  0  0  0  0
  148.5098  142.9563  157.5247 N   0  0  0  0  0  0  0  0  0  0  0  0
  149.6106  142.0113  157.3654 C   0  0  0  0  0  0  0  0  0  0  0  0
  150.9695  142.7217  157.4569 C   0  0  0  0  0  0  0  0  0  0  0  0
  151.6566  142.2448  158.6032 O   0  0  0  0  0  0  0  0  0  0  0  0
  152.8689  142.9196  158.9135 C   0  0  1  0  0  0  0  0  0  0  0  0
  152.6218  144.4387  159.0457 C   0  0  0  0  0  0  0  0  0  0  0  0
  151.6824  144.7651  160.2192 C   0  0  0  0  0  0  0  0  0  0  0  0
  152.2093  144.1761  161.5363 C   0  0  0  0  0  0  0  0  0  0  0  0
  152.4623  142.6651  161.4130 C   0  0  0  0  0  0  0  0  0  0  0  0
  153.4111  142.3421  160.2401 C   0  0  1  0  0  0  0  0  0  0  0  0
  153.7003  140.8365  160.1384 C   0  0  0  0  0  0  0  0  0  0  0  0
  144.6811  145.0804  159.0953 N   0  0  0  0  0  0  0  0  0  0  0  0
  143.9213  145.0645  160.2709 O   0  0  0  0  0  0  0  0  0  0  0  0
  144.4530  143.4692  163.1621 H   0  0  0  0  0  0  0  0  0  0  0  0
  142.8779  143.6119  162.3793 H   0  0  0  0  0  0  0  0  0  0  0  0
  143.7081  145.0564  162.9633 H   0  0  0  0  0  0  0  0  0  0  0  0
  146.3420  143.0021  161.0949 H   0  0  0  0  0  0  0  0  0  0  0  0
  146.9261  144.6305  157.7077 H   0  0  0  0  0  0  0  0  0  0  0  0
  148.5066  143.7567  156.9094 H   0  0  0  0  0  0  0  0  0  0  0  0
  149.5449  141.2049  158.0977 H   0  0  0  0  0  0  0  0  0  0  0  0
  149.5089  141.5468  156.3843 H   0  0  0  0  0  0  0  0  0  0  0  0
  151.5650  142.5076  156.5686 H   0  0  0  0  0  0  0  0  0  0  0  0
  150.8205  143.8007  157.4954 H   0  0  0  0  0  0  0  0  0  0  0  0
  153.6023  142.7345  158.1263 H   0  0  0  0  0  0  0  0  0  0  0  0
  153.5764  144.9422  159.2034 H   0  0  0  0  0  0  0  0  0  0  0  0
  152.2175  144.8523  158.1225 H   0  0  0  0  0  0  0  0  0  0  0  0
  151.5688  145.8451  160.3154 H   0  0  0  0  0  0  0  0  0  0  0  0
  150.6872  144.3697  160.0153 H   0  0  0  0  0  0  0  0  0  0  0  0
  153.1358  144.6793  161.8154 H   0  0  0  0  0  0  0  0  0  0  0  0
  151.4977  144.3691  162.3397 H   0  0  0  0  0  0  0  0  0  0  0  0
  152.8827  142.2901  162.3467 H   0  0  0  0  0  0  0  0  0  0  0  0
  151.5118  142.1473  161.2758 H   0  0  0  0  0  0  0  0  0  0  0  0
  154.3636  142.8333  160.4448 H   0  0  0  0  0  0  0  0  0  0  0  0
  152.7878  140.2662  159.9614 H   0  0  0  0  0  0  0  0  0  0  0  0
  154.1514  140.4614  161.0574 H   0  0  0  0  0  0  0  0  0  0  0  0
  154.3901  140.6237  159.3213 H   0  0  0  0  0  0  0  0  0  0  0  0
  1  2  1  0  0  0  0
  1 21  1  0  0  0  0
  1 22  1  0  0  0  0
  1 23  1  0  0  0  0
  2 20  1  0  0  0  0
  2  3  2  0  0  0  0
  3  4  1  0  0  0  0
  3 24  1  0  0  0  0
  4  5  1  0  0  0  0
  4 19  2  0  0  0  0
  5  6  1  0  0  0  0
  5 25  1  0  0  0  0
  6  7  2  0  0  0  0
  6  8  1  0  0  0  0
  8  9  1  0  0  0  0
  8 26  1  0  0  0  0
  9 10  1  0  0  0  0
  9 27  1  0  0  0  0
  9 28  1  0  0  0  0
 10 11  1  0  0  0  0
 10 29  1  0  0  0  0
 10 30  1  0  0  0  0
 11 12  1  0  0  0  0
 12 17  1  0  0  0  0
 12 13  1  0  0  0  0
 12 31  1  0  0  0  0
 13 14  1  0  0  0  0
 13 32  1  0  0  0  0
 13 33  1  0  0  0  0
 14 15  1  0  0  0  0
 14 34  1  0  0  0  0
 14 35  1  0  0  0  0
 15 16  1  0  0  0  0
 15 36  1  0  0  0  0
 15 37  1  0  0  0  0
 16 17  1  0  0  0  0
 16 38  1  0  0  0  0
 16 39  1  0  0  0  0
 17 18  1  0  0  0  0
 17 40  1  0  0  0  0
 18 41  1  0  0  0  0
 18 42  1  0  0  0  0
 18 43  1  0  0  0  0
 19 20  1  0  0  0  0
M  END
> <s_m_source_file>
AV-unprocessed.smi

> <i_m_source_file_index>
2104

> <i_lp_mmshare_version>
43012

> <i_f3d_flags>
0

> <s_epik_input>
W0NIM11jMVtjSF1jKG5vMSlbTkhdQyg9TylbTkhdW0NIMl1bQ0gyXU9bQ0BASF0yW0NIMl1bQ0gyXVtDSDJdW0NIMl1bQ0BIXTJbQ0gzXQ==

> <s_epik_cmdline>
J2VwaWtfcHl0aG9uJywgJy1waCcsICc3LjAnLCAnLXRuJywgJzgnLCAnLW1hJywgJzIwMCcsICctbWV0YWxfYmluZGluZycsICctaW1hZScsICc8aW5maWxlLm1hZT4nLCAnLW9tYWUnLCAnPG91dGZpbGUubWFlPic=

> <r_lp_tautomer_probability>
1

> <r_epik_Ionization_Penalty>
2.94418e-05

> <r_epik_Ionization_Penalty_Charging>
0

> <r_epik_Ionization_Penalty_Neutral>
2.94418e-05

> <r_epik_State_Penalty>
-0

> <r_epik_Charging_Adjusted_Penalty>
0

> <i_epik_Tot_Q>
0

> <i_epik_Tot_abs_Q>
0

> <r_epik_Metal_State_Penalty>
0.0104148

> <b_epik_Metal_Only>
0

> <s_lp_Force_Field>
OPLS_2005

> <r_lp_Energy>
8.22598

> <b_lp_Chiralities_Consistent>
1

> <s_lp_Variant>
AV-unprocessed.smi:2104-2

> <Gold.Version>
5.8.1

> <Gold.Id.Protein>
6NUR|6NUR_protein|mol2

> <Gold.PLP.Fitness>
49.0016

> <Gold.PLP.PLP>
-43.7250

> <Gold.PLP.part.hbond>
-4.6018

> <Gold.PLP.part.metal>
0.0000

> <Gold.PLP.part.buried>
-2.5846

> <Gold.PLP.part.nonpolar>
-36.5502

> <Gold.PLP.part.repulsive>
0.3049

> <Gold.PLP.ligand.clash>
0.0000

> <Gold.PLP.ligand.torsion>
0.4908

> <Gold.PLP.Chemscore.Hbond>
2.0760

> <Gold.PLP.Chemscore.CHOScore>
0.0000

> <Gold.PLP.Chemscore.Metal>
0.0000

> <Gold.Chemscore.Hbonds>
donor molecule, donor type, donor heavy atom, donor atom, acceptor molecule, acceptor atom, score
      L1  H     5    25       P1  8029  0.84
      L1  H     8    26       P1  8028  0.65
      P1  H  6934  6946       L1     7  0.45

> <Gold.PLP.Chemscore.Internal.Correction>
0.0301

> <Gold.Rescore>
     Score         DG    S(hbond)    S(metal)    S(lipo)     H(rot)  DE(clash)    DE(int)     intcor
     16.05     -17.94       1.19        0.00     110.81       1.75       0.08       1.81       ----

> <Gold.Chemscore.Fitness>
16.0476

> <Gold.Chemscore.DG>
-17.9404

> <Gold.Chemscore.ZeroCoef>
-5.4800

> <Gold.Chemscore.Hbond>
1.1923

> <Gold.Chemscore.Metal>
0.0000

> <Gold.Chemscore.Lipo>
110.8057

> <Gold.Chemscore.Internal_Hbond>
0.0000

> <Gold.Chemscore.DEClash>
0.0799

> <Gold.Chemscore.DEInternal>
1.8129

> <Gold.Chemscore.Rot>
1.7524

> <Gold.Chemscore.Internal.Correction>
   9.000000E+99

> <Gold.Chemscore.Hbonds>
donor molecule, donor type, donor heavy atom, donor atom, acceptor molecule, acceptor atom, score
      L1  H     5    25       P1  8029  0.16
      L1  H     8    26       P1  8028  0.06
      P1  H  6933  6944       L1     7  0.02
      P1  H  6934  6946       L1     7  0.46

> <Gold.Chemscore.Hbond.Weighted>
-3.9823

> <Gold.Chemscore.Metal.Weighted>
-0.0000

> <Gold.Chemscore.Lipo.Weighted>
-12.9643

> <Gold.Chemscore.Internal_Hbond.Weighted>
0.0000

> <Gold.Chemscore.DEClash.Weighted>
0.0799

> <Gold.Chemscore.DEInternal.Weighted>
1.8129

> <Gold.Chemscore.Rot.Weighted>
4.4861

> <Gold.Chemscore.Internal.Correction.Weighted>
   9.000000E+99

> <Gold.Protein.RotatedTorsions>
[ 6907 6896 6895 6894 ] final  176.95 input  -60.11 | X-H torsion
[ 7974 7965 7964 7962 ] final  -63.18 input  175.53 | X-H torsion
[ 8008 7997 7996 7995 ] final  169.63 input   59.86 | X-H torsion
[ 10167 10162 10161 10158 ] final  149.54 input  -65.29 | X-H torsion
[ 10718 10713 10712 10709 ] final -165.11 input   66.30 | X-H torsion
[ 10763 10752 10751 10750 ] final   49.76 input  -60.55 | X-H torsion
[ 11005 11000 10999 10996 ] final -148.36 input  -57.11 | X-H torsion

> <Gold.Protein.ActiveResidues>
 VAL166  LYS551  ARG553  GLY616  TRP617  ASP618  TYR619  PRO620  LYS621  CYS622 
 ASP623  PHE694  ASN695  SER759  ASP760  ASP761  ALA762  ILE779  LEU786  VAL792 
 PHE793  MET794  SER795  GLU796  ALA797  LYS798  CYS799  TRP800  GLU811  SER814 

> <Gold.Protein.RotatedAtoms>
  151.7118  133.3312  159.3292 H   0  0  0  0  0  0  0  0  0  0  0  0  # atno 6907 bound_to 6896
  150.7690  134.6525  159.6305 H   0  0  0  0  0  0  0  0  0  0  0  0  # atno 6908 bound_to 6896
  152.3706  134.6741  160.0229 H   0  0  0  0  0  0  0  0  0  0  0  0  # atno 6909 bound_to 6896
  145.7823  140.8755  143.0324 H   0  0  0  0  0  0  0  0  0  0  0  0  # atno 7974 bound_to 7965
  156.1440  140.1559  156.8876 H   0  0  0  0  0  0  0  0  0  0  0  0  # atno 8008 bound_to 7997
  154.5012  140.0825  156.7839 H   0  0  0  0  0  0  0  0  0  0  0  0  # atno 8009 bound_to 7997
  155.4025  140.3415  155.4260 H   0  0  0  0  0  0  0  0  0  0  0  0  # atno 8010 bound_to 7997
  139.4860  144.5593  151.7260 H   0  0  0  0  0  0  0  0  0  0  0  0  # atno 10167 bound_to 10162
  156.6487  130.8998  151.3009 H   0  0  0  0  0  0  0  0  0  0  0  0  # atno 10718 bound_to 10713
  152.9786  135.5901  154.4141 H   0  0  0  0  0  0  0  0  0  0  0  0  # atno 10763 bound_to 10752
  154.3773  135.2767  155.2234 H   0  0  0  0  0  0  0  0  0  0  0  0  # atno 10764 bound_to 10752
  154.4163  135.6069  153.6037 H   0  0  0  0  0  0  0  0  0  0  0  0  # atno 10765 bound_to 10752
  140.7620  134.3287  157.5099 H   0  0  0  0  0  0  0  0  0  0  0  0  # atno 11005 bound_to 11000
  144.6794  140.0006  143.7484 LP  0  0  0  0  0  0  0  0  0  0  0  0  # atno 17320 bound_to 7965
  146.0062  139.3132  143.0898 LP  0  0  0  0  0  0  0  0  0  0  0  0  # atno 17321 bound_to 7965
  140.5160  144.0952  150.6008 LP  0  0  0  0  0  0  0  0  0  0  0  0  # atno 17342 bound_to 10162
  140.3894  143.2760  152.0078 LP  0  0  0  0  0  0  0  0  0  0  0  0  # atno 17343 bound_to 10162
  157.7148  130.9484  150.1216 LP  0  0  0  0  0  0  0  0  0  0  0  0  # atno 17370 bound_to 10713
  156.2102  130.3666  149.8680 LP  0  0  0  0  0  0  0  0  0  0  0  0  # atno 17371 bound_to 10713
  139.8769  134.9208  156.3259 LP  0  0  0  0  0  0  0  0  0  0  0  0  # atno 17394 bound_to 11000
  140.9654  133.7361  156.0460 LP  0  0  0  0  0  0  0  0  0  0  0  0  # atno 17395 bound_to 11000

$$$$
