AV-unprocessed.smi:109|AV-procd|sdf|1054|dock6
  -GOLD-   2262018113D 1   1.00000     0.00000
 Structure written by MMmdl.
 58 61  0  0  0  0  0  0  0  0  1 V2000
  150.0289  140.7275  153.6713 O   0  0  0  0  0  0  0  0  0  0  0  0
  150.3883  139.9026  154.7583 C   0  0  0  0  0  0  0  0  0  0  0  0
  151.1401  140.7284  155.8140 C   0  0  0  0  0  0  0  0  0  0  0  0
  150.2407  141.2324  156.9640 C   0  0  1  0  0  0  0  0  0  0  0  0
  149.4636  140.1360  157.5451 N   0  0  0  0  0  0  0  0  0  0  0  0
  150.0190  138.9490  157.8761 C   0  0  0  0  0  0  0  0  0  0  0  0
  151.3582  138.7395  157.7873 N   0  0  0  0  0  0  0  0  0  0  0  0
  151.8739  137.5533  158.1219 C   0  0  0  0  0  0  0  0  0  0  0  0
  151.2414  136.4629  158.5600 N   0  0  0  0  0  0  0  0  0  0  0  0
  149.8952  136.6667  158.6510 C   0  0  0  0  0  0  0  0  0  0  0  0
  149.2131  137.8733  158.3303 C   0  0  0  0  0  0  0  0  0  0  0  0
  147.8499  137.7143  158.5428 N   0  0  0  0  0  0  0  0  0  0  0  0
  147.7373  136.4820  158.9604 C   0  0  0  0  0  0  0  0  0  0  0  0
  148.9186  135.7804  159.0572 N   0  0  0  0  0  0  0  0  0  0  0  0
  149.1040  134.3648  159.4950 C   0  0  1  0  0  0  0  0  0  0  0  0
  148.4883  134.2120  160.7333 O   0  0  0  0  0  0  0  0  0  0  0  0
  147.9762  132.8911  160.8276 C   0  0  1  0  0  0  0  0  0  0  0  0
  146.9296  132.7805  161.9506 C   0  0  0  0  0  0  0  0  0  0  0  0
  146.2757  131.5312  161.8834 O   0  0  0  0  0  0  0  0  0  0  0  0
  147.4590  132.6199  159.4064 C   0  0  1  0  0  0  0  0  0  0  0  0
  146.1425  133.1103  159.2337 O   0  0  0  0  0  0  0  0  0  0  0  0
  148.4362  133.3842  158.5143 C   0  0  2  0  0  0  0  0  0  0  0  0
  149.3827  132.4832  157.9750 O   0  0  0  0  0  0  0  0  0  0  0  0
  151.0427  141.9768  158.0612 C   0  0  0  0  0  0  0  0  0  0  0  0
  151.3147  143.4665  157.7428 C   0  0  0  0  0  0  0  0  0  0  0  0
  152.0860  144.1580  158.8794 C   0  0  0  0  0  0  0  0  0  0  0  0
  153.3944  143.4192  159.1986 C   0  0  0  0  0  0  0  0  0  0  0  0
  153.1275  141.9438  159.5316 C   0  0  0  0  0  0  0  0  0  0  0  0
  152.3634  141.2470  158.3946 C   0  0  0  0  0  0  0  0  0  0  0  0
  150.1833  134.2314  159.5861 H   0  0  0  0  0  0  0  0  0  0  0  0
  148.8088  132.2112  161.0215 H   0  0  0  0  0  0  0  0  0  0  0  0
  147.4396  131.5508  159.1893 H   0  0  0  0  0  0  0  0  0  0  0  0
  147.9351  133.9111  157.6999 H   0  0  0  0  0  0  0  0  0  0  0  0
  149.5929  140.1957  153.0230 H   0  0  0  0  0  0  0  0  0  0  0  0
  149.4860  139.4627  155.1839 H   0  0  0  0  0  0  0  0  0  0  0  0
  151.0081  139.0866  154.3864 H   0  0  0  0  0  0  0  0  0  0  0  0
  151.9666  140.1395  156.2132 H   0  0  0  0  0  0  0  0  0  0  0  0
  151.5915  141.5873  155.3156 H   0  0  0  0  0  0  0  0  0  0  0  0
  149.5732  141.9804  156.5370 H   0  0  0  0  0  0  0  0  0  0  0  0
  148.4774  140.3216  157.6585 H   0  0  0  0  0  0  0  0  0  0  0  0
  152.9458  137.4651  158.0234 H   0  0  0  0  0  0  0  0  0  0  0  0
  146.7806  136.0478  159.2120 H   0  0  0  0  0  0  0  0  0  0  0  0
  147.3837  132.9169  162.9327 H   0  0  0  0  0  0  0  0  0  0  0  0
  146.1688  133.5525  161.8322 H   0  0  0  0  0  0  0  0  0  0  0  0
  145.8268  131.3829  162.7017 H   0  0  0  0  0  0  0  0  0  0  0  0
  145.7190  132.5971  158.5611 H   0  0  0  0  0  0  0  0  0  0  0  0
  149.9953  132.9722  157.4468 H   0  0  0  0  0  0  0  0  0  0  0  0
  150.4374  141.9481  158.9686 H   0  0  0  0  0  0  0  0  0  0  0  0
  151.8875  143.5562  156.8191 H   0  0  0  0  0  0  0  0  0  0  0  0
  150.3777  143.9983  157.5779 H   0  0  0  0  0  0  0  0  0  0  0  0
  152.3012  145.1916  158.6066 H   0  0  0  0  0  0  0  0  0  0  0  0
  151.4617  144.1984  159.7728 H   0  0  0  0  0  0  0  0  0  0  0  0
  154.0702  143.4849  158.3448 H   0  0  0  0  0  0  0  0  0  0  0  0
  153.9017  143.9035  160.0333 H   0  0  0  0  0  0  0  0  0  0  0  0
  154.0703  141.4281  159.7158 H   0  0  0  0  0  0  0  0  0  0  0  0
  152.5517  141.8753  160.4554 H   0  0  0  0  0  0  0  0  0  0  0  0
  152.1579  140.2137  158.6762 H   0  0  0  0  0  0  0  0  0  0  0  0
  153.0009  141.2025  157.5105 H   0  0  0  0  0  0  0  0  0  0  0  0
  1  2  1  0  0  0  0
  1 34  1  0  0  0  0
  2  3  1  0  0  0  0
  2 35  1  0  0  0  0
  2 36  1  0  0  0  0
  3  4  1  0  0  0  0
  3 37  1  0  0  0  0
  3 38  1  0  0  0  0
  4  5  1  0  0  0  0
  4 24  1  0  0  0  0
  4 39  1  0  0  0  0
  5  6  1  0  0  0  0
  5 40  1  0  0  0  0
  6 11  1  0  0  0  0
  6  7  2  0  0  0  0
  7  8  1  0  0  0  0
  8  9  2  0  0  0  0
  8 41  1  0  0  0  0
  9 10  1  0  0  0  0
 10 14  1  0  0  0  0
 10 11  2  0  0  0  0
 11 12  1  0  0  0  0
 12 13  2  0  0  0  0
 13 14  1  0  0  0  0
 13 42  1  0  0  0  0
 14 15  1  0  0  0  0
 15 30  1  0  0  0  0
 15 22  1  0  0  0  0
 15 16  1  0  0  0  0
 16 17  1  0  0  0  0
 17 31  1  0  0  0  0
 17 18  1  0  0  0  0
 17 20  1  0  0  0  0
 18 19  1  0  0  0  0
 18 43  1  0  0  0  0
 18 44  1  0  0  0  0
 19 45  1  0  0  0  0
 20 32  1  0  0  0  0
 20 21  1  0  0  0  0
 20 22  1  0  0  0  0
 21 46  1  0  0  0  0
 22 33  1  0  0  0  0
 22 23  1  0  0  0  0
 23 47  1  0  0  0  0
 24 29  1  0  0  0  0
 24 25  1  0  0  0  0
 24 48  1  0  0  0  0
 25 26  1  0  0  0  0
 25 49  1  0  0  0  0
 25 50  1  0  0  0  0
 26 27  1  0  0  0  0
 26 51  1  0  0  0  0
 26 52  1  0  0  0  0
 27 28  1  0  0  0  0
 27 53  1  0  0  0  0
 27 54  1  0  0  0  0
 28 29  1  0  0  0  0
 28 55  1  0  0  0  0
 28 56  1  0  0  0  0
 29 57  1  0  0  0  0
 29 58  1  0  0  0  0
M  END
> <s_m_source_file>
AV-unprocessed.smi

> <i_m_source_file_index>
109

> <i_lp_mmshare_version>
43012

> <i_f3d_flags>
0

> <s_epik_input>
W0NIMl0xW0NIMl1bQ0gyXVtDSDJdW0NIMl1bQ0hdMVtDQEhdKFtDSDJdW0NIMl1bT0hdKVtOSF1jKG5bY0hdbjIpYyhjMjMpbltjSF1uM1tDQEBIXTRPW0NASF0oW0NIMl1bT0hdKVtDQEBIXShbT0hdKVtDQEhdNFtPSF0=

> <s_epik_cmdline>
J2VwaWtfcHl0aG9uJywgJy1waCcsICc3LjAnLCAnLXRuJywgJzgnLCAnLW1hJywgJzIwMCcsICctbWV0YWxfYmluZGluZycsICctaW1hZScsICc8aW5maWxlLm1hZT4nLCAnLW9tYWUnLCAnPG91dGZpbGUubWFlPic=

> <r_lp_tautomer_probability>
1

> <r_epik_Ionization_Penalty>
0.000793976

> <r_epik_Ionization_Penalty_Charging>
0

> <r_epik_Ionization_Penalty_Neutral>
0.000793976

> <r_epik_State_Penalty>
-0

> <r_epik_Charging_Adjusted_Penalty>
0

> <i_epik_Tot_Q>
0

> <i_epik_Tot_abs_Q>
0

> <r_epik_Metal_State_Penalty>
-0

> <b_epik_Metal_Only>
0

> <s_epik_Chemistry_Notes>
This compound contains an acetal/aminal-like group ( X-CH(R)-Y where X, Y are N, S, or O) that may be acid/base labile, releasing an aldehyde.

> <s_lp_Force_Field>
OPLS_2005

> <r_lp_Energy>
50.1139

> <b_lp_Chiralities_Consistent>
1

> <s_lp_Variant>
AV-unprocessed.smi:109-24

> <Gold.Version>
5.8.1

> <Gold.Id.Protein>
6NUR|6NUR_protein|mol2

> <Gold.PLP.Fitness>
52.5343

> <Gold.PLP.PLP>
-47.3924

> <Gold.PLP.part.hbond>
-4.5350

> <Gold.PLP.part.metal>
0.0000

> <Gold.PLP.part.buried>
-5.5074

> <Gold.PLP.part.nonpolar>
-37.2317

> <Gold.PLP.part.repulsive>
0.1308

> <Gold.PLP.ligand.clash>
0.0000

> <Gold.PLP.ligand.torsion>
1.0728

> <Gold.PLP.Chemscore.Hbond>
2.3204

> <Gold.PLP.Chemscore.CHOScore>
0.0000

> <Gold.PLP.Chemscore.Metal>
0.0000

> <Gold.Chemscore.Hbonds>
donor molecule, donor type, donor heavy atom, donor atom, acceptor molecule, acceptor atom, score
      L1  H     1    34       P1  7957  0.72
      P1  H  6896  6907       L1     9  0.44
      P1  H  7989  7998       L1     1  0.12
      P1  H  8011  8017       L1     1  0.27

> <Gold.PLP.Chemscore.Internal.Correction>
0.3263

> <Gold.Rescore>
     Score         DG    S(hbond)    S(metal)    S(lipo)     H(rot)  DE(clash)    DE(int)     intcor
      4.49      -9.40       1.94        0.00      97.80       5.47       0.81       4.10       ----

> <Gold.Chemscore.Fitness>
4.4867

> <Gold.Chemscore.DG>
-9.3992

> <Gold.Chemscore.ZeroCoef>
-5.4800

> <Gold.Chemscore.Hbond>
1.9371

> <Gold.Chemscore.Metal>
0.0000

> <Gold.Chemscore.Lipo>
97.8001

> <Gold.Chemscore.Internal_Hbond>
0.0000

> <Gold.Chemscore.DEClash>
0.8102

> <Gold.Chemscore.DEInternal>
4.1022

> <Gold.Chemscore.Rot>
5.4662

> <Gold.Chemscore.Internal.Correction>
   9.000000E+99

> <Gold.Chemscore.Hbonds>
donor molecule, donor type, donor heavy atom, donor atom, acceptor molecule, acceptor atom, score
      L1  H     1    34       P1  7957  0.72
      P1  H  6896  6907       L1     9  0.03
      P1  H  8011  8017       L1     1  0.01

> <Gold.Chemscore.Hbond.Weighted>
-6.4701

> <Gold.Chemscore.Metal.Weighted>
-0.0000

> <Gold.Chemscore.Lipo.Weighted>
-11.4426

> <Gold.Chemscore.Internal_Hbond.Weighted>
0.0000

> <Gold.Chemscore.DEClash.Weighted>
0.8102

> <Gold.Chemscore.DEInternal.Weighted>
4.1022

> <Gold.Chemscore.Rot.Weighted>
13.9935

> <Gold.Chemscore.Internal.Correction.Weighted>
   9.000000E+99

> <Gold.Protein.RotatedTorsions>
[ 6907 6896 6895 6894 ] final  -24.59 input  -60.11 | X-H torsion
[ 7974 7965 7964 7962 ] final   73.26 input  175.53 | X-H torsion
[ 8008 7997 7996 7995 ] final   41.32 input   59.86 | X-H torsion
[ 10167 10162 10161 10158 ] final -132.11 input  -65.29 | X-H torsion
[ 10718 10713 10712 10709 ] final  161.42 input   66.30 | X-H torsion
[ 10763 10752 10751 10750 ] final  174.93 input  -60.55 | X-H torsion
[ 11005 11000 10999 10996 ] final  -52.16 input  -57.11 | X-H torsion

> <Gold.Protein.ActiveResidues>
 VAL166  LYS551  ARG553  GLY616  TRP617  ASP618  TYR619  PRO620  LYS621  CYS622 
 ASP623  PHE694  ASN695  SER759  ASP760  ASP761  ALA762  ILE779  LEU786  VAL792 
 PHE793  MET794  SER795  GLU796  ALA797  LYS798  CYS799  TRP800  GLU811  SER814 

> <Gold.Protein.RotatedAtoms>
  151.1873  135.0387  159.8817 H   0  0  0  0  0  0  0  0  0  0  0  0  # atno 6907 bound_to 6896
  152.5441  134.0995  159.8322 H   0  0  0  0  0  0  0  0  0  0  0  0  # atno 6908 bound_to 6896
  151.1120  133.5119  159.2637 H   0  0  0  0  0  0  0  0  0  0  0  0  # atno 6909 bound_to 6896
  145.7431  139.2729  143.1474 H   0  0  0  0  0  0  0  0  0  0  0  0  # atno 7974 bound_to 7965
  155.2677  140.3364  155.4268 H   0  0  0  0  0  0  0  0  0  0  0  0  # atno 8008 bound_to 7997
  156.2147  140.1784  156.7659 H   0  0  0  0  0  0  0  0  0  0  0  0  # atno 8009 bound_to 7997
  154.5736  140.0666  156.8985 H   0  0  0  0  0  0  0  0  0  0  0  0  # atno 8010 bound_to 7997
  139.9120  143.6483  152.2573 H   0  0  0  0  0  0  0  0  0  0  0  0  # atno 10167 bound_to 10162
  157.1367  131.0530  151.2346 H   0  0  0  0  0  0  0  0  0  0  0  0  # atno 10718 bound_to 10713
  154.4606  135.2767  155.1715 H   0  0  0  0  0  0  0  0  0  0  0  0  # atno 10763 bound_to 10752
  154.3505  135.6151  153.5644 H   0  0  0  0  0  0  0  0  0  0  0  0  # atno 10764 bound_to 10752
  152.9854  135.5810  154.4968 H   0  0  0  0  0  0  0  0  0  0  0  0  # atno 10765 bound_to 10752
  141.0910  133.6633  156.3984 H   0  0  0  0  0  0  0  0  0  0  0  0  # atno 11005 bound_to 11000
  146.0428  140.8148  142.9820 LP  0  0  0  0  0  0  0  0  0  0  0  0  # atno 17320 bound_to 7965
  144.6866  140.2936  143.7274 LP  0  0  0  0  0  0  0  0  0  0  0  0  # atno 17321 bound_to 7965
  139.6935  144.7644  151.1397 LP  0  0  0  0  0  0  0  0  0  0  0  0  # atno 17342 bound_to 10162
  140.7683  143.5556  150.9155 LP  0  0  0  0  0  0  0  0  0  0  0  0  # atno 17343 bound_to 10162
  157.4344  130.7508  149.7016 LP  0  0  0  0  0  0  0  0  0  0  0  0  # atno 17370 bound_to 10713
  155.9797  130.4037  150.3573 LP  0  0  0  0  0  0  0  0  0  0  0  0  # atno 17371 bound_to 10713
  140.5253  134.6265  157.5332 LP  0  0  0  0  0  0  0  0  0  0  0  0  # atno 17394 bound_to 11000
  139.9736  134.7253  155.9994 LP  0  0  0  0  0  0  0  0  0  0  0  0  # atno 17395 bound_to 11000

$$$$
