#       Name:                AV-unprocessed.smi:1264
#       Creating user name   scv26
#       Creation time:       Fri Mar 27 04:44:02 2020


#       File generated by GOLD software.
#

@<TRIPOS>MOLECULE
AV-unprocessed.smi:1264
    50    50     1
SMALL
NO_CHARGES


@<TRIPOS>ATOM
      1 ****        -3.4453   2.5891   1.1743 C.3            1 S1                 0.0000
      2 ****        -2.8238   1.2815   1.0337 N.am           1 S1                 0.0000
      3 ****        -1.7768   1.0256   0.2364 C.2            1 S1                 0.0000
      4 ****        -1.2448   1.8833  -0.4713 O.2            1 S1                 0.0000
      5 ****        -1.2682  -0.4263   0.2268 C.3            1 S1                 0.0000
      6 ****        -1.8496  -1.1231  -1.0263 C.3            1 S1                 0.0000
      7 ****        -1.4821  -2.6168  -1.1802 C.3            1 S1                 0.0000
      8 ****        -1.9359  -3.1442  -2.5497 C.3            1 S1                 0.0000
      9 ****        -2.0652  -3.4856  -0.0532 C.3            1 S1                 0.0000
     10 ****         0.1910  -0.4389   0.1368 N.am           1 S1                 0.0000
     11 ****         1.0377  -0.3087   1.1702 C.2            1 S1                 0.0000
     12 ****         0.6729  -0.2073   2.3412 O.2            1 S1                 0.0000
     13 ****         2.5250  -0.2712   0.8237 C.3            1 S1                 0.0000
     14 ****         2.9076   1.1275   0.4124 C.2            1 S1                 0.0000
     15 ****         3.4698   2.1545   1.2236 C.2            1 S1                 0.0000
     16 ****         3.8237   2.1031   2.6821 C.3            1 S1                 0.0000
     17 ****         3.6801   3.2663   0.5390 N.2            1 S1                 0.0000
     18 ****         3.2467   3.0016  -0.7636 O.3            1 S1                 0.0000
     19 ****         2.7910   1.7242  -0.8134 C.2            1 S1                 0.0000
     20 ****         2.2694   1.2530  -2.1287 C.3            1 S1                 0.0000
     21 ****        -4.2719   2.5335   1.8826 H              1 S1                 0.0000
     22 ****        -3.8376   2.9372   0.2178 H              1 S1                 0.0000
     23 ****        -2.7274   3.3223   1.5445 H              1 S1                 0.0000
     24 ****        -3.2088   0.5245   1.5803 H              1 S1                 0.0000
     25 ****        -1.5973  -0.9338   1.1349 H              1 S1                 0.0000
     26 ****        -2.9376  -1.0331  -1.0218 H              1 S1                 0.0000
     27 ****        -1.5139  -0.5885  -1.9172 H              1 S1                 0.0000
     28 ****        -0.3966  -2.7150  -1.1485 H              1 S1                 0.0000
     29 ****        -3.0197  -3.0853  -2.6579 H              1 S1                 0.0000
     30 ****        -1.6439  -4.1856  -2.6874 H              1 S1                 0.0000
     31 ****        -1.4887  -2.5699  -3.3616 H              1 S1                 0.0000
     32 ****        -3.1509  -3.3965  -0.0050 H              1 S1                 0.0000
     33 ****        -1.6619  -3.2080   0.9202 H              1 S1                 0.0000
     34 ****        -1.8263  -4.5382  -0.2083 H              1 S1                 0.0000
     35 ****         0.5858  -0.5079  -0.7896 H              1 S1                 0.0000
     36 ****         3.1000  -0.6046   1.6883 H              1 S1                 0.0000
     37 ****         2.7289  -0.9913   0.0304 H              1 S1                 0.0000
     38 ****         3.0461   1.5974   3.2548 H              1 S1                 0.0000
     39 ****         3.9449   3.1019   3.1032 H              1 S1                 0.0000
     40 ****         4.7562   1.5606   2.8373 H              1 S1                 0.0000
     41 ****         2.3798   0.1733  -2.2280 H              1 S1                 0.0000
     42 ****         2.8064   1.7231  -2.9527 H              1 S1                 0.0000
     43 ****         1.2115   1.4953  -2.2309 H              1 S1                 0.0000
     44 ****        -1.5927   2.8208  -0.4675 LP             1 S1                 0.0000
     45 ****        -0.4653   1.6416  -1.0492 LP             1 S1                 0.0000
     46 ****        -0.3019  -0.2195   2.5641 LP             1 S1                 0.0000
     47 ****         1.3512  -0.1126   3.0698 LP             1 S1                 0.0000
     48 ****         4.0693   4.1210   0.8826 LP             1 S1                 0.0000
     49 ****         4.0083   3.1134  -1.4020 LP             1 S1                 0.0000
     50 ****         2.5106   3.6324  -1.0091 LP             1 S1                 0.0000
@<TRIPOS>BOND
    1    1    2 1     
    2    1   21 1     
    3    1   22 1     
    4    1   23 1     
    5    2    3 am    
    6    2   24 1     
    7    3    4 2     
    8    3    5 1     
    9    5    6 1     
   10    5   10 1     
   11    5   25 1     
   12    6    7 1     
   13    6   26 1     
   14    6   27 1     
   15    7    8 1     
   16    7    9 1     
   17    7   28 1     
   18    8   29 1     
   19    8   30 1     
   20    8   31 1     
   21    9   32 1     
   22    9   33 1     
   23    9   34 1     
   24   10   11 am    
   25   10   35 1     
   26   11   12 2     
   27   11   13 1     
   28   13   14 1     
   29   13   36 1     
   30   13   37 1     
   31   14   19 2     
   32   14   15 1     
   33   15   16 1     
   34   15   17 2     
   35   16   38 1     
   36   16   39 1     
   37   16   40 1     
   38   17   18 1     
   39   18   19 1     
   40   19   20 1     
   41   20   41 1     
   42   20   42 1     
   43   20   43 1     
   44    4   44 1     
   45    4   45 1     
   46   12   46 1     
   47   12   47 1     
   48   17   48 1     
   49   18   49 1     
   50   18   50 1     
@<TRIPOS>SUBSTRUCTURE
      1 S1             1
@<TRIPOS>SET
LONE_PAIRS      STATIC     ATOMS    <user>   **** ""
7 44 45 46 47 48 49 50
DONOR_HYDROGENS      STATIC     ATOMS    <user>   **** ""
2 24 35
ATOM$BLUE        STATIC     ATOMS    COLORGROUP SYSTEM
7 44 45 46 47 48 49 50
ATOM$RED        STATIC     ATOMS    COLORGROUP SYSTEM
2 24 35
