AV-unprocessed.smi:1205|AV-procd|sdf|5044|dock5
  -GOLD-   22720 4 73D 1   1.00000     0.00000
 Structure written by MMmdl.
 49 50  0  0  0  0  0  0  0  0  2 V2000
  150.6387  141.9989  156.2756 C   0  0  0  0  0  0  0  0  0  0  0  0
  150.3666  140.7346  155.5151 C   0  0  0  0  0  0  0  0  0  0  0  0
  149.1183  140.2631  155.0150 C   0  0  0  0  0  0  0  0  0  0  0  0
  149.4597  139.0801  154.4183 C   0  0  0  0  0  0  0  0  0  0  0  0
  148.6591  138.1872  153.7774 N   0  0  0  0  0  0  0  0  0  0  0  0
  147.3309  138.0136  153.8929 C   0  0  0  0  0  0  0  0  0  0  0  0
  146.5807  138.6861  154.6001 O   0  0  0  0  0  0  0  0  0  0  0  0
  146.9080  136.9953  153.1290 N   0  0  0  0  0  0  0  0  0  0  0  0
  145.5230  136.5495  152.9980 C   0  0  0  0  0  0  0  0  0  0  0  0
  145.1486  136.1909  151.5363 C   0  0  1  0  0  0  0  0  0  0  0  0
  145.9541  136.9786  150.4851 C   0  0  0  0  0  0  0  0  0  0  0  0
  145.2284  134.7275  151.2544 N   0  3  1  0  0  0  0  0  0  0  0  0
  146.4080  134.0274  151.8318 C   0  0  0  0  0  0  0  0  0  0  0  0
  146.5288  132.6058  151.2611 C   0  0  0  0  0  0  0  0  0  0  0  0
  145.2379  131.8070  151.4964 C   0  0  0  0  0  0  0  0  0  0  0  0
  144.0040  132.5620  150.9656 C   0  0  2  0  0  0  0  0  0  0  0  0
  143.9074  132.5411  149.4298 C   0  0  0  0  0  0  0  0  0  0  0  0
  143.9623  133.9968  151.5315 C   0  0  0  0  0  0  0  0  0  0  0  0
  150.8155  138.8812  154.5685 N   0  0  0  0  0  0  0  0  0  0  0  0
  151.6557  137.7884  154.1175 C   0  0  0  0  0  0  0  0  0  0  0  0
  151.3717  139.9099  155.2435 N   0  0  0  0  0  0  0  0  0  0  0  0
  149.7107  142.5021  156.5478 H   0  0  0  0  0  0  0  0  0  0  0  0
  151.2313  142.6945  155.6808 H   0  0  0  0  0  0  0  0  0  0  0  0
  151.1863  141.7948  157.1961 H   0  0  0  0  0  0  0  0  0  0  0  0
  148.1482  140.7300  155.0946 H   0  0  0  0  0  0  0  0  0  0  0  0
  149.1342  137.5720  153.1336 H   0  0  0  0  0  0  0  0  0  0  0  0
  147.5966  136.4989  152.5823 H   0  0  0  0  0  0  0  0  0  0  0  0
  145.3419  135.7071  153.6670 H   0  0  0  0  0  0  0  0  0  0  0  0
  144.8930  137.3622  153.3586 H   0  0  0  0  0  0  0  0  0  0  0  0
  144.1083  136.4830  151.3846 H   0  0  0  0  0  0  0  0  0  0  0  0
  145.7308  138.0446  150.5308 H   0  0  0  0  0  0  0  0  0  0  0  0
  145.7123  136.6471  149.4748 H   0  0  0  0  0  0  0  0  0  0  0  0
  147.0290  136.8649  150.6257 H   0  0  0  0  0  0  0  0  0  0  0  0
  147.3227  134.5776  151.6136 H   0  0  0  0  0  0  0  0  0  0  0  0
  146.3184  133.9750  152.9175 H   0  0  0  0  0  0  0  0  0  0  0  0
  146.7505  132.6534  150.1944 H   0  0  0  0  0  0  0  0  0  0  0  0
  147.3708  132.0910  151.7246 H   0  0  0  0  0  0  0  0  0  0  0  0
  145.3126  130.8213  151.0358 H   0  0  0  0  0  0  0  0  0  0  0  0
  145.1177  131.6344  152.5668 H   0  0  0  0  0  0  0  0  0  0  0  0
  143.1205  132.0393  151.3348 H   0  0  0  0  0  0  0  0  0  0  0  0
  144.7400  133.0654  148.9608 H   0  0  0  0  0  0  0  0  0  0  0  0
  142.9870  133.0170  149.0908 H   0  0  0  0  0  0  0  0  0  0  0  0
  143.9041  131.5186  149.0512 H   0  0  0  0  0  0  0  0  0  0  0  0
  143.7921  133.9613  152.6083 H   0  0  0  0  0  0  0  0  0  0  0  0
  143.1147  134.5311  151.1001 H   0  0  0  0  0  0  0  0  0  0  0  0
  151.0475  136.9352  153.8174 H   0  0  0  0  0  0  0  0  0  0  0  0
  152.3213  137.4753  154.9226 H   0  0  0  0  0  0  0  0  0  0  0  0
  152.2540  138.1144  153.2666 H   0  0  0  0  0  0  0  0  0  0  0  0
  145.3435  134.6680  150.2527 H   0  0  0  0  0  0  0  0  0  0  0  0
  1  2  1  0  0  0  0
  1 22  1  0  0  0  0
  1 23  1  0  0  0  0
  1 24  1  0  0  0  0
  2 21  2  0  0  0  0
  2  3  1  0  0  0  0
  3  4  2  0  0  0  0
  3 25  1  0  0  0  0
  4  5  1  0  0  0  0
  4 19  1  0  0  0  0
  5  6  1  0  0  0  0
  5 26  1  0  0  0  0
  6  7  2  0  0  0  0
  6  8  1  0  0  0  0
  8  9  1  0  0  0  0
  8 27  1  0  0  0  0
  9 10  1  0  0  0  0
  9 28  1  0  0  0  0
  9 29  1  0  0  0  0
 10 11  1  0  0  0  0
 10 12  1  0  0  0  0
 10 30  1  0  0  0  0
 11 31  1  0  0  0  0
 11 32  1  0  0  0  0
 11 33  1  0  0  0  0
 12 18  1  0  0  0  0
 12 13  1  0  0  0  0
 12 49  1  0  0  0  0
 13 14  1  0  0  0  0
 13 34  1  0  0  0  0
 13 35  1  0  0  0  0
 14 15  1  0  0  0  0
 14 36  1  0  0  0  0
 14 37  1  0  0  0  0
 15 16  1  0  0  0  0
 15 38  1  0  0  0  0
 15 39  1  0  0  0  0
 16 17  1  0  0  0  0
 16 18  1  0  0  0  0
 16 40  1  0  0  0  0
 17 41  1  0  0  0  0
 17 42  1  0  0  0  0
 17 43  1  0  0  0  0
 18 44  1  0  0  0  0
 18 45  1  0  0  0  0
 19 20  1  0  0  0  0
 19 21  1  0  0  0  0
 20 46  1  0  0  0  0
 20 47  1  0  0  0  0
 20 48  1  0  0  0  0
M  CHG  1  12   1
M  END
> <s_m_source_file>
AV-unprocessed.smi

> <i_m_source_file_index>
1205

> <i_lp_mmshare_version>
43012

> <i_f3d_flags>
0

> <s_epik_input>
W0NIM11jMVtjSF1jKG4objEpW0NIM10pW05IXUMoPU8pW05IXVtDSDJdW0NASF0oW0NIM10pTjJbQ0gyXVtDSDJdW0NIMl1bQ0BASF0oW0NIM10pW0NIMl0y

> <s_epik_cmdline>
J2VwaWtfcHl0aG9uJywgJy1waCcsICc3LjAnLCAnLXRuJywgJzgnLCAnLW1hJywgJzIwMCcsICctbWV0YWxfYmluZGluZycsICctaW1hZScsICc8aW5maWxlLm1hZT4nLCAnLW9tYWUnLCAnPG91dGZpbGUubWFlPic=

> <r_lp_tautomer_probability>
1

> <r_epik_Ionization_Penalty>
0.0020309

> <r_epik_Ionization_Penalty_Charging>
0.00195276

> <r_epik_Ionization_Penalty_Neutral>
7.81448e-05

> <r_epik_State_Penalty>
0.00133177

> <r_epik_Charging_Adjusted_Penalty>
0.00328452

> <i_epik_Tot_Q>
1

> <i_epik_Tot_abs_Q>
1

> <r_epik_Metal_State_Penalty>
-0

> <b_epik_Metal_Only>
0

> <s_lp_Force_Field>
OPLS_2005

> <r_lp_Energy>
25.114

> <b_lp_Chiralities_Consistent>
1

> <s_lp_Variant>
AV-unprocessed.smi:1205-6

> <Gold.Version>
5.8.1

> <Gold.Id.Protein>
6NUR|6NUR_protein|mol2

> <Gold.PLP.Fitness>
43.6407

> <Gold.PLP.PLP>
-39.4956

> <Gold.PLP.part.hbond>
-3.0000

> <Gold.PLP.part.metal>
0.0000

> <Gold.PLP.part.buried>
-1.3272

> <Gold.PLP.part.nonpolar>
-35.6307

> <Gold.PLP.part.repulsive>
0.1662

> <Gold.PLP.ligand.clash>
0.0000

> <Gold.PLP.ligand.torsion>
1.3586

> <Gold.PLP.Chemscore.Hbond>
2.2395

> <Gold.PLP.Chemscore.CHOScore>
0.0000

> <Gold.PLP.Chemscore.Metal>
0.0000

> <Gold.Chemscore.Hbonds>
donor molecule, donor type, donor heavy atom, donor atom, acceptor molecule, acceptor atom, score
      L1  H     5    26       P1  7948  0.96
      L1  H     8    27       P1  7948  1.00
      P1  H  7989  7998       L1    21  0.20

> <Gold.PLP.Chemscore.Internal.Correction>
0.1438

> <Gold.Rescore>
     Score         DG    S(hbond)    S(metal)    S(lipo)     H(rot)  DE(clash)    DE(int)     intcor
     16.17     -19.37       1.93        0.00      95.75       1.47       1.56       1.64       ----

> <Gold.Chemscore.Fitness>
16.1710

> <Gold.Chemscore.DG>
-19.3710

> <Gold.Chemscore.ZeroCoef>
-5.4800

> <Gold.Chemscore.Hbond>
1.9283

> <Gold.Chemscore.Metal>
0.0000

> <Gold.Chemscore.Lipo>
95.7539

> <Gold.Chemscore.Internal_Hbond>
0.0000

> <Gold.Chemscore.DEClash>
1.5585

> <Gold.Chemscore.DEInternal>
1.6416

> <Gold.Chemscore.Rot>
1.4658

> <Gold.Chemscore.Internal.Correction>
   9.000000E+99

> <Gold.Chemscore.Hbonds>
donor molecule, donor type, donor heavy atom, donor atom, acceptor molecule, acceptor atom, score
      L1  H     5    26       P1  7948  0.92
      L1  H     8    27       P1  7948  0.95

> <Gold.Chemscore.Hbond.Weighted>
-6.4404

> <Gold.Chemscore.Metal.Weighted>
-0.0000

> <Gold.Chemscore.Lipo.Weighted>
-11.2032

> <Gold.Chemscore.Internal_Hbond.Weighted>
0.0000

> <Gold.Chemscore.DEClash.Weighted>
1.5585

> <Gold.Chemscore.DEInternal.Weighted>
1.6416

> <Gold.Chemscore.Rot.Weighted>
3.7526

> <Gold.Chemscore.Internal.Correction.Weighted>
   9.000000E+99

> <Gold.Protein.RotatedTorsions>
[ 6907 6896 6895 6894 ] final   11.54 input  -60.11 | X-H torsion
[ 7974 7965 7964 7962 ] final  -84.57 input  175.53 | X-H torsion
[ 8008 7997 7996 7995 ] final   32.68 input   59.86 | X-H torsion
[ 10167 10162 10161 10158 ] final   77.85 input  -65.29 | X-H torsion
[ 10718 10713 10712 10709 ] final   73.55 input   66.30 | X-H torsion
[ 10763 10752 10751 10750 ] final   85.86 input  -60.55 | X-H torsion
[ 11005 11000 10999 10996 ] final  120.34 input  -57.11 | X-H torsion

> <Gold.Protein.ActiveResidues>
 VAL166  LYS551  ARG553  GLY616  TRP617  ASP618  TYR619  PRO620  LYS621  CYS622 
 ASP623  PHE694  ASN695  SER759  ASP760  ASP761  ALA762  ILE779  LEU786  VAL792 
 PHE793  MET794  SER795  GLU796  ALA797  LYS798  CYS799  TRP800  GLU811  SER814 

> <Gold.Protein.RotatedAtoms>
  151.7560  135.0821  160.0337 H   0  0  0  0  0  0  0  0  0  0  0  0  # atno 6907 bound_to 6896
  152.3385  133.6035  159.5868 H   0  0  0  0  0  0  0  0  0  0  0  0  # atno 6908 bound_to 6896
  150.7465  133.9675  159.3577 H   0  0  0  0  0  0  0  0  0  0  0  0  # atno 6909 bound_to 6896
  145.5048  140.9544  143.1739 H   0  0  0  0  0  0  0  0  0  0  0  0  # atno 7974 bound_to 7965
  155.1265  140.3253  155.4484 H   0  0  0  0  0  0  0  0  0  0  0  0  # atno 8008 bound_to 7997
  156.2647  140.2018  156.6334 H   0  0  0  0  0  0  0  0  0  0  0  0  # atno 8009 bound_to 7997
  154.6645  140.0543  157.0085 H   0  0  0  0  0  0  0  0  0  0  0  0  # atno 8010 bound_to 7997
  139.9771  144.5853  150.7933 H   0  0  0  0  0  0  0  0  0  0  0  0  # atno 10167 bound_to 10162
  157.6553  130.9634  150.1085 H   0  0  0  0  0  0  0  0  0  0  0  0  # atno 10718 bound_to 10713
  153.1515  135.4601  154.9644 H   0  0  0  0  0  0  0  0  0  0  0  0  # atno 10763 bound_to 10752
  154.7829  135.3194  154.7953 H   0  0  0  0  0  0  0  0  0  0  0  0  # atno 10764 bound_to 10752
  153.8458  135.6926  153.4852 H   0  0  0  0  0  0  0  0  0  0  0  0  # atno 10765 bound_to 10752
  139.9181  134.9634  156.7793 H   0  0  0  0  0  0  0  0  0  0  0  0  # atno 11005 bound_to 11000
  144.7760  139.6630  143.7175 LP  0  0  0  0  0  0  0  0  0  0  0  0  # atno 17320 bound_to 7965
  146.2203  139.5624  142.9623 LP  0  0  0  0  0  0  0  0  0  0  0  0  # atno 17321 bound_to 7965
  140.7502  143.2951  151.3226 LP  0  0  0  0  0  0  0  0  0  0  0  0  # atno 17342 bound_to 10162
  139.6437  144.0491  152.2574 LP  0  0  0  0  0  0  0  0  0  0  0  0  # atno 17343 bound_to 10162
  156.1988  130.3659  149.8814 LP  0  0  0  0  0  0  0  0  0  0  0  0  # atno 17370 bound_to 10713
  156.6723  130.8825  151.3564 LP  0  0  0  0  0  0  0  0  0  0  0  0  # atno 17371 bound_to 10713
  140.6557  133.9690  155.7778 LP  0  0  0  0  0  0  0  0  0  0  0  0  # atno 17394 bound_to 11000
  141.0677  134.0251  157.3570 LP  0  0  0  0  0  0  0  0  0  0  0  0  # atno 17395 bound_to 11000

$$$$
