AV-unprocessed.smi:1|AV-procd|sdf|13|dock10
  -GOLD-   2262015103D 1   1.00000     0.00000
 Structure written by MMmdl.
 57 62  0  0  0  0  0  0  0  0  1 V2000
  151.3967  140.6917  156.7135 O   0  0  0  0  0  0  0  0  0  0  0  0
  152.1616  140.7025  157.6818 C   0  0  0  0  0  0  0  0  0  0  0  0
  153.0482  139.7198  158.1023 N   0  0  0  0  0  0  0  0  0  0  0  0
  152.8612  138.4819  157.7569 C   0  0  0  0  0  0  0  0  0  0  0  0
  151.8791  137.8550  156.9799 N   0  0  0  0  0  0  0  0  0  0  0  0
  151.8066  136.4832  156.6959 C   0  0  0  0  0  0  0  0  0  0  0  0
  152.6559  135.5872  157.1223 N   0  0  0  0  0  0  0  0  0  0  0  0
  153.6574  136.1546  157.8973 C   0  0  0  0  0  0  0  0  0  0  0  0
  153.8340  137.4784  158.2417 C   0  0  0  0  0  0  0  0  0  0  0  0
  154.9666  137.6382  159.0318 N   0  0  0  0  0  0  0  0  0  0  0  0
  155.4285  136.3951  159.1314 C   0  0  0  0  0  0  0  0  0  0  0  0
  154.7068  135.4544  158.4935 N   0  0  0  0  0  0  0  0  0  0  0  0
  155.0257  133.9922  158.4487 C   0  0  2  0  0  0  0  0  0  0  0  0
  154.2090  133.3714  157.4998 O   0  0  0  0  0  0  0  0  0  0  0  0
  153.3616  132.4050  158.1158 C   0  0  1  0  0  0  0  0  0  0  0  0
  153.0678  131.2417  157.1616 C   0  0  0  0  0  0  0  0  0  0  0  0
  151.8290  131.4787  156.5141 O   0  0  0  0  0  0  0  0  0  0  0  0
  151.3876  130.6270  155.5692 C   0  0  0  0  0  0  0  0  0  0  0  0
  151.8734  129.5105  155.3763 O   0  0  0  0  0  0  0  0  0  0  0  0
  150.2494  131.1780  154.7785 C   0  0  0  0  0  0  0  0  0  0  0  0
  149.3847  130.2898  154.0969 C   0  0  0  0  0  0  0  0  0  0  0  0
  148.3041  130.7808  153.3386 C   0  0  0  0  0  0  0  0  0  0  0  0
  148.0748  132.1664  153.2527 C   0  0  0  0  0  0  0  0  0  0  0  0
  148.9276  133.0604  153.9260 C   0  0  0  0  0  0  0  0  0  0  0  0
  150.0087  132.5714  154.6851 C   0  0  0  0  0  0  0  0  0  0  0  0
  154.1077  132.0077  159.3883 C   0  0  1  0  0  0  0  0  0  0  0  0
  155.1168  131.0482  159.1183 O   0  0  0  0  0  0  0  0  0  0  0  0
  156.4921  131.4777  159.9635 S   0  0  0  0  0  0  0  0  0  0  0  0
  156.5840  130.6274  161.1601 O   0  0  0  0  0  0  0  0  0  0  0  0
  157.5974  131.6180  159.0032 O   0  0  0  0  0  0  0  0  0  0  0  0
  156.0144  133.0062  160.4438 O   0  0  0  0  0  0  0  0  0  0  0  0
  154.7870  133.3148  159.8066 C   0  0  1  0  0  0  0  0  0  0  0  0
  152.1921  141.9287  158.5345 C   0  0  0  0  0  0  0  0  0  0  0  0
  152.7438  141.8749  159.8321 C   0  0  0  0  0  0  0  0  0  0  0  0
  152.7664  143.0300  160.6383 C   0  0  0  0  0  0  0  0  0  0  0  0
  152.2361  144.2403  160.1508 C   0  0  0  0  0  0  0  0  0  0  0  0
  151.6820  144.2958  158.8572 C   0  0  0  0  0  0  0  0  0  0  0  0
  151.6590  143.1418  158.0498 C   0  0  0  0  0  0  0  0  0  0  0  0
  150.9583  136.2036  156.0698 H   0  0  0  0  0  0  0  0  0  0  0  0
  156.3231  136.1610  159.6896 H   0  0  0  0  0  0  0  0  0  0  0  0
  156.0631  133.9387  158.1157 H   0  0  0  0  0  0  0  0  0  0  0  0
  152.4260  132.8851  158.4005 H   0  0  0  0  0  0  0  0  0  0  0  0
  153.8689  131.1322  156.4293 H   0  0  0  0  0  0  0  0  0  0  0  0
  153.0027  130.3092  157.7238 H   0  0  0  0  0  0  0  0  0  0  0  0
  149.5417  129.2220  154.1474 H   0  0  0  0  0  0  0  0  0  0  0  0
  147.6512  130.0930  152.8219 H   0  0  0  0  0  0  0  0  0  0  0  0
  147.2467  132.5428  152.6706 H   0  0  0  0  0  0  0  0  0  0  0  0
  148.7533  134.1242  153.8601 H   0  0  0  0  0  0  0  0  0  0  0  0
  150.6443  133.2854  155.1882 H   0  0  0  0  0  0  0  0  0  0  0  0
  153.4416  131.6179  160.1588 H   0  0  0  0  0  0  0  0  0  0  0  0
  154.1373  133.9175  160.4417 H   0  0  0  0  0  0  0  0  0  0  0  0
  153.1499  140.9493  160.2138 H   0  0  0  0  0  0  0  0  0  0  0  0
  153.1885  142.9866  161.6313 H   0  0  0  0  0  0  0  0  0  0  0  0
  152.2524  145.1252  160.7697 H   0  0  0  0  0  0  0  0  0  0  0  0
  151.2729  145.2233  158.4846 H   0  0  0  0  0  0  0  0  0  0  0  0
  151.2296  143.1913  157.0595 H   0  0  0  0  0  0  0  0  0  0  0  0
  151.1582  138.4459  156.5904 H   0  0  0  0  0  0  0  0  0  0  0  0
  1  2  2  0  0  0  0
  2  3  1  0  0  0  0
  2 33  1  0  0  0  0
  3  4  2  0  0  0  0
  4  9  1  0  0  0  0
  4  5  1  0  0  0  0
  5  6  1  0  0  0  0
  5 57  1  0  0  0  0
  6  7  2  0  0  0  0
  6 39  1  0  0  0  0
  7  8  1  0  0  0  0
  8 12  1  0  0  0  0
  8  9  2  0  0  0  0
  9 10  1  0  0  0  0
 10 11  2  0  0  0  0
 11 12  1  0  0  0  0
 11 40  1  0  0  0  0
 12 13  1  0  0  0  0
 13 32  1  0  0  0  0
 13 14  1  0  0  0  0
 13 41  1  0  0  0  0
 14 15  1  0  0  0  0
 15 16  1  0  0  0  0
 15 26  1  0  0  0  0
 15 42  1  0  0  0  0
 16 17  1  0  0  0  0
 16 43  1  0  0  0  0
 16 44  1  0  0  0  0
 17 18  1  0  0  0  0
 18 19  2  0  0  0  0
 18 20  1  0  0  0  0
 20 25  1  0  0  0  0
 20 21  2  0  0  0  0
 21 22  1  0  0  0  0
 21 45  1  0  0  0  0
 22 23  2  0  0  0  0
 22 46  1  0  0  0  0
 23 24  1  0  0  0  0
 23 47  1  0  0  0  0
 24 25  2  0  0  0  0
 24 48  1  0  0  0  0
 25 49  1  0  0  0  0
 26 32  1  0  0  0  0
 26 27  1  0  0  0  0
 26 50  1  0  0  0  0
 27 28  1  0  0  0  0
 28 29  2  0  0  0  0
 28 30  2  0  0  0  0
 28 31  1  0  0  0  0
 31 32  1  0  0  0  0
 32 51  1  0  0  0  0
 33 38  1  0  0  0  0
 33 34  2  0  0  0  0
 34 35  1  0  0  0  0
 34 52  1  0  0  0  0
 35 36  2  0  0  0  0
 35 53  1  0  0  0  0
 36 37  1  0  0  0  0
 36 54  1  0  0  0  0
 37 38  2  0  0  0  0
 37 55  1  0  0  0  0
 38 56  1  0  0  0  0
M  END
> <s_m_source_file>
AV-unprocessed.smi

> <i_m_source_file_index>
1

> <i_lp_mmshare_version>
43012

> <i_f3d_flags>
0

> <s_epik_input>
W2NIXTFbY0hdW2NIXVtjSF1bY0hdYzFDKD1PKVtOSF1jKG5bY0hdbjIpYyhjMjMpbltjSF1uM1tDQEBIXShbQ0BIXShbQ0BIXTQ1KU9TKE81KSg9Tyk9TylPW0NASF00W0NIMl1PQyg9TyljNltjSF1bY0hdW2NIXVtjSF1bY0hdNg==

> <s_epik_cmdline>
J2VwaWtfcHl0aG9uJywgJy1waCcsICc3LjAnLCAnLXRuJywgJzgnLCAnLW1hJywgJzIwMCcsICctbWV0YWxfYmluZGluZycsICctaW1hZScsICc8aW5maWxlLm1hZT4nLCAnLW9tYWUnLCAnPG91dGZpbGUubWFlPic=

> <r_epik_Ionization_Penalty>
0.122545

> <r_epik_Ionization_Penalty_Charging>
0.122545

> <r_epik_Ionization_Penalty_Neutral>
7.8935e-16

> <r_epik_State_Penalty>
2.69178

> <r_epik_Charging_Adjusted_Penalty>
2.81433

> <i_epik_Tot_Q>
0

> <i_epik_Tot_abs_Q>
0

> <r_epik_Metal_State_Penalty>
3.02665

> <b_epik_Metal_Only>
0

> <s_epik_Chemistry_Notes>
This compound has an ester and may undergo hydrolysis at high or low pH. This compound contains an acetal/aminal-like group ( X-CH(R)-Y where X, Y are N, S, or O) that may be acid/base labile, releasing an aldehyde.

> <s_lp_Force_Field>
OPLS_2005

> <r_lp_Energy>
62.4827

> <b_lp_Chiralities_Consistent>
1

> <s_lp_Variant>
AV-unprocessed.smi:1-13

> <Gold.Version>
5.8.1

> <Gold.Id.Protein>
6NUR|6NUR_protein|mol2

> <Gold.PLP.Fitness>
49.8840

> <Gold.PLP.PLP>
-46.9255

> <Gold.PLP.part.hbond>
-2.0477

> <Gold.PLP.part.metal>
0.0000

> <Gold.PLP.part.buried>
-5.7701

> <Gold.PLP.part.nonpolar>
-39.7731

> <Gold.PLP.part.repulsive>
0.1433

> <Gold.PLP.ligand.clash>
0.0000

> <Gold.PLP.ligand.torsion>
1.2887

> <Gold.PLP.Chemscore.Hbond>
1.8000

> <Gold.PLP.Chemscore.CHOScore>
0.0000

> <Gold.PLP.Chemscore.Metal>
0.0000

> <Gold.Chemscore.Hbonds>
donor molecule, donor type, donor heavy atom, donor atom, acceptor molecule, acceptor atom, score
      P1  H  7997  8008       L1     3  0.76
      P1  H 10752 10763       L1     7  0.65

> <Gold.PLP.Chemscore.Internal.Correction>
0.1359

> <Gold.Rescore>
     Score         DG    S(hbond)    S(metal)    S(lipo)     H(rot)  DE(clash)    DE(int)     intcor
     12.21     -15.19       0.38        0.00     118.73       2.13       0.14       2.84       ----

> <Gold.Chemscore.Fitness>
12.2136

> <Gold.Chemscore.DG>
-15.1935

> <Gold.Chemscore.ZeroCoef>
-5.4800

> <Gold.Chemscore.Hbond>
0.3842

> <Gold.Chemscore.Metal>
0.0000

> <Gold.Chemscore.Lipo>
118.7328

> <Gold.Chemscore.Internal_Hbond>
0.0000

> <Gold.Chemscore.DEClash>
0.1437

> <Gold.Chemscore.DEInternal>
2.8363

> <Gold.Chemscore.Rot>
2.1333

> <Gold.Chemscore.Internal.Correction>
   9.000000E+99

> <Gold.Chemscore.Hbonds>
donor molecule, donor type, donor heavy atom, donor atom, acceptor molecule, acceptor atom, score
      P1  H  7997  8008       L1     3  0.03
      P1  H 10752 10763       L1     7  0.02

> <Gold.Chemscore.Hbond.Weighted>
-1.2832

> <Gold.Chemscore.Metal.Weighted>
-0.0000

> <Gold.Chemscore.Lipo.Weighted>
-13.8917

> <Gold.Chemscore.Internal_Hbond.Weighted>
0.0000

> <Gold.Chemscore.DEClash.Weighted>
0.1437

> <Gold.Chemscore.DEInternal.Weighted>
2.8363

> <Gold.Chemscore.Rot.Weighted>
5.4614

> <Gold.Chemscore.Internal.Correction.Weighted>
   9.000000E+99

> <Gold.Protein.RotatedTorsions>
[ 6907 6896 6895 6894 ] final -129.59 input  -60.11 | X-H torsion
[ 7974 7965 7964 7962 ] final  -66.21 input  175.53 | X-H torsion
[ 8008 7997 7996 7995 ] final  -74.63 input   59.86 | X-H torsion
[ 10167 10162 10161 10158 ] final -107.07 input  -65.29 | X-H torsion
[ 10718 10713 10712 10709 ] final  160.35 input   66.30 | X-H torsion
[ 10763 10752 10751 10750 ] final  114.65 input  -60.55 | X-H torsion
[ 11005 11000 10999 10996 ] final  -41.68 input  -57.11 | X-H torsion

> <Gold.Protein.ActiveResidues>
 VAL166  LYS551  ARG553  GLY616  TRP617  ASP618  TYR619  PRO620  LYS621  CYS622 
 ASP623  PHE694  ASN695  SER759  ASP760  ASP761  ALA762  ILE779  LEU786  VAL792 
 PHE793  MET794  SER795  GLU796  ALA797  LYS798  CYS799  TRP800  GLU811  SER814 

> <Gold.Protein.RotatedAtoms>
  150.9304  133.6774  159.2811 H   0  0  0  0  0  0  0  0  0  0  0  0  # atno 6907 bound_to 6896
  151.4198  135.0995  159.9620 H   0  0  0  0  0  0  0  0  0  0  0  0  # atno 6908 bound_to 6896
  152.5023  133.8758  159.7376 H   0  0  0  0  0  0  0  0  0  0  0  0  # atno 6909 bound_to 6896
  145.7446  140.8937  143.0512 H   0  0  0  0  0  0  0  0  0  0  0  0  # atno 7974 bound_to 7965
  154.5347  140.0758  156.8406 H   0  0  0  0  0  0  0  0  0  0  0  0  # atno 8008 bound_to 7997
  155.3303  140.3401  155.4221 H   0  0  0  0  0  0  0  0  0  0  0  0  # atno 8009 bound_to 7997
  156.1816  140.1654  156.8250 H   0  0  0  0  0  0  0  0  0  0  0  0  # atno 8010 bound_to 7997
  140.1809  143.3967  152.1282 H   0  0  0  0  0  0  0  0  0  0  0  0  # atno 10167 bound_to 10162
  157.1516  131.0565  151.2277 H   0  0  0  0  0  0  0  0  0  0  0  0  # atno 10718 bound_to 10713
  153.5104  135.3619  155.2584 H   0  0  0  0  0  0  0  0  0  0  0  0  # atno 10763 bound_to 10752
  154.8742  135.4021  154.3375 H   0  0  0  0  0  0  0  0  0  0  0  0  # atno 10764 bound_to 10752
  153.4027  135.7075  153.6481 H   0  0  0  0  0  0  0  0  0  0  0  0  # atno 10765 bound_to 10752
  141.0263  133.6840  156.2491 H   0  0  0  0  0  0  0  0  0  0  0  0  # atno 11005 bound_to 11000
  144.6863  139.9508  143.7478 LP  0  0  0  0  0  0  0  0  0  0  0  0  # atno 17320 bound_to 7965
  146.0415  139.3426  143.0694 LP  0  0  0  0  0  0  0  0  0  0  0  0  # atno 17321 bound_to 7965
  139.5296  144.7144  151.5102 LP  0  0  0  0  0  0  0  0  0  0  0  0  # atno 17342 bound_to 10162
  140.6520  143.8677  150.6795 LP  0  0  0  0  0  0  0  0  0  0  0  0  # atno 17343 bound_to 10162
  157.4215  130.7440  149.6917 LP  0  0  0  0  0  0  0  0  0  0  0  0  # atno 17370 bound_to 10713
  155.9769  130.4069  150.3745 LP  0  0  0  0  0  0  0  0  0  0  0  0  # atno 17371 bound_to 10713
  140.6485  134.5091  157.5575 LP  0  0  0  0  0  0  0  0  0  0  0  0  # atno 17394 bound_to 11000
  139.9178  134.8210  156.1309 LP  0  0  0  0  0  0  0  0  0  0  0  0  # atno 17395 bound_to 11000

$$$$
