AV-unprocessed.smi:3284|AV-procd|sdf|12575|dock7
  -GOLD-   2272018493D 1   1.00000     0.00000
 Structure written by MMmdl.
 44 45  0  0  0  0  0  0  0  0  2 V2000
  151.1464  140.5202  156.8685 C   0  0  0  0  0  0  0  0  0  0  0  0
  151.7666  141.3090  158.0091 C   0  0  0  0  0  0  0  0  0  0  0  0
  152.5701  140.7168  158.9143 C   0  0  0  0  0  0  0  0  0  0  0  0
  153.2633  141.4370  160.0566 C   0  0  0  0  0  0  0  0  0  0  0  0
  152.8038  142.8954  160.2149 C   0  0  0  0  0  0  0  0  0  0  0  0
  152.5572  143.5622  158.8495 C   0  0  2  0  0  0  0  0  0  0  0  0
  152.3465  145.0796  158.9843 C   0  0  0  0  0  0  0  0  0  0  0  0
  151.4585  142.8080  158.0400 C   0  0  2  0  0  0  0  0  0  0  0  0
  150.0091  143.0382  158.5405 C   0  0  0  0  0  0  0  0  0  0  0  0
  149.0061  142.8300  157.4779 N   0  3  0  0  0  0  0  0  0  0  0  0
  147.6598  142.4790  157.9732 C   0  0  0  0  0  0  0  0  0  0  0  0
  146.8802  143.7250  158.4202 C   0  0  0  0  0  0  0  0  0  0  0  0
  146.2647  143.5785  159.7797 C   0  0  0  0  0  0  0  0  0  0  0  0
  146.5063  142.5521  160.5900 N   0  0  0  0  0  0  0  0  0  0  0  0
  145.7661  142.8220  161.7362 C   0  0  0  0  0  0  0  0  0  0  0  0
  145.1048  144.0162  161.5799 C   0  0  0  0  0  0  0  0  0  0  0  0
  145.4377  144.4945  160.3195 N   0  0  0  0  0  0  0  0  0  0  0  0
  144.9730  145.7353  159.7303 C   0  0  0  0  0  0  0  0  0  0  0  0
  151.4497  140.9413  155.9097 H   0  0  0  0  0  0  0  0  0  0  0  0
  150.0585  140.5345  156.9203 H   0  0  0  0  0  0  0  0  0  0  0  0
  151.4647  139.4773  156.8896 H   0  0  0  0  0  0  0  0  0  0  0  0
  152.7769  139.6594  158.8344 H   0  0  0  0  0  0  0  0  0  0  0  0
  153.0993  140.8890  160.9850 H   0  0  0  0  0  0  0  0  0  0  0  0
  154.3352  141.4082  159.8591 H   0  0  0  0  0  0  0  0  0  0  0  0
  151.8941  142.9300  160.8142 H   0  0  0  0  0  0  0  0  0  0  0  0
  153.5553  143.4480  160.7803 H   0  0  0  0  0  0  0  0  0  0  0  0
  153.4824  143.4512  158.2810 H   0  0  0  0  0  0  0  0  0  0  0  0
  151.5210  145.3167  159.6555 H   0  0  0  0  0  0  0  0  0  0  0  0
  152.1459  145.5390  158.0161 H   0  0  0  0  0  0  0  0  0  0  0  0
  153.2374  145.5580  159.3923 H   0  0  0  0  0  0  0  0  0  0  0  0
  151.5193  143.1551  157.0072 H   0  0  0  0  0  0  0  0  0  0  0  0
  149.7646  142.3429  159.3427 H   0  0  0  0  0  0  0  0  0  0  0  0
  149.9004  144.0381  158.9605 H   0  0  0  0  0  0  0  0  0  0  0  0
  148.9347  143.6797  156.9367 H   0  0  0  0  0  0  0  0  0  0  0  0
  147.1082  141.9526  157.1930 H   0  0  0  0  0  0  0  0  0  0  0  0
  147.7620  141.7916  158.8138 H   0  0  0  0  0  0  0  0  0  0  0  0
  147.5374  144.5946  158.4098 H   0  0  0  0  0  0  0  0  0  0  0  0
  146.0881  143.9431  157.7025 H   0  0  0  0  0  0  0  0  0  0  0  0
  145.7678  142.1440  162.5770 H   0  0  0  0  0  0  0  0  0  0  0  0
  144.4433  144.5513  162.2456 H   0  0  0  0  0  0  0  0  0  0  0  0
  144.3660  146.2886  160.4477 H   0  0  0  0  0  0  0  0  0  0  0  0
  144.3672  145.5212  158.8493 H   0  0  0  0  0  0  0  0  0  0  0  0
  145.8254  146.3509  159.4416 H   0  0  0  0  0  0  0  0  0  0  0  0
  149.3286  142.0899  156.8699 H   0  0  0  0  0  0  0  0  0  0  0  0
  1  2  1  0  0  0  0
  1 19  1  0  0  0  0
  1 20  1  0  0  0  0
  1 21  1  0  0  0  0
  2  8  1  0  0  0  0
  2  3  2  0  0  0  0
  3  4  1  0  0  0  0
  3 22  1  0  0  0  0
  4  5  1  0  0  0  0
  4 23  1  0  0  0  0
  4 24  1  0  0  0  0
  5  6  1  0  0  0  0
  5 25  1  0  0  0  0
  5 26  1  0  0  0  0
  6  7  1  0  0  0  0
  6  8  1  0  0  0  0
  6 27  1  0  0  0  0
  7 28  1  0  0  0  0
  7 29  1  0  0  0  0
  7 30  1  0  0  0  0
  8  9  1  0  0  0  0
  8 31  1  0  0  0  0
  9 10  1  0  0  0  0
  9 32  1  0  0  0  0
  9 33  1  0  0  0  0
 10 11  1  0  0  0  0
 10 34  1  0  0  0  0
 10 44  1  0  0  0  0
 11 12  1  0  0  0  0
 11 35  1  0  0  0  0
 11 36  1  0  0  0  0
 12 13  1  0  0  0  0
 12 37  1  0  0  0  0
 12 38  1  0  0  0  0
 13 17  1  0  0  0  0
 13 14  2  0  0  0  0
 14 15  1  0  0  0  0
 15 16  2  0  0  0  0
 15 39  1  0  0  0  0
 16 17  1  0  0  0  0
 16 40  1  0  0  0  0
 17 18  1  0  0  0  0
 18 41  1  0  0  0  0
 18 42  1  0  0  0  0
 18 43  1  0  0  0  0
M  CHG  1  10   1
M  END
> <s_m_source_file>
AV-unprocessed.smi

> <i_m_source_file_index>
3284

> <i_lp_mmshare_version>
43012

> <i_f3d_flags>
0

> <s_epik_input>
W0NIM11DMT1bQ0hdW0NIMl1bQ0gyXVtDQEBIXShbQ0gzXSlbQ0BIXTFbQ0gyXVtOSF1bQ0gyXVtDSDJdYzJuW2NIXVtjSF1uMltDSDNd

> <s_epik_cmdline>
J2VwaWtfcHl0aG9uJywgJy1waCcsICc3LjAnLCAnLXRuJywgJzgnLCAnLW1hJywgJzIwMCcsICctbWV0YWxfYmluZGluZycsICctaW1hZScsICc8aW5maWxlLm1hZT4nLCAnLW9tYWUnLCAnPG91dGZpbGUubWFlPic=

> <r_lp_tautomer_probability>
1

> <r_epik_Ionization_Penalty>
0.150779

> <r_epik_Ionization_Penalty_Charging>
0.150779

> <r_epik_Ionization_Penalty_Neutral>
1.39452e-13

> <r_epik_State_Penalty>
0.349447

> <r_epik_Charging_Adjusted_Penalty>
0.500226

> <i_epik_Tot_Q>
1

> <i_epik_Tot_abs_Q>
1

> <r_epik_Metal_State_Penalty>
0.000470967

> <b_epik_Metal_Only>
0

> <s_lp_Force_Field>
OPLS_2005

> <r_lp_Energy>
16.0755

> <b_lp_Chiralities_Consistent>
1

> <s_lp_Variant>
AV-unprocessed.smi:3284-4

> <Gold.Version>
5.8.1

> <Gold.Id.Protein>
6NUR|6NUR_protein|mol2

> <Gold.PLP.Fitness>
48.1365

> <Gold.PLP.PLP>
-38.7133

> <Gold.PLP.part.hbond>
-3.0000

> <Gold.PLP.part.metal>
0.0000

> <Gold.PLP.part.buried>
-3.1881

> <Gold.PLP.part.nonpolar>
-32.1442

> <Gold.PLP.part.repulsive>
0.0596

> <Gold.PLP.ligand.clash>
0.0000

> <Gold.PLP.ligand.torsion>
0.8681

> <Gold.PLP.Chemscore.Hbond>
3.7092

> <Gold.PLP.Chemscore.CHOScore>
0.0000

> <Gold.PLP.Chemscore.Metal>
0.0000

> <Gold.Chemscore.Hbonds>
donor molecule, donor type, donor heavy atom, donor atom, acceptor molecule, acceptor atom, score
      L1  H    10    34       P1  8028  2.00
      P1  H  6933  6944       L1    14  0.49
      P1  H  6934  6946       L1    14  1.00

> <Gold.PLP.Chemscore.Internal.Correction>
0.0318

> <Gold.Rescore>
     Score         DG    S(hbond)    S(metal)    S(lipo)     H(rot)  DE(clash)    DE(int)     intcor
     19.45     -20.60       2.06        0.00     105.58       1.61       0.39       0.75       ----

> <Gold.Chemscore.Fitness>
19.4527

> <Gold.Chemscore.DG>
-20.6019

> <Gold.Chemscore.ZeroCoef>
-5.4800

> <Gold.Chemscore.Hbond>
2.0636

> <Gold.Chemscore.Metal>
0.0000

> <Gold.Chemscore.Lipo>
105.5771

> <Gold.Chemscore.Internal_Hbond>
0.0000

> <Gold.Chemscore.DEClash>
0.3947

> <Gold.Chemscore.DEInternal>
0.7545

> <Gold.Chemscore.Rot>
1.6105

> <Gold.Chemscore.Internal.Correction>
   9.000000E+99

> <Gold.Chemscore.Hbonds>
donor molecule, donor type, donor heavy atom, donor atom, acceptor molecule, acceptor atom, score
      L1  H    10    34       P1  8028  0.45
      P1  H  6933  6944       L1    14  0.12
      P1  H  6934  6946       L1    14  0.44

> <Gold.Chemscore.Hbond.Weighted>
-6.8923

> <Gold.Chemscore.Metal.Weighted>
-0.0000

> <Gold.Chemscore.Lipo.Weighted>
-12.3525

> <Gold.Chemscore.Internal_Hbond.Weighted>
0.0000

> <Gold.Chemscore.DEClash.Weighted>
0.3947

> <Gold.Chemscore.DEInternal.Weighted>
0.7545

> <Gold.Chemscore.Rot.Weighted>
4.1230

> <Gold.Chemscore.Internal.Correction.Weighted>
   9.000000E+99

> <Gold.Protein.RotatedTorsions>
[ 6907 6896 6895 6894 ] final  -26.21 input  -60.11 | X-H torsion
[ 7974 7965 7964 7962 ] final   -1.40 input  175.53 | X-H torsion
[ 8008 7997 7996 7995 ] final   81.76 input   59.86 | X-H torsion
[ 10167 10162 10161 10158 ] final  -82.67 input  -65.29 | X-H torsion
[ 10718 10713 10712 10709 ] final  -80.92 input   66.30 | X-H torsion
[ 10763 10752 10751 10750 ] final  128.00 input  -60.55 | X-H torsion
[ 11005 11000 10999 10996 ] final  179.69 input  -57.11 | X-H torsion

> <Gold.Protein.ActiveResidues>
 VAL166  LYS551  ARG553  GLY616  TRP617  ASP618  TYR619  PRO620  LYS621  CYS622 
 ASP623  PHE694  ASN695  SER759  ASP760  ASP761  ALA762  ILE779  LEU786  VAL792 
 PHE793  MET794  SER795  GLU796  ALA797  LYS798  CYS799  TRP800  GLU811  SER814 

> <Gold.Protein.RotatedAtoms>
  151.1642  135.0287  159.8723 H   0  0  0  0  0  0  0  0  0  0  0  0  # atno 6907 bound_to 6896
  152.5451  134.1245  159.8423 H   0  0  0  0  0  0  0  0  0  0  0  0  # atno 6908 bound_to 6896
  151.1343  133.4968  159.2631 H   0  0  0  0  0  0  0  0  0  0  0  0  # atno 6909 bound_to 6896
  146.2417  140.1414  142.8335 H   0  0  0  0  0  0  0  0  0  0  0  0  # atno 7974 bound_to 7965
  155.9015  140.3433  155.6030 H   0  0  0  0  0  0  0  0  0  0  0  0  # atno 8008 bound_to 7997
  155.7495  140.0818  157.2227 H   0  0  0  0  0  0  0  0  0  0  0  0  # atno 8009 bound_to 7997
  154.4044  140.1556  156.2695 H   0  0  0  0  0  0  0  0  0  0  0  0  # atno 8010 bound_to 7997
  140.4299  143.2552  151.8774 H   0  0  0  0  0  0  0  0  0  0  0  0  # atno 10167 bound_to 10162
  156.0060  130.4588  150.3874 H   0  0  0  0  0  0  0  0  0  0  0  0  # atno 10718 bound_to 10713
  153.7184  135.3257  155.3261 H   0  0  0  0  0  0  0  0  0  0  0  0  # atno 10763 bound_to 10752
  154.8363  135.4493  154.1242 H   0  0  0  0  0  0  0  0  0  0  0  0  # atno 10764 bound_to 10752
  153.2356  135.6965  153.7921 H   0  0  0  0  0  0  0  0  0  0  0  0  # atno 10765 bound_to 10752
  140.4090  134.6709  157.4603 H   0  0  0  0  0  0  0  0  0  0  0  0  # atno 11005 bound_to 11000
  145.0243  140.8819  143.5148 LP  0  0  0  0  0  0  0  0  0  0  0  0  # atno 17320 bound_to 7965
  145.1468  139.2539  143.5462 LP  0  0  0  0  0  0  0  0  0  0  0  0  # atno 17321 bound_to 7965
  139.4784  144.5346  151.8616 LP  0  0  0  0  0  0  0  0  0  0  0  0  # atno 17342 bound_to 10162
  140.4439  144.1948  150.5893 LP  0  0  0  0  0  0  0  0  0  0  0  0  # atno 17343 bound_to 10162
  157.1951  131.0424  151.2680 LP  0  0  0  0  0  0  0  0  0  0  0  0  # atno 17370 bound_to 10713
  157.4026  130.7342  149.6779 LP  0  0  0  0  0  0  0  0  0  0  0  0  # atno 17371 bound_to 10713
  140.0281  134.6447  155.9144 LP  0  0  0  0  0  0  0  0  0  0  0  0  # atno 17394 bound_to 11000
  141.1828  133.6549  156.5092 LP  0  0  0  0  0  0  0  0  0  0  0  0  # atno 17395 bound_to 11000

$$$$
