AV-unprocessed.smi:713|AV-procd|sdf|3474|dock4
  -GOLD-   22720 0463D 1   1.00000     0.00000
 Structure written by MMmdl.
 41 42  0  0  0  0  0  0  0  0  1 V2000
  153.9589  141.9375  160.5007 C   0  0  0  0  0  0  0  0  0  0  0  0
  152.6861  141.6347  159.6839 C   0  0  2  0  0  0  0  0  0  0  0  0
  152.8707  140.4811  158.6819 C   0  0  0  0  0  0  0  0  0  0  0  0
  153.9745  139.9606  158.5144 O   0  0  0  0  0  0  0  0  0  0  0  0
  151.7681  140.0802  158.0277 N   0  0  0  0  0  0  0  0  0  0  0  0
  151.7179  139.0148  157.0325 C   0  0  2  0  0  0  0  0  0  0  0  0
  151.9381  139.6104  155.6305 C   0  0  0  0  0  0  0  0  0  0  0  0
  151.8510  138.5343  154.5369 C   0  0  0  0  0  0  0  0  0  0  0  0
  150.5298  137.7477  154.6178 C   0  0  0  0  0  0  0  0  0  0  0  0
  150.2279  137.1816  156.0245 C   0  0  1  0  0  0  0  0  0  0  0  0
  151.2459  135.6861  156.4604 S   0  0  0  0  0  0  0  0  0  0  0  0
  150.7276  134.4667  155.1827 C   0  0  0  0  0  0  0  0  0  0  0  0
  152.6732  135.9694  156.2500 O   0  0  0  0  0  0  0  0  0  0  0  0
  150.7955  135.1946  157.7712 O   0  0  0  0  0  0  0  0  0  0  0  0
  150.3637  138.2789  157.0989 C   0  0  0  0  0  0  0  0  0  0  0  0
  152.1767  142.8274  159.0151 N   0  0  0  0  0  0  0  0  0  0  0  0
  152.7046  144.1026  159.0361 C   0  0  0  0  0  0  0  0  0  0  0  0
  151.8791  144.9011  158.2977 C   0  0  0  0  0  0  0  0  0  0  0  0
  150.8530  144.0165  157.8636 C   0  0  0  0  0  0  0  0  0  0  0  0
  151.0295  142.7797  158.2980 N   0  0  0  0  0  0  0  0  0  0  0  0
  154.2844  141.0617  161.0628 H   0  0  0  0  0  0  0  0  0  0  0  0
  153.7775  142.7364  161.2201 H   0  0  0  0  0  0  0  0  0  0  0  0
  154.7880  142.2492  159.8639 H   0  0  0  0  0  0  0  0  0  0  0  0
  151.9199  141.3119  160.3906 H   0  0  0  0  0  0  0  0  0  0  0  0
  150.9014  140.5591  158.2248 H   0  0  0  0  0  0  0  0  0  0  0  0
  152.5269  138.3124  157.2365 H   0  0  0  0  0  0  0  0  0  0  0  0
  151.1910  140.3815  155.4359 H   0  0  0  0  0  0  0  0  0  0  0  0
  152.9099  140.1032  155.5816 H   0  0  0  0  0  0  0  0  0  0  0  0
  151.9350  139.0041  153.5565 H   0  0  0  0  0  0  0  0  0  0  0  0
  152.7037  137.8622  154.6130 H   0  0  0  0  0  0  0  0  0  0  0  0
  149.7174  138.4202  154.3392 H   0  0  0  0  0  0  0  0  0  0  0  0
  150.5218  136.9553  153.8709 H   0  0  0  0  0  0  0  0  0  0  0  0
  149.1943  136.8349  156.0358 H   0  0  0  0  0  0  0  0  0  0  0  0
  151.1821  133.5012  155.4044 H   0  0  0  0  0  0  0  0  0  0  0  0
  151.0565  134.7943  154.1974 H   0  0  0  0  0  0  0  0  0  0  0  0
  149.6429  134.3639  155.1934 H   0  0  0  0  0  0  0  0  0  0  0  0
  150.2146  137.8473  158.0891 H   0  0  0  0  0  0  0  0  0  0  0  0
  149.5582  139.0023  156.9643 H   0  0  0  0  0  0  0  0  0  0  0  0
  153.6147  144.3336  159.5698 H   0  0  0  0  0  0  0  0  0  0  0  0
  151.9897  145.9569  158.0999 H   0  0  0  0  0  0  0  0  0  0  0  0
  149.9897  144.2350  157.2525 H   0  0  0  0  0  0  0  0  0  0  0  0
  1  2  1  0  0  0  0
  1 21  1  0  0  0  0
  1 22  1  0  0  0  0
  1 23  1  0  0  0  0
  2  3  1  0  0  0  0
  2 16  1  0  0  0  0
  2 24  1  0  0  0  0
  3  4  2  0  0  0  0
  3  5  1  0  0  0  0
  5  6  1  0  0  0  0
  5 25  1  0  0  0  0
  6 15  1  0  0  0  0
  6  7  1  0  0  0  0
  6 26  1  0  0  0  0
  7  8  1  0  0  0  0
  7 27  1  0  0  0  0
  7 28  1  0  0  0  0
  8  9  1  0  0  0  0
  8 29  1  0  0  0  0
  8 30  1  0  0  0  0
  9 10  1  0  0  0  0
  9 31  1  0  0  0  0
  9 32  1  0  0  0  0
 10 11  1  0  0  0  0
 10 15  1  0  0  0  0
 10 33  1  0  0  0  0
 11 12  1  0  0  0  0
 11 13  2  0  0  0  0
 11 14  2  0  0  0  0
 12 34  1  0  0  0  0
 12 35  1  0  0  0  0
 12 36  1  0  0  0  0
 15 37  1  0  0  0  0
 15 38  1  0  0  0  0
 16 20  1  0  0  0  0
 16 17  1  0  0  0  0
 17 18  2  0  0  0  0
 17 39  1  0  0  0  0
 18 19  1  0  0  0  0
 18 40  1  0  0  0  0
 19 20  2  0  0  0  0
 19 41  1  0  0  0  0
M  END
> <s_m_source_file>
AV-unprocessed.smi

> <i_m_source_file_index>
713

> <i_lp_mmshare_version>
43012

> <i_f3d_flags>
0

> <s_epik_input>
bjFbY0hdW2NIXVtjSF1uMVtDQEhdKFtDSDNdKUMoPU8pW05IXVtDQEBIXTJbQ0gyXVtDSDJdW0NIMl1bQ0BIXShbQ0gyXTIpUyg9TykoPU8pW0NIM10=

> <s_epik_cmdline>
J2VwaWtfcHl0aG9uJywgJy1waCcsICc3LjAnLCAnLXRuJywgJzgnLCAnLW1hJywgJzIwMCcsICctbWV0YWxfYmluZGluZycsICctaW1hZScsICc8aW5maWxlLm1hZT4nLCAnLW9tYWUnLCAnPG91dGZpbGUubWFlPic=

> <r_lp_tautomer_probability>
1

> <r_epik_Ionization_Penalty>
4.07816e-05

> <r_epik_Ionization_Penalty_Charging>
0

> <r_epik_Ionization_Penalty_Neutral>
4.07816e-05

> <r_epik_State_Penalty>
-0

> <r_epik_Charging_Adjusted_Penalty>
0

> <i_epik_Tot_Q>
0

> <i_epik_Tot_abs_Q>
0

> <r_epik_Metal_State_Penalty>
-0

> <b_epik_Metal_Only>
0

> <s_lp_Force_Field>
OPLS_2005

> <r_lp_Energy>
4.10812

> <b_lp_Chiralities_Consistent>
1

> <s_lp_Variant>
AV-unprocessed.smi:713-1

> <Gold.Version>
5.8.1

> <Gold.Id.Protein>
6NUR|6NUR_protein|mol2

> <Gold.PLP.Fitness>
51.9380

> <Gold.PLP.PLP>
-41.4499

> <Gold.PLP.part.hbond>
-3.0000

> <Gold.PLP.part.metal>
0.0000

> <Gold.PLP.part.buried>
-5.6067

> <Gold.PLP.part.nonpolar>
-34.1848

> <Gold.PLP.part.repulsive>
0.1529

> <Gold.PLP.ligand.clash>
0.0000

> <Gold.PLP.ligand.torsion>
0.5895

> <Gold.PLP.Chemscore.Hbond>
2.7920

> <Gold.PLP.Chemscore.CHOScore>
1.0000

> <Gold.PLP.Chemscore.Metal>
0.0000

> <Gold.Chemscore.Hbonds>
donor molecule, donor type, donor heavy atom, donor atom, acceptor molecule, acceptor atom, score
      P1  H  6896  6907       L1    14  0.38
      P1  H  7997  8009       L1     4  1.00
      P1  H 10752 10764       L1    13  0.68
      L1  C    19    41       P1  8028  0.85

> <Gold.PLP.Chemscore.Internal.Correction>
0.2911

> <Gold.Rescore>
     Score         DG    S(hbond)    S(metal)    S(lipo)     H(rot)  DE(clash)    DE(int)     intcor
     19.87     -21.95       2.82        0.00      98.10       1.72       0.09       1.99       ----

> <Gold.Chemscore.Fitness>
19.8735

> <Gold.Chemscore.DG>
-21.9491

> <Gold.Chemscore.ZeroCoef>
-5.4800

> <Gold.Chemscore.Hbond>
2.8164

> <Gold.Chemscore.Metal>
0.0000

> <Gold.Chemscore.Lipo>
98.1029

> <Gold.Chemscore.Internal_Hbond>
0.0000

> <Gold.Chemscore.DEClash>
0.0859

> <Gold.Chemscore.DEInternal>
1.9898

> <Gold.Chemscore.Rot>
1.7249

> <Gold.Chemscore.Internal.Correction>
   9.000000E+99

> <Gold.Chemscore.Hbonds>
donor molecule, donor type, donor heavy atom, donor atom, acceptor molecule, acceptor atom, score
      P1  H  6896  6907       L1    14  0.38
      P1  H  7997  8009       L1     4  0.93
      P1  H 10752 10764       L1    13  0.46

> <Gold.Chemscore.Hbond.Weighted>
-9.4068

> <Gold.Chemscore.Metal.Weighted>
-0.0000

> <Gold.Chemscore.Lipo.Weighted>
-11.4780

> <Gold.Chemscore.Internal_Hbond.Weighted>
0.0000

> <Gold.Chemscore.DEClash.Weighted>
0.0859

> <Gold.Chemscore.DEInternal.Weighted>
1.9898

> <Gold.Chemscore.Rot.Weighted>
4.4157

> <Gold.Chemscore.Internal.Correction.Weighted>
   9.000000E+99

> <Gold.Protein.RotatedTorsions>
[ 6907 6896 6895 6894 ] final  -79.29 input  -60.11 | X-H torsion
[ 7974 7965 7964 7962 ] final  120.33 input  175.53 | X-H torsion
[ 8008 7997 7996 7995 ] final  134.74 input   59.86 | X-H torsion
[ 10167 10162 10161 10158 ] final  -50.74 input  -65.29 | X-H torsion
[ 10718 10713 10712 10709 ] final  174.27 input   66.30 | X-H torsion
[ 10763 10752 10751 10750 ] final  -41.09 input  -60.55 | X-H torsion
[ 11005 11000 10999 10996 ] final -167.99 input  -57.11 | X-H torsion

> <Gold.Protein.ActiveResidues>
 VAL166  LYS551  ARG553  GLY616  TRP617  ASP618  TYR619  PRO620  LYS621  CYS622 
 ASP623  PHE694  ASN695  SER759  ASP760  ASP761  ALA762  ILE779  LEU786  VAL792 
 PHE793  MET794  SER795  GLU796  ALA797  LYS798  CYS799  TRP800  GLU811  SER814 

> <Gold.Protein.RotatedAtoms>
  150.6953  134.4144  159.5176 H   0  0  0  0  0  0  0  0  0  0  0  0  # atno 6907 bound_to 6896
  152.1897  134.8680  160.0528 H   0  0  0  0  0  0  0  0  0  0  0  0  # atno 6908 bound_to 6896
  151.9640  133.3669  159.4083 H   0  0  0  0  0  0  0  0  0  0  0  0  # atno 6909 bound_to 6896
  145.1325  139.3318  143.4658 H   0  0  0  0  0  0  0  0  0  0  0  0  # atno 7974 bound_to 7965
  156.3000  140.2488  156.3467 H   0  0  0  0  0  0  0  0  0  0  0  0  # atno 8008 bound_to 7997
  154.9004  140.0406  157.1909 H   0  0  0  0  0  0  0  0  0  0  0  0  # atno 8009 bound_to 7997
  154.8507  140.2905  155.5604 H   0  0  0  0  0  0  0  0  0  0  0  0  # atno 8010 bound_to 7997
  140.6622  143.2646  151.4403 H   0  0  0  0  0  0  0  0  0  0  0  0  # atno 10167 bound_to 10162
  156.9521  131.0034  151.2946 H   0  0  0  0  0  0  0  0  0  0  0  0  # atno 10718 bound_to 10713
  153.9568  135.6744  153.4744 H   0  0  0  0  0  0  0  0  0  0  0  0  # atno 10763 bound_to 10752
  153.0857  135.4900  154.8589 H   0  0  0  0  0  0  0  0  0  0  0  0  # atno 10764 bound_to 10752
  154.7295  135.3135  154.8875 H   0  0  0  0  0  0  0  0  0  0  0  0  # atno 10765 bound_to 10752
  140.5470  134.5466  157.5113 H   0  0  0  0  0  0  0  0  0  0  0  0  # atno 11005 bound_to 11000
  146.3512  140.1329  142.8596 LP  0  0  0  0  0  0  0  0  0  0  0  0  # atno 17320 bound_to 7965
  145.0620  140.9094  143.4933 LP  0  0  0  0  0  0  0  0  0  0  0  0  # atno 17321 bound_to 7965
  139.5860  144.1604  152.2029 LP  0  0  0  0  0  0  0  0  0  0  0  0  # atno 17342 bound_to 10162
  140.0943  144.5593  150.7032 LP  0  0  0  0  0  0  0  0  0  0  0  0  # atno 17343 bound_to 10162
  157.5715  130.8314  149.8398 LP  0  0  0  0  0  0  0  0  0  0  0  0  # atno 17370 bound_to 10713
  156.0358  130.3751  150.1564 LP  0  0  0  0  0  0  0  0  0  0  0  0  # atno 17371 bound_to 10713
  139.9474  134.7677  156.0528 LP  0  0  0  0  0  0  0  0  0  0  0  0  # atno 17394 bound_to 11000
  141.1194  133.6617  156.3176 LP  0  0  0  0  0  0  0  0  0  0  0  0  # atno 17395 bound_to 11000

$$$$
