AV-unprocessed.smi:1492|AV-procd|sdf|6039|dock7
  -GOLD-   22720 6143D 1   1.00000     0.00000
 Structure written by MMmdl.
 53 54  0  0  0  0  0  0  0  0  2 V2000
  145.5685  132.9851  151.5479 C   0  0  0  0  0  0  0  0  0  0  0  0
  147.0527  133.1749  151.9098 C   0  0  0  0  0  0  0  0  0  0  0  0
  147.5835  132.2778  153.0706 C   0  0  2  0  0  0  0  0  0  0  0  0
  146.5580  132.3708  154.2311 C   0  0  0  0  0  0  0  0  0  0  0  0
  148.9632  132.8254  153.5521 C   0  0  0  0  0  0  0  0  0  0  0  0
  148.9024  134.1970  154.0536 N   0  0  0  0  0  0  0  0  0  0  0  0
  149.1904  134.5940  155.3026 C   0  0  0  0  0  0  0  0  0  0  0  0
  149.5413  133.8252  156.1970 O   0  0  0  0  0  0  0  0  0  0  0  0
  149.0429  136.0890  155.5872 C   0  0  0  0  0  0  0  0  0  0  0  0
  150.1870  136.7221  156.3771 C   0  0  0  0  0  0  0  0  0  0  0  0
  151.0959  137.5721  155.8158 C   0  0  0  0  0  0  0  0  0  0  0  0
  151.0575  137.9672  154.3499 C   0  0  0  0  0  0  0  0  0  0  0  0
  152.1351  138.1376  156.5679 N   0  0  0  0  0  0  0  0  0  0  0  0
  152.2280  137.8401  157.8220 C   0  0  0  0  0  0  0  0  0  0  0  0
  153.3003  138.3847  158.7420 C   0  0  0  0  0  0  0  0  0  0  0  0
  151.3332  136.9794  158.4560 N   0  0  0  0  0  0  0  0  0  0  0  0
  150.2978  136.3961  157.8123 C   0  0  0  0  0  0  0  0  0  0  0  0
  149.5200  135.6626  158.4211 O   0  0  0  0  0  0  0  0  0  0  0  0
  147.7099  130.8473  152.6084 N   0  3  0  0  0  0  0  0  0  0  0  0
  148.4611  129.9333  153.5154 C   0  0  0  0  0  0  0  0  0  0  0  0
  148.7026  128.5780  152.8323 C   0  0  0  0  0  0  0  0  0  0  0  0
  147.4561  128.0007  152.4713 O   0  0  0  0  0  0  0  0  0  0  0  0
  146.7508  128.8124  151.5427 C   0  0  0  0  0  0  0  0  0  0  0  0
  146.4487  130.1844  152.1699 C   0  0  0  0  0  0  0  0  0  0  0  0
  151.4535  136.7867  159.4398 H   0  0  0  0  0  0  0  0  0  0  0  0
  145.2894  133.6509  150.7311 H   0  0  0  0  0  0  0  0  0  0  0  0
  144.9137  133.2146  152.3880 H   0  0  0  0  0  0  0  0  0  0  0  0
  145.3549  131.9672  151.2221 H   0  0  0  0  0  0  0  0  0  0  0  0
  147.6558  133.0354  151.0131 H   0  0  0  0  0  0  0  0  0  0  0  0
  147.1931  134.2257  152.1663 H   0  0  0  0  0  0  0  0  0  0  0  0
  146.2628  133.4020  154.4279 H   0  0  0  0  0  0  0  0  0  0  0  0
  146.9629  131.9859  155.1673 H   0  0  0  0  0  0  0  0  0  0  0  0
  145.6466  131.8135  154.0135 H   0  0  0  0  0  0  0  0  0  0  0  0
  149.4007  132.1741  154.3092 H   0  0  0  0  0  0  0  0  0  0  0  0
  149.6760  132.8425  152.7285 H   0  0  0  0  0  0  0  0  0  0  0  0
  148.6163  134.9069  153.3940 H   0  0  0  0  0  0  0  0  0  0  0  0
  148.9008  136.6108  154.6397 H   0  0  0  0  0  0  0  0  0  0  0  0
  148.1088  136.2470  156.1268 H   0  0  0  0  0  0  0  0  0  0  0  0
  151.2328  137.0985  153.7151 H   0  0  0  0  0  0  0  0  0  0  0  0
  151.8233  138.7087  154.1193 H   0  0  0  0  0  0  0  0  0  0  0  0
  150.0899  138.3973  154.0911 H   0  0  0  0  0  0  0  0  0  0  0  0
  153.2446  139.4728  158.7797 H   0  0  0  0  0  0  0  0  0  0  0  0
  154.2881  138.1048  158.3751 H   0  0  0  0  0  0  0  0  0  0  0  0
  153.1926  138.0023  159.7580 H   0  0  0  0  0  0  0  0  0  0  0  0
  149.4290  130.3468  153.7906 H   0  0  0  0  0  0  0  0  0  0  0  0
  147.9044  129.7722  154.4388 H   0  0  0  0  0  0  0  0  0  0  0  0
  149.3379  128.6918  151.9522 H   0  0  0  0  0  0  0  0  0  0  0  0
  149.2203  127.9020  153.5131 H   0  0  0  0  0  0  0  0  0  0  0  0
  147.3303  128.9234  150.6247 H   0  0  0  0  0  0  0  0  0  0  0  0
  145.8215  128.3108  151.2726 H   0  0  0  0  0  0  0  0  0  0  0  0
  145.7741  130.0565  153.0168 H   0  0  0  0  0  0  0  0  0  0  0  0
  145.9202  130.7755  151.4243 H   0  0  0  0  0  0  0  0  0  0  0  0
  148.2729  130.9079  151.7722 H   0  0  0  0  0  0  0  0  0  0  0  0
  1  2  1  0  0  0  0
  1 26  1  0  0  0  0
  1 27  1  0  0  0  0
  1 28  1  0  0  0  0
  2  3  1  0  0  0  0
  2 29  1  0  0  0  0
  2 30  1  0  0  0  0
  3  4  1  0  0  0  0
  3  5  1  0  0  0  0
  3 19  1  0  0  0  0
  4 31  1  0  0  0  0
  4 32  1  0  0  0  0
  4 33  1  0  0  0  0
  5  6  1  0  0  0  0
  5 34  1  0  0  0  0
  5 35  1  0  0  0  0
  6  7  1  0  0  0  0
  6 36  1  0  0  0  0
  7  8  2  0  0  0  0
  7  9  1  0  0  0  0
  9 10  1  0  0  0  0
  9 37  1  0  0  0  0
  9 38  1  0  0  0  0
 10 17  1  0  0  0  0
 10 11  2  0  0  0  0
 11 12  1  0  0  0  0
 11 13  1  0  0  0  0
 12 39  1  0  0  0  0
 12 40  1  0  0  0  0
 12 41  1  0  0  0  0
 13 14  2  0  0  0  0
 14 15  1  0  0  0  0
 14 16  1  0  0  0  0
 15 42  1  0  0  0  0
 15 43  1  0  0  0  0
 15 44  1  0  0  0  0
 16 25  1  0  0  0  0
 16 17  1  0  0  0  0
 17 18  2  0  0  0  0
 19 24  1  0  0  0  0
 19 20  1  0  0  0  0
 19 53  1  0  0  0  0
 20 21  1  0  0  0  0
 20 45  1  0  0  0  0
 20 46  1  0  0  0  0
 21 22  1  0  0  0  0
 21 47  1  0  0  0  0
 21 48  1  0  0  0  0
 22 23  1  0  0  0  0
 23 24  1  0  0  0  0
 23 49  1  0  0  0  0
 23 50  1  0  0  0  0
 24 51  1  0  0  0  0
 24 52  1  0  0  0  0
M  CHG  1  19   1
M  END
> <s_m_source_file>
AV-unprocessed.smi

> <i_m_source_file_index>
1492

> <i_lp_mmshare_version>
43012

> <i_f3d_flags>
0

> <s_epik_input>
W0NIMl0xW0NIMl1PW0NIMl1bQ0gyXU4xW0NAQF0oW0NIM10pKFtDSDJdW0NIM10pW0NIMl1bTkhdQyg9TylbQ0gyXWMyYyhbQ0gzXSluYyhbQ0gzXSlbbkhdYzI9Tw==

> <s_epik_cmdline>
J2VwaWtfcHl0aG9uJywgJy1waCcsICc3LjAnLCAnLXRuJywgJzgnLCAnLW1hJywgJzIwMCcsICctbWV0YWxfYmluZGluZycsICctaW1hZScsICc8aW5maWxlLm1hZT4nLCAnLW9tYWUnLCAnPG91dGZpbGUubWFlPic=

> <r_lp_tautomer_probability>
0.839158

> <r_epik_Ionization_Penalty>
0.506959

> <r_epik_Ionization_Penalty_Charging>
0.506936

> <r_epik_Ionization_Penalty_Neutral>
2.27768e-05

> <r_epik_State_Penalty>
0.6046

> <r_epik_Charging_Adjusted_Penalty>
1.11154

> <i_epik_Tot_Q>
1

> <i_epik_Tot_abs_Q>
1

> <r_epik_Metal_State_Penalty>
0.783136

> <b_epik_Metal_Only>
0

> <s_lp_Force_Field>
OPLS_2005

> <r_lp_Energy>
29.7621

> <b_lp_Chiralities_Consistent>
1

> <s_lp_Variant>
AV-unprocessed.smi:1492-4

> <Gold.Version>
5.8.1

> <Gold.Id.Protein>
6NUR|6NUR_protein|mol2

> <Gold.PLP.Fitness>
42.1431

> <Gold.PLP.PLP>
-34.1798

> <Gold.PLP.part.hbond>
-3.0000

> <Gold.PLP.part.metal>
0.0000

> <Gold.PLP.part.buried>
-5.0278

> <Gold.PLP.part.nonpolar>
-25.4617

> <Gold.PLP.part.repulsive>
0.1874

> <Gold.PLP.ligand.clash>
0.0000

> <Gold.PLP.ligand.torsion>
0.5820

> <Gold.PLP.Chemscore.Hbond>
3.0000

> <Gold.PLP.Chemscore.CHOScore>
0.0000

> <Gold.PLP.Chemscore.Metal>
0.0000

> <Gold.Chemscore.Hbonds>
donor molecule, donor type, donor heavy atom, donor atom, acceptor molecule, acceptor atom, score
      L1  H     6    36       P1  7948  1.00
      L1  H    19    53       P1 10747  1.00
      P1  H  6896  6908       L1    18  1.00

> <Gold.PLP.Chemscore.Internal.Correction>
0.1274

> <Gold.Rescore>
     Score         DG    S(hbond)    S(metal)    S(lipo)     H(rot)  DE(clash)    DE(int)     intcor
     15.74     -17.84       2.65        0.00      78.05       2.19       0.09       2.02       ----

> <Gold.Chemscore.Fitness>
15.7369

> <Gold.Chemscore.DG>
-17.8425

> <Gold.Chemscore.ZeroCoef>
-5.4800

> <Gold.Chemscore.Hbond>
2.6478

> <Gold.Chemscore.Metal>
0.0000

> <Gold.Chemscore.Lipo>
78.0488

> <Gold.Chemscore.Internal_Hbond>
0.0000

> <Gold.Chemscore.DEClash>
0.0853

> <Gold.Chemscore.DEInternal>
2.0203

> <Gold.Chemscore.Rot>
2.1926

> <Gold.Chemscore.Internal.Correction>
   9.000000E+99

> <Gold.Chemscore.Hbonds>
donor molecule, donor type, donor heavy atom, donor atom, acceptor molecule, acceptor atom, score
      L1  H     6    36       P1  7948  0.59
      L1  H    19    53       P1 10747  1.00
      P1  H  6896  6908       L1    18  0.25

> <Gold.Chemscore.Hbond.Weighted>
-8.8437

> <Gold.Chemscore.Metal.Weighted>
-0.0000

> <Gold.Chemscore.Lipo.Weighted>
-9.1317

> <Gold.Chemscore.Internal_Hbond.Weighted>
0.0000

> <Gold.Chemscore.DEClash.Weighted>
0.0853

> <Gold.Chemscore.DEInternal.Weighted>
2.0203

> <Gold.Chemscore.Rot.Weighted>
5.6129

> <Gold.Chemscore.Internal.Correction.Weighted>
   9.000000E+99

> <Gold.Protein.RotatedTorsions>
[ 6907 6896 6895 6894 ] final -175.79 input  -60.11 | X-H torsion
[ 7974 7965 7964 7962 ] final   72.87 input  175.53 | X-H torsion
[ 8008 7997 7996 7995 ] final  136.06 input   59.86 | X-H torsion
[ 10167 10162 10161 10158 ] final  -23.24 input  -65.29 | X-H torsion
[ 10718 10713 10712 10709 ] final  173.29 input   66.30 | X-H torsion
[ 10763 10752 10751 10750 ] final  -20.92 input  -60.55 | X-H torsion
[ 11005 11000 10999 10996 ] final   98.26 input  -57.11 | X-H torsion

> <Gold.Protein.ActiveResidues>
 VAL166  LYS551  ARG553  GLY616  TRP617  ASP618  TYR619  PRO620  LYS621  CYS622 
 ASP623  PHE694  ASN695  SER759  ASP760  ASP761  ALA762  ILE779  LEU786  VAL792 
 PHE793  MET794  SER795  GLU796  ALA797  LYS798  CYS799  TRP800  GLU811  SER814 

> <Gold.Protein.RotatedAtoms>
  151.5943  133.3363  159.3033 H   0  0  0  0  0  0  0  0  0  0  0  0  # atno 6907 bound_to 6896
  150.8243  134.7469  159.6810 H   0  0  0  0  0  0  0  0  0  0  0  0  # atno 6908 bound_to 6896
  152.4333  134.5740  159.9981 H   0  0  0  0  0  0  0  0  0  0  0  0  # atno 6909 bound_to 6896
  145.7480  139.2748  143.1448 H   0  0  0  0  0  0  0  0  0  0  0  0  # atno 7974 bound_to 7965
  156.3004  140.2455  156.3684 H   0  0  0  0  0  0  0  0  0  0  0  0  # atno 8008 bound_to 7997
  154.8812  140.0412  157.1803 H   0  0  0  0  0  0  0  0  0  0  0  0  # atno 8009 bound_to 7997
  154.8694  140.2933  155.5494 H   0  0  0  0  0  0  0  0  0  0  0  0  # atno 8010 bound_to 7997
  140.7287  143.4461  151.0585 H   0  0  0  0  0  0  0  0  0  0  0  0  # atno 10167 bound_to 10162
  156.9664  131.0076  151.2915 H   0  0  0  0  0  0  0  0  0  0  0  0  # atno 10718 bound_to 10713
  153.6281  135.6990  153.5285 H   0  0  0  0  0  0  0  0  0  0  0  0  # atno 10763 bound_to 10752
  153.2882  135.4165  155.1142 H   0  0  0  0  0  0  0  0  0  0  0  0  # atno 10764 bound_to 10752
  154.8528  135.3619  154.5823 H   0  0  0  0  0  0  0  0  0  0  0  0  # atno 10765 bound_to 10752
  139.8773  134.9040  156.4429 H   0  0  0  0  0  0  0  0  0  0  0  0  # atno 11005 bound_to 11000
  146.0384  140.8189  142.9841 LP  0  0  0  0  0  0  0  0  0  0  0  0  # atno 17320 bound_to 7965
  144.6856  140.2874  143.7283 LP  0  0  0  0  0  0  0  0  0  0  0  0  # atno 17321 bound_to 7965
  139.8132  143.7921  152.3172 LP  0  0  0  0  0  0  0  0  0  0  0  0  # atno 17342 bound_to 10162
  139.7978  144.7386  150.9866 LP  0  0  0  0  0  0  0  0  0  0  0  0  # atno 17343 bound_to 10162
  157.5622  130.8254  149.8281 LP  0  0  0  0  0  0  0  0  0  0  0  0  # atno 17370 bound_to 10713
  156.0301  130.3767  150.1713 LP  0  0  0  0  0  0  0  0  0  0  0  0  # atno 17371 bound_to 10713
  140.8986  133.7795  155.9654 LP  0  0  0  0  0  0  0  0  0  0  0  0  # atno 17394 bound_to 11000
  140.8675  134.2766  157.5206 LP  0  0  0  0  0  0  0  0  0  0  0  0  # atno 17395 bound_to 11000

$$$$
