AV-unprocessed.smi:249|AV-procd|sdf|1924|dock1
  -GOLD-   2262021 33D 1   1.00000     0.00000
 Structure written by MMmdl.
 64 67  0  0  0  0  0  0  0  0  2 V2000
  144.2780  132.4250  149.9459 C   0  0  0  0  0  0  0  0  0  0  0  0
  143.8850  133.0529  151.2920 C   0  0  0  0  0  0  0  0  0  0  0  0
  143.5839  134.5120  151.1951 N   0  3  2  0  0  0  0  0  0  0  0  0
  144.7073  135.3320  150.6589 C   0  0  0  0  0  0  0  0  0  0  0  0
  145.8462  135.4905  151.6846 C   0  0  0  0  0  0  0  0  0  0  0  0
  145.3156  136.0885  153.0025 C   0  0  2  0  0  0  0  0  0  0  0  0
  146.3715  136.2583  154.0076 N   0  0  0  0  0  0  0  0  0  0  0  0
  147.2607  135.1412  154.3254 C   0  0  0  0  0  0  0  0  0  0  0  0
  146.9084  137.5041  154.0828 C   0  0  0  0  0  0  0  0  0  0  0  0
  146.2770  138.5464  153.4789 N   0  0  0  0  0  0  0  0  0  0  0  0
  146.7813  139.7811  153.5609 C   0  0  0  0  0  0  0  0  0  0  0  0
  147.8843  140.1912  154.1893 N   0  0  0  0  0  0  0  0  0  0  0  0
  148.5257  139.1509  154.7934 C   0  0  0  0  0  0  0  0  0  0  0  0
  148.1150  137.7879  154.7839 C   0  0  0  0  0  0  0  0  0  0  0  0
  149.0322  137.0136  155.4855 N   0  0  0  0  0  0  0  0  0  0  0  0
  149.9255  137.8710  155.8974 C   0  0  0  0  0  0  0  0  0  0  0  0
  149.6851  139.1811  155.5490 N   0  0  0  0  0  0  0  0  0  0  0  0
  150.5122  140.3302  155.8743 C   0  0  0  0  0  0  0  0  0  0  0  0
  150.6955  140.5969  157.3953 C   0  0  2  0  0  0  0  0  0  0  0  0
  149.3066  140.8226  158.0404 C   0  0  0  0  0  0  0  0  0  0  0  0
  148.5685  139.6198  158.1100 O   0  0  0  0  0  0  0  0  0  0  0  0
  151.6608  141.7816  157.7013 C   0  0  1  0  0  0  0  0  0  0  0  0
  151.1277  143.1576  157.3291 C   0  0  0  0  0  0  0  0  0  0  0  0
  152.0273  144.0864  158.1315 C   0  0  0  0  0  0  0  0  0  0  0  0
  152.2401  143.4059  159.3579 O   0  0  0  0  0  0  0  0  0  0  0  0
  151.9905  142.0141  159.1860 C   0  0  0  0  0  0  0  0  0  0  0  0
  144.1223  135.2656  153.5268 C   0  0  0  0  0  0  0  0  0  0  0  0
  143.0345  135.1316  152.4406 C   0  0  2  0  0  0  0  0  0  0  0  0
  141.7613  134.4422  152.9634 C   0  0  0  0  0  0  0  0  0  0  0  0
  144.3322  131.3399  150.0349 H   0  0  0  0  0  0  0  0  0  0  0  0
  145.2555  132.7622  149.6031 H   0  0  0  0  0  0  0  0  0  0  0  0
  143.5456  132.6551  149.1717 H   0  0  0  0  0  0  0  0  0  0  0  0
  143.0004  132.5180  151.6321 H   0  0  0  0  0  0  0  0  0  0  0  0
  144.6598  132.8612  152.0337 H   0  0  0  0  0  0  0  0  0  0  0  0
  145.0886  134.9239  149.7245 H   0  0  0  0  0  0  0  0  0  0  0  0
  144.3183  136.3187  150.4027 H   0  0  0  0  0  0  0  0  0  0  0  0
  146.3216  134.5261  151.8623 H   0  0  0  0  0  0  0  0  0  0  0  0
  146.6197  136.1377  151.2691 H   0  0  0  0  0  0  0  0  0  0  0  0
  144.9156  137.0696  152.7504 H   0  0  0  0  0  0  0  0  0  0  0  0
  147.8627  135.3651  155.2071 H   0  0  0  0  0  0  0  0  0  0  0  0
  147.9365  134.9314  153.4960 H   0  0  0  0  0  0  0  0  0  0  0  0
  146.6979  134.2350  154.5446 H   0  0  0  0  0  0  0  0  0  0  0  0
  146.2183  140.5512  153.0544 H   0  0  0  0  0  0  0  0  0  0  0  0
  150.7827  137.5703  156.4824 H   0  0  0  0  0  0  0  0  0  0  0  0
  151.4870  140.2001  155.4024 H   0  0  0  0  0  0  0  0  0  0  0  0
  150.0534  141.1906  155.3868 H   0  0  0  0  0  0  0  0  0  0  0  0
  151.1167  139.7035  157.8579 H   0  0  0  0  0  0  0  0  0  0  0  0
  149.3948  141.1866  159.0629 H   0  0  0  0  0  0  0  0  0  0  0  0
  148.7359  141.5660  157.4833 H   0  0  0  0  0  0  0  0  0  0  0  0
  148.1317  139.5826  158.9472 H   0  0  0  0  0  0  0  0  0  0  0  0
  152.5951  141.6286  157.1584 H   0  0  0  0  0  0  0  0  0  0  0  0
  151.1769  143.3675  156.2604 H   0  0  0  0  0  0  0  0  0  0  0  0
  150.0921  143.2681  157.6554 H   0  0  0  0  0  0  0  0  0  0  0  0
  152.9862  144.2181  157.6287 H   0  0  0  0  0  0  0  0  0  0  0  0
  151.5850  145.0703  158.2888 H   0  0  0  0  0  0  0  0  0  0  0  0
  151.1482  141.7453  159.8244 H   0  0  0  0  0  0  0  0  0  0  0  0
  152.8585  141.4418  159.5106 H   0  0  0  0  0  0  0  0  0  0  0  0
  144.4393  134.2745  153.8496 H   0  0  0  0  0  0  0  0  0  0  0  0
  143.7048  135.7564  154.4070 H   0  0  0  0  0  0  0  0  0  0  0  0
  142.7275  136.1412  152.1619 H   0  0  0  0  0  0  0  0  0  0  0  0
  141.2882  135.0497  153.7355 H   0  0  0  0  0  0  0  0  0  0  0  0
  141.9715  133.4711  153.4115 H   0  0  0  0  0  0  0  0  0  0  0  0
  141.0306  134.3007  152.1666 H   0  0  0  0  0  0  0  0  0  0  0  0
  142.8430  134.5808  150.5120 H   0  0  0  0  0  0  0  0  0  0  0  0
  1  2  1  0  0  0  0
  1 30  1  0  0  0  0
  1 31  1  0  0  0  0
  1 32  1  0  0  0  0
  2  3  1  0  0  0  0
  2 33  1  0  0  0  0
  2 34  1  0  0  0  0
  3 28  1  0  0  0  0
  3  4  1  0  0  0  0
  3 64  1  0  0  0  0
  4  5  1  0  0  0  0
  4 35  1  0  0  0  0
  4 36  1  0  0  0  0
  5  6  1  0  0  0  0
  5 37  1  0  0  0  0
  5 38  1  0  0  0  0
  6  7  1  0  0  0  0
  6 27  1  0  0  0  0
  6 39  1  0  0  0  0
  7  8  1  0  0  0  0
  7  9  1  0  0  0  0
  8 40  1  0  0  0  0
  8 41  1  0  0  0  0
  8 42  1  0  0  0  0
  9 14  1  0  0  0  0
  9 10  2  0  0  0  0
 10 11  1  0  0  0  0
 11 12  2  0  0  0  0
 11 43  1  0  0  0  0
 12 13  1  0  0  0  0
 13 17  1  0  0  0  0
 13 14  2  0  0  0  0
 14 15  1  0  0  0  0
 15 16  2  0  0  0  0
 16 17  1  0  0  0  0
 16 44  1  0  0  0  0
 17 18  1  0  0  0  0
 18 19  1  0  0  0  0
 18 45  1  0  0  0  0
 18 46  1  0  0  0  0
 19 20  1  0  0  0  0
 19 22  1  0  0  0  0
 19 47  1  0  0  0  0
 20 21  1  0  0  0  0
 20 48  1  0  0  0  0
 20 49  1  0  0  0  0
 21 50  1  0  0  0  0
 22 26  1  0  0  0  0
 22 23  1  0  0  0  0
 22 51  1  0  0  0  0
 23 24  1  0  0  0  0
 23 52  1  0  0  0  0
 23 53  1  0  0  0  0
 24 25  1  0  0  0  0
 24 54  1  0  0  0  0
 24 55  1  0  0  0  0
 25 26  1  0  0  0  0
 26 56  1  0  0  0  0
 26 57  1  0  0  0  0
 27 28  1  0  0  0  0
 27 58  1  0  0  0  0
 27 59  1  0  0  0  0
 28 29  1  0  0  0  0
 28 60  1  0  0  0  0
 29 61  1  0  0  0  0
 29 62  1  0  0  0  0
 29 63  1  0  0  0  0
M  CHG  1   3   1
M  END
> <s_m_source_file>
AV-unprocessed.smi

> <i_m_source_file_index>
249

> <i_lp_mmshare_version>
43012

> <i_f3d_flags>
0

> <s_epik_input>
W0NIM11bQ0gyXU4xW0NIMl1bQ0gyXVtDQEhdKFtDSDJdW0NASF0xW0NIM10pTihbQ0gzXSljKG5bY0hdbjIpYyhjMjMpbltjSF1uM1tDSDJdW0NASF0oW0NIMl1bT0hdKVtDQEBIXTRbQ0gyXVtDSDJdT1tDSDJdNA==

> <s_epik_cmdline>
J2VwaWtfcHl0aG9uJywgJy1waCcsICc3LjAnLCAnLXRuJywgJzgnLCAnLW1hJywgJzIwMCcsICctbWV0YWxfYmluZGluZycsICctaW1hZScsICc8aW5maWxlLm1hZT4nLCAnLW9tYWUnLCAnPG91dGZpbGUubWFlPic=

> <r_lp_tautomer_probability>
1

> <r_epik_Ionization_Penalty>
0.00294688

> <r_epik_Ionization_Penalty_Charging>
0.00169971

> <r_epik_Ionization_Penalty_Neutral>
0.00124717

> <r_epik_State_Penalty>
-0

> <r_epik_Charging_Adjusted_Penalty>
0.00169971

> <i_epik_Tot_Q>
1

> <i_epik_Tot_abs_Q>
1

> <r_epik_Metal_State_Penalty>
-0

> <b_epik_Metal_Only>
0

> <s_lp_Force_Field>
OPLS_2005

> <r_lp_Energy>
54.5526

> <b_lp_Chiralities_Consistent>
1

> <s_lp_Variant>
AV-unprocessed.smi:249-27

> <Gold.Version>
5.8.1

> <Gold.Id.Protein>
6NUR|6NUR_protein|mol2

> <Gold.PLP.Fitness>
49.2066

> <Gold.PLP.PLP>
-40.6113

> <Gold.PLP.part.hbond>
-1.4649

> <Gold.PLP.part.metal>
0.0000

> <Gold.PLP.part.buried>
-6.1435

> <Gold.PLP.part.nonpolar>
-33.9806

> <Gold.PLP.part.repulsive>
0.4379

> <Gold.PLP.ligand.clash>
0.0000

> <Gold.PLP.ligand.torsion>
0.6924

> <Gold.PLP.Chemscore.Hbond>
2.0000

> <Gold.PLP.Chemscore.CHOScore>
0.9545

> <Gold.PLP.Chemscore.Metal>
0.0000

> <Gold.Chemscore.Hbonds>
donor molecule, donor type, donor heavy atom, donor atom, acceptor molecule, acceptor atom, score
      L1  H     3    64       P1 10186  1.82
      L1  C    11    43       P1 10175  0.79

> <Gold.PLP.Chemscore.Internal.Correction>
1.1166

> <Gold.Rescore>
     Score         DG    S(hbond)    S(metal)    S(lipo)     H(rot)  DE(clash)    DE(int)     intcor
     10.21     -13.83       0.76        0.00     107.68       2.65       0.25       3.37       ----

> <Gold.Chemscore.Fitness>
10.2061

> <Gold.Chemscore.DG>
-13.8320

> <Gold.Chemscore.ZeroCoef>
-5.4800

> <Gold.Chemscore.Hbond>
0.7610

> <Gold.Chemscore.Metal>
0.0000

> <Gold.Chemscore.Lipo>
107.6761

> <Gold.Chemscore.Internal_Hbond>
0.0000

> <Gold.Chemscore.DEClash>
0.2515

> <Gold.Chemscore.DEInternal>
3.3744

> <Gold.Chemscore.Rot>
2.6515

> <Gold.Chemscore.Internal.Correction>
   9.000000E+99

> <Gold.Chemscore.Hbonds>
donor molecule, donor type, donor heavy atom, donor atom, acceptor molecule, acceptor atom, score
      L1  H     3    64       P1 10186  0.35

> <Gold.Chemscore.Hbond.Weighted>
-2.5419

> <Gold.Chemscore.Metal.Weighted>
-0.0000

> <Gold.Chemscore.Lipo.Weighted>
-12.5981

> <Gold.Chemscore.Internal_Hbond.Weighted>
0.0000

> <Gold.Chemscore.DEClash.Weighted>
0.2515

> <Gold.Chemscore.DEInternal.Weighted>
3.3744

> <Gold.Chemscore.Rot.Weighted>
6.7880

> <Gold.Chemscore.Internal.Correction.Weighted>
   9.000000E+99

> <Gold.Protein.RotatedTorsions>
[ 6907 6896 6895 6894 ] final  175.18 input  -60.11 | X-H torsion
[ 7974 7965 7964 7962 ] final   42.98 input  175.53 | X-H torsion
[ 8008 7997 7996 7995 ] final  -28.03 input   59.86 | X-H torsion
[ 10167 10162 10161 10158 ] final  -87.29 input  -65.29 | X-H torsion
[ 10718 10713 10712 10709 ] final  -94.94 input   66.30 | X-H torsion
[ 10763 10752 10751 10750 ] final   40.87 input  -60.55 | X-H torsion
[ 11005 11000 10999 10996 ] final   64.01 input  -57.11 | X-H torsion

> <Gold.Protein.ActiveResidues>
 VAL166  LYS551  ARG553  GLY616  TRP617  ASP618  TYR619  PRO620  LYS621  CYS622 
 ASP623  PHE694  ASN695  SER759  ASP760  ASP761  ALA762  ILE779  LEU786  VAL792 
 PHE793  MET794  SER795  GLU796  ALA797  LYS798  CYS799  TRP800  GLU811  SER814 

> <Gold.Protein.RotatedAtoms>
  151.7403  133.3321  159.3363 H   0  0  0  0  0  0  0  0  0  0  0  0  # atno 6907 bound_to 6896
  150.7576  134.6284  159.6182 H   0  0  0  0  0  0  0  0  0  0  0  0  # atno 6908 bound_to 6896
  152.3535  134.6975  160.0281 H   0  0  0  0  0  0  0  0  0  0  0  0  # atno 6909 bound_to 6896
  146.0694  139.5239  142.9607 H   0  0  0  0  0  0  0  0  0  0  0  0  # atno 7974 bound_to 7965
  154.4350  140.1856  156.1025 H   0  0  0  0  0  0  0  0  0  0  0  0  # atno 8008 bound_to 7997
  156.0281  140.3333  155.7084 H   0  0  0  0  0  0  0  0  0  0  0  0  # atno 8009 bound_to 7997
  155.5879  140.0628  157.2757 H   0  0  0  0  0  0  0  0  0  0  0  0  # atno 8010 bound_to 7997
  140.3859  143.2727  151.9326 H   0  0  0  0  0  0  0  0  0  0  0  0  # atno 10167 bound_to 10162
  156.0035  130.5088  150.6002 H   0  0  0  0  0  0  0  0  0  0  0  0  # atno 10718 bound_to 10713
  152.9924  135.6178  154.2695 H   0  0  0  0  0  0  0  0  0  0  0  0  # atno 10763 bound_to 10752
  154.2429  135.2788  155.2848 H   0  0  0  0  0  0  0  0  0  0  0  0  # atno 10764 bound_to 10752
  154.5354  135.5776  153.6852 H   0  0  0  0  0  0  0  0  0  0  0  0  # atno 10765 bound_to 10752
  139.9986  134.6477  155.9968 H   0  0  0  0  0  0  0  0  0  0  0  0  # atno 11005 bound_to 11000
  145.6418  141.0282  143.1808 LP  0  0  0  0  0  0  0  0  0  0  0  0  # atno 17320 bound_to 7965
  144.7222  139.7991  143.7377 LP  0  0  0  0  0  0  0  0  0  0  0  0  # atno 17321 bound_to 7965
  139.4792  144.5774  151.7988 LP  0  0  0  0  0  0  0  0  0  0  0  0  # atno 17342 bound_to 10162
  140.4890  144.1338  150.5946 LP  0  0  0  0  0  0  0  0  0  0  0  0  # atno 17343 bound_to 10162
  157.3852  131.0787  151.1442 LP  0  0  0  0  0  0  0  0  0  0  0  0  # atno 17370 bound_to 10713
  157.2152  130.6456  149.5789 LP  0  0  0  0  0  0  0  0  0  0  0  0  # atno 17371 bound_to 10713
  141.1624  133.6538  156.4365 LP  0  0  0  0  0  0  0  0  0  0  0  0  # atno 17394 bound_to 11000
  140.4770  134.6700  157.5154 LP  0  0  0  0  0  0  0  0  0  0  0  0  # atno 17395 bound_to 11000

$$$$
