AV-unprocessed.smi:1261|AV-procd|sdf|5305|dock3
  -GOLD-   22720 4423D 1   1.00000     0.00000
 Structure written by MMmdl.
 50 51  0  0  0  0  0  0  0  0  2 V2000
  152.6409  145.0360  158.6988 C   0  0  0  0  0  0  0  0  0  0  0  0
  151.5988  144.1750  159.4347 C   0  0  2  0  0  0  0  0  0  0  0  0
  152.0677  143.7273  160.8319 C   0  0  0  0  0  0  0  0  0  0  0  0
  153.1299  142.6161  160.7476 C   0  0  1  0  0  0  0  0  0  0  0  0
  153.5436  142.1308  162.1441 C   0  0  0  0  0  0  0  0  0  0  0  0
  152.6187  141.4535  159.8748 C   0  0  0  0  0  0  0  0  0  0  0  0
  152.2231  141.9266  158.5232 N   0  3  1  0  0  0  0  0  0  0  0  0
  151.8917  140.8079  157.6048 C   0  0  0  0  0  0  0  0  0  0  0  0
  150.7464  139.9343  158.1437 C   0  0  0  0  0  0  0  0  0  0  0  0
  150.6882  138.5573  157.4630 C   0  0  0  0  0  0  0  0  0  0  0  0
  149.4626  137.8481  157.8079 N   0  0  0  0  0  0  0  0  0  0  0  0
  149.2799  137.1080  158.9151 C   0  0  0  0  0  0  0  0  0  0  0  0
  150.1639  136.9401  159.7545 O   0  0  0  0  0  0  0  0  0  0  0  0
  147.9021  136.4605  159.1400 C   0  0  0  0  0  0  0  0  0  0  0  0
  147.6552  135.9833  160.5106 N   0  0  0  0  0  0  0  0  0  0  0  0
  147.7984  136.9599  161.4848 N   0  0  0  0  0  0  0  0  0  0  0  0
  147.6091  136.6650  162.7266 C   0  0  0  0  0  0  0  0  0  0  0  0
  147.7650  137.6614  163.6587 O   0  0  0  0  0  0  0  0  0  0  0  0
  147.2438  135.3247  163.1303 C   0  0  0  0  0  0  0  0  0  0  0  0
  147.1078  134.3796  162.1742 C   0  0  0  0  0  0  0  0  0  0  0  0
  147.3208  134.6791  160.7570 C   0  0  0  0  0  0  0  0  0  0  0  0
  147.2203  133.8349  159.8671 O   0  0  0  0  0  0  0  0  0  0  0  0
  151.1543  142.9587  158.5989 C   0  0  0  0  0  0  0  0  0  0  0  0
  147.7340  138.4702  163.1713 H   0  0  0  0  0  0  0  0  0  0  0  0
  153.5492  144.4769  158.4742 H   0  0  0  0  0  0  0  0  0  0  0  0
  152.9244  145.9036  159.2956 H   0  0  0  0  0  0  0  0  0  0  0  0
  152.2426  145.4066  157.7539 H   0  0  0  0  0  0  0  0  0  0  0  0
  150.7234  144.8103  159.5760 H   0  0  0  0  0  0  0  0  0  0  0  0
  152.4525  144.5803  161.3925 H   0  0  0  0  0  0  0  0  0  0  0  0
  151.2075  143.3590  161.3928 H   0  0  0  0  0  0  0  0  0  0  0  0
  154.0217  143.0275  160.2736 H   0  0  0  0  0  0  0  0  0  0  0  0
  152.6975  141.7053  162.6845 H   0  0  0  0  0  0  0  0  0  0  0  0
  153.9419  142.9507  162.7425 H   0  0  0  0  0  0  0  0  0  0  0  0
  154.3172  141.3648  162.0814 H   0  0  0  0  0  0  0  0  0  0  0  0
  153.4069  140.7050  159.7828 H   0  0  0  0  0  0  0  0  0  0  0  0
  151.7687  140.9620  160.3512 H   0  0  0  0  0  0  0  0  0  0  0  0
  151.5775  141.2127  156.6418 H   0  0  0  0  0  0  0  0  0  0  0  0
  152.7827  140.2088  157.4108 H   0  0  0  0  0  0  0  0  0  0  0  0
  150.8546  139.7934  159.2188 H   0  0  0  0  0  0  0  0  0  0  0  0
  149.7965  140.4500  157.9956 H   0  0  0  0  0  0  0  0  0  0  0  0
  150.7171  138.6742  156.3793 H   0  0  0  0  0  0  0  0  0  0  0  0
  151.5582  137.9568  157.7348 H   0  0  0  0  0  0  0  0  0  0  0  0
  148.6880  137.9324  157.1650 H   0  0  0  0  0  0  0  0  0  0  0  0
  147.1420  137.1921  158.8604 H   0  0  0  0  0  0  0  0  0  0  0  0
  147.7823  135.6393  158.4309 H   0  0  0  0  0  0  0  0  0  0  0  0
  147.0849  135.0935  164.1734 H   0  0  0  0  0  0  0  0  0  0  0  0
  146.8346  133.3748  162.4614 H   0  0  0  0  0  0  0  0  0  0  0  0
  150.2618  142.5137  159.0419 H   0  0  0  0  0  0  0  0  0  0  0  0
  150.8679  143.2938  157.6026 H   0  0  0  0  0  0  0  0  0  0  0  0
  153.0399  142.3770  158.1360 H   0  0  0  0  0  0  0  0  0  0  0  0
  1  2  1  0  0  0  0
  1 25  1  0  0  0  0
  1 26  1  0  0  0  0
  1 27  1  0  0  0  0
  2 23  1  0  0  0  0
  2  3  1  0  0  0  0
  2 28  1  0  0  0  0
  3  4  1  0  0  0  0
  3 29  1  0  0  0  0
  3 30  1  0  0  0  0
  4  5  1  0  0  0  0
  4  6  1  0  0  0  0
  4 31  1  0  0  0  0
  5 32  1  0  0  0  0
  5 33  1  0  0  0  0
  5 34  1  0  0  0  0
  6  7  1  0  0  0  0
  6 35  1  0  0  0  0
  6 36  1  0  0  0  0
  7  8  1  0  0  0  0
  7 23  1  0  0  0  0
  7 50  1  0  0  0  0
  8  9  1  0  0  0  0
  8 37  1  0  0  0  0
  8 38  1  0  0  0  0
  9 10  1  0  0  0  0
  9 39  1  0  0  0  0
  9 40  1  0  0  0  0
 10 11  1  0  0  0  0
 10 41  1  0  0  0  0
 10 42  1  0  0  0  0
 11 12  1  0  0  0  0
 11 43  1  0  0  0  0
 12 13  2  0  0  0  0
 12 14  1  0  0  0  0
 14 44  1  0  0  0  0
 14 45  1  0  0  0  0
 14 15  1  0  0  0  0
 15 16  1  0  0  0  0
 15 21  1  0  0  0  0
 16 17  2  0  0  0  0
 17 18  1  0  0  0  0
 17 19  1  0  0  0  0
 18 24  1  0  0  0  0
 19 46  1  0  0  0  0
 19 20  2  0  0  0  0
 20 47  1  0  0  0  0
 20 21  1  0  0  0  0
 21 22  2  0  0  0  0
 23 48  1  0  0  0  0
 23 49  1  0  0  0  0
M  CHG  1   7   1
M  END
> <s_m_source_file>
AV-unprocessed.smi

> <i_m_source_file_index>
1261

> <i_lp_mmshare_version>
43012

> <i_f3d_flags>
0

> <s_epik_input>
W0NIM11bQ0BASF0xW0NIMl1bQ0BASF0oW0NIM10pW0NIMl1OKFtDSDJdMSlbQ0gyXVtDSDJdW0NIMl1bTkhdQyg9TylbQ0gyXW4yW25IXWMoPU8pW2NIXVtjSF1jMj1P

> <s_epik_cmdline>
J2VwaWtfcHl0aG9uJywgJy1waCcsICc3LjAnLCAnLXRuJywgJzgnLCAnLW1hJywgJzIwMCcsICctbWV0YWxfYmluZGluZycsICctaW1hZScsICc8aW5maWxlLm1hZT4nLCAnLW9tYWUnLCAnPG91dGZpbGUubWFlPic=

> <r_lp_tautomer_probability>
0.9996

> <r_epik_Ionization_Penalty>
2.1425

> <r_epik_Ionization_Penalty_Charging>
0.000312112

> <r_epik_Ionization_Penalty_Neutral>
2.14218

> <r_epik_State_Penalty>
1.71978

> <r_epik_Charging_Adjusted_Penalty>
1.72009

> <i_epik_Tot_Q>
1

> <i_epik_Tot_abs_Q>
1

> <r_epik_Metal_State_Penalty>
1.71978

> <b_epik_Metal_Only>
0

> <s_lp_Force_Field>
OPLS_2005

> <r_lp_Energy>
29.6525

> <b_lp_Chiralities_Consistent>
1

> <s_lp_Variant>
AV-unprocessed.smi:1261-5

> <Gold.Version>
5.8.1

> <Gold.Id.Protein>
6NUR|6NUR_protein|mol2

> <Gold.PLP.Fitness>
57.7441

> <Gold.PLP.PLP>
-53.1512

> <Gold.PLP.part.hbond>
-3.9469

> <Gold.PLP.part.metal>
0.0000

> <Gold.PLP.part.buried>
-7.7727

> <Gold.PLP.part.nonpolar>
-41.7723

> <Gold.PLP.part.repulsive>
0.1522

> <Gold.PLP.ligand.clash>
0.0000

> <Gold.PLP.ligand.torsion>
0.5065

> <Gold.PLP.Chemscore.Hbond>
1.8246

> <Gold.PLP.Chemscore.CHOScore>
0.0000

> <Gold.PLP.Chemscore.Metal>
0.0000

> <Gold.Chemscore.Hbonds>
donor molecule, donor type, donor heavy atom, donor atom, acceptor molecule, acceptor atom, score
      P1  H  6896  6909       L1    13  0.84
      P1  H  6931  6943       L1    16  0.60
      P1  H  6934  6947       L1    16  0.42

> <Gold.PLP.Chemscore.Internal.Correction>
0.1323

> <Gold.Rescore>
     Score         DG    S(hbond)    S(metal)    S(lipo)     H(rot)  DE(clash)    DE(int)     intcor
     16.47     -17.13       1.78        0.00     117.30       3.14       0.04       0.62       ----

> <Gold.Chemscore.Fitness>
16.4695

> <Gold.Chemscore.DG>
-17.1348

> <Gold.Chemscore.ZeroCoef>
-5.4800

> <Gold.Chemscore.Hbond>
1.7833

> <Gold.Chemscore.Metal>
0.0000

> <Gold.Chemscore.Lipo>
117.3043

> <Gold.Chemscore.Internal_Hbond>
0.0000

> <Gold.Chemscore.DEClash>
0.0442

> <Gold.Chemscore.DEInternal>
0.6211

> <Gold.Chemscore.Rot>
3.1352

> <Gold.Chemscore.Internal.Correction>
   9.000000E+99

> <Gold.Chemscore.Hbonds>
donor molecule, donor type, donor heavy atom, donor atom, acceptor molecule, acceptor atom, score
      P1  H  6896  6909       L1    13  0.79
      P1  H  6931  6943       L1    16  0.04
      P1  H  6934  6947       L1    16  0.35

> <Gold.Chemscore.Hbond.Weighted>
-5.9562

> <Gold.Chemscore.Metal.Weighted>
-0.0000

> <Gold.Chemscore.Lipo.Weighted>
-13.7246

> <Gold.Chemscore.Internal_Hbond.Weighted>
0.0000

> <Gold.Chemscore.DEClash.Weighted>
0.0442

> <Gold.Chemscore.DEInternal.Weighted>
0.6211

> <Gold.Chemscore.Rot.Weighted>
8.0260

> <Gold.Chemscore.Internal.Correction.Weighted>
   9.000000E+99

> <Gold.Protein.RotatedTorsions>
[ 6907 6896 6895 6894 ] final   87.87 input  -60.11 | X-H torsion
[ 7974 7965 7964 7962 ] final -138.61 input  175.53 | X-H torsion
[ 8008 7997 7996 7995 ] final  -63.27 input   59.86 | X-H torsion
[ 10167 10162 10161 10158 ] final   23.46 input  -65.29 | X-H torsion
[ 10718 10713 10712 10709 ] final  -33.58 input   66.30 | X-H torsion
[ 10763 10752 10751 10750 ] final   80.99 input  -60.55 | X-H torsion
[ 11005 11000 10999 10996 ] final  125.31 input  -57.11 | X-H torsion

> <Gold.Protein.ActiveResidues>
 VAL166  LYS551  ARG553  GLY616  TRP617  ASP618  TYR619  PRO620  LYS621  CYS622 
 ASP623  PHE694  ASN695  SER759  ASP760  ASP761  ALA762  ILE779  LEU786  VAL792 
 PHE793  MET794  SER795  GLU796  ALA797  LYS798  CYS799  TRP800  GLU811  SER814 

> <Gold.Protein.RotatedAtoms>
  152.5417  134.2208  159.8786 H   0  0  0  0  0  0  0  0  0  0  0  0  # atno 6907 bound_to 6896
  151.2186  133.4508  159.2607 H   0  0  0  0  0  0  0  0  0  0  0  0  # atno 6908 bound_to 6896
  151.0828  134.9881  159.8420 H   0  0  0  0  0  0  0  0  0  0  0  0  # atno 6909 bound_to 6896
  144.8744  140.6415  143.5246 H   0  0  0  0  0  0  0  0  0  0  0  0  # atno 7974 bound_to 7965
  154.4545  140.0978  156.6716 H   0  0  0  0  0  0  0  0  0  0  0  0  # atno 8008 bound_to 7997
  155.5182  140.3478  155.4383 H   0  0  0  0  0  0  0  0  0  0  0  0  # atno 8009 bound_to 7997
  156.0749  140.1358  156.9772 H   0  0  0  0  0  0  0  0  0  0  0  0  # atno 8010 bound_to 7997
  140.5267  143.9912  150.6444 H   0  0  0  0  0  0  0  0  0  0  0  0  # atno 10167 bound_to 10162
  156.3609  130.4323  149.7625 H   0  0  0  0  0  0  0  0  0  0  0  0  # atno 10718 bound_to 10713
  153.1079  135.4782  154.8984 H   0  0  0  0  0  0  0  0  0  0  0  0  # atno 10763 bound_to 10752
  154.7450  135.3091  154.8663 H   0  0  0  0  0  0  0  0  0  0  0  0  # atno 10764 bound_to 10752
  153.9261  135.6850  153.4800 H   0  0  0  0  0  0  0  0  0  0  0  0  # atno 10765 bound_to 10752
  139.9400  134.9636  156.8538 H   0  0  0  0  0  0  0  0  0  0  0  0  # atno 11005 bound_to 11000
  145.4070  139.1587  143.4147 LP  0  0  0  0  0  0  0  0  0  0  0  0  # atno 17320 bound_to 7965
  146.2953  140.4171  142.8724 LP  0  0  0  0  0  0  0  0  0  0  0  0  # atno 17321 bound_to 7965
  140.3275  143.3098  152.0721 LP  0  0  0  0  0  0  0  0  0  0  0  0  # atno 17342 bound_to 10162
  139.4940  144.6532  151.6630 LP  0  0  0  0  0  0  0  0  0  0  0  0  # atno 17343 bound_to 10162
  156.4789  130.8032  151.3047 LP  0  0  0  0  0  0  0  0  0  0  0  0  # atno 17370 bound_to 10713
  157.7473  131.0012  150.2954 LP  0  0  0  0  0  0  0  0  0  0  0  0  # atno 17371 bound_to 10713
  140.5976  134.0202  155.7524 LP  0  0  0  0  0  0  0  0  0  0  0  0  # atno 17394 bound_to 11000
  141.1030  133.9737  157.3045 LP  0  0  0  0  0  0  0  0  0  0  0  0  # atno 17395 bound_to 11000

$$$$
