AV-unprocessed.smi:3110|AV-procd|sdf|11828|dock2
  -GOLD-   2272017203D 1   1.00000     0.00000
 Structure written by MMmdl.
 34 35  0  0  0  0  0  0  0  0  2 V2000
  150.6046  141.4431  158.9067 O   0  0  0  0  0  0  0  0  0  0  0  0
  150.2816  142.4070  158.2117 C   0  0  0  0  0  0  0  0  0  0  0  0
  150.3541  143.8311  158.7737 C   0  0  0  0  0  0  0  0  0  0  0  0
  151.6872  144.1468  159.4843 C   0  0  2  0  0  0  0  0  0  0  0  0
  152.7645  143.1498  159.1435 C   0  0  0  0  0  0  0  0  0  0  0  0
  153.3619  142.6472  160.2218 C   0  0  0  0  0  0  0  0  0  0  0  0
  152.8035  143.2058  161.5010 C   0  0  0  0  0  0  0  0  0  0  0  0
  151.6220  144.0845  161.0343 C   0  0  0  0  0  0  0  0  0  0  0  0
  149.8490  142.2869  156.9471 N   0  0  0  0  0  0  0  0  0  0  0  0
  149.7187  141.0264  156.2265 C   0  0  0  0  0  0  0  0  0  0  0  0
  149.5083  141.2537  154.7201 C   0  0  0  0  0  0  0  0  0  0  0  0
  148.0984  141.4788  154.3991 N   0  0  0  0  0  0  0  0  0  0  0  0
  147.2576  142.4121  154.9485 C   0  0  0  0  0  0  0  0  0  0  0  0
  146.0415  142.2502  154.3355 C   0  0  0  0  0  0  0  0  0  0  0  0
  146.1922  141.2262  153.4388 N   0  3  0  0  0  0  0  0  0  0  0  0
  147.4444  140.7587  153.4788 C   0  0  0  0  0  0  0  0  0  0  0  0
  150.1890  144.5497  157.9691 H   0  0  0  0  0  0  0  0  0  0  0  0
  149.5268  143.9561  159.4731 H   0  0  0  0  0  0  0  0  0  0  0  0
  152.0533  145.1252  159.1694 H   0  0  0  0  0  0  0  0  0  0  0  0
  153.0158  142.9012  158.1227 H   0  0  0  0  0  0  0  0  0  0  0  0
  154.1694  141.9298  160.2099 H   0  0  0  0  0  0  0  0  0  0  0  0
  152.4772  142.4041  162.1641 H   0  0  0  0  0  0  0  0  0  0  0  0
  153.5671  143.7934  162.0116 H   0  0  0  0  0  0  0  0  0  0  0  0
  151.6647  145.0811  161.4752 H   0  0  0  0  0  0  0  0  0  0  0  0
  150.6866  143.6303  161.3640 H   0  0  0  0  0  0  0  0  0  0  0  0
  149.6034  143.1293  156.4469 H   0  0  0  0  0  0  0  0  0  0  0  0
  150.6264  140.4451  156.3919 H   0  0  0  0  0  0  0  0  0  0  0  0
  148.8967  140.4437  156.6462 H   0  0  0  0  0  0  0  0  0  0  0  0
  150.0752  142.1171  154.3681 H   0  0  0  0  0  0  0  0  0  0  0  0
  149.8503  140.3903  154.1478 H   0  0  0  0  0  0  0  0  0  0  0  0
  147.5777  143.1036  155.7143 H   0  0  0  0  0  0  0  0  0  0  0  0
  145.1050  142.7728  154.4666 H   0  0  0  0  0  0  0  0  0  0  0  0
  147.8478  139.9583  152.8840 H   0  0  0  0  0  0  0  0  0  0  0  0
  145.4632  140.8718  152.8323 H   0  0  0  0  0  0  0  0  0  0  0  0
  1  2  2  0  0  0  0
  2  3  1  0  0  0  0
  2  9  1  0  0  0  0
  3  4  1  0  0  0  0
  3 17  1  0  0  0  0
  3 18  1  0  0  0  0
  4  8  1  0  0  0  0
  4  5  1  0  0  0  0
  4 19  1  0  0  0  0
  5  6  2  0  0  0  0
  5 20  1  0  0  0  0
  6  7  1  0  0  0  0
  6 21  1  0  0  0  0
  7  8  1  0  0  0  0
  7 22  1  0  0  0  0
  7 23  1  0  0  0  0
  8 24  1  0  0  0  0
  8 25  1  0  0  0  0
  9 10  1  0  0  0  0
  9 26  1  0  0  0  0
 10 11  1  0  0  0  0
 10 27  1  0  0  0  0
 10 28  1  0  0  0  0
 11 12  1  0  0  0  0
 11 29  1  0  0  0  0
 11 30  1  0  0  0  0
 12 16  1  0  0  0  0
 12 13  1  0  0  0  0
 13 14  2  0  0  0  0
 13 31  1  0  0  0  0
 14 15  1  0  0  0  0
 14 32  1  0  0  0  0
 15 16  2  0  0  0  0
 15 34  1  0  0  0  0
 16 33  1  0  0  0  0
M  CHG  1  15   1
M  END
> <s_m_source_file>
AV-unprocessed.smi

> <i_m_source_file_index>
3110

> <i_lp_mmshare_version>
43012

> <i_f3d_flags>
0

> <s_epik_input>
W0NIMl0xW0NIMl1bQ0hdPVtDSF1bQ0BIXTFbQ0gyXUMoPU8pW05IXVtDSDJdW0NIMl1uMltjSF1bY0hdbltjSF0y

> <s_epik_cmdline>
J2VwaWtfcHl0aG9uJywgJy1waCcsICc3LjAnLCAnLXRuJywgJzgnLCAnLW1hJywgJzIwMCcsICctbWV0YWxfYmluZGluZycsICctaW1hZScsICc8aW5maWxlLm1hZT4nLCAnLW9tYWUnLCAnPG91dGZpbGUubWFlPic=

> <r_lp_tautomer_probability>
1

> <r_epik_Ionization_Penalty>
0.271094

> <r_epik_Ionization_Penalty_Charging>
0

> <r_epik_Ionization_Penalty_Neutral>
0.271094

> <r_epik_State_Penalty>
0.263241

> <r_epik_Charging_Adjusted_Penalty>
0.263241

> <i_epik_Tot_Q>
1

> <i_epik_Tot_abs_Q>
1

> <r_epik_Metal_State_Penalty>
0.547832

> <b_epik_Metal_Only>
0

> <s_lp_Force_Field>
OPLS_2005

> <r_lp_Energy>
18.4695

> <b_lp_Chiralities_Consistent>
1

> <s_lp_Variant>
AV-unprocessed.smi:3110-1

> <Gold.Version>
5.8.1

> <Gold.Id.Protein>
6NUR|6NUR_protein|mol2

> <Gold.PLP.Fitness>
51.7527

> <Gold.PLP.PLP>
-38.8218

> <Gold.PLP.part.hbond>
-2.4280

> <Gold.PLP.part.metal>
0.0000

> <Gold.PLP.part.buried>
-1.6895

> <Gold.PLP.part.nonpolar>
-34.8792

> <Gold.PLP.part.repulsive>
0.0436

> <Gold.PLP.ligand.clash>
0.0000

> <Gold.PLP.ligand.torsion>
0.9882

> <Gold.PLP.Chemscore.Hbond>
3.0000

> <Gold.PLP.Chemscore.CHOScore>
1.9553

> <Gold.PLP.Chemscore.Metal>
0.0000

> <Gold.Chemscore.Hbonds>
donor molecule, donor type, donor heavy atom, donor atom, acceptor molecule, acceptor atom, score
      L1  H     9    26       P1  8028  1.00
      L1  H    15    34       P1 10175  2.00
      L1  C    13    31       P1  8028  0.95
      L1  C    16    33       P1  7957  0.98

> <Gold.PLP.Chemscore.Internal.Correction>
0.0414

> <Gold.Rescore>
     Score         DG    S(hbond)    S(metal)    S(lipo)     H(rot)  DE(clash)    DE(int)     intcor
     15.43     -17.34       1.95        0.00      91.55       2.10       0.05       1.86       ----

> <Gold.Chemscore.Fitness>
15.4285

> <Gold.Chemscore.DG>
-17.3384

> <Gold.Chemscore.ZeroCoef>
-5.4800

> <Gold.Chemscore.Hbond>
1.9502

> <Gold.Chemscore.Metal>
0.0000

> <Gold.Chemscore.Lipo>
91.5496

> <Gold.Chemscore.Internal_Hbond>
0.0000

> <Gold.Chemscore.DEClash>
0.0458

> <Gold.Chemscore.DEInternal>
1.8641

> <Gold.Chemscore.Rot>
2.0963

> <Gold.Chemscore.Internal.Correction>
   9.000000E+99

> <Gold.Chemscore.Hbonds>
donor molecule, donor type, donor heavy atom, donor atom, acceptor molecule, acceptor atom, score
      L1  H     9    26       P1  8028  1.00
      L1  H    15    34       P1 10175  0.29

> <Gold.Chemscore.Hbond.Weighted>
-6.5135

> <Gold.Chemscore.Metal.Weighted>
-0.0000

> <Gold.Chemscore.Lipo.Weighted>
-10.7113

> <Gold.Chemscore.Internal_Hbond.Weighted>
0.0000

> <Gold.Chemscore.DEClash.Weighted>
0.0458

> <Gold.Chemscore.DEInternal.Weighted>
1.8641

> <Gold.Chemscore.Rot.Weighted>
5.3665

> <Gold.Chemscore.Internal.Correction.Weighted>
   9.000000E+99

> <Gold.Protein.RotatedTorsions>
[ 6907 6896 6895 6894 ] final   39.78 input  -60.11 | X-H torsion
[ 7974 7965 7964 7962 ] final   74.63 input  175.53 | X-H torsion
[ 8008 7997 7996 7995 ] final   87.75 input   59.86 | X-H torsion
[ 10167 10162 10161 10158 ] final  -72.96 input  -65.29 | X-H torsion
[ 10718 10713 10712 10709 ] final   13.97 input   66.30 | X-H torsion
[ 10763 10752 10751 10750 ] final  108.71 input  -60.55 | X-H torsion
[ 11005 11000 10999 10996 ] final  -30.25 input  -57.11 | X-H torsion

> <Gold.Protein.ActiveResidues>
 VAL166  LYS551  ARG553  GLY616  TRP617  ASP618  TYR619  PRO620  LYS621  CYS622 
 ASP623  PHE694  ASN695  SER759  ASP760  ASP761  ALA762  ILE779  LEU786  VAL792 
 PHE793  MET794  SER795  GLU796  ALA797  LYS798  CYS799  TRP800  GLU811  SER814 

> <Gold.Protein.RotatedAtoms>
  152.1740  134.8810  160.0531 H   0  0  0  0  0  0  0  0  0  0  0  0  # atno 6907 bound_to 6896
  151.9759  133.3736  159.4097 H   0  0  0  0  0  0  0  0  0  0  0  0  # atno 6908 bound_to 6896
  150.6906  134.4013  159.5164 H   0  0  0  0  0  0  0  0  0  0  0  0  # atno 6909 bound_to 6896
  145.7259  139.2665  143.1569 H   0  0  0  0  0  0  0  0  0  0  0  0  # atno 7974 bound_to 7965
  155.9792  140.3379  155.6647 H   0  0  0  0  0  0  0  0  0  0  0  0  # atno 8008 bound_to 7997
  155.6571  140.0712  157.2585 H   0  0  0  0  0  0  0  0  0  0  0  0  # atno 8009 bound_to 7997
  154.4187  140.1715  156.1724 H   0  0  0  0  0  0  0  0  0  0  0  0  # atno 8010 bound_to 7997
  140.5149  143.2339  151.7529 H   0  0  0  0  0  0  0  0  0  0  0  0  # atno 10167 bound_to 10162
  157.0324  130.6198  149.5737 H   0  0  0  0  0  0  0  0  0  0  0  0  # atno 10718 bound_to 10713
  153.4245  135.3803  155.2132 H   0  0  0  0  0  0  0  0  0  0  0  0  # atno 10763 bound_to 10752
  154.8746  135.3825  154.4344 H   0  0  0  0  0  0  0  0  0  0  0  0  # atno 10764 bound_to 10752
  153.4868  135.7088  153.5969 H   0  0  0  0  0  0  0  0  0  0  0  0  # atno 10765 bound_to 10752
  140.9367  133.7304  156.1015 H   0  0  0  0  0  0  0  0  0  0  0  0  # atno 11005 bound_to 11000
  146.0583  140.7998  142.9747 LP  0  0  0  0  0  0  0  0  0  0  0  0  # atno 17320 bound_to 7965
  144.6905  140.3157  143.7240 LP  0  0  0  0  0  0  0  0  0  0  0  0  # atno 17321 bound_to 7965
  139.4906  144.4337  151.9843 LP  0  0  0  0  0  0  0  0  0  0  0  0  # atno 17342 bound_to 10162
  140.3431  144.3179  150.5963 LP  0  0  0  0  0  0  0  0  0  0  0  0  # atno 17343 bound_to 10162
  156.0065  130.5152  150.7847 LP  0  0  0  0  0  0  0  0  0  0  0  0  # atno 17370 bound_to 10713
  157.5168  131.0929  151.0130 LP  0  0  0  0  0  0  0  0  0  0  0  0  # atno 17371 bound_to 10713
  140.7790  134.3747  157.5491 LP  0  0  0  0  0  0  0  0  0  0  0  0  # atno 17394 bound_to 11000
  139.8809  134.9070  156.2934 LP  0  0  0  0  0  0  0  0  0  0  0  0  # atno 17395 bound_to 11000

$$$$
