#       Name:                AV-unprocessed.smi:1261
#       Creating user name   scv26
#       Creation time:       Fri Mar 27 04:42:26 2020


#       File generated by GOLD software.
#

@<TRIPOS>MOLECULE
AV-unprocessed.smi:1261
    56    57     1
SMALL
NO_CHARGES


@<TRIPOS>ATOM
      1 ****        -2.2312   0.5012  -3.3611 C.3            1 S1                 0.0000
      2 ****        -2.4807   0.8348  -1.8833 C.3            1 S1                 0.0000
      3 ****        -3.7785   1.6423  -1.7032 C.3            1 S1                 0.0000
      4 ****        -3.9974   2.0153  -0.2263 C.3            1 S1                 0.0000
      5 ****        -5.2758   2.8453  -0.0423 C.3            1 S1                 0.0000
      6 ****        -2.7602   2.7586   0.3209 C.3            1 S1                 0.0000
      7 ****        -1.5122   1.9681   0.1536 N.4            1 S1                 1.0000
      8 ****        -1.3886   0.8469   1.1237 C.3            1 S1                 0.0000
      9 ****         0.0678   0.3961   1.3228 C.3            1 S1                 0.0000
     10 ****         0.2011  -0.6863   2.4074 C.3            1 S1                 0.0000
     11 ****         1.5854  -1.1150   2.5652 N.am           1 S1                 0.0000
     12 ****         2.2253  -1.9585   1.7407 C.2            1 S1                 0.0000
     13 ****         1.6837  -2.4842   0.7668 O.2            1 S1                 0.0000
     14 ****         3.6940  -2.2520   2.0827 C.3            1 S1                 0.0000
     15 ****         4.5077  -2.6165   0.9138 N.am           1 S1                 0.0000
     16 ****         4.8535  -4.0336   0.8532 N.pl3          1 S1                -1.0000
     17 ****         5.5820  -4.4936  -0.1985 C.2            1 S1                 0.0000
     18 ****         5.8944  -5.6751  -0.3272 O.2            1 S1                 0.0000
     19 ****         6.0079  -3.5367  -1.2064 C.2            1 S1                 0.0000
     20 ****         5.6952  -2.2292  -1.1122 C.2            1 S1                 0.0000
     21 ****         4.9103  -1.6936  -0.0066 C.2            1 S1                 0.0000
     22 ****         4.6256  -0.4992   0.0895 O.2            1 S1                 0.0000
     23 ****        -1.2853   1.5978  -1.2709 C.3            1 S1                 0.0000
     24 ****        -2.1096   1.4058  -3.9579 H              1 S1                 0.0000
     25 ****        -3.0625  -0.0655  -3.7815 H              1 S1                 0.0000
     26 ****        -1.3297  -0.1005  -3.4814 H              1 S1                 0.0000
     27 ****        -2.5959  -0.1142  -1.3590 H              1 S1                 0.0000
     28 ****        -3.7347   2.5490  -2.3089 H              1 S1                 0.0000
     29 ****        -4.6280   1.0654  -2.0710 H              1 S1                 0.0000
     30 ****        -4.1276   1.0930   0.3416 H              1 S1                 0.0000
     31 ****        -5.2184   3.7900  -0.5843 H              1 S1                 0.0000
     32 ****        -5.4472   3.0753   1.0099 H              1 S1                 0.0000
     33 ****        -6.1501   2.3051  -0.4067 H              1 S1                 0.0000
     34 ****        -2.6378   3.7046  -0.2090 H              1 S1                 0.0000
     35 ****        -2.8996   3.0190   1.3710 H              1 S1                 0.0000
     36 ****        -1.7698   1.1771   2.0908 H              1 S1                 0.0000
     37 ****        -2.0112   0.0037   0.8252 H              1 S1                 0.0000
     38 ****         0.4696   0.0098   0.3867 H              1 S1                 0.0000
     39 ****         0.6833   1.2556   1.5921 H              1 S1                 0.0000
     40 ****        -0.1461  -0.3000   3.3659 H              1 S1                 0.0000
     41 ****        -0.4289  -1.5456   2.1714 H              1 S1                 0.0000
     42 ****         2.0994  -0.7364   3.3477 H              1 S1                 0.0000
     43 ****         4.1370  -1.3814   2.5702 H              1 S1                 0.0000
     44 ****         3.7134  -3.0484   2.8289 H              1 S1                 0.0000
     45 ****         6.5905  -3.8818  -2.0478 H              1 S1                 0.0000
     46 ****         6.0349  -1.5540  -1.8832 H              1 S1                 0.0000
     47 ****        -0.3681   1.0209  -1.3805 H              1 S1                 0.0000
     48 ****        -1.1217   2.5191  -1.8320 H              1 S1                 0.0000
     49 ****        -0.7628   2.6000   0.3976 H              1 S1                 0.0000
     50 ****         0.7247  -2.2883   0.5618 LP             1 S1                 0.0000
     51 ****         2.2031  -3.1067   0.1814 LP             1 S1                 0.0000
     52 ****         4.5582  -4.6581   1.5763 LP             1 S1                 0.0000
     53 ****         5.6112  -6.3448   0.3594 LP             1 S1                 0.0000
     54 ****         6.4317  -5.9668  -1.1185 LP             1 S1                 0.0000
     55 ****         4.0806  -0.1757   0.8631 LP             1 S1                 0.0000
     56 ****         4.9394   0.1472  -0.6060 LP             1 S1                 0.0000
@<TRIPOS>BOND
    1    1    2 1     
    2    1   24 1     
    3    1   25 1     
    4    1   26 1     
    5    2   23 1     
    6    2    3 1     
    7    2   27 1     
    8    3    4 1     
    9    3   28 1     
   10    3   29 1     
   11    4    5 1     
   12    4    6 1     
   13    4   30 1     
   14    5   31 1     
   15    5   32 1     
   16    5   33 1     
   17    6    7 1     
   18    6   34 1     
   19    6   35 1     
   20    7    8 1     
   21    7   23 1     
   22    7   49 1     
   23    8    9 1     
   24    8   36 1     
   25    8   37 1     
   26    9   10 1     
   27    9   38 1     
   28    9   39 1     
   29   10   11 1     
   30   10   40 1     
   31   10   41 1     
   32   11   12 am    
   33   11   42 1     
   34   12   13 2     
   35   12   14 1     
   36   14   43 1     
   37   14   44 1     
   38   14   15 1     
   39   15   16 1     
   40   15   21 am    
   41   16   17 1     
   42   17   18 2     
   43   17   19 1     
   44   19   45 1     
   45   19   20 2     
   46   20   46 1     
   47   20   21 1     
   48   21   22 2     
   49   23   47 1     
   50   23   48 1     
   51   13   50 1     
   52   13   51 1     
   53   16   52 1     
   54   18   53 1     
   55   18   54 1     
   56   22   55 1     
   57   22   56 1     
@<TRIPOS>SUBSTRUCTURE
      1 S1             1
@<TRIPOS>SET
LONE_PAIRS      STATIC     ATOMS    <user>   **** ""
7 50 51 52 53 54 55 56
DONOR_HYDROGENS      STATIC     ATOMS    <user>   **** ""
2 49 42
ATOM$BLUE        STATIC     ATOMS    COLORGROUP SYSTEM
7 50 51 52 53 54 55 56
ATOM$RED        STATIC     ATOMS    COLORGROUP SYSTEM
2 49 42
