AV-unprocessed.smi:1248|AV-procd|sdf|5250|dock7
  -GOLD-   22720 4363D 1   1.00000     0.00000
 Structure written by MMmdl.
 44 46  0  0  0  0  0  0  0  0  2 V2000
  152.6983  143.7923  159.7372 C   0  0  0  0  0  0  0  0  0  0  0  0
  152.0660  144.1535  158.3880 C   0  0  0  0  0  0  0  0  0  0  0  0
  151.5806  142.9792  157.6903 N   0  0  0  0  0  0  0  0  0  0  0  0
  150.9053  142.9187  156.4877 C   0  0  0  0  0  0  0  0  0  0  0  0
  150.6688  141.5965  156.2606 C   0  0  0  0  0  0  0  0  0  0  0  0
  149.9925  141.0789  155.1281 N   0  0  0  0  0  0  0  0  0  0  0  0
  148.8767  140.3324  155.1205 C   0  0  0  0  0  0  0  0  0  0  0  0
  148.2641  139.9627  156.1221 O   0  0  0  0  0  0  0  0  0  0  0  0
  148.4980  140.0338  153.8695 N   0  0  0  0  0  0  0  0  0  0  0  0
  147.3237  139.2427  153.5139 C   0  0  2  0  0  0  0  0  0  0  0  0
  147.3718  137.8857  154.2361 C   0  0  0  0  0  0  0  0  0  0  0  0
  146.2001  136.9861  153.8088 C   0  0  0  0  0  0  0  0  0  0  0  0
  146.1844  136.7965  152.3372 N   0  3  1  0  0  0  0  0  0  0  0  0
  145.1431  135.8375  151.9090 C   0  0  0  0  0  0  0  0  0  0  0  0
  145.6989  134.5651  151.3134 C   0  0  0  0  0  0  0  0  0  0  0  0
  145.0941  135.6206  150.4145 C   0  0  0  0  0  0  0  0  0  0  0  0
  146.0850  138.0906  151.6185 C   0  0  0  0  0  0  0  0  0  0  0  0
  147.2534  139.0181  151.9910 C   0  0  0  0  0  0  0  0  0  0  0  0
  151.2320  140.9046  157.3702 C   0  0  0  0  0  0  0  0  0  0  0  0
  151.7800  141.7510  158.2290 N   0  0  0  0  0  0  0  0  0  0  0  0
  153.0600  144.6854  160.2466 H   0  0  0  0  0  0  0  0  0  0  0  0
  153.5442  143.1170  159.6065 H   0  0  0  0  0  0  0  0  0  0  0  0
  151.9774  143.3045  160.3939 H   0  0  0  0  0  0  0  0  0  0  0  0
  151.2351  144.8455  158.5305 H   0  0  0  0  0  0  0  0  0  0  0  0
  152.7950  144.6598  157.7544 H   0  0  0  0  0  0  0  0  0  0  0  0
  150.6589  143.8004  155.9146 H   0  0  0  0  0  0  0  0  0  0  0  0
  150.3947  141.3099  154.2316 H   0  0  0  0  0  0  0  0  0  0  0  0
  149.0635  140.3799  153.1079 H   0  0  0  0  0  0  0  0  0  0  0  0
  146.4254  139.7722  153.8383 H   0  0  0  0  0  0  0  0  0  0  0  0
  148.3135  137.3798  154.0168 H   0  0  0  0  0  0  0  0  0  0  0  0
  147.3455  138.0357  155.3160 H   0  0  0  0  0  0  0  0  0  0  0  0
  146.2871  136.0173  154.3019 H   0  0  0  0  0  0  0  0  0  0  0  0
  145.2529  137.4216  154.1316 H   0  0  0  0  0  0  0  0  0  0  0  0
  144.2289  135.8195  152.5000 H   0  0  0  0  0  0  0  0  0  0  0  0
  146.7798  134.4389  151.2814 H   0  0  0  0  0  0  0  0  0  0  0  0
  145.1287  133.6501  151.4601 H   0  0  0  0  0  0  0  0  0  0  0  0
  144.1250  135.4016  149.9707 H   0  0  0  0  0  0  0  0  0  0  0  0
  145.7732  136.1953  149.7873 H   0  0  0  0  0  0  0  0  0  0  0  0
  146.0900  137.9138  150.5423 H   0  0  0  0  0  0  0  0  0  0  0  0
  145.1337  138.5694  151.8559 H   0  0  0  0  0  0  0  0  0  0  0  0
  147.1423  139.9711  151.4722 H   0  0  0  0  0  0  0  0  0  0  0  0
  148.1887  138.5815  151.6372 H   0  0  0  0  0  0  0  0  0  0  0  0
  151.2663  139.8473  157.5855 H   0  0  0  0  0  0  0  0  0  0  0  0
  147.0736  136.3896  152.0841 H   0  0  0  0  0  0  0  0  0  0  0  0
  1  2  1  0  0  0  0
  1 21  1  0  0  0  0
  1 22  1  0  0  0  0
  1 23  1  0  0  0  0
  2  3  1  0  0  0  0
  2 24  1  0  0  0  0
  2 25  1  0  0  0  0
  3 20  1  0  0  0  0
  3  4  1  0  0  0  0
  4  5  2  0  0  0  0
  4 26  1  0  0  0  0
  5  6  1  0  0  0  0
  5 19  1  0  0  0  0
  6  7  1  0  0  0  0
  6 27  1  0  0  0  0
  7  8  2  0  0  0  0
  7  9  1  0  0  0  0
  9 10  1  0  0  0  0
  9 28  1  0  0  0  0
 10 18  1  0  0  0  0
 10 11  1  0  0  0  0
 10 29  1  0  0  0  0
 11 12  1  0  0  0  0
 11 30  1  0  0  0  0
 11 31  1  0  0  0  0
 12 13  1  0  0  0  0
 12 32  1  0  0  0  0
 12 33  1  0  0  0  0
 13 14  1  0  0  0  0
 13 17  1  0  0  0  0
 13 44  1  0  0  0  0
 14 16  1  0  0  0  0
 14 15  1  0  0  0  0
 14 34  1  0  0  0  0
 15 16  1  0  0  0  0
 15 35  1  0  0  0  0
 15 36  1  0  0  0  0
 16 37  1  0  0  0  0
 16 38  1  0  0  0  0
 17 18  1  0  0  0  0
 17 39  1  0  0  0  0
 17 40  1  0  0  0  0
 18 41  1  0  0  0  0
 18 42  1  0  0  0  0
 19 20  2  0  0  0  0
 19 43  1  0  0  0  0
M  CHG  1  13   1
M  END
> <s_m_source_file>
AV-unprocessed.smi

> <i_m_source_file_index>
1248

> <i_lp_mmshare_version>
43012

> <i_f3d_flags>
0

> <s_epik_input>
W0NIM11bQ0gyXW4xW2NIXWMoW2NIXW4xKVtOSF1DKD1PKVtOSF1bQ0hdMltDSDJdW0NIMl1OKFtDSDJdW0NIMl0yKVtDSF0zW0NIMl1bQ0gyXTM=

> <s_epik_cmdline>
J2VwaWtfcHl0aG9uJywgJy1waCcsICc3LjAnLCAnLXRuJywgJzgnLCAnLW1hJywgJzIwMCcsICctbWV0YWxfYmluZGluZycsICctaW1hZScsICc8aW5maWxlLm1hZT4nLCAnLW9tYWUnLCAnPG91dGZpbGUubWFlPic=

> <r_lp_tautomer_probability>
1

> <r_epik_Ionization_Penalty>
0.115699

> <r_epik_Ionization_Penalty_Charging>
0.115549

> <r_epik_Ionization_Penalty_Neutral>
0.00014958

> <r_epik_State_Penalty>
0.105184

> <r_epik_Charging_Adjusted_Penalty>
0.220733

> <i_epik_Tot_Q>
1

> <i_epik_Tot_abs_Q>
1

> <r_epik_Metal_State_Penalty>
0.105189

> <b_epik_Metal_Only>
0

> <s_lp_Force_Field>
OPLS_2005

> <r_lp_Energy>
30.1422

> <b_lp_Chiralities_Consistent>
1

> <s_lp_Variant>
AV-unprocessed.smi:1248-1

> <Gold.Version>
5.8.1

> <Gold.Id.Protein>
6NUR|6NUR_protein|mol2

> <Gold.PLP.Fitness>
42.5241

> <Gold.PLP.PLP>
-32.3999

> <Gold.PLP.part.hbond>
-2.0000

> <Gold.PLP.part.metal>
0.0000

> <Gold.PLP.part.buried>
4.5551

> <Gold.PLP.part.nonpolar>
-35.5848

> <Gold.PLP.part.repulsive>
0.6934

> <Gold.PLP.ligand.clash>
0.0000

> <Gold.PLP.ligand.torsion>
1.3329

> <Gold.PLP.Chemscore.Hbond>
2.8580

> <Gold.PLP.Chemscore.CHOScore>
0.9837

> <Gold.PLP.Chemscore.Metal>
0.0000

> <Gold.Chemscore.Hbonds>
donor molecule, donor type, donor heavy atom, donor atom, acceptor molecule, acceptor atom, score
      L1  H     9    28       P1  7957  0.84
      L1  H    13    44       P1  7948  2.00
      L1  C     4    26       P1  8028  0.91

> <Gold.PLP.Chemscore.Internal.Correction>
1.2647

> <Gold.Rescore>
     Score         DG    S(hbond)    S(metal)    S(lipo)     H(rot)  DE(clash)    DE(int)     intcor
     14.19     -19.42       1.85        0.00      95.70       1.34       2.87       2.35       ----

> <Gold.Chemscore.Fitness>
14.1917

> <Gold.Chemscore.DG>
-19.4157

> <Gold.Chemscore.ZeroCoef>
-5.4800

> <Gold.Chemscore.Hbond>
1.8499

> <Gold.Chemscore.Metal>
0.0000

> <Gold.Chemscore.Lipo>
95.7008

> <Gold.Chemscore.Internal_Hbond>
0.0000

> <Gold.Chemscore.DEClash>
2.8721

> <Gold.Chemscore.DEInternal>
2.3518

> <Gold.Chemscore.Rot>
1.3438

> <Gold.Chemscore.Internal.Correction>
   9.000000E+99

> <Gold.Chemscore.Hbonds>
donor molecule, donor type, donor heavy atom, donor atom, acceptor molecule, acceptor atom, score
      L1  H     9    28       P1  7957  0.78
      L1  H    13    44       P1  7948  0.99

> <Gold.Chemscore.Hbond.Weighted>
-6.1788

> <Gold.Chemscore.Metal.Weighted>
-0.0000

> <Gold.Chemscore.Lipo.Weighted>
-11.1970

> <Gold.Chemscore.Internal_Hbond.Weighted>
0.0000

> <Gold.Chemscore.DEClash.Weighted>
2.8721

> <Gold.Chemscore.DEInternal.Weighted>
2.3518

> <Gold.Chemscore.Rot.Weighted>
3.4401

> <Gold.Chemscore.Internal.Correction.Weighted>
   9.000000E+99

> <Gold.Protein.RotatedTorsions>
[ 6907 6896 6895 6894 ] final  -85.22 input  -60.11 | X-H torsion
[ 7974 7965 7964 7962 ] final -158.10 input  175.53 | X-H torsion
[ 8008 7997 7996 7995 ] final  110.17 input   59.86 | X-H torsion
[ 10167 10162 10161 10158 ] final  -57.35 input  -65.29 | X-H torsion
[ 10718 10713 10712 10709 ] final  -81.20 input   66.30 | X-H torsion
[ 10763 10752 10751 10750 ] final -133.04 input  -60.55 | X-H torsion
[ 11005 11000 10999 10996 ] final -111.76 input  -57.11 | X-H torsion

> <Gold.Protein.ActiveResidues>
 VAL166  LYS551  ARG553  GLY616  TRP617  ASP618  TYR619  PRO620  LYS621  CYS622 
 ASP623  PHE694  ASN695  SER759  ASP760  ASP761  ALA762  ILE779  LEU786  VAL792 
 PHE793  MET794  SER795  GLU796  ALA797  LYS798  CYS799  TRP800  GLU811  SER814 

> <Gold.Protein.RotatedAtoms>
  150.6871  134.3238  159.4797 H   0  0  0  0  0  0  0  0  0  0  0  0  # atno 6907 bound_to 6896
  152.1110  134.9272  160.0576 H   0  0  0  0  0  0  0  0  0  0  0  0  # atno 6908 bound_to 6896
  152.0514  133.3986  159.4415 H   0  0  0  0  0  0  0  0  0  0  0  0  # atno 6909 bound_to 6896
  144.7520  140.3875  143.6041 H   0  0  0  0  0  0  0  0  0  0  0  0  # atno 7974 bound_to 7965
  156.2033  140.3044  155.9573 H   0  0  0  0  0  0  0  0  0  0  0  0  # atno 8008 bound_to 7997
  155.2902  140.0441  157.3039 H   0  0  0  0  0  0  0  0  0  0  0  0  # atno 8009 bound_to 7997
  154.5599  140.2317  155.8360 H   0  0  0  0  0  0  0  0  0  0  0  0  # atno 8010 bound_to 7997
  140.6263  143.2440  151.5355 H   0  0  0  0  0  0  0  0  0  0  0  0  # atno 10167 bound_to 10162
  156.0055  130.4596  150.3916 H   0  0  0  0  0  0  0  0  0  0  0  0  # atno 10718 bound_to 10713
  154.8737  135.3778  154.4508 H   0  0  0  0  0  0  0  0  0  0  0  0  # atno 10763 bound_to 10752
  153.5185  135.7029  153.5749 H   0  0  0  0  0  0  0  0  0  0  0  0  # atno 10764 bound_to 10752
  153.4006  135.3949  155.1951 H   0  0  0  0  0  0  0  0  0  0  0  0  # atno 10765 bound_to 10752
  141.0715  133.9371  157.2475 H   0  0  0  0  0  0  0  0  0  0  0  0  # atno 11005 bound_to 11000
  145.6911  139.1639  143.2646 LP  0  0  0  0  0  0  0  0  0  0  0  0  # atno 17320 bound_to 7965
  146.1482  140.6963  142.9335 LP  0  0  0  0  0  0  0  0  0  0  0  0  # atno 17321 bound_to 7965
  139.5483  144.2462  152.1483 LP  0  0  0  0  0  0  0  0  0  0  0  0  # atno 17342 bound_to 10162
  140.1695  144.4949  150.6587 LP  0  0  0  0  0  0  0  0  0  0  0  0  # atno 17343 bound_to 10162
  157.1990  131.0433  151.2660 LP  0  0  0  0  0  0  0  0  0  0  0  0  # atno 17370 bound_to 10713
  157.3993  130.7324  149.6755 LP  0  0  0  0  0  0  0  0  0  0  0  0  # atno 17371 bound_to 10713
  139.9528  135.0172  156.9044 LP  0  0  0  0  0  0  0  0  0  0  0  0  # atno 17394 bound_to 11000
  140.5663  134.0486  155.7415 LP  0  0  0  0  0  0  0  0  0  0  0  0  # atno 17395 bound_to 11000

$$$$
