AV-unprocessed.smi:2801|AV-procd|sdf|10799|dock1
  -GOLD-   2272015233D 1   1.00000     0.00000
 Structure written by MMmdl.
 32 32  0  0  0  0  0  0  0  0  1 V2000
  153.8350  141.6199  160.6517 C   0  0  0  0  0  0  0  0  0  0  0  0
  152.5505  142.2138  160.0697 C   0  0  0  0  0  0  0  0  0  0  0  0
  152.8859  142.9923  158.9275 O   0  0  0  0  0  0  0  0  0  0  0  0
  151.8026  143.7032  158.3318 C   0  0  2  0  0  0  0  0  0  0  0  0
  151.0618  144.4604  159.4504 C   0  0  0  0  0  0  0  0  0  0  0  0
  151.9257  145.5438  160.1079 C   0  0  0  0  0  0  0  0  0  0  0  0
  150.8634  142.7245  157.6076 C   0  0  0  0  0  0  0  0  0  0  0  0
  149.6753  142.6780  157.9249 O   0  0  0  0  0  0  0  0  0  0  0  0
  151.4417  141.9463  156.6738 N   0  0  0  0  0  0  0  0  0  0  0  0
  150.8592  140.9552  155.8339 C   0  0  0  0  0  0  0  0  0  0  0  0
  149.5832  141.0775  155.2314 C   0  0  0  0  0  0  0  0  0  0  0  0
  149.1219  140.0348  154.4037 C   0  0  0  0  0  0  0  0  0  0  0  0
  149.8352  138.9195  154.1437 N   0  0  0  0  0  0  0  0  0  0  0  0
  151.0558  138.8098  154.7073 C   0  0  0  0  0  0  0  0  0  0  0  0
  151.6133  139.7925  155.5511 C   0  0  0  0  0  0  0  0  0  0  0  0
  152.8608  139.6071  156.0781 O   0  0  0  0  0  0  0  0  0  0  0  0
  153.6195  141.0104  161.5294 H   0  0  0  0  0  0  0  0  0  0  0  0
  154.5280  142.4058  160.9527 H   0  0  0  0  0  0  0  0  0  0  0  0
  154.3404  140.9885  159.9206 H   0  0  0  0  0  0  0  0  0  0  0  0
  151.8671  141.4116  159.7878 H   0  0  0  0  0  0  0  0  0  0  0  0
  152.0536  142.8192  160.8285 H   0  0  0  0  0  0  0  0  0  0  0  0
  152.1921  144.4323  157.6182 H   0  0  0  0  0  0  0  0  0  0  0  0
  150.1652  144.9316  159.0447 H   0  0  0  0  0  0  0  0  0  0  0  0
  150.7205  143.7598  160.2138 H   0  0  0  0  0  0  0  0  0  0  0  0
  151.3680  146.0667  160.8848 H   0  0  0  0  0  0  0  0  0  0  0  0
  152.2524  146.2846  159.3777 H   0  0  0  0  0  0  0  0  0  0  0  0
  152.8147  145.1139  160.5701 H   0  0  0  0  0  0  0  0  0  0  0  0
  152.4425  142.0442  156.5818 H   0  0  0  0  0  0  0  0  0  0  0  0
  148.9568  141.9439  155.3720 H   0  0  0  0  0  0  0  0  0  0  0  0
  148.1530  140.1023  153.9317 H   0  0  0  0  0  0  0  0  0  0  0  0
  151.6067  137.9103  154.4753 H   0  0  0  0  0  0  0  0  0  0  0  0
  152.8671  139.0059  156.8076 H   0  0  0  0  0  0  0  0  0  0  0  0
  1  2  1  0  0  0  0
  1 17  1  0  0  0  0
  1 18  1  0  0  0  0
  1 19  1  0  0  0  0
  2  3  1  0  0  0  0
  2 20  1  0  0  0  0
  2 21  1  0  0  0  0
  3  4  1  0  0  0  0
  4  5  1  0  0  0  0
  4  7  1  0  0  0  0
  4 22  1  0  0  0  0
  5  6  1  0  0  0  0
  5 23  1  0  0  0  0
  5 24  1  0  0  0  0
  6 25  1  0  0  0  0
  6 26  1  0  0  0  0
  6 27  1  0  0  0  0
  7  8  2  0  0  0  0
  7  9  1  0  0  0  0
  9 10  1  0  0  0  0
  9 28  1  0  0  0  0
 10 15  1  0  0  0  0
 10 11  2  0  0  0  0
 11 12  1  0  0  0  0
 11 29  1  0  0  0  0
 12 13  2  0  0  0  0
 12 30  1  0  0  0  0
 13 14  1  0  0  0  0
 14 15  2  0  0  0  0
 14 31  1  0  0  0  0
 15 16  1  0  0  0  0
 16 32  1  0  0  0  0
M  END
> <s_m_source_file>
AV-unprocessed.smi

> <i_m_source_file_index>
2801

> <i_lp_mmshare_version>
43012

> <i_f3d_flags>
0

> <s_epik_input>
W0NIM11bQ0gyXU9bQ0BIXShbQ0gyXVtDSDNdKUMoPU8pW05IXWMxW2NIXVtjSF1uW2NIXWMxW09IXQ==

> <s_epik_cmdline>
J2VwaWtfcHl0aG9uJywgJy1waCcsICc3LjAnLCAnLXRuJywgJzgnLCAnLW1hJywgJzIwMCcsICctbWV0YWxfYmluZGluZycsICctaW1hZScsICc8aW5maWxlLm1hZT4nLCAnLW9tYWUnLCAnPG91dGZpbGUubWFlPic=

> <r_lp_tautomer_probability>
0.43658

> <r_epik_Ionization_Penalty>
0.0250035

> <r_epik_Ionization_Penalty_Charging>
0

> <r_epik_Ionization_Penalty_Neutral>
0.0250035

> <r_epik_State_Penalty>
0.520524

> <r_epik_Charging_Adjusted_Penalty>
0.520524

> <i_epik_Tot_Q>
0

> <i_epik_Tot_abs_Q>
0

> <r_epik_Metal_State_Penalty>
0.772586

> <b_epik_Metal_Only>
0

> <s_lp_Force_Field>
OPLS_2005

> <r_lp_Energy>
11.8743

> <b_lp_Chiralities_Consistent>
1

> <s_lp_Variant>
AV-unprocessed.smi:2801-3

> <Gold.Version>
5.8.1

> <Gold.Id.Protein>
6NUR|6NUR_protein|mol2

> <Gold.PLP.Fitness>
39.4515

> <Gold.PLP.PLP>
-37.2244

> <Gold.PLP.part.hbond>
-1.0000

> <Gold.PLP.part.metal>
0.0000

> <Gold.PLP.part.buried>
-3.4300

> <Gold.PLP.part.nonpolar>
-33.7636

> <Gold.PLP.part.repulsive>
0.6708

> <Gold.PLP.ligand.clash>
0.0000

> <Gold.PLP.ligand.torsion>
0.3926

> <Gold.PLP.Chemscore.Hbond>
1.0000

> <Gold.PLP.Chemscore.CHOScore>
0.0000

> <Gold.PLP.Chemscore.Metal>
0.0000

> <Gold.Chemscore.Hbonds>
donor molecule, donor type, donor heavy atom, donor atom, acceptor molecule, acceptor atom, score
      P1  H  7997  8010       L1    16  0.95

> <Gold.PLP.Chemscore.Internal.Correction>
0.0123

> <Gold.Rescore>
     Score         DG    S(hbond)    S(metal)    S(lipo)     H(rot)  DE(clash)    DE(int)     intcor
     12.79     -13.32       0.89        0.00      87.88       2.11       0.13       0.40       ----

> <Gold.Chemscore.Fitness>
12.7921

> <Gold.Chemscore.DG>
-13.3232

> <Gold.Chemscore.ZeroCoef>
-5.4800

> <Gold.Chemscore.Hbond>
0.8894

> <Gold.Chemscore.Metal>
0.0000

> <Gold.Chemscore.Lipo>
87.8754

> <Gold.Chemscore.Internal_Hbond>
0.0000

> <Gold.Chemscore.DEClash>
0.1338

> <Gold.Chemscore.DEInternal>
0.3973

> <Gold.Chemscore.Rot>
2.1129

> <Gold.Chemscore.Internal.Correction>
   9.000000E+99

> <Gold.Chemscore.Hbonds>
donor molecule, donor type, donor heavy atom, donor atom, acceptor molecule, acceptor atom, score
      P1  H  7997  8010       L1    16  0.21

> <Gold.Chemscore.Hbond.Weighted>
-2.9707

> <Gold.Chemscore.Metal.Weighted>
-0.0000

> <Gold.Chemscore.Lipo.Weighted>
-10.2814

> <Gold.Chemscore.Internal_Hbond.Weighted>
0.0000

> <Gold.Chemscore.DEClash.Weighted>
0.1338

> <Gold.Chemscore.DEInternal.Weighted>
0.3973

> <Gold.Chemscore.Rot.Weighted>
5.4089

> <Gold.Chemscore.Internal.Correction.Weighted>
   9.000000E+99

> <Gold.Protein.RotatedTorsions>
[ 6907 6896 6895 6894 ] final -125.25 input  -60.11 | X-H torsion
[ 7974 7965 7964 7962 ] final   -7.55 input  175.53 | X-H torsion
[ 8008 7997 7996 7995 ] final   85.77 input   59.86 | X-H torsion
[ 10167 10162 10161 10158 ] final -102.45 input  -65.29 | X-H torsion
[ 10718 10713 10712 10709 ] final   46.30 input   66.30 | X-H torsion
[ 10763 10752 10751 10750 ] final -116.04 input  -60.55 | X-H torsion
[ 11005 11000 10999 10996 ] final  128.19 input  -57.11 | X-H torsion

> <Gold.Protein.ActiveResidues>
 VAL166  LYS551  ARG553  GLY616  TRP617  ASP618  TYR619  PRO620  LYS621  CYS622 
 ASP623  PHE694  ASN695  SER759  ASP760  ASP761  ALA762  ILE779  LEU786  VAL792 
 PHE793  MET794  SER795  GLU796  ALA797  LYS798  CYS799  TRP800  GLU811  SER814 

> <Gold.Protein.RotatedAtoms>
  150.8849  133.7322  159.2921 H   0  0  0  0  0  0  0  0  0  0  0  0  # atno 6907 bound_to 6896
  151.4891  135.1055  159.9808 H   0  0  0  0  0  0  0  0  0  0  0  0  # atno 6908 bound_to 6896
  152.4783  133.8146  159.7077 H   0  0  0  0  0  0  0  0  0  0  0  0  # atno 6909 bound_to 6896
  146.2304  140.2336  142.8341 H   0  0  0  0  0  0  0  0  0  0  0  0  # atno 7974 bound_to 7965
  155.9542  140.3398  155.6434 H   0  0  0  0  0  0  0  0  0  0  0  0  # atno 8008 bound_to 7997
  155.6881  140.0745  157.2477 H   0  0  0  0  0  0  0  0  0  0  0  0  # atno 8009 bound_to 7997
  154.4128  140.1662  156.2043 H   0  0  0  0  0  0  0  0  0  0  0  0  # atno 8010 bound_to 7997
  140.2305  143.3610  152.0891 H   0  0  0  0  0  0  0  0  0  0  0  0  # atno 10167 bound_to 10162
  157.4467  130.8113  149.7747 H   0  0  0  0  0  0  0  0  0  0  0  0  # atno 10718 bound_to 10713
  154.8504  135.4360  154.1759 H   0  0  0  0  0  0  0  0  0  0  0  0  # atno 10763 bound_to 10752
  153.2861  135.6957  153.7344 H   0  0  0  0  0  0  0  0  0  0  0  0  # atno 10764 bound_to 10752
  153.6529  135.3448  155.3080 H   0  0  0  0  0  0  0  0  0  0  0  0  # atno 10765 bound_to 10752
  139.9547  134.9615  156.8966 H   0  0  0  0  0  0  0  0  0  0  0  0  # atno 11005 bound_to 11000
  144.9539  140.8206  143.5555 LP  0  0  0  0  0  0  0  0  0  0  0  0  # atno 17320 bound_to 7965
  145.2299  139.2120  143.5048 LP  0  0  0  0  0  0  0  0  0  0  0  0  # atno 17321 bound_to 7965
  139.5112  144.6896  151.5795 LP  0  0  0  0  0  0  0  0  0  0  0  0  # atno 17342 bound_to 10162
  140.6189  143.9297  150.6510 LP  0  0  0  0  0  0  0  0  0  0  0  0  # atno 17343 bound_to 10162
  155.9970  130.3902  150.2757 LP  0  0  0  0  0  0  0  0  0  0  0  0  # atno 17370 bound_to 10713
  157.0926  131.0174  151.3116 LP  0  0  0  0  0  0  0  0  0  0  0  0  # atno 17371 bound_to 10713
  140.5636  134.0511  155.7407 LP  0  0  0  0  0  0  0  0  0  0  0  0  # atno 17394 bound_to 11000
  141.1217  133.9450  157.2716 LP  0  0  0  0  0  0  0  0  0  0  0  0  # atno 17395 bound_to 11000

$$$$
