AV-unprocessed.smi:154|AV-procd|sdf|1266|dock2
  -GOLD-   2262018523D 1   1.00000     0.00000
 Structure written by MMmdl.
 53 57  0  0  0  0  0  0  0  0  1 V2000
  149.4579  138.8216  153.2048 O   0  0  0  0  0  0  0  0  0  0  0  0
  149.4195  138.3943  154.5559 C   0  0  0  0  0  0  0  0  0  0  0  0
  148.3955  137.2361  154.6540 C   0  0  0  0  0  0  0  0  0  0  0  0
  148.2076  136.7290  156.0052 N   0  0  0  0  0  0  0  0  0  0  0  0
  148.6530  135.5287  156.5033 C   0  0  0  0  0  0  0  0  0  0  0  0
  148.3492  135.3026  157.7505 N   0  0  0  0  0  0  0  0  0  0  0  0
  147.6436  136.4315  158.1583 C   0  0  0  0  0  0  0  0  0  0  0  0
  147.0119  136.8507  159.3733 C   0  0  0  0  0  0  0  0  0  0  0  0
  146.9718  136.1547  160.5488 N   0  0  0  0  0  0  0  0  0  0  0  0
  146.4926  136.8132  161.7678 C   0  0  2  0  0  0  0  0  0  0  0  0
  147.3350  136.3492  162.9787 C   0  0  0  0  0  0  0  0  0  0  0  0
  147.5022  134.8218  163.1019 C   0  0  0  0  0  0  0  0  0  0  0  0
  147.6704  134.1236  161.7386 C   0  0  0  0  0  0  0  0  0  0  0  0
  146.7959  134.7046  160.6034 C   0  0  1  0  0  0  0  0  0  0  0  0
  145.2857  134.3589  160.6796 C   0  0  0  0  0  0  0  0  0  0  0  0
  144.4971  135.1466  161.7510 C   0  0  0  0  0  0  0  0  0  0  0  0
  143.2087  135.1466  161.4082 F   0  0  0  0  0  0  0  0  0  0  0  0
  144.5699  134.5304  162.9265 F   0  0  0  0  0  0  0  0  0  0  0  0
  144.9632  136.6134  161.8872 C   0  0  0  0  0  0  0  0  0  0  0  0
  146.4123  138.0714  159.3548 N   0  0  0  0  0  0  0  0  0  0  0  0
  146.4090  138.8247  158.2534 C   0  0  0  0  0  0  0  0  0  0  0  0
  146.9440  138.5588  157.0634 N   0  0  0  0  0  0  0  0  0  0  0  0
  147.5556  137.3412  157.0615 C   0  0  0  0  0  0  0  0  0  0  0  0
  150.8275  137.9046  154.9513 C   0  0  0  0  0  0  0  0  0  0  0  0
  151.8432  139.0583  155.0289 C   0  0  0  0  0  0  0  0  0  0  0  0
  151.3751  140.0589  155.9250 O   0  0  0  0  0  0  0  0  0  0  0  0
  150.1595  140.6573  155.4921 C   0  0  0  0  0  0  0  0  0  0  0  0
  149.0390  139.6036  155.4386 C   0  0  0  0  0  0  0  0  0  0  0  0
  149.5842  138.0646  152.6537 H   0  0  0  0  0  0  0  0  0  0  0  0
  147.4248  137.5525  154.2694 H   0  0  0  0  0  0  0  0  0  0  0  0
  148.7122  136.4047  154.0229 H   0  0  0  0  0  0  0  0  0  0  0  0
  149.2072  134.8184  155.9073 H   0  0  0  0  0  0  0  0  0  0  0  0
  146.6474  137.8901  161.7146 H   0  0  0  0  0  0  0  0  0  0  0  0
  148.3298  136.7836  162.8718 H   0  0  0  0  0  0  0  0  0  0  0  0
  146.9314  136.7593  163.9048 H   0  0  0  0  0  0  0  0  0  0  0  0
  148.3725  134.6074  163.7227 H   0  0  0  0  0  0  0  0  0  0  0  0
  146.6771  134.3866  163.6552 H   0  0  0  0  0  0  0  0  0  0  0  0
  148.7138  134.2295  161.4383 H   0  0  0  0  0  0  0  0  0  0  0  0
  147.5004  133.0515  161.8417 H   0  0  0  0  0  0  0  0  0  0  0  0
  147.1971  134.2542  159.6980 H   0  0  0  0  0  0  0  0  0  0  0  0
  144.8405  134.5926  159.7131 H   0  0  0  0  0  0  0  0  0  0  0  0
  145.1422  133.2861  160.8115 H   0  0  0  0  0  0  0  0  0  0  0  0
  144.5874  137.0489  162.8136 H   0  0  0  0  0  0  0  0  0  0  0  0
  144.5004  137.1888  161.0837 H   0  0  0  0  0  0  0  0  0  0  0  0
  145.9058  139.7764  158.3389 H   0  0  0  0  0  0  0  0  0  0  0  0
  150.7805  137.4238  155.9292 H   0  0  0  0  0  0  0  0  0  0  0  0
  151.1791  137.1426  154.2545 H   0  0  0  0  0  0  0  0  0  0  0  0
  152.8012  138.6854  155.3913 H   0  0  0  0  0  0  0  0  0  0  0  0
  152.0263  139.4904  154.0439 H   0  0  0  0  0  0  0  0  0  0  0  0
  149.8911  141.4493  156.1915 H   0  0  0  0  0  0  0  0  0  0  0  0
  150.3000  141.1310  154.5193 H   0  0  0  0  0  0  0  0  0  0  0  0
  148.1174  140.0690  155.0870 H   0  0  0  0  0  0  0  0  0  0  0  0
  148.8402  139.2582  156.4538 H   0  0  0  0  0  0  0  0  0  0  0  0
  1  2  1  0  0  0  0
  1 29  1  0  0  0  0
  2 28  1  0  0  0  0
  2  3  1  0  0  0  0
  2 24  1  0  0  0  0
  3  4  1  0  0  0  0
  3 30  1  0  0  0  0
  3 31  1  0  0  0  0
  4 23  1  0  0  0  0
  4  5  1  0  0  0  0
  5  6  2  0  0  0  0
  5 32  1  0  0  0  0
  6  7  1  0  0  0  0
  7 23  2  0  0  0  0
  7  8  1  0  0  0  0
  8  9  1  0  0  0  0
  8 20  2  0  0  0  0
  9 14  1  0  0  0  0
  9 10  1  0  0  0  0
 10 19  1  0  0  0  0
 10 11  1  0  0  0  0
 10 33  1  0  0  0  0
 11 12  1  0  0  0  0
 11 34  1  0  0  0  0
 11 35  1  0  0  0  0
 12 13  1  0  0  0  0
 12 36  1  0  0  0  0
 12 37  1  0  0  0  0
 13 14  1  0  0  0  0
 13 38  1  0  0  0  0
 13 39  1  0  0  0  0
 14 15  1  0  0  0  0
 14 40  1  0  0  0  0
 15 16  1  0  0  0  0
 15 41  1  0  0  0  0
 15 42  1  0  0  0  0
 16 17  1  0  0  0  0
 16 18  1  0  0  0  0
 16 19  1  0  0  0  0
 19 43  1  0  0  0  0
 19 44  1  0  0  0  0
 20 21  1  0  0  0  0
 21 22  2  0  0  0  0
 21 45  1  0  0  0  0
 22 23  1  0  0  0  0
 24 25  1  0  0  0  0
 24 46  1  0  0  0  0
 24 47  1  0  0  0  0
 25 26  1  0  0  0  0
 25 48  1  0  0  0  0
 25 49  1  0  0  0  0
 26 27  1  0  0  0  0
 27 28  1  0  0  0  0
 27 50  1  0  0  0  0
 27 51  1  0  0  0  0
 28 52  1  0  0  0  0
 28 53  1  0  0  0  0
M  END
> <s_m_source_file>
AV-unprocessed.smi

> <i_m_source_file_index>
154

> <i_lp_mmshare_version>
43012

> <i_f3d_flags>
0

> <s_epik_input>
W0NIMl0xW0NIMl1PW0NIMl1bQ0gyXUMxKFtPSF0pW0NIMl1uKFtjSF1uMiljKGMyMyluW2NIXW5jM04oW0NAQEhdNDUpW0NIXShbQ0gyXVtDSDJdW0NIMl00KVtDSDJdQyhGKShGKVtDSDJdNQ==

> <s_epik_cmdline>
J2VwaWtfcHl0aG9uJywgJy1waCcsICc3LjAnLCAnLXRuJywgJzgnLCAnLW1hJywgJzIwMCcsICctbWV0YWxfYmluZGluZycsICctaW1hZScsICc8aW5maWxlLm1hZT4nLCAnLW9tYWUnLCAnPG91dGZpbGUubWFlPic=

> <r_lp_tautomer_probability>
1

> <r_epik_Ionization_Penalty>
0.00333769

> <r_epik_Ionization_Penalty_Charging>
0

> <r_epik_Ionization_Penalty_Neutral>
0.00333769

> <r_epik_State_Penalty>
0.0022021

> <r_epik_Charging_Adjusted_Penalty>
0.0022021

> <i_epik_Tot_Q>
0

> <i_epik_Tot_abs_Q>
0

> <r_epik_Metal_State_Penalty>
-0

> <b_epik_Metal_Only>
0

> <s_lp_Force_Field>
OPLS_2005

> <r_lp_Energy>
50.9218

> <b_lp_Chiralities_Consistent>
1

> <s_lp_Variant>
AV-unprocessed.smi:154-1

> <Gold.Version>
5.8.1

> <Gold.Id.Protein>
6NUR|6NUR_protein|mol2

> <Gold.PLP.Fitness>
38.9415

> <Gold.PLP.PLP>
-34.6595

> <Gold.PLP.part.hbond>
-2.5097

> <Gold.PLP.part.metal>
0.0000

> <Gold.PLP.part.buried>
-3.1382

> <Gold.PLP.part.nonpolar>
-30.0009

> <Gold.PLP.part.repulsive>
0.0000

> <Gold.PLP.ligand.clash>
0.0000

> <Gold.PLP.ligand.torsion>
0.4587

> <Gold.PLP.Chemscore.Hbond>
1.6720

> <Gold.PLP.Chemscore.CHOScore>
0.0000

> <Gold.PLP.Chemscore.Metal>
0.0000

> <Gold.Chemscore.Hbonds>
donor molecule, donor type, donor heavy atom, donor atom, acceptor molecule, acceptor atom, score
      L1  H     1    29       P1  7948  0.96
      P1  H  6934  6947       L1    20  0.69

> <Gold.PLP.Chemscore.Internal.Correction>
0.1835

> <Gold.Rescore>
     Score         DG    S(hbond)    S(metal)    S(lipo)     H(rot)  DE(clash)    DE(int)     intcor
     12.83     -15.35       1.19        0.00      89.38       1.78       0.77       1.76       ----

> <Gold.Chemscore.Fitness>
12.8283

> <Gold.Chemscore.DG>
-15.3547

> <Gold.Chemscore.ZeroCoef>
-5.4800

> <Gold.Chemscore.Hbond>
1.1932

> <Gold.Chemscore.Metal>
0.0000

> <Gold.Chemscore.Lipo>
89.3839

> <Gold.Chemscore.Internal_Hbond>
0.0000

> <Gold.Chemscore.DEClash>
0.7675

> <Gold.Chemscore.DEInternal>
1.7589

> <Gold.Chemscore.Rot>
1.7845

> <Gold.Chemscore.Internal.Correction>
   9.000000E+99

> <Gold.Chemscore.Hbonds>
donor molecule, donor type, donor heavy atom, donor atom, acceptor molecule, acceptor atom, score
      L1  H     1    29       P1  7948  0.58
      P1  H  6934  6947       L1    20  0.29

> <Gold.Chemscore.Hbond.Weighted>
-3.9852

> <Gold.Chemscore.Metal.Weighted>
-0.0000

> <Gold.Chemscore.Lipo.Weighted>
-10.4579

> <Gold.Chemscore.Internal_Hbond.Weighted>
0.0000

> <Gold.Chemscore.DEClash.Weighted>
0.7675

> <Gold.Chemscore.DEInternal.Weighted>
1.7589

> <Gold.Chemscore.Rot.Weighted>
4.5684

> <Gold.Chemscore.Internal.Correction.Weighted>
   9.000000E+99

> <Gold.Protein.RotatedTorsions>
[ 6907 6896 6895 6894 ] final  -92.63 input  -60.11 | X-H torsion
[ 7974 7965 7964 7962 ] final  147.21 input  175.53 | X-H torsion
[ 8008 7997 7996 7995 ] final  139.36 input   59.86 | X-H torsion
[ 10167 10162 10161 10158 ] final   83.57 input  -65.29 | X-H torsion
[ 10718 10713 10712 10709 ] final    2.63 input   66.30 | X-H torsion
[ 10763 10752 10751 10750 ] final  -54.49 input  -60.55 | X-H torsion
[ 11005 11000 10999 10996 ] final  -90.63 input  -57.11 | X-H torsion

> <Gold.Protein.ActiveResidues>
 VAL166  LYS551  ARG553  GLY616  TRP617  ASP618  TYR619  PRO620  LYS621  CYS622 
 ASP623  PHE694  ASN695  SER759  ASP760  ASP761  ALA762  ILE779  LEU786  VAL792 
 PHE793  MET794  SER795  GLU796  ALA797  LYS798  CYS799  TRP800  GLU811  SER814 

> <Gold.Protein.RotatedAtoms>
  150.6909  134.2093  159.4352 H   0  0  0  0  0  0  0  0  0  0  0  0  # atno 6907 bound_to 6896
  152.0055  134.9902  160.0576 H   0  0  0  0  0  0  0  0  0  0  0  0  # atno 6908 bound_to 6896
  152.1538  133.4503  159.4863 H   0  0  0  0  0  0  0  0  0  0  0  0  # atno 6909 bound_to 6896
  144.8609  139.6001  143.5931 H   0  0  0  0  0  0  0  0  0  0  0  0  # atno 7974 bound_to 7965
  156.2990  140.2369  156.4225 H   0  0  0  0  0  0  0  0  0  0  0  0  # atno 8008 bound_to 7997
  154.8343  140.0431  157.1518 H   0  0  0  0  0  0  0  0  0  0  0  0  # atno 8009 bound_to 7997
  154.9173  140.2999  155.5238 H   0  0  0  0  0  0  0  0  0  0  0  0  # atno 8010 bound_to 7997
  139.9170  144.6236  150.8479 H   0  0  0  0  0  0  0  0  0  0  0  0  # atno 10167 bound_to 10162
  156.8658  130.5602  149.5660 H   0  0  0  0  0  0  0  0  0  0  0  0  # atno 10718 bound_to 10713
  154.1757  135.6451  153.5021 H   0  0  0  0  0  0  0  0  0  0  0  0  # atno 10763 bound_to 10752
  153.0072  135.5394  154.6566 H   0  0  0  0  0  0  0  0  0  0  0  0  # atno 10764 bound_to 10752
  154.5917  135.2935  155.0601 H   0  0  0  0  0  0  0  0  0  0  0  0  # atno 10765 bound_to 10752
  141.1562  133.7704  156.9764 H   0  0  0  0  0  0  0  0  0  0  0  0  # atno 11005 bound_to 11000
  146.2860  139.7005  142.9195 LP  0  0  0  0  0  0  0  0  0  0  0  0  # atno 17320 bound_to 7965
  145.4314  141.0415  143.2909 LP  0  0  0  0  0  0  0  0  0  0  0  0  # atno 17321 bound_to 7965
  140.7671  143.3324  151.2381 LP  0  0  0  0  0  0  0  0  0  0  0  0  # atno 17342 bound_to 10162
  139.6894  143.9718  152.2851 LP  0  0  0  0  0  0  0  0  0  0  0  0  # atno 17343 bound_to 10162
  156.0752  130.5776  150.9460 LP  0  0  0  0  0  0  0  0  0  0  0  0  # atno 17370 bound_to 10713
  157.6224  131.0928  150.8597 LP  0  0  0  0  0  0  0  0  0  0  0  0  # atno 17371 bound_to 10713
  140.1095  134.9486  157.2044 LP  0  0  0  0  0  0  0  0  0  0  0  0  # atno 17394 bound_to 11000
  140.3213  134.2914  155.7246 LP  0  0  0  0  0  0  0  0  0  0  0  0  # atno 17395 bound_to 11000

$$$$
