AV-unprocessed.smi:2973|AV-procd|sdf|11338|dock10
  -GOLD-   2272016253D 1   1.00000     0.00000
 Structure written by MMmdl.
 49 51  0  0  0  0  0  0  0  0  1 V2000
  150.7405  142.3113  157.2081 C   0  0  0  0  0  0  0  0  0  0  0  0
  151.8734  141.4611  157.8225 C   0  0  1  0  0  0  0  0  0  0  0  0
  151.9969  141.7579  159.3330 C   0  0  0  0  0  0  0  0  0  0  0  0
  153.1537  140.9818  159.9818 C   0  0  0  0  0  0  0  0  0  0  0  0
  153.0143  139.4715  159.7456 C   0  0  0  0  0  0  0  0  0  0  0  0
  152.9102  139.1588  158.2446 C   0  0  0  0  0  0  0  0  0  0  0  0
  151.7464  139.9259  157.5719 C   0  0  1  0  0  0  0  0  0  0  0  0
  150.4610  139.4022  158.0039 N   0  0  0  0  0  0  0  0  0  0  0  0
  149.7610  138.8474  157.0064 C   0  0  0  0  0  0  0  0  0  0  0  0
  148.6532  138.3264  157.1220 O   0  0  0  0  0  0  0  0  0  0  0  0
  150.4807  138.9534  155.8741 N   0  0  0  0  0  0  0  0  0  0  0  0
  150.0474  138.4417  154.5650 C   0  0  0  0  0  0  0  0  0  0  0  0
  148.6537  138.9077  154.1090 C   0  0  0  0  0  0  0  0  0  0  0  0
  148.3859  140.1081  154.1469 O   0  0  0  0  0  0  0  0  0  0  0  0
  147.7740  137.9816  153.6907 N   0  0  0  0  0  0  0  0  0  0  0  0
  146.4075  138.2503  153.2594 C   0  0  0  0  0  0  0  0  0  0  0  0
  146.1631  137.7549  151.8241 C   0  0  0  0  0  0  0  0  0  0  0  0
  145.2627  136.5351  151.7790 C   0  0  0  0  0  0  0  0  0  0  0  0
  144.2737  136.3328  152.7652 C   0  0  0  0  0  0  0  0  0  0  0  0
  143.4643  135.1834  152.6779 C   0  0  0  0  0  0  0  0  0  0  0  0
  143.6730  134.2862  151.6126 C   0  0  0  0  0  0  0  0  0  0  0  0
  144.6839  134.5812  150.6764 C   0  0  0  0  0  0  0  0  0  0  0  0
  145.4654  135.6804  150.7506 N   0  0  0  0  0  0  0  0  0  0  0  0
  151.6539  139.5627  156.0948 C   0  0  0  0  0  0  0  0  0  0  0  0
  152.5356  139.8000  155.2691 O   0  0  0  0  0  0  0  0  0  0  0  0
  149.7688  142.0533  157.6298 H   0  0  0  0  0  0  0  0  0  0  0  0
  150.6786  142.1877  156.1269 H   0  0  0  0  0  0  0  0  0  0  0  0
  150.9058  143.3720  157.3979 H   0  0  0  0  0  0  0  0  0  0  0  0
  152.8028  141.7927  157.3560 H   0  0  0  0  0  0  0  0  0  0  0  0
  152.1498  142.8262  159.4905 H   0  0  0  0  0  0  0  0  0  0  0  0
  151.0634  141.5066  159.8381 H   0  0  0  0  0  0  0  0  0  0  0  0
  154.1026  141.3300  159.5724 H   0  0  0  0  0  0  0  0  0  0  0  0
  153.1844  141.1886  161.0519 H   0  0  0  0  0  0  0  0  0  0  0  0
  153.8697  138.9489  160.1747 H   0  0  0  0  0  0  0  0  0  0  0  0
  152.1320  139.0967  160.2658 H   0  0  0  0  0  0  0  0  0  0  0  0
  153.8530  139.4267  157.7646 H   0  0  0  0  0  0  0  0  0  0  0  0
  152.7947  138.0827  158.1036 H   0  0  0  0  0  0  0  0  0  0  0  0
  150.1459  139.4513  158.9619 H   0  0  0  0  0  0  0  0  0  0  0  0
  150.7704  138.7343  153.8018 H   0  0  0  0  0  0  0  0  0  0  0  0
  150.0578  137.3504  154.5703 H   0  0  0  0  0  0  0  0  0  0  0  0
  148.0707  137.0166  153.6852 H   0  0  0  0  0  0  0  0  0  0  0  0
  145.6977  137.7922  153.9503 H   0  0  0  0  0  0  0  0  0  0  0  0
  146.2459  139.3272  153.3147 H   0  0  0  0  0  0  0  0  0  0  0  0
  145.7116  138.5485  151.2271 H   0  0  0  0  0  0  0  0  0  0  0  0
  147.1108  137.5126  151.3414 H   0  0  0  0  0  0  0  0  0  0  0  0
  144.1375  137.0408  153.5698 H   0  0  0  0  0  0  0  0  0  0  0  0
  142.6980  134.9932  153.4148 H   0  0  0  0  0  0  0  0  0  0  0  0
  143.0724  133.3940  151.5148 H   0  0  0  0  0  0  0  0  0  0  0  0
  144.8708  133.9159  149.8466 H   0  0  0  0  0  0  0  0  0  0  0  0
  1  2  1  0  0  0  0
  1 26  1  0  0  0  0
  1 27  1  0  0  0  0
  1 28  1  0  0  0  0
  2  7  1  0  0  0  0
  2  3  1  0  0  0  0
  2 29  1  0  0  0  0
  3  4  1  0  0  0  0
  3 30  1  0  0  0  0
  3 31  1  0  0  0  0
  4  5  1  0  0  0  0
  4 32  1  0  0  0  0
  4 33  1  0  0  0  0
  5  6  1  0  0  0  0
  5 34  1  0  0  0  0
  5 35  1  0  0  0  0
  6  7  1  0  0  0  0
  6 36  1  0  0  0  0
  6 37  1  0  0  0  0
  7 24  1  0  0  0  0
  7  8  1  0  0  0  0
  8  9  1  0  0  0  0
  8 38  1  0  0  0  0
  9 10  2  0  0  0  0
  9 11  1  0  0  0  0
 11 12  1  0  0  0  0
 11 24  1  0  0  0  0
 12 13  1  0  0  0  0
 12 39  1  0  0  0  0
 12 40  1  0  0  0  0
 13 14  2  0  0  0  0
 13 15  1  0  0  0  0
 15 16  1  0  0  0  0
 15 41  1  0  0  0  0
 16 17  1  0  0  0  0
 16 42  1  0  0  0  0
 16 43  1  0  0  0  0
 17 18  1  0  0  0  0
 17 44  1  0  0  0  0
 17 45  1  0  0  0  0
 18 23  1  0  0  0  0
 18 19  2  0  0  0  0
 19 20  1  0  0  0  0
 19 46  1  0  0  0  0
 20 21  2  0  0  0  0
 20 47  1  0  0  0  0
 21 22  1  0  0  0  0
 21 48  1  0  0  0  0
 22 23  2  0  0  0  0
 22 49  1  0  0  0  0
 24 25  2  0  0  0  0
M  END
> <s_m_source_file>
AV-unprocessed.smi

> <i_m_source_file_index>
2973

> <i_lp_mmshare_version>
43012

> <i_f3d_flags>
0

> <s_epik_input>
W0NIMl0xW0NIMl1bQ0gyXVtDSDJdW0NAQEhdKFtDSDNdKVtDQF0xMltOSF1DKD1PKU4oQzI9TylbQ0gyXUMoPU8pW05IXVtDSDJdW0NIMl1jM1tjSF1bY0hdW2NIXVtjSF1uMw==

> <s_epik_cmdline>
J2VwaWtfcHl0aG9uJywgJy1waCcsICc3LjAnLCAnLXRuJywgJzgnLCAnLW1hJywgJzIwMCcsICctbWV0YWxfYmluZGluZycsICctaW1hZScsICc8aW5maWxlLm1hZT4nLCAnLW9tYWUnLCAnPG91dGZpbGUubWFlPic=

> <r_lp_tautomer_probability>
1

> <r_epik_Ionization_Penalty>
0.0245152

> <r_epik_Ionization_Penalty_Charging>
0

> <r_epik_Ionization_Penalty_Neutral>
0.0245152

> <r_epik_State_Penalty>
0.0198648

> <r_epik_Charging_Adjusted_Penalty>
0.0198648

> <i_epik_Tot_Q>
0

> <i_epik_Tot_abs_Q>
0

> <r_epik_Metal_State_Penalty>
0.0400162

> <b_epik_Metal_Only>
0

> <s_lp_Force_Field>
OPLS_2005

> <r_lp_Energy>
22.4148

> <b_lp_Chiralities_Consistent>
1

> <s_lp_Variant>
AV-unprocessed.smi:2973-2

> <Gold.Version>
5.8.1

> <Gold.Id.Protein>
6NUR|6NUR_protein|mol2

> <Gold.PLP.Fitness>
44.3226

> <Gold.PLP.PLP>
-37.7384

> <Gold.PLP.part.hbond>
-2.9868

> <Gold.PLP.part.metal>
0.0000

> <Gold.PLP.part.buried>
-1.2424

> <Gold.PLP.part.nonpolar>
-33.0385

> <Gold.PLP.part.repulsive>
0.5038

> <Gold.PLP.ligand.clash>
0.0000

> <Gold.PLP.ligand.torsion>
0.8701

> <Gold.PLP.Chemscore.Hbond>
1.9221

> <Gold.PLP.Chemscore.CHOScore>
0.8439

> <Gold.PLP.Chemscore.Metal>
0.0000

> <Gold.Chemscore.Hbonds>
donor molecule, donor type, donor heavy atom, donor atom, acceptor molecule, acceptor atom, score
      L1  H    15    41       P1  7948  0.23
      P1  H  7989  7998       L1    25  0.30
      P1  H  7997  8009       L1    25  0.98
      L1  C    22    49       P1  7921  0.47

> <Gold.PLP.Chemscore.Internal.Correction>
0.0264

> <Gold.Rescore>
     Score         DG    S(hbond)    S(metal)    S(lipo)     H(rot)  DE(clash)    DE(int)     intcor
     16.42     -17.37       1.77        0.00      91.82       1.86       0.16       0.79       ----

> <Gold.Chemscore.Fitness>
16.4152

> <Gold.Chemscore.DG>
-17.3715

> <Gold.Chemscore.ZeroCoef>
-5.4800

> <Gold.Chemscore.Hbond>
1.7659

> <Gold.Chemscore.Metal>
0.0000

> <Gold.Chemscore.Lipo>
91.8212

> <Gold.Chemscore.Internal_Hbond>
0.0000

> <Gold.Chemscore.DEClash>
0.1616

> <Gold.Chemscore.DEInternal>
0.7947

> <Gold.Chemscore.Rot>
1.8553

> <Gold.Chemscore.Internal.Correction>
   9.000000E+99

> <Gold.Chemscore.Hbonds>
donor molecule, donor type, donor heavy atom, donor atom, acceptor molecule, acceptor atom, score
      L1  H    15    41       P1  7948  0.23
      P1  H  7989  7998       L1    25  0.24
      P1  H  7997  8009       L1    25  0.88

> <Gold.Chemscore.Hbond.Weighted>
-5.8981

> <Gold.Chemscore.Metal.Weighted>
-0.0000

> <Gold.Chemscore.Lipo.Weighted>
-10.7431

> <Gold.Chemscore.Internal_Hbond.Weighted>
0.0000

> <Gold.Chemscore.DEClash.Weighted>
0.1616

> <Gold.Chemscore.DEInternal.Weighted>
0.7947

> <Gold.Chemscore.Rot.Weighted>
4.7497

> <Gold.Chemscore.Internal.Correction.Weighted>
   9.000000E+99

> <Gold.Protein.RotatedTorsions>
[ 6907 6896 6895 6894 ] final   21.62 input  -60.11 | X-H torsion
[ 7974 7965 7964 7962 ] final   28.91 input  175.53 | X-H torsion
[ 8008 7997 7996 7995 ] final -139.69 input   59.86 | X-H torsion
[ 10167 10162 10161 10158 ] final   62.87 input  -65.29 | X-H torsion
[ 10718 10713 10712 10709 ] final  154.98 input   66.30 | X-H torsion
[ 10763 10752 10751 10750 ] final   36.43 input  -60.55 | X-H torsion
[ 11005 11000 10999 10996 ] final    3.15 input  -57.11 | X-H torsion

> <Gold.Protein.ActiveResidues>
 VAL166  LYS551  ARG553  GLY616  TRP617  ASP618  TYR619  PRO620  LYS621  CYS622 
 ASP623  PHE694  ASN695  SER759  ASP760  ASP761  ALA762  ILE779  LEU786  VAL792 
 PHE793  MET794  SER795  GLU796  ALA797  LYS798  CYS799  TRP800  GLU811  SER814 

> <Gold.Protein.RotatedAtoms>
  151.9145  135.0324  160.0516 H   0  0  0  0  0  0  0  0  0  0  0  0  # atno 6907 bound_to 6896
  152.2251  133.5009  159.5192 H   0  0  0  0  0  0  0  0  0  0  0  0  # atno 6908 bound_to 6896
  150.7010  134.1207  159.4076 H   0  0  0  0  0  0  0  0  0  0  0  0  # atno 6909 bound_to 6896
  146.1702  139.6993  142.8973 H   0  0  0  0  0  0  0  0  0  0  0  0  # atno 7974 bound_to 7965
  155.4489  140.0537  157.3003 H   0  0  0  0  0  0  0  0  0  0  0  0  # atno 8008 bound_to 7997
  154.4785  140.2071  155.9775 H   0  0  0  0  0  0  0  0  0  0  0  0  # atno 8009 bound_to 7997
  156.1170  140.3194  155.8158 H   0  0  0  0  0  0  0  0  0  0  0  0  # atno 8010 bound_to 7997
  140.1392  144.4570  150.6821 H   0  0  0  0  0  0  0  0  0  0  0  0  # atno 10167 bound_to 10162
  157.2245  131.0725  151.1892 H   0  0  0  0  0  0  0  0  0  0  0  0  # atno 10718 bound_to 10713
  153.0077  135.6306  154.1984 H   0  0  0  0  0  0  0  0  0  0  0  0  # atno 10763 bound_to 10752
  154.1727  135.2817  155.3078 H   0  0  0  0  0  0  0  0  0  0  0  0  # atno 10764 bound_to 10752
  154.5896  135.5622  153.7325 H   0  0  0  0  0  0  0  0  0  0  0  0  # atno 10765 bound_to 10752
  140.5964  133.9876  155.8112 H   0  0  0  0  0  0  0  0  0  0  0  0  # atno 11005 bound_to 11000
  145.4360  141.0419  143.2884 LP  0  0  0  0  0  0  0  0  0  0  0  0  # atno 17320 bound_to 7965
  144.8152  139.5890  143.7012 LP  0  0  0  0  0  0  0  0  0  0  0  0  # atno 17321 bound_to 7965
  140.6771  143.2310  151.5480 LP  0  0  0  0  0  0  0  0  0  0  0  0  # atno 17342 bound_to 10162
  139.5481  144.2468  152.1479 LP  0  0  0  0  0  0  0  0  0  0  0  0  # atno 17343 bound_to 10162
  157.3542  130.7098  149.6460 LP  0  0  0  0  0  0  0  0  0  0  0  0  # atno 17370 bound_to 10713
  155.9680  130.4244  150.4606 LP  0  0  0  0  0  0  0  0  0  0  0  0  # atno 17371 bound_to 10713
  141.0901  133.9929  157.3250 LP  0  0  0  0  0  0  0  0  0  0  0  0  # atno 17394 bound_to 11000
  139.9251  135.0201  156.8207 LP  0  0  0  0  0  0  0  0  0  0  0  0  # atno 17395 bound_to 11000

$$$$
