AV-unprocessed.smi:1746|AV-procd|sdf|7033|dock3
  -GOLD-   22720 8253D 1   1.00000     0.00000
 Structure written by MMmdl.
 35 36  0  0  0  0  0  0  0  0  1 V2000
  152.8133  142.3645  162.2152 C   0  0  0  0  0  0  0  0  0  0  0  0
  153.3762  142.0102  160.8336 C   0  0  0  0  0  0  0  0  0  0  0  0
  152.6071  142.6220  159.7675 N   0  0  0  0  0  0  0  0  0  0  0  0
  151.8790  141.9981  158.7737 C   0  0  0  0  0  0  0  0  0  0  0  0
  151.3366  143.0047  158.0257 C   0  0  0  0  0  0  0  0  0  0  0  0
  150.4994  142.9266  156.8839 N   0  0  0  0  0  0  0  0  0  0  0  0
  150.2327  141.8393  156.1419 C   0  0  0  0  0  0  0  0  0  0  0  0
  150.6913  140.7146  156.3438 O   0  0  0  0  0  0  0  0  0  0  0  0
  149.3927  142.1272  155.1380 N   0  0  0  0  0  0  0  0  0  0  0  0
  148.9029  141.1649  154.1575 C   0  0  0  0  0  0  0  0  0  0  0  0
  147.3670  141.1622  154.0825 C   0  0  2  0  0  0  0  0  0  0  0  0
  146.7558  142.5601  154.0030 C   0  0  0  0  0  0  0  0  0  0  0  0
  145.3751  142.3221  154.5691 C   0  0  0  0  0  0  0  0  0  0  0  0
  145.6681  141.3253  155.6861 C   0  0  0  0  0  0  0  0  0  0  0  0
  146.8070  140.5817  155.2591 O   0  0  0  0  0  0  0  0  0  0  0  0
  151.7799  144.2131  158.6233 C   0  0  0  0  0  0  0  0  0  0  0  0
  152.5473  143.9739  159.6760 N   0  0  0  0  0  0  0  0  0  0  0  0
  153.3996  141.8951  163.0053 H   0  0  0  0  0  0  0  0  0  0  0  0
  151.7823  142.0245  162.3187 H   0  0  0  0  0  0  0  0  0  0  0  0
  152.8303  143.4415  162.3845 H   0  0  0  0  0  0  0  0  0  0  0  0
  154.4140  142.3364  160.7509 H   0  0  0  0  0  0  0  0  0  0  0  0
  153.3716  140.9290  160.6913 H   0  0  0  0  0  0  0  0  0  0  0  0
  151.8170  140.9225  158.6976 H   0  0  0  0  0  0  0  0  0  0  0  0
  150.0528  143.7882  156.6059 H   0  0  0  0  0  0  0  0  0  0  0  0
  149.0599  143.0762  155.0498 H   0  0  0  0  0  0  0  0  0  0  0  0
  149.3252  141.4182  153.1846 H   0  0  0  0  0  0  0  0  0  0  0  0
  149.2709  140.1674  154.4037 H   0  0  0  0  0  0  0  0  0  0  0  0
  147.0241  140.5806  153.2250 H   0  0  0  0  0  0  0  0  0  0  0  0
  147.3032  143.2587  154.6377 H   0  0  0  0  0  0  0  0  0  0  0  0
  146.7396  142.9596  152.9884 H   0  0  0  0  0  0  0  0  0  0  0  0
  144.8921  143.2328  154.9248 H   0  0  0  0  0  0  0  0  0  0  0  0
  144.7338  141.8653  153.8140 H   0  0  0  0  0  0  0  0  0  0  0  0
  145.9247  141.8504  156.6069 H   0  0  0  0  0  0  0  0  0  0  0  0
  144.8200  140.6727  155.8940 H   0  0  0  0  0  0  0  0  0  0  0  0
  151.5747  145.2340  158.3363 H   0  0  0  0  0  0  0  0  0  0  0  0
  1  2  1  0  0  0  0
  1 18  1  0  0  0  0
  1 19  1  0  0  0  0
  1 20  1  0  0  0  0
  2  3  1  0  0  0  0
  2 21  1  0  0  0  0
  2 22  1  0  0  0  0
  3 17  1  0  0  0  0
  3  4  1  0  0  0  0
  4  5  2  0  0  0  0
  4 23  1  0  0  0  0
  5  6  1  0  0  0  0
  5 16  1  0  0  0  0
  6  7  1  0  0  0  0
  6 24  1  0  0  0  0
  7  8  2  0  0  0  0
  7  9  1  0  0  0  0
  9 10  1  0  0  0  0
  9 25  1  0  0  0  0
 10 11  1  0  0  0  0
 10 26  1  0  0  0  0
 10 27  1  0  0  0  0
 11 15  1  0  0  0  0
 11 12  1  0  0  0  0
 11 28  1  0  0  0  0
 12 13  1  0  0  0  0
 12 29  1  0  0  0  0
 12 30  1  0  0  0  0
 13 14  1  0  0  0  0
 13 31  1  0  0  0  0
 13 32  1  0  0  0  0
 14 15  1  0  0  0  0
 14 33  1  0  0  0  0
 14 34  1  0  0  0  0
 16 17  2  0  0  0  0
 16 35  1  0  0  0  0
M  END
> <s_m_source_file>
AV-unprocessed.smi

> <i_m_source_file_index>
1746

> <i_lp_mmshare_version>
43012

> <i_f3d_flags>
0

> <s_epik_input>
W0NIM11bQ0gyXW4xW2NIXWMoW2NIXW4xKVtOSF1DKD1PKVtOSF1bQ0gyXVtDQEBIXTJbQ0gyXVtDSDJdW0NIMl1PMg==

> <s_epik_cmdline>
J2VwaWtfcHl0aG9uJywgJy1waCcsICc3LjAnLCAnLXRuJywgJzgnLCAnLW1hJywgJzIwMCcsICctbWV0YWxfYmluZGluZycsICctaW1hZScsICc8aW5maWxlLm1hZT4nLCAnLW9tYWUnLCAnPG91dGZpbGUubWFlPic=

> <r_lp_tautomer_probability>
1

> <r_epik_Ionization_Penalty>
0.000176839

> <r_epik_Ionization_Penalty_Charging>
0

> <r_epik_Ionization_Penalty_Neutral>
0.000176839

> <r_epik_State_Penalty>
-0

> <r_epik_Charging_Adjusted_Penalty>
0

> <i_epik_Tot_Q>
0

> <i_epik_Tot_abs_Q>
0

> <r_epik_Metal_State_Penalty>
-0

> <b_epik_Metal_Only>
0

> <s_lp_Force_Field>
OPLS_2005

> <r_lp_Energy>
20.4647

> <b_lp_Chiralities_Consistent>
1

> <s_lp_Variant>
AV-unprocessed.smi:1746-1

> <Gold.Version>
5.8.1

> <Gold.Id.Protein>
6NUR|6NUR_protein|mol2

> <Gold.PLP.Fitness>
46.6686

> <Gold.PLP.PLP>
-41.0730

> <Gold.PLP.part.hbond>
-2.0000

> <Gold.PLP.part.metal>
0.0000

> <Gold.PLP.part.buried>
-6.7928

> <Gold.PLP.part.nonpolar>
-33.9907

> <Gold.PLP.part.repulsive>
0.3443

> <Gold.PLP.ligand.clash>
0.0000

> <Gold.PLP.ligand.torsion>
0.1351

> <Gold.PLP.Chemscore.Hbond>
1.9520

> <Gold.PLP.Chemscore.CHOScore>
0.0000

> <Gold.PLP.Chemscore.Metal>
0.0000

> <Gold.Chemscore.Hbonds>
donor molecule, donor type, donor heavy atom, donor atom, acceptor molecule, acceptor atom, score
      L1  H     6    24       P1  8028  1.00
      L1  H     9    25       P1  8028  1.00

> <Gold.PLP.Chemscore.Internal.Correction>
0.0098

> <Gold.Rescore>
     Score         DG    S(hbond)    S(metal)    S(lipo)     H(rot)  DE(clash)    DE(int)     intcor
     17.20     -18.35       1.88        0.00      87.02       1.41       0.00       1.15       ----

> <Gold.Chemscore.Fitness>
17.1966

> <Gold.Chemscore.DG>
-18.3483

> <Gold.Chemscore.ZeroCoef>
-5.4800

> <Gold.Chemscore.Hbond>
1.8825

> <Gold.Chemscore.Metal>
0.0000

> <Gold.Chemscore.Lipo>
87.0177

> <Gold.Chemscore.Internal_Hbond>
0.0000

> <Gold.Chemscore.DEClash>
0.0009

> <Gold.Chemscore.DEInternal>
1.1508

> <Gold.Chemscore.Rot>
1.4064

> <Gold.Chemscore.Internal.Correction>
   9.000000E+99

> <Gold.Chemscore.Hbonds>
donor molecule, donor type, donor heavy atom, donor atom, acceptor molecule, acceptor atom, score
      L1  H     6    24       P1  8028  0.98
      L1  H     9    25       P1  8028  0.97

> <Gold.Chemscore.Hbond.Weighted>
-6.2876

> <Gold.Chemscore.Metal.Weighted>
-0.0000

> <Gold.Chemscore.Lipo.Weighted>
-10.1811

> <Gold.Chemscore.Internal_Hbond.Weighted>
0.0000

> <Gold.Chemscore.DEClash.Weighted>
0.0009

> <Gold.Chemscore.DEInternal.Weighted>
1.1508

> <Gold.Chemscore.Rot.Weighted>
3.6004

> <Gold.Chemscore.Internal.Correction.Weighted>
   9.000000E+99

> <Gold.Protein.RotatedTorsions>
[ 6907 6896 6895 6894 ] final -131.52 input  -60.11 | X-H torsion
[ 7974 7965 7964 7962 ] final  122.97 input  175.53 | X-H torsion
[ 8008 7997 7996 7995 ] final  -50.97 input   59.86 | X-H torsion
[ 10167 10162 10161 10158 ] final  121.90 input  -65.29 | X-H torsion
[ 10718 10713 10712 10709 ] final -154.05 input   66.30 | X-H torsion
[ 10763 10752 10751 10750 ] final  -18.60 input  -60.55 | X-H torsion
[ 11005 11000 10999 10996 ] final  -77.28 input  -57.11 | X-H torsion

> <Gold.Protein.ActiveResidues>
 VAL166  LYS551  ARG553  GLY616  TRP617  ASP618  TYR619  PRO620  LYS621  CYS622 
 ASP623  PHE694  ASN695  SER759  ASP760  ASP761  ALA762  ILE779  LEU786  VAL792 
 PHE793  MET794  SER795  GLU796  ALA797  LYS798  CYS799  TRP800  GLU811  SER814 

> <Gold.Protein.RotatedAtoms>
  150.9519  133.6540  159.2770 H   0  0  0  0  0  0  0  0  0  0  0  0  # atno 6907 bound_to 6896
  151.3893  135.0952  159.9531 H   0  0  0  0  0  0  0  0  0  0  0  0  # atno 6908 bound_to 6896
  152.5113  133.9036  159.7508 H   0  0  0  0  0  0  0  0  0  0  0  0  # atno 6909 bound_to 6896
  145.1013  139.3516  143.4810 H   0  0  0  0  0  0  0  0  0  0  0  0  # atno 7974 bound_to 7965
  154.4073  140.1259  156.4752 H   0  0  0  0  0  0  0  0  0  0  0  0  # atno 8008 bound_to 7997
  155.7139  140.3493  155.4966 H   0  0  0  0  0  0  0  0  0  0  0  0  # atno 8009 bound_to 7997
  155.9275  140.1063  157.1148 H   0  0  0  0  0  0  0  0  0  0  0  0  # atno 8010 bound_to 7997
  139.5891  144.7018  151.3334 H   0  0  0  0  0  0  0  0  0  0  0  0  # atno 10167 bound_to 10162
  156.4941  130.8361  151.2582 H   0  0  0  0  0  0  0  0  0  0  0  0  # atno 10718 bound_to 10713
  153.5918  135.7002  153.5420 H   0  0  0  0  0  0  0  0  0  0  0  0  # atno 10763 bound_to 10752
  153.3172  135.4084  155.1386 H   0  0  0  0  0  0  0  0  0  0  0  0  # atno 10764 bound_to 10752
  154.8599  135.3686  154.5450 H   0  0  0  0  0  0  0  0  0  0  0  0  # atno 10765 bound_to 10752
  141.1659  133.7016  156.7797 H   0  0  0  0  0  0  0  0  0  0  0  0  # atno 11005 bound_to 11000
  146.3529  140.0892  142.8613 LP  0  0  0  0  0  0  0  0  0  0  0  0  # atno 17320 bound_to 7965
  145.0952  140.9310  143.4745 LP  0  0  0  0  0  0  0  0  0  0  0  0  # atno 17321 bound_to 7965
  140.7158  143.7271  150.7652 LP  0  0  0  0  0  0  0  0  0  0  0  0  # atno 17342 bound_to 10162
  140.0822  143.4958  152.2524 LP  0  0  0  0  0  0  0  0  0  0  0  0  # atno 17343 bound_to 10162
  157.7470  131.0003  150.2923 LP  0  0  0  0  0  0  0  0  0  0  0  0  # atno 17370 bound_to 10713
  156.3397  130.3813  149.7419 LP  0  0  0  0  0  0  0  0  0  0  0  0  # atno 17371 bound_to 10713
  140.2404  134.8618  157.3567 LP  0  0  0  0  0  0  0  0  0  0  0  0  # atno 17394 bound_to 11000
  140.1802  134.4499  155.7777 LP  0  0  0  0  0  0  0  0  0  0  0  0  # atno 17395 bound_to 11000

$$$$
