AV-unprocessed.smi:943|AV-procd|sdf|4229|dock3
  -GOLD-   22720 2133D 1   1.00000     0.00000
 Structure written by MMmdl.
 43 44  0  0  0  0  0  0  0  0  1 V2000
  150.9602  140.1757  156.5195 C   0  0  0  0  0  0  0  0  0  0  0  0
  150.6678  141.5461  155.8843 C   0  0  2  0  0  0  0  0  0  0  0  0
  150.3808  142.6081  156.9731 C   0  0  0  0  0  0  0  0  0  0  0  0
  151.5394  142.9235  157.9511 C   0  0  0  0  0  0  0  0  0  0  0  0
  151.7879  141.7883  158.9697 C   0  0  0  0  0  0  0  0  0  0  0  0
  152.9070  142.1436  159.9618 C   0  0  0  0  0  0  0  0  0  0  0  0
  152.6184  143.4654  160.6860 C   0  0  0  0  0  0  0  0  0  0  0  0
  152.3922  144.6012  159.6785 C   0  0  0  0  0  0  0  0  0  0  0  0
  151.2678  144.2502  158.6914 C   0  0  0  0  0  0  0  0  0  0  0  0
  149.5131  141.4273  154.8794 C   0  0  0  0  0  0  0  0  0  0  0  0
  149.7197  141.0100  153.7394 O   0  0  0  0  0  0  0  0  0  0  0  0
  148.2998  141.7847  155.3219 N   0  0  0  0  0  0  0  0  0  0  0  0
  147.0744  141.6937  154.5390 C   0  0  0  0  0  0  0  0  0  0  0  0
  145.8615  142.2116  155.3293 C   0  0  0  0  0  0  0  0  0  0  0  0
  145.1755  143.3745  154.6723 C   0  0  0  0  0  0  0  0  0  0  0  0
  144.1923  144.1660  155.2169 C   0  0  0  0  0  0  0  0  0  0  0  0
  143.6683  145.4113  154.1155 S   0  0  0  0  0  0  0  0  0  0  0  0
  144.8210  144.7935  152.9446 C   0  0  0  0  0  0  0  0  0  0  0  0
  145.5248  143.7437  153.3688 N   0  0  0  0  0  0  0  0  0  0  0  0
  151.1495  139.4168  155.7589 H   0  0  0  0  0  0  0  0  0  0  0  0
  150.1274  139.8307  157.1339 H   0  0  0  0  0  0  0  0  0  0  0  0
  151.8429  140.2226  157.1576 H   0  0  0  0  0  0  0  0  0  0  0  0
  151.5672  141.8398  155.3416 H   0  0  0  0  0  0  0  0  0  0  0  0
  150.0744  143.5341  156.4839 H   0  0  0  0  0  0  0  0  0  0  0  0
  149.5143  142.2869  157.5527 H   0  0  0  0  0  0  0  0  0  0  0  0
  152.4550  143.0627  157.3747 H   0  0  0  0  0  0  0  0  0  0  0  0
  150.8687  141.5761  159.5175 H   0  0  0  0  0  0  0  0  0  0  0  0
  152.0617  140.8675  158.4550 H   0  0  0  0  0  0  0  0  0  0  0  0
  153.0272  141.3404  160.6891 H   0  0  0  0  0  0  0  0  0  0  0  0
  153.8543  142.2224  159.4273 H   0  0  0  0  0  0  0  0  0  0  0  0
  151.7364  143.3531  161.3177 H   0  0  0  0  0  0  0  0  0  0  0  0
  153.4466  143.7149  161.3499 H   0  0  0  0  0  0  0  0  0  0  0  0
  152.1480  145.5230  160.2070 H   0  0  0  0  0  0  0  0  0  0  0  0
  153.3152  144.7938  159.1298 H   0  0  0  0  0  0  0  0  0  0  0  0
  151.1541  145.0617  157.9716 H   0  0  0  0  0  0  0  0  0  0  0  0
  150.3220  144.1840  159.2308 H   0  0  0  0  0  0  0  0  0  0  0  0
  148.2153  142.1132  156.2728 H   0  0  0  0  0  0  0  0  0  0  0  0
  147.1878  142.2622  153.6150 H   0  0  0  0  0  0  0  0  0  0  0  0
  146.9099  140.6526  154.2557 H   0  0  0  0  0  0  0  0  0  0  0  0
  145.1517  141.3946  155.4644 H   0  0  0  0  0  0  0  0  0  0  0  0
  146.1829  142.4890  156.3339 H   0  0  0  0  0  0  0  0  0  0  0  0
  143.7464  144.0925  156.1976 H   0  0  0  0  0  0  0  0  0  0  0  0
  144.9767  145.1978  151.9553 H   0  0  0  0  0  0  0  0  0  0  0  0
  1  2  1  0  0  0  0
  1 20  1  0  0  0  0
  1 21  1  0  0  0  0
  1 22  1  0  0  0  0
  2  3  1  0  0  0  0
  2 10  1  0  0  0  0
  2 23  1  0  0  0  0
  3  4  1  0  0  0  0
  3 24  1  0  0  0  0
  3 25  1  0  0  0  0
  4  9  1  0  0  0  0
  4  5  1  0  0  0  0
  4 26  1  0  0  0  0
  5  6  1  0  0  0  0
  5 27  1  0  0  0  0
  5 28  1  0  0  0  0
  6  7  1  0  0  0  0
  6 29  1  0  0  0  0
  6 30  1  0  0  0  0
  7  8  1  0  0  0  0
  7 31  1  0  0  0  0
  7 32  1  0  0  0  0
  8  9  1  0  0  0  0
  8 33  1  0  0  0  0
  8 34  1  0  0  0  0
  9 35  1  0  0  0  0
  9 36  1  0  0  0  0
 10 11  2  0  0  0  0
 10 12  1  0  0  0  0
 12 13  1  0  0  0  0
 12 37  1  0  0  0  0
 13 14  1  0  0  0  0
 13 38  1  0  0  0  0
 13 39  1  0  0  0  0
 14 15  1  0  0  0  0
 14 40  1  0  0  0  0
 14 41  1  0  0  0  0
 15 19  1  0  0  0  0
 15 16  2  0  0  0  0
 16 17  1  0  0  0  0
 16 42  1  0  0  0  0
 17 18  1  0  0  0  0
 18 19  2  0  0  0  0
 18 43  1  0  0  0  0
M  END
> <s_m_source_file>
AV-unprocessed.smi

> <i_m_source_file_index>
943

> <i_lp_mmshare_version>
43012

> <i_f3d_flags>
0

> <s_epik_input>
W0NIMl0xW0NIMl1bQ0gyXVtDSDJdW0NIMl1bQ0hdMVtDSDJdW0NAQEhdKFtDSDNdKUMoPU8pW05IXVtDSDJdW0NIMl1jMltjSF1zW2NIXW4y

> <s_epik_cmdline>
J2VwaWtfcHl0aG9uJywgJy1waCcsICc3LjAnLCAnLXRuJywgJzgnLCAnLW1hJywgJzIwMCcsICctbWV0YWxfYmluZGluZycsICctaW1hZScsICc8aW5maWxlLm1hZT4nLCAnLW9tYWUnLCAnPG91dGZpbGUubWFlPic=

> <r_lp_tautomer_probability>
1

> <r_epik_Ionization_Penalty>
0.000194757

> <r_epik_Ionization_Penalty_Charging>
0

> <r_epik_Ionization_Penalty_Neutral>
0.000194757

> <r_epik_State_Penalty>
-0

> <r_epik_Charging_Adjusted_Penalty>
0

> <i_epik_Tot_Q>
0

> <i_epik_Tot_abs_Q>
0

> <r_epik_Metal_State_Penalty>
-0

> <b_epik_Metal_Only>
0

> <s_lp_Force_Field>
OPLS_2005

> <r_lp_Energy>
6.00362

> <b_lp_Chiralities_Consistent>
1

> <s_lp_Variant>
AV-unprocessed.smi:943-1

> <Gold.Version>
5.8.1

> <Gold.Id.Protein>
6NUR|6NUR_protein|mol2

> <Gold.PLP.Fitness>
47.5289

> <Gold.PLP.PLP>
-45.8761

> <Gold.PLP.part.hbond>
-3.4449

> <Gold.PLP.part.metal>
0.0000

> <Gold.PLP.part.buried>
-3.9678

> <Gold.PLP.part.nonpolar>
-41.8526

> <Gold.PLP.part.repulsive>
2.8107

> <Gold.PLP.ligand.clash>
0.0000

> <Gold.PLP.ligand.torsion>
1.2439

> <Gold.PLP.Chemscore.Hbond>
1.3280

> <Gold.PLP.Chemscore.CHOScore>
0.0000

> <Gold.PLP.Chemscore.Metal>
0.0000

> <Gold.Chemscore.Hbonds>
donor molecule, donor type, donor heavy atom, donor atom, acceptor molecule, acceptor atom, score
      P1  H  7989  7998       L1    11  0.35
      P1  H  8011  8017       L1    11  0.94

> <Gold.PLP.Chemscore.Internal.Correction>
0.1565

> <Gold.Rescore>
     Score         DG    S(hbond)    S(metal)    S(lipo)     H(rot)  DE(clash)    DE(int)     intcor
     17.04     -19.68       1.03        0.00     126.38       1.58       1.31       1.33       ----

> <Gold.Chemscore.Fitness>
17.0379

> <Gold.Chemscore.DG>
-19.6785

> <Gold.Chemscore.ZeroCoef>
-5.4800

> <Gold.Chemscore.Hbond>
1.0342

> <Gold.Chemscore.Metal>
0.0000

> <Gold.Chemscore.Lipo>
126.3778

> <Gold.Chemscore.Internal_Hbond>
0.0000

> <Gold.Chemscore.DEClash>
1.3095

> <Gold.Chemscore.DEInternal>
1.3310

> <Gold.Chemscore.Rot>
1.5789

> <Gold.Chemscore.Internal.Correction>
   9.000000E+99

> <Gold.Chemscore.Hbonds>
donor molecule, donor type, donor heavy atom, donor atom, acceptor molecule, acceptor atom, score
      P1  H  7989  7998       L1    11  0.24
      P1  H  8011  8017       L1    11  0.80

> <Gold.Chemscore.Hbond.Weighted>
-3.4541

> <Gold.Chemscore.Metal.Weighted>
-0.0000

> <Gold.Chemscore.Lipo.Weighted>
-14.7862

> <Gold.Chemscore.Internal_Hbond.Weighted>
0.0000

> <Gold.Chemscore.DEClash.Weighted>
1.3095

> <Gold.Chemscore.DEInternal.Weighted>
1.3310

> <Gold.Chemscore.Rot.Weighted>
4.0419

> <Gold.Chemscore.Internal.Correction.Weighted>
   9.000000E+99

> <Gold.Protein.RotatedTorsions>
[ 6907 6896 6895 6894 ] final  -56.14 input  -60.11 | X-H torsion
[ 7974 7965 7964 7962 ] final -132.92 input  175.53 | X-H torsion
[ 8008 7997 7996 7995 ] final   66.96 input   59.86 | X-H torsion
[ 10167 10162 10161 10158 ] final  -61.43 input  -65.29 | X-H torsion
[ 10718 10713 10712 10709 ] final -134.14 input   66.30 | X-H torsion
[ 10763 10752 10751 10750 ] final  -28.51 input  -60.55 | X-H torsion
[ 11005 11000 10999 10996 ] final  -42.89 input  -57.11 | X-H torsion

> <Gold.Protein.ActiveResidues>
 VAL166  LYS551  ARG553  GLY616  TRP617  ASP618  TYR619  PRO620  LYS621  CYS622 
 ASP623  PHE694  ASN695  SER759  ASP760  ASP761  ALA762  ILE779  LEU786  VAL792 
 PHE793  MET794  SER795  GLU796  ALA797  LYS798  CYS799  TRP800  GLU811  SER814 

> <Gold.Protein.RotatedAtoms>
  150.8192  134.7390  159.6756 H   0  0  0  0  0  0  0  0  0  0  0  0  # atno 6907 bound_to 6896
  152.4309  134.5776  159.9949 H   0  0  0  0  0  0  0  0  0  0  0  0  # atno 6908 bound_to 6896
  151.5965  133.3323  159.3074 H   0  0  0  0  0  0  0  0  0  0  0  0  # atno 6909 bound_to 6896
  144.9241  140.7049  143.4947 H   0  0  0  0  0  0  0  0  0  0  0  0  # atno 7974 bound_to 7965
  155.6855  140.3496  155.4872 H   0  0  0  0  0  0  0  0  0  0  0  0  # atno 8008 bound_to 7997
  155.9570  140.1130  157.0951 H   0  0  0  0  0  0  0  0  0  0  0  0  # atno 8009 bound_to 7997
  154.4134  140.1183  156.5114 H   0  0  0  0  0  0  0  0  0  0  0  0  # atno 8010 bound_to 7997
  140.6006  143.2361  151.5936 H   0  0  0  0  0  0  0  0  0  0  0  0  # atno 10167 bound_to 10162
  156.2523  130.7160  151.1064 H   0  0  0  0  0  0  0  0  0  0  0  0  # atno 10718 bound_to 10713
  153.7495  135.6927  153.4949 H   0  0  0  0  0  0  0  0  0  0  0  0  # atno 10763 bound_to 10752
  153.2013  135.4435  155.0268 H   0  0  0  0  0  0  0  0  0  0  0  0  # atno 10764 bound_to 10752
  154.8192  135.3414  154.7016 H   0  0  0  0  0  0  0  0  0  0  0  0  # atno 10765 bound_to 10752
  141.0347  133.6805  156.2658 H   0  0  0  0  0  0  0  0  0  0  0  0  # atno 11005 bound_to 11000
  145.3248  139.1777  143.4568 LP  0  0  0  0  0  0  0  0  0  0  0  0  # atno 17320 bound_to 7965
  146.3218  140.3270  142.8637 LP  0  0  0  0  0  0  0  0  0  0  0  0  # atno 17321 bound_to 7965
  139.5289  144.2976  152.1100 LP  0  0  0  0  0  0  0  0  0  0  0  0  # atno 17342 bound_to 10162
  140.2156  144.4518  150.6365 LP  0  0  0  0  0  0  0  0  0  0  0  0  # atno 17343 bound_to 10162
  157.7219  131.0676  150.6099 LP  0  0  0  0  0  0  0  0  0  0  0  0  # atno 17370 bound_to 10713
  156.6180  130.4398  149.5833 LP  0  0  0  0  0  0  0  0  0  0  0  0  # atno 17371 bound_to 10713
  140.6344  134.5231  157.5563 LP  0  0  0  0  0  0  0  0  0  0  0  0  # atno 17394 bound_to 11000
  139.9232  134.8107  156.1147 LP  0  0  0  0  0  0  0  0  0  0  0  0  # atno 17395 bound_to 11000

$$$$
