#       Name:                AV-unprocessed.smi:102
#       Creating user name   scv26
#       Creation time:       Thu Mar 26 17:46:45 2020


#       File generated by GOLD software.
#

@<TRIPOS>MOLECULE
AV-unprocessed.smi:102
    56    57     1
SMALL
NO_CHARGES


@<TRIPOS>ATOM
      1 ****        -5.0478   2.6063   0.8276 C.3            1 S1                 0.0000
      2 ****        -4.7383   1.1479   0.5157 C.2            1 S1                 0.0000
      3 ****        -5.6344   0.3381   0.2774 O.2            1 S1                 0.0000
      4 ****        -3.4235   0.8846   0.5381 O.3            1 S1                 0.0000
      5 ****        -2.9675  -0.4327   0.2713 C.3            1 S1                 0.0000
      6 ****        -1.4344  -0.4796   0.2868 C.3            1 S1                 0.0000
      7 ****        -0.9360  -0.1565   1.5777 O.3            1 S1                 0.0000
      8 ****         0.3722   0.2933   1.4473 C.3            1 S1                 0.0000
      9 ****         1.3048  -0.9032   1.6306 N.am           1 S1                 0.0000
     10 ****         1.6142  -1.7855   0.5988 C.2            1 S1                 0.0000
     11 ****         2.3678  -2.8970   0.7674 C.2            1 S1                 0.0000
     12 ****         2.6228  -3.6914  -0.2862 F              1 S1                 0.0000
     13 ****         2.8832  -3.2536   2.0838 C.2            1 S1                 0.0000
     14 ****         3.5861  -4.2304   2.3350 O.2            1 S1                 0.0000
     15 ****         2.4979  -2.3821   3.1045 N.am           1 S1                 0.0000
     16 ****         1.7117  -1.2398   2.9445 C.2            1 S1                 0.0000
     17 ****         1.4061  -0.5747   3.9334 O.2            1 S1                 0.0000
     18 ****         0.4583   1.0335   0.0931 C.3            1 S1                 0.0000
     19 ****         1.7161   0.8913  -0.5634 O.3            1 S1                 0.0000
     20 ****         2.7562   1.6651  -0.2123 C.2            1 S1                 0.0000
     21 ****         4.0041   1.3629  -1.0304 C.3            1 S1                 0.0000
     22 ****         2.7554   2.5240   0.6693 O.2            1 S1                 0.0000
     23 ****        -0.7444   0.4888  -0.6911 C.3            1 S1                 0.0000
     24 ****        -0.3771  -0.2115  -1.8757 O.3            1 S1                 0.0000
     25 ****        -0.2809   0.4373  -3.0495 C.2            1 S1                 0.0000
     26 ****         0.1134  -0.4888  -4.1918 C.3            1 S1                 0.0000
     27 ****        -0.4684   1.6402  -3.2310 O.2            1 S1                 0.0000
     28 ****         2.8033  -2.6050   4.0407 H              1 S1                 0.0000
     29 ****        -4.2122   3.2478   0.5458 H              1 S1                 0.0000
     30 ****        -5.2367   2.7310   1.8940 H              1 S1                 0.0000
     31 ****        -5.9319   2.9320   0.2792 H              1 S1                 0.0000
     32 ****        -3.3700  -1.1208   1.0158 H              1 S1                 0.0000
     33 ****        -3.3340  -0.7556  -0.7042 H              1 S1                 0.0000
     34 ****        -1.1222  -1.5026   0.0737 H              1 S1                 0.0000
     35 ****         0.6125   0.9882   2.2527 H              1 S1                 0.0000
     36 ****         1.2435  -1.6052  -0.3960 H              1 S1                 0.0000
     37 ****         0.2606   2.0893   0.2859 H              1 S1                 0.0000
     38 ****         3.7689   1.3549  -2.0951 H              1 S1                 0.0000
     39 ****         4.4074   0.3880  -0.7558 H              1 S1                 0.0000
     40 ****         4.7705   2.1176  -0.8519 H              1 S1                 0.0000
     41 ****        -1.4151   1.3162  -0.9267 H              1 S1                 0.0000
     42 ****        -0.5602  -1.3451  -4.2358 H              1 S1                 0.0000
     43 ****         1.1305  -0.8540  -4.0478 H              1 S1                 0.0000
     44 ****         0.0659   0.0373  -5.1457 H              1 S1                 0.0000
     45 ****        -6.5899   0.6328   0.2860 LP             1 S1                 0.0000
     46 ****        -5.4067  -0.6144   0.0752 LP             1 S1                 0.0000
     47 ****        -0.9564  -0.9692   2.1600 LP             1 S1                 0.0000
     48 ****        -1.4998   0.5609   1.9868 LP             1 S1                 0.0000
     49 ****         3.8493  -4.8586   1.6028 LP             1 S1                 0.0000
     50 ****         3.8947  -4.3968   3.2715 LP             1 S1                 0.0000
     51 ****         0.8448   0.2463   3.8298 LP             1 S1                 0.0000
     52 ****         1.7191  -0.8552   4.8408 LP             1 S1                 0.0000
     53 ****         1.9250   2.6958   1.1992 LP             1 S1                 0.0000
     54 ****         3.5853   3.0500   0.8557 LP             1 S1                 0.0000
     55 ****        -0.7175   2.2290  -2.4621 LP             1 S1                 0.0000
     56 ****        -0.3716   2.0286  -4.1474 LP             1 S1                 0.0000
@<TRIPOS>BOND
    1    1    2 1     
    2    1   29 1     
    3    1   30 1     
    4    1   31 1     
    5    2    3 2     
    6    2    4 1     
    7    4    5 1     
    8    5    6 1     
    9    5   32 1     
   10    5   33 1     
   11    6   23 1     
   12    6    7 1     
   13    6   34 1     
   14    7    8 1     
   15    8    9 1     
   16    8   18 1     
   17    8   35 1     
   18    9   16 1     
   19    9   10 1     
   20   10   11 2     
   21   10   36 1     
   22   11   12 1     
   23   11   13 1     
   24   13   14 2     
   25   13   15 1     
   26   15   28 1     
   27   15   16 1     
   28   16   17 2     
   29   18   19 1     
   30   18   23 1     
   31   18   37 1     
   32   19   20 1     
   33   20   21 1     
   34   20   22 2     
   35   21   38 1     
   36   21   39 1     
   37   21   40 1     
   38   23   24 1     
   39   23   41 1     
   40   24   25 1     
   41   25   26 1     
   42   25   27 2     
   43   26   42 1     
   44   26   43 1     
   45   26   44 1     
   46    3   45 1     
   47    3   46 1     
   48    7   47 1     
   49    7   48 1     
   50   14   49 1     
   51   14   50 1     
   52   17   51 1     
   53   17   52 1     
   54   22   53 1     
   55   22   54 1     
   56   27   55 1     
   57   27   56 1     
@<TRIPOS>SUBSTRUCTURE
      1 S1             1
@<TRIPOS>SET
LONE_PAIRS      STATIC     ATOMS    <user>   **** ""
12 45 46 47 48 49 50 51 52 53 54 55 56
DONOR_HYDROGENS      STATIC     ATOMS    <user>   **** ""
1 28
ATOM$BLUE        STATIC     ATOMS    COLORGROUP SYSTEM
12 45 46 47 48 49 50 51 52 53 54 55 56
ATOM$RED        STATIC     ATOMS    COLORGROUP SYSTEM
1 28
