AV-unprocessed.smi:2973|AV-procd|sdf|11352|dock7
  -GOLD-   2272016273D 1   1.00000     0.00000
 Structure written by MMmdl.
 49 51  0  0  0  0  0  0  0  0  3 V2000
  150.5062  140.1472  154.9316 C   0  0  0  0  0  0  0  0  0  0  0  0
  151.2598  140.8481  156.0836 C   0  0  1  0  0  0  0  0  0  0  0  0
  150.4020  142.0032  156.6481 C   0  0  0  0  0  0  0  0  0  0  0  0
  151.1394  142.7832  157.7462 C   0  0  0  0  0  0  0  0  0  0  0  0
  151.5870  141.8546  158.8818 C   0  0  0  0  0  0  0  0  0  0  0  0
  152.4542  140.7038  158.3428 C   0  0  0  0  0  0  0  0  0  0  0  0
  151.7687  139.8894  157.2123 C   0  0  2  0  0  0  0  0  0  0  0  0
  152.7345  138.9450  156.6767 N   0  5  0  0  0  0  0  0  0  0  0  0
  152.2946  137.6853  156.9006 C   0  0  0  0  0  0  0  0  0  0  0  0
  152.8689  136.6403  156.5959 O   0  0  0  0  0  0  0  0  0  0  0  0
  151.1025  137.6932  157.5255 N   0  0  0  0  0  0  0  0  0  0  0  0
  150.3590  136.4920  157.9278 C   0  0  0  0  0  0  0  0  0  0  0  0
  149.2163  136.1445  156.9640 C   0  0  0  0  0  0  0  0  0  0  0  0
  148.0993  136.6470  157.0969 O   0  0  0  0  0  0  0  0  0  0  0  0
  149.5194  135.2862  155.9789 N   0  0  0  0  0  0  0  0  0  0  0  0
  148.5847  134.8151  154.9643 C   0  0  0  0  0  0  0  0  0  0  0  0
  149.1195  133.5692  154.2379 C   0  0  0  0  0  0  0  0  0  0  0  0
  148.0739  132.9343  153.3424 C   0  0  0  0  0  0  0  0  0  0  0  0
  147.6251  131.6096  153.5348 C   0  0  0  0  0  0  0  0  0  0  0  0
  146.6443  131.0814  152.6691 C   0  0  0  0  0  0  0  0  0  0  0  0
  146.1326  131.8887  151.6318 C   0  0  0  0  0  0  0  0  0  0  0  0
  146.6150  133.2055  151.4866 C   0  0  0  0  0  0  0  0  0  0  0  0
  147.5553  133.6750  152.3360 N   0  3  0  0  0  0  0  0  0  0  0  0
  150.7008  138.9464  157.7643 C   0  0  0  0  0  0  0  0  0  0  0  0
  149.6627  139.2994  158.3257 O   0  0  0  0  0  0  0  0  0  0  0  0
  149.5709  139.7010  155.2701 H   0  0  0  0  0  0  0  0  0  0  0  0
  151.1070  139.3590  154.4779 H   0  0  0  0  0  0  0  0  0  0  0  0
  150.2601  140.8566  154.1414 H   0  0  0  0  0  0  0  0  0  0  0  0
  152.1428  141.3075  155.6351 H   0  0  0  0  0  0  0  0  0  0  0  0
  150.1332  142.6893  155.8444 H   0  0  0  0  0  0  0  0  0  0  0  0
  149.4608  141.6192  157.0422 H   0  0  0  0  0  0  0  0  0  0  0  0
  152.0094  143.2824  157.3177 H   0  0  0  0  0  0  0  0  0  0  0  0
  150.4946  143.5687  158.1411 H   0  0  0  0  0  0  0  0  0  0  0  0
  152.1512  142.4232  159.6214 H   0  0  0  0  0  0  0  0  0  0  0  0
  150.7149  141.4613  159.4037 H   0  0  0  0  0  0  0  0  0  0  0  0
  153.3907  141.1226  157.9702 H   0  0  0  0  0  0  0  0  0  0  0  0
  152.7323  140.0487  159.1703 H   0  0  0  0  0  0  0  0  0  0  0  0
  151.0281  135.6326  157.9917 H   0  0  0  0  0  0  0  0  0  0  0  0
  149.9606  136.6305  158.9346 H   0  0  0  0  0  0  0  0  0  0  0  0
  150.4623  134.9269  155.9386 H   0  0  0  0  0  0  0  0  0  0  0  0
  147.6155  134.6062  155.4203 H   0  0  0  0  0  0  0  0  0  0  0  0
  148.4254  135.6247  154.2517 H   0  0  0  0  0  0  0  0  0  0  0  0
  149.9900  133.8318  153.6351 H   0  0  0  0  0  0  0  0  0  0  0  0
  149.4611  132.8268  154.9607 H   0  0  0  0  0  0  0  0  0  0  0  0
  148.0257  131.0050  154.3359 H   0  0  0  0  0  0  0  0  0  0  0  0
  146.2883  130.0699  152.8000 H   0  0  0  0  0  0  0  0  0  0  0  0
  145.3815  131.5036  150.9579 H   0  0  0  0  0  0  0  0  0  0  0  0
  146.2805  133.8922  150.7227 H   0  0  0  0  0  0  0  0  0  0  0  0
  147.8894  134.6309  152.2116 H   0  0  0  0  0  0  0  0  0  0  0  0
  1  2  1  0  0  0  0
  1 26  1  0  0  0  0
  1 27  1  0  0  0  0
  1 28  1  0  0  0  0
  2  7  1  0  0  0  0
  2  3  1  0  0  0  0
  2 29  1  0  0  0  0
  3  4  1  0  0  0  0
  3 30  1  0  0  0  0
  3 31  1  0  0  0  0
  4  5  1  0  0  0  0
  4 32  1  0  0  0  0
  4 33  1  0  0  0  0
  5  6  1  0  0  0  0
  5 34  1  0  0  0  0
  5 35  1  0  0  0  0
  6  7  1  0  0  0  0
  6 36  1  0  0  0  0
  6 37  1  0  0  0  0
  7 24  1  0  0  0  0
  7  8  1  0  0  0  0
  8  9  1  0  0  0  0
  9 10  2  0  0  0  0
  9 11  1  0  0  0  0
 11 12  1  0  0  0  0
 11 24  1  0  0  0  0
 12 13  1  0  0  0  0
 12 38  1  0  0  0  0
 12 39  1  0  0  0  0
 13 14  2  0  0  0  0
 13 15  1  0  0  0  0
 15 16  1  0  0  0  0
 15 40  1  0  0  0  0
 16 17  1  0  0  0  0
 16 41  1  0  0  0  0
 16 42  1  0  0  0  0
 17 18  1  0  0  0  0
 17 43  1  0  0  0  0
 17 44  1  0  0  0  0
 18 23  1  0  0  0  0
 18 19  2  0  0  0  0
 19 20  1  0  0  0  0
 19 45  1  0  0  0  0
 20 21  2  0  0  0  0
 20 46  1  0  0  0  0
 21 22  1  0  0  0  0
 21 47  1  0  0  0  0
 22 23  2  0  0  0  0
 22 48  1  0  0  0  0
 23 49  1  0  0  0  0
 24 25  2  0  0  0  0
M  CHG  1   8  -1
M  CHG  1  23   1
M  END
> <s_m_source_file>
AV-unprocessed.smi

> <i_m_source_file_index>
2973

> <i_lp_mmshare_version>
43012

> <i_f3d_flags>
0

> <s_epik_input>
W0NIMl0xW0NIMl1bQ0gyXVtDSDJdW0NAQEhdKFtDSDNdKVtDQF0xMltOSF1DKD1PKU4oQzI9TylbQ0gyXUMoPU8pW05IXVtDSDJdW0NIMl1jM1tjSF1bY0hdW2NIXVtjSF1uMw==

> <s_epik_cmdline>
J2VwaWtfcHl0aG9uJywgJy1waCcsICc3LjAnLCAnLXRuJywgJzgnLCAnLW1hJywgJzIwMCcsICctbWV0YWxfYmluZGluZycsICctaW1hZScsICc8aW5maWxlLm1hZT4nLCAnLW9tYWUnLCAnPG91dGZpbGUubWFlPic=

> <r_lp_tautomer_probability>
1

> <r_epik_Ionization_Penalty>
7.89073

> <r_epik_Ionization_Penalty_Charging>
7.89073

> <r_epik_Ionization_Penalty_Neutral>
1.56557e-07

> <r_epik_State_Penalty>
8.01193

> <r_epik_Charging_Adjusted_Penalty>
15.9027

> <i_epik_Tot_Q>
0

> <i_epik_Tot_abs_Q>
2

> <r_epik_Metal_State_Penalty>
3.98737

> <b_epik_Metal_Only>
1

> <s_lp_Force_Field>
OPLS_2005

> <r_lp_Energy>
17.432

> <b_lp_Chiralities_Consistent>
1

> <s_lp_Variant>
AV-unprocessed.smi:2973-16

> <Gold.Version>
5.8.1

> <Gold.Id.Protein>
6NUR|6NUR_protein|mol2

> <Gold.PLP.Fitness>
48.4990

> <Gold.PLP.PLP>
-35.0398

> <Gold.PLP.part.hbond>
-3.0000

> <Gold.PLP.part.metal>
0.0000

> <Gold.PLP.part.buried>
-1.0121

> <Gold.PLP.part.nonpolar>
-30.4792

> <Gold.PLP.part.repulsive>
0.0680

> <Gold.PLP.ligand.clash>
0.0000

> <Gold.PLP.ligand.torsion>
0.7695

> <Gold.PLP.Chemscore.Hbond>
4.9920

> <Gold.PLP.Chemscore.CHOScore>
0.0000

> <Gold.PLP.Chemscore.Metal>
0.0000

> <Gold.Chemscore.Hbonds>
donor molecule, donor type, donor heavy atom, donor atom, acceptor molecule, acceptor atom, score
      L1  H    23    49       P1  7948  2.00
      P1  H  7997  8010       L1     8  2.00
      P1  H 10752 10763       L1    10  1.00

> <Gold.PLP.Chemscore.Internal.Correction>
0.0223

> <Gold.Rescore>
     Score         DG    S(hbond)    S(metal)    S(lipo)     H(rot)  DE(clash)    DE(int)     intcor
     18.69     -19.62       2.51        0.00      91.16       1.92       0.16       0.77       ----

> <Gold.Chemscore.Fitness>
18.6854

> <Gold.Chemscore.DG>
-19.6167

> <Gold.Chemscore.ZeroCoef>
-5.4800

> <Gold.Chemscore.Hbond>
2.5090

> <Gold.Chemscore.Metal>
0.0000

> <Gold.Chemscore.Lipo>
91.1560

> <Gold.Chemscore.Internal_Hbond>
0.0000

> <Gold.Chemscore.DEClash>
0.1627

> <Gold.Chemscore.DEInternal>
0.7686

> <Gold.Chemscore.Rot>
1.9175

> <Gold.Chemscore.Internal.Correction>
   9.000000E+99

> <Gold.Chemscore.Hbonds>
donor molecule, donor type, donor heavy atom, donor atom, acceptor molecule, acceptor atom, score
      L1  H    23    49       P1  7948  0.45
      P1  H  7997  8010       L1     8  0.33
      P1  H 10752 10763       L1    10  0.95

> <Gold.Chemscore.Hbond.Weighted>
-8.3802

> <Gold.Chemscore.Metal.Weighted>
-0.0000

> <Gold.Chemscore.Lipo.Weighted>
-10.6653

> <Gold.Chemscore.Internal_Hbond.Weighted>
0.0000

> <Gold.Chemscore.DEClash.Weighted>
0.1627

> <Gold.Chemscore.DEInternal.Weighted>
0.7686

> <Gold.Chemscore.Rot.Weighted>
4.9087

> <Gold.Chemscore.Internal.Correction.Weighted>
   9.000000E+99

> <Gold.Protein.RotatedTorsions>
[ 6907 6896 6895 6894 ] final  -86.88 input  -60.11 | X-H torsion
[ 7974 7965 7964 7962 ] final   32.91 input  175.53 | X-H torsion
[ 8008 7997 7996 7995 ] final   76.01 input   59.86 | X-H torsion
[ 10167 10162 10161 10158 ] final  -30.84 input  -65.29 | X-H torsion
[ 10718 10713 10712 10709 ] final  150.20 input   66.30 | X-H torsion
[ 10763 10752 10751 10750 ] final  110.72 input  -60.55 | X-H torsion
[ 11005 11000 10999 10996 ] final  -15.66 input  -57.11 | X-H torsion

> <Gold.Protein.ActiveResidues>
 VAL166  LYS551  ARG553  GLY616  TRP617  ASP618  TYR619  PRO620  LYS621  CYS622 
 ASP623  PHE694  ASN695  SER759  ASP760  ASP761  ALA762  ILE779  LEU786  VAL792 
 PHE793  MET794  SER795  GLU796  ALA797  LYS798  CYS799  TRP800  GLU811  SER814 

> <Gold.Protein.RotatedAtoms>
  150.6866  134.2981  159.4694 H   0  0  0  0  0  0  0  0  0  0  0  0  # atno 6907 bound_to 6896
  152.0880  134.9424  160.0581 H   0  0  0  0  0  0  0  0  0  0  0  0  # atno 6908 bound_to 6896
  152.0751  133.4090  159.4513 H   0  0  0  0  0  0  0  0  0  0  0  0  # atno 6909 bound_to 6896
  146.1456  139.6465  142.9134 H   0  0  0  0  0  0  0  0  0  0  0  0  # atno 7974 bound_to 7965
  155.8211  140.3470  155.5515 H   0  0  0  0  0  0  0  0  0  0  0  0  # atno 8008 bound_to 7997
  155.8341  140.0931  157.1795 H   0  0  0  0  0  0  0  0  0  0  0  0  # atno 8009 bound_to 7997
  154.4004  140.1407  156.3636 H   0  0  0  0  0  0  0  0  0  0  0  0  # atno 8010 bound_to 7997
  140.7244  143.3817  151.1589 H   0  0  0  0  0  0  0  0  0  0  0  0  # atno 10167 bound_to 10162
  157.2865  131.0845  151.1493 H   0  0  0  0  0  0  0  0  0  0  0  0  # atno 10718 bound_to 10713
  153.4531  135.3739  155.2295 H   0  0  0  0  0  0  0  0  0  0  0  0  # atno 10763 bound_to 10752
  154.8756  135.3890  154.4015 H   0  0  0  0  0  0  0  0  0  0  0  0  # atno 10764 bound_to 10752
  153.4577  135.7086  153.6133 H   0  0  0  0  0  0  0  0  0  0  0  0  # atno 10765 bound_to 10752
  140.7989  133.8229  155.9451 H   0  0  0  0  0  0  0  0  0  0  0  0  # atno 11005 bound_to 11000
  145.4946  141.0438  143.2574 LP  0  0  0  0  0  0  0  0  0  0  0  0  # atno 17320 bound_to 7965
  144.7842  139.6462  143.7141 LP  0  0  0  0  0  0  0  0  0  0  0  0  # atno 17321 bound_to 7965
  139.7407  143.8929  152.3049 LP  0  0  0  0  0  0  0  0  0  0  0  0  # atno 17342 bound_to 10162
  139.8749  144.7048  150.8944 LP  0  0  0  0  0  0  0  0  0  0  0  0  # atno 17343 bound_to 10162
  157.2907  130.6794  149.6112 LP  0  0  0  0  0  0  0  0  0  0  0  0  # atno 17370 bound_to 10713
  155.9666  130.4422  150.5370 LP  0  0  0  0  0  0  0  0  0  0  0  0  # atno 17371 bound_to 10713
  140.9315  134.2016  157.4861 LP  0  0  0  0  0  0  0  0  0  0  0  0  # atno 17394 bound_to 11000
  139.8723  134.9834  156.5198 LP  0  0  0  0  0  0  0  0  0  0  0  0  # atno 17395 bound_to 11000

$$$$
