AV-unprocessed.smi:243|AV-procd|sdf|1863|dock9
  -GOLD-   2262020503D 1   1.00000     0.00000
 Structure written by MMmdl.
 58 61  0  0  0  0  0  0  0  0  2 V2000
  152.2699  145.0531  159.5456 C   0  0  0  0  0  0  0  0  0  0  0  0
  151.1134  145.2788  158.5608 C   0  0  0  0  0  0  0  0  0  0  0  0
  150.6283  144.0133  157.9554 N   0  3  1  0  0  0  0  0  0  0  0  0
  151.6064  143.4349  157.0009 C   0  0  0  0  0  0  0  0  0  0  0  0
  151.0320  142.2019  156.2837 C   0  0  0  0  0  0  0  0  0  0  0  0
  150.5639  141.1306  157.2933 C   0  0  2  0  0  0  0  0  0  0  0  0
  150.0504  139.9196  156.6313 N   0  0  0  0  0  0  0  0  0  0  0  0
  150.5136  139.6404  155.2753 C   0  0  0  0  0  0  0  0  0  0  0  0
  150.0588  138.7815  157.3643 C   0  0  0  0  0  0  0  0  0  0  0  0
  151.2600  138.1846  157.5630 N   0  0  0  0  0  0  0  0  0  0  0  0
  151.3357  137.0529  158.2692 C   0  0  0  0  0  0  0  0  0  0  0  0
  150.3521  136.3678  158.8561 N   0  0  0  0  0  0  0  0  0  0  0  0
  149.1446  136.9744  158.6712 C   0  0  0  0  0  0  0  0  0  0  0  0
  148.9091  138.1791  157.9512 C   0  0  0  0  0  0  0  0  0  0  0  0
  147.5567  138.4974  157.9911 N   0  0  0  0  0  0  0  0  0  0  0  0
  147.0223  137.5312  158.6864 C   0  0  0  0  0  0  0  0  0  0  0  0
  147.9018  136.5661  159.1225 N   0  0  0  0  0  0  0  0  0  0  0  0
  147.5806  135.3787  159.8986 C   0  0  0  0  0  0  0  0  0  0  0  0
  146.9297  135.6978  161.2648 C   0  0  2  0  0  0  0  0  0  0  0  0
  145.6522  136.2720  161.0489 O   0  0  0  0  0  0  0  0  0  0  0  0
  147.7460  136.6499  162.1360 C   0  0  0  0  0  0  0  0  0  0  0  0
  147.4482  136.1627  163.5469 C   0  0  0  0  0  0  0  0  0  0  0  0
  147.4283  134.7553  163.3857 O   0  0  0  0  0  0  0  0  0  0  0  0
  146.7629  134.4555  162.1634 C   0  0  0  0  0  0  0  0  0  0  0  0
  149.5571  141.7760  158.2908 C   0  0  2  0  0  0  0  0  0  0  0  0
  148.1870  142.1303  157.6750 C   0  0  0  0  0  0  0  0  0  0  0  0
  150.1945  143.0085  158.9618 C   0  0  0  0  0  0  0  0  0  0  0  0
  152.5381  145.9861  160.0418 H   0  0  0  0  0  0  0  0  0  0  0  0
  153.1669  144.6839  159.0496 H   0  0  0  0  0  0  0  0  0  0  0  0
  151.9935  144.3367  160.3197 H   0  0  0  0  0  0  0  0  0  0  0  0
  150.2977  145.7484  159.1122 H   0  0  0  0  0  0  0  0  0  0  0  0
  151.4024  145.9826  157.7792 H   0  0  0  0  0  0  0  0  0  0  0  0
  151.8821  144.1829  156.2563 H   0  0  0  0  0  0  0  0  0  0  0  0
  152.5200  143.1672  157.5344 H   0  0  0  0  0  0  0  0  0  0  0  0
  150.2093  142.4979  155.6324 H   0  0  0  0  0  0  0  0  0  0  0  0
  151.8073  141.8012  155.6310 H   0  0  0  0  0  0  0  0  0  0  0  0
  151.4478  140.8343  157.8579 H   0  0  0  0  0  0  0  0  0  0  0  0
  150.2829  138.6205  154.9622 H   0  0  0  0  0  0  0  0  0  0  0  0
  151.5926  139.7812  155.2006 H   0  0  0  0  0  0  0  0  0  0  0  0
  150.0294  140.3114  154.5660 H   0  0  0  0  0  0  0  0  0  0  0  0
  152.3257  136.6351  158.3775 H   0  0  0  0  0  0  0  0  0  0  0  0
  145.9633  137.4926  158.8962 H   0  0  0  0  0  0  0  0  0  0  0  0
  146.9218  134.7439  159.3046 H   0  0  0  0  0  0  0  0  0  0  0  0
  148.5006  134.8109  160.0450 H   0  0  0  0  0  0  0  0  0  0  0  0
  145.7089  136.8641  160.3147 H   0  0  0  0  0  0  0  0  0  0  0  0
  148.8114  136.5195  161.9415 H   0  0  0  0  0  0  0  0  0  0  0  0
  147.5073  137.7035  161.9842 H   0  0  0  0  0  0  0  0  0  0  0  0
  148.2011  136.4758  164.2704 H   0  0  0  0  0  0  0  0  0  0  0  0
  146.4714  136.5102  163.8873 H   0  0  0  0  0  0  0  0  0  0  0  0
  145.7136  134.2354  162.3681 H   0  0  0  0  0  0  0  0  0  0  0  0
  147.2036  133.5597  161.7246 H   0  0  0  0  0  0  0  0  0  0  0  0
  149.3612  141.0650  159.0938 H   0  0  0  0  0  0  0  0  0  0  0  0
  148.2716  142.8734  156.8827 H   0  0  0  0  0  0  0  0  0  0  0  0
  147.5170  142.5381  158.4324 H   0  0  0  0  0  0  0  0  0  0  0  0
  147.6935  141.2558  157.2528 H   0  0  0  0  0  0  0  0  0  0  0  0
  151.0555  142.7022  159.5581 H   0  0  0  0  0  0  0  0  0  0  0  0
  149.4790  143.4466  159.6568 H   0  0  0  0  0  0  0  0  0  0  0  0
  149.8127  144.2533  157.4100 H   0  0  0  0  0  0  0  0  0  0  0  0
  1  2  1  0  0  0  0
  1 28  1  0  0  0  0
  1 29  1  0  0  0  0
  1 30  1  0  0  0  0
  2  3  1  0  0  0  0
  2 31  1  0  0  0  0
  2 32  1  0  0  0  0
  3 27  1  0  0  0  0
  3  4  1  0  0  0  0
  3 58  1  0  0  0  0
  4  5  1  0  0  0  0
  4 33  1  0  0  0  0
  4 34  1  0  0  0  0
  5  6  1  0  0  0  0
  5 35  1  0  0  0  0
  5 36  1  0  0  0  0
  6  7  1  0  0  0  0
  6 25  1  0  0  0  0
  6 37  1  0  0  0  0
  7  8  1  0  0  0  0
  7  9  1  0  0  0  0
  8 38  1  0  0  0  0
  8 39  1  0  0  0  0
  8 40  1  0  0  0  0
  9 14  1  0  0  0  0
  9 10  2  0  0  0  0
 10 11  1  0  0  0  0
 11 12  2  0  0  0  0
 11 41  1  0  0  0  0
 12 13  1  0  0  0  0
 13 17  1  0  0  0  0
 13 14  2  0  0  0  0
 14 15  1  0  0  0  0
 15 16  2  0  0  0  0
 16 17  1  0  0  0  0
 16 42  1  0  0  0  0
 17 18  1  0  0  0  0
 18 19  1  0  0  0  0
 18 43  1  0  0  0  0
 18 44  1  0  0  0  0
 19 24  1  0  0  0  0
 19 20  1  0  0  0  0
 19 21  1  0  0  0  0
 20 45  1  0  0  0  0
 21 22  1  0  0  0  0
 21 46  1  0  0  0  0
 21 47  1  0  0  0  0
 22 23  1  0  0  0  0
 22 48  1  0  0  0  0
 22 49  1  0  0  0  0
 23 24  1  0  0  0  0
 24 50  1  0  0  0  0
 24 51  1  0  0  0  0
 25 26  1  0  0  0  0
 25 27  1  0  0  0  0
 25 52  1  0  0  0  0
 26 53  1  0  0  0  0
 26 54  1  0  0  0  0
 26 55  1  0  0  0  0
 27 56  1  0  0  0  0
 27 57  1  0  0  0  0
M  CHG  1   3   1
M  END
> <s_m_source_file>
AV-unprocessed.smi

> <i_m_source_file_index>
243

> <i_lp_mmshare_version>
43012

> <i_f3d_flags>
0

> <s_epik_input>
W0NIM11bQ0gyXU4xW0NIMl1bQ0gyXVtDQEhdKFtDQEBIXShbQ0gzXSlbQ0gyXTEpTihbQ0gzXSljKG5bY0hdbjIpYyhjMjMpbltjSF1uM1tDSDJdW0NAQF00KFtPSF0pW0NIMl1bQ0gyXU9bQ0gyXTQ=

> <s_epik_cmdline>
J2VwaWtfcHl0aG9uJywgJy1waCcsICc3LjAnLCAnLXRuJywgJzgnLCAnLW1hJywgJzIwMCcsICctbWV0YWxfYmluZGluZycsICctaW1hZScsICc8aW5maWxlLm1hZT4nLCAnLW9tYWUnLCAnPG91dGZpbGUubWFlPic=

> <r_lp_tautomer_probability>
1

> <r_epik_Ionization_Penalty>
0.00253099

> <r_epik_Ionization_Penalty_Charging>
0.00137877

> <r_epik_Ionization_Penalty_Neutral>
0.00115221

> <r_epik_State_Penalty>
-0

> <r_epik_Charging_Adjusted_Penalty>
0.00137877

> <i_epik_Tot_Q>
1

> <i_epik_Tot_abs_Q>
1

> <r_epik_Metal_State_Penalty>
-0

> <b_epik_Metal_Only>
0

> <s_lp_Force_Field>
OPLS_2005

> <r_lp_Energy>
46.6392

> <b_lp_Chiralities_Consistent>
1

> <s_lp_Variant>
AV-unprocessed.smi:243-16

> <Gold.Version>
5.8.1

> <Gold.Id.Protein>
6NUR|6NUR_protein|mol2

> <Gold.PLP.Fitness>
48.6399

> <Gold.PLP.PLP>
-40.9562

> <Gold.PLP.part.hbond>
-3.4933

> <Gold.PLP.part.metal>
0.0000

> <Gold.PLP.part.buried>
-5.3527

> <Gold.PLP.part.nonpolar>
-30.8504

> <Gold.PLP.part.repulsive>
0.0605

> <Gold.PLP.ligand.clash>
0.0000

> <Gold.PLP.ligand.torsion>
0.8839

> <Gold.PLP.Chemscore.Hbond>
2.9920

> <Gold.PLP.Chemscore.CHOScore>
0.0000

> <Gold.PLP.Chemscore.Metal>
0.0000

> <Gold.Chemscore.Hbonds>
donor molecule, donor type, donor heavy atom, donor atom, acceptor molecule, acceptor atom, score
      L1  H     3    58       P1  8028  2.00
      P1  H  6896  6907       L1    12  0.99

> <Gold.PLP.Chemscore.Internal.Correction>
0.4756

> <Gold.Rescore>
     Score         DG    S(hbond)    S(metal)    S(lipo)     H(rot)  DE(clash)    DE(int)     intcor
     14.83     -17.70       1.78        0.00     108.92       2.53       1.79       1.09       ----

> <Gold.Chemscore.Fitness>
14.8250

> <Gold.Chemscore.DG>
-17.7024

> <Gold.Chemscore.ZeroCoef>
-5.4800

> <Gold.Chemscore.Hbond>
1.7833

> <Gold.Chemscore.Metal>
0.0000

> <Gold.Chemscore.Lipo>
108.9249

> <Gold.Chemscore.Internal_Hbond>
0.0000

> <Gold.Chemscore.DEClash>
1.7911

> <Gold.Chemscore.DEInternal>
1.0863

> <Gold.Chemscore.Rot>
2.5305

> <Gold.Chemscore.Internal.Correction>
   9.000000E+99

> <Gold.Chemscore.Hbonds>
donor molecule, donor type, donor heavy atom, donor atom, acceptor molecule, acceptor atom, score
      L1  H     3    58       P1  8028  0.32
      P1  H  6896  6907       L1    12  0.89

> <Gold.Chemscore.Hbond.Weighted>
-5.9561

> <Gold.Chemscore.Metal.Weighted>
-0.0000

> <Gold.Chemscore.Lipo.Weighted>
-12.7442

> <Gold.Chemscore.Internal_Hbond.Weighted>
0.0000

> <Gold.Chemscore.DEClash.Weighted>
1.7911

> <Gold.Chemscore.DEInternal.Weighted>
1.0863

> <Gold.Chemscore.Rot.Weighted>
6.4780

> <Gold.Chemscore.Internal.Correction.Weighted>
   9.000000E+99

> <Gold.Protein.RotatedTorsions>
[ 6907 6896 6895 6894 ] final  -54.96 input  -60.11 | X-H torsion
[ 7974 7965 7964 7962 ] final  -23.75 input  175.53 | X-H torsion
[ 8008 7997 7996 7995 ] final -160.25 input   59.86 | X-H torsion
[ 10167 10162 10161 10158 ] final  147.74 input  -65.29 | X-H torsion
[ 10718 10713 10712 10709 ] final -144.80 input   66.30 | X-H torsion
[ 10763 10752 10751 10750 ] final -125.66 input  -60.55 | X-H torsion
[ 11005 11000 10999 10996 ] final   67.89 input  -57.11 | X-H torsion

> <Gold.Protein.ActiveResidues>
 VAL166  LYS551  ARG553  GLY616  TRP617  ASP618  TYR619  PRO620  LYS621  CYS622 
 ASP623  PHE694  ASN695  SER759  ASP760  ASP761  ALA762  ILE779  LEU786  VAL792 
 PHE793  MET794  SER795  GLU796  ALA797  LYS798  CYS799  TRP800  GLU811  SER814 

> <Gold.Protein.RotatedAtoms>
  150.8293  134.7539  159.6839 H   0  0  0  0  0  0  0  0  0  0  0  0  # atno 6907 bound_to 6896
  152.4400  134.5607  159.9903 H   0  0  0  0  0  0  0  0  0  0  0  0  # atno 6908 bound_to 6896
  151.5772  133.3344  159.3037 H   0  0  0  0  0  0  0  0  0  0  0  0  # atno 6909 bound_to 6896
  146.1597  140.4659  142.8576 H   0  0  0  0  0  0  0  0  0  0  0  0  # atno 7974 bound_to 7965
  155.7747  140.0857  157.2090 H   0  0  0  0  0  0  0  0  0  0  0  0  # atno 8008 bound_to 7997
  154.3994  140.1519  156.3039 H   0  0  0  0  0  0  0  0  0  0  0  0  # atno 8009 bound_to 7997
  155.8713  140.3425  155.5826 H   0  0  0  0  0  0  0  0  0  0  0  0  # atno 8010 bound_to 7997
  139.4885  144.5732  151.7015 H   0  0  0  0  0  0  0  0  0  0  0  0  # atno 10167 bound_to 10162
  156.3746  130.7805  151.1990 H   0  0  0  0  0  0  0  0  0  0  0  0  # atno 10718 bound_to 10713
  154.8738  135.4022  154.3304 H   0  0  0  0  0  0  0  0  0  0  0  0  # atno 10763 bound_to 10752
  153.4119  135.7021  153.6359 H   0  0  0  0  0  0  0  0  0  0  0  0  # atno 10764 bound_to 10752
  153.5058  135.3718  155.2533 H   0  0  0  0  0  0  0  0  0  0  0  0  # atno 10765 bound_to 10752
  139.9743  134.6847  156.0384 H   0  0  0  0  0  0  0  0  0  0  0  0  # atno 11005 bound_to 11000
  144.8010  140.6213  143.6478 LP  0  0  0  0  0  0  0  0  0  0  0  0  # atno 17320 bound_to 7965
  145.4620  139.1512  143.3861 LP  0  0  0  0  0  0  0  0  0  0  0  0  # atno 17321 bound_to 7965
  140.5323  144.0710  150.6058 LP  0  0  0  0  0  0  0  0  0  0  0  0  # atno 17342 bound_to 10162
  140.3705  143.2857  152.0284 LP  0  0  0  0  0  0  0  0  0  0  0  0  # atno 17343 bound_to 10162
  157.7487  131.0362  150.4399 LP  0  0  0  0  0  0  0  0  0  0  0  0  # atno 17370 bound_to 10713
  156.4632  130.4036  149.6563 LP  0  0  0  0  0  0  0  0  0  0  0  0  # atno 17371 bound_to 10713
  141.1421  133.6562  156.3761 LP  0  0  0  0  0  0  0  0  0  0  0  0  # atno 17394 bound_to 11000
  140.5227  134.6289  157.5323 LP  0  0  0  0  0  0  0  0  0  0  0  0  # atno 17395 bound_to 11000

$$$$
