AV-unprocessed.smi:632|AV-procd|sdf|3126|dock4
  -GOLD-   22720 0 43D 1   1.00000     0.00000
 Structure written by MMmdl.
 42 43  0  0  0  0  0  0  0  0  1 V2000
  150.8220  130.8159  158.3159 C   0  0  0  0  0  0  0  0  0  0  0  0
  151.4619  130.9559  156.9208 C   0  0  0  0  0  0  0  0  0  0  0  0
  152.9352  131.3723  157.1246 C   0  0  0  0  0  0  0  0  0  0  0  0
  151.4615  129.6015  156.1856 C   0  0  0  0  0  0  0  0  0  0  0  0
  150.7040  131.9806  156.1087 C   0  0  0  0  0  0  0  0  0  0  0  0
  150.5677  133.2504  156.5202 N   0  0  0  0  0  0  0  0  0  0  0  0
  149.8409  134.0296  155.6325 N   0  0  0  0  0  0  0  0  0  0  0  0
  149.4399  133.3291  154.5645 C   0  0  0  0  0  0  0  0  0  0  0  0
  148.6810  133.8808  153.4982 N   0  0  0  0  0  0  0  0  0  0  0  0
  147.5891  133.3693  152.9024 C   0  0  0  0  0  0  0  0  0  0  0  0
  147.0621  132.2933  153.1857 O   0  0  0  0  0  0  0  0  0  0  0  0
  147.1336  134.1842  151.9393 N   0  0  0  0  0  0  0  0  0  0  0  0
  145.9671  133.9241  151.1005 C   0  0  2  0  0  0  0  0  0  0  0  0
  144.7195  133.6576  151.9690 C   0  0  0  0  0  0  0  0  0  0  0  0
  143.4966  133.3119  151.1038 C   0  0  0  0  0  0  0  0  0  0  0  0
  143.7905  132.1192  150.1778 C   0  0  1  0  0  0  0  0  0  0  0  0
  142.6727  131.8794  149.3493 O   0  0  0  0  0  0  0  0  0  0  0  0
  145.0285  132.3893  149.3053 C   0  0  0  0  0  0  0  0  0  0  0  0
  146.2519  132.7289  150.1718 C   0  0  0  0  0  0  0  0  0  0  0  0
  149.9251  131.6441  154.5572 S   0  0  0  0  0  0  0  0  0  0  0  0
  151.3584  130.0912  158.9293 H   0  0  0  0  0  0  0  0  0  0  0  0
  149.7868  130.4790  158.2495 H   0  0  0  0  0  0  0  0  0  0  0  0
  150.8240  131.7663  158.8511 H   0  0  0  0  0  0  0  0  0  0  0  0
  153.0164  132.3215  157.6557 H   0  0  0  0  0  0  0  0  0  0  0  0
  153.4599  131.4755  156.1740 H   0  0  0  0  0  0  0  0  0  0  0  0
  153.4786  130.6304  157.7109 H   0  0  0  0  0  0  0  0  0  0  0  0
  152.0167  128.8459  156.7428 H   0  0  0  0  0  0  0  0  0  0  0  0
  151.9185  129.6856  155.1990 H   0  0  0  0  0  0  0  0  0  0  0  0
  150.4487  129.2215  156.0468 H   0  0  0  0  0  0  0  0  0  0  0  0
  149.0067  134.7703  153.1502 H   0  0  0  0  0  0  0  0  0  0  0  0
  147.6269  135.0494  151.7748 H   0  0  0  0  0  0  0  0  0  0  0  0
  145.7790  134.7982  150.4738 H   0  0  0  0  0  0  0  0  0  0  0  0
  144.9180  132.8365  152.6594 H   0  0  0  0  0  0  0  0  0  0  0  0
  144.4942  134.5296  152.5843 H   0  0  0  0  0  0  0  0  0  0  0  0
  142.6429  133.0882  151.7445 H   0  0  0  0  0  0  0  0  0  0  0  0
  143.2179  134.1833  150.5093 H   0  0  0  0  0  0  0  0  0  0  0  0
  143.9594  131.2266  150.7814 H   0  0  0  0  0  0  0  0  0  0  0  0
  142.1312  132.6538  149.3430 H   0  0  0  0  0  0  0  0  0  0  0  0
  145.2474  131.5203  148.6838 H   0  0  0  0  0  0  0  0  0  0  0  0
  144.8287  133.2168  148.6226 H   0  0  0  0  0  0  0  0  0  0  0  0
  147.1055  132.9487  149.5294 H   0  0  0  0  0  0  0  0  0  0  0  0
  146.5275  131.8555  150.7649 H   0  0  0  0  0  0  0  0  0  0  0  0
  1  2  1  0  0  0  0
  1 21  1  0  0  0  0
  1 22  1  0  0  0  0
  1 23  1  0  0  0  0
  2  3  1  0  0  0  0
  2  4  1  0  0  0  0
  2  5  1  0  0  0  0
  3 24  1  0  0  0  0
  3 25  1  0  0  0  0
  3 26  1  0  0  0  0
  4 27  1  0  0  0  0
  4 28  1  0  0  0  0
  4 29  1  0  0  0  0
  5 20  1  0  0  0  0
  5  6  2  0  0  0  0
  6  7  1  0  0  0  0
  7  8  2  0  0  0  0
  8  9  1  0  0  0  0
  8 20  1  0  0  0  0
  9 10  1  0  0  0  0
  9 30  1  0  0  0  0
 10 11  2  0  0  0  0
 10 12  1  0  0  0  0
 12 13  1  0  0  0  0
 12 31  1  0  0  0  0
 13 19  1  0  0  0  0
 13 14  1  0  0  0  0
 13 32  1  0  0  0  0
 14 15  1  0  0  0  0
 14 33  1  0  0  0  0
 14 34  1  0  0  0  0
 15 16  1  0  0  0  0
 15 35  1  0  0  0  0
 15 36  1  0  0  0  0
 16 17  1  0  0  0  0
 16 18  1  0  0  0  0
 16 37  1  0  0  0  0
 17 38  1  0  0  0  0
 18 19  1  0  0  0  0
 18 39  1  0  0  0  0
 18 40  1  0  0  0  0
 19 41  1  0  0  0  0
 19 42  1  0  0  0  0
M  END
> <s_m_source_file>
AV-unprocessed.smi

> <i_m_source_file_index>
632

> <i_lp_mmshare_version>
43012

> <i_f3d_flags>
0

> <s_epik_input>
W0NIM11DKFtDSDNdKShbQ0gzXSljMW5uYyhzMSlbTkhdQyg9TylbTkhdW0NAQEhdMltDSDJdW0NIMl1bQ0BASF0oW09IXSlbQ0gyXVtDSDJdMg==

> <s_epik_cmdline>
J2VwaWtfcHl0aG9uJywgJy1waCcsICc3LjAnLCAnLXRuJywgJzgnLCAnLW1hJywgJzIwMCcsICctbWV0YWxfYmluZGluZycsICctaW1hZScsICc8aW5maWxlLm1hZT4nLCAnLW9tYWUnLCAnPG91dGZpbGUubWFlPic=

> <r_lp_tautomer_probability>
1

> <r_epik_Ionization_Penalty>
0.000349475

> <r_epik_Ionization_Penalty_Charging>
0

> <r_epik_Ionization_Penalty_Neutral>
0.000349475

> <r_epik_State_Penalty>
-0

> <r_epik_Charging_Adjusted_Penalty>
0

> <i_epik_Tot_Q>
0

> <i_epik_Tot_abs_Q>
0

> <r_epik_Metal_State_Penalty>
0.179207

> <b_epik_Metal_Only>
0

> <s_lp_Force_Field>
OPLS_2005

> <r_lp_Energy>
2.50478

> <b_lp_Chiralities_Consistent>
1

> <s_lp_Variant>
AV-unprocessed.smi:632-1

> <Gold.Version>
5.8.1

> <Gold.Id.Protein>
6NUR|6NUR_protein|mol2

> <Gold.PLP.Fitness>
42.6335

> <Gold.PLP.PLP>
-32.4683

> <Gold.PLP.part.hbond>
-4.5819

> <Gold.PLP.part.metal>
0.0000

> <Gold.PLP.part.buried>
-2.6690

> <Gold.PLP.part.nonpolar>
-25.5938

> <Gold.PLP.part.repulsive>
0.1803

> <Gold.PLP.ligand.clash>
0.0000

> <Gold.PLP.ligand.torsion>
0.4342

> <Gold.PLP.Chemscore.Hbond>
3.6750

> <Gold.PLP.Chemscore.CHOScore>
0.0000

> <Gold.PLP.Chemscore.Metal>
0.0000

> <Gold.Chemscore.Hbonds>
donor molecule, donor type, donor heavy atom, donor atom, acceptor molecule, acceptor atom, score
      L1  H     9    30       P1  7948  0.75
      L1  H    12    31       P1  7948  1.00
      L1  H    17    38       P1 10186  0.84
      P1  H 10785 10796       L1    17  0.90

> <Gold.PLP.Chemscore.Internal.Correction>
0.0087

> <Gold.Rescore>
     Score         DG    S(hbond)    S(metal)    S(lipo)     H(rot)  DE(clash)    DE(int)     intcor
     15.30     -17.52       2.37        0.00      72.39       1.70       0.51       1.71       ----

> <Gold.Chemscore.Fitness>
15.3043

> <Gold.Chemscore.DG>
-17.5183

> <Gold.Chemscore.ZeroCoef>
-5.4800

> <Gold.Chemscore.Hbond>
2.3689

> <Gold.Chemscore.Metal>
0.0000

> <Gold.Chemscore.Lipo>
72.3944

> <Gold.Chemscore.Internal_Hbond>
0.0000

> <Gold.Chemscore.DEClash>
0.5078

> <Gold.Chemscore.DEInternal>
1.7062

> <Gold.Chemscore.Rot>
1.6968

> <Gold.Chemscore.Internal.Correction>
   9.000000E+99

> <Gold.Chemscore.Hbonds>
donor molecule, donor type, donor heavy atom, donor atom, acceptor molecule, acceptor atom, score
      L1  H     9    30       P1  7948  0.09
      L1  H    12    31       P1  7948  0.74
      L1  H    17    38       P1 10186  0.82
      P1  H 10785 10796       L1    17  0.18

> <Gold.Chemscore.Hbond.Weighted>
-7.9120

> <Gold.Chemscore.Metal.Weighted>
-0.0000

> <Gold.Chemscore.Lipo.Weighted>
-8.4701

> <Gold.Chemscore.Internal_Hbond.Weighted>
0.0000

> <Gold.Chemscore.DEClash.Weighted>
0.5078

> <Gold.Chemscore.DEInternal.Weighted>
1.7062

> <Gold.Chemscore.Rot.Weighted>
4.3438

> <Gold.Chemscore.Internal.Correction.Weighted>
   9.000000E+99

> <Gold.Protein.RotatedTorsions>
[ 6907 6896 6895 6894 ] final  134.55 input  -60.11 | X-H torsion
[ 7974 7965 7964 7962 ] final -158.43 input  175.53 | X-H torsion
[ 8008 7997 7996 7995 ] final  151.10 input   59.86 | X-H torsion
[ 10167 10162 10161 10158 ] final  -92.85 input  -65.29 | X-H torsion
[ 10718 10713 10712 10709 ] final  118.35 input   66.30 | X-H torsion
[ 10763 10752 10751 10750 ] final  164.74 input  -60.55 | X-H torsion
[ 11005 11000 10999 10996 ] final -135.83 input  -57.11 | X-H torsion

> <Gold.Protein.ActiveResidues>
 VAL166  LYS551  ARG553  GLY616  TRP617  ASP618  TYR619  PRO620  LYS621  CYS622 
 ASP623  PHE694  ASN695  SER759  ASP760  ASP761  ALA762  ILE779  LEU786  VAL792 
 PHE793  MET794  SER795  GLU796  ALA797  LYS798  CYS799  TRP800  GLU811  SER814 

> <Gold.Protein.RotatedAtoms>
  152.3101  133.5744  159.5674 H   0  0  0  0  0  0  0  0  0  0  0  0  # atno 6907 bound_to 6896
  150.7318  134.0165  159.3696 H   0  0  0  0  0  0  0  0  0  0  0  0  # atno 6908 bound_to 6896
  151.8058  135.0696  160.0457 H   0  0  0  0  0  0  0  0  0  0  0  0  # atno 6909 bound_to 6896
  144.7506  140.3828  143.6051 H   0  0  0  0  0  0  0  0  0  0  0  0  # atno 7974 bound_to 7965
  156.2688  140.2057  156.6123 H   0  0  0  0  0  0  0  0  0  0  0  0  # atno 8008 bound_to 7997
  154.6822  140.0539  157.0301 H   0  0  0  0  0  0  0  0  0  0  0  0  # atno 8009 bound_to 7997
  155.0985  140.3203  155.4556 H   0  0  0  0  0  0  0  0  0  0  0  0  # atno 8010 bound_to 7997
  140.3307  143.2997  151.9945 H   0  0  0  0  0  0  0  0  0  0  0  0  # atno 10167 bound_to 10162
  157.6036  131.1047  150.7744 H   0  0  0  0  0  0  0  0  0  0  0  0  # atno 10718 bound_to 10713
  154.3135  135.2757  155.2554 H   0  0  0  0  0  0  0  0  0  0  0  0  # atno 10763 bound_to 10752
  154.4939  135.5826  153.6483 H   0  0  0  0  0  0  0  0  0  0  0  0  # atno 10764 bound_to 10752
  152.9885  135.6141  154.3314 H   0  0  0  0  0  0  0  0  0  0  0  0  # atno 10765 bound_to 10752
  140.8862  134.1869  157.4558 H   0  0  0  0  0  0  0  0  0  0  0  0  # atno 11005 bound_to 11000
  145.6959  139.1650  143.2620 LP  0  0  0  0  0  0  0  0  0  0  0  0  # atno 17320 bound_to 7965
  146.1450  140.7005  142.9349 LP  0  0  0  0  0  0  0  0  0  0  0  0  # atno 17321 bound_to 7965
  139.4857  144.6237  151.7205 LP  0  0  0  0  0  0  0  0  0  0  0  0  # atno 17342 bound_to 10162
  140.5400  144.0594  150.6085 LP  0  0  0  0  0  0  0  0  0  0  0  0  # atno 17343 bound_to 10162
  156.8138  130.4961  149.5352 LP  0  0  0  0  0  0  0  0  0  0  0  0  # atno 17370 bound_to 10713
  156.1115  130.6044  151.0055 LP  0  0  0  0  0  0  0  0  0  0  0  0  # atno 17371 bound_to 10713
  139.8724  134.9839  156.5216 LP  0  0  0  0  0  0  0  0  0  0  0  0  # atno 17394 bound_to 11000
  140.8402  133.8211  155.9067 LP  0  0  0  0  0  0  0  0  0  0  0  0  # atno 17395 bound_to 11000

$$$$
