AV-unprocessed.smi:701|AV-procd|sdf|3409|dock5
  -GOLD-   22720 0393D 1   1.00000     0.00000
 Structure written by MMmdl.
 49 51  0  0  0  0  0  0  0  0  1 V2000
  152.8902  143.3000  162.3804 C   0  0  0  0  0  0  0  0  0  0  0  0
  153.0193  142.5070  161.0730 C   0  0  0  0  0  0  0  0  0  0  0  0
  151.7716  142.3254  160.4165 O   0  0  0  0  0  0  0  0  0  0  0  0
  151.8285  141.5500  159.2276 C   0  0  1  0  0  0  0  0  0  0  0  0
  150.4535  141.1283  158.7006 C   0  0  0  0  0  0  0  0  0  0  0  0
  151.0313  141.3706  157.3082 C   0  0  1  0  0  0  0  0  0  0  0  0
  150.0544  141.9431  156.3889 N   0  0  0  0  0  0  0  0  0  0  0  0
  149.6938  141.3877  155.2233 C   0  0  0  0  0  0  0  0  0  0  0  0
  150.1631  140.3261  154.8107 O   0  0  0  0  0  0  0  0  0  0  0  0
  148.6687  142.1702  154.3908 C   0  0  0  0  0  0  0  0  0  0  0  0
  147.9938  141.3383  153.3843 N   0  0  0  0  0  0  0  0  0  0  0  0
  148.2353  141.5402  152.0327 C   0  0  0  0  0  0  0  0  0  0  0  0
  147.6587  140.8028  151.0544 C   0  0  0  0  0  0  0  0  0  0  0  0
  146.7289  139.7294  151.3892 C   0  0  0  0  0  0  0  0  0  0  0  0
  146.1557  139.0083  150.5757 O   0  0  0  0  0  0  0  0  0  0  0  0
  146.5141  139.5560  152.7592 N   0  0  0  0  0  0  0  0  0  0  0  0
  147.1068  140.3106  153.7725 C   0  0  0  0  0  0  0  0  0  0  0  0
  146.8518  140.0706  154.9520 O   0  0  0  0  0  0  0  0  0  0  0  0
  152.0227  142.3903  157.9340 C   0  0  0  0  0  0  0  0  0  0  0  0
  151.5626  143.8716  157.9765 C   0  0  0  0  0  0  0  0  0  0  0  0
  152.5446  144.8129  158.7011 C   0  0  0  0  0  0  0  0  0  0  0  0
  153.9608  144.7059  158.1245 C   0  0  0  0  0  0  0  0  0  0  0  0
  154.4329  143.2481  158.0910 C   0  0  0  0  0  0  0  0  0  0  0  0
  153.4341  142.3667  157.3256 C   0  0  0  0  0  0  0  0  0  0  0  0
  145.8794  138.8225  153.0395 H   0  0  0  0  0  0  0  0  0  0  0  0
  153.8739  143.5205  162.7952 H   0  0  0  0  0  0  0  0  0  0  0  0
  152.3377  142.7427  163.1359 H   0  0  0  0  0  0  0  0  0  0  0  0
  152.3782  144.2483  162.2154 H   0  0  0  0  0  0  0  0  0  0  0  0
  153.6666  143.0578  160.3902 H   0  0  0  0  0  0  0  0  0  0  0  0
  153.5036  141.5450  161.2461 H   0  0  0  0  0  0  0  0  0  0  0  0
  152.5356  140.7182  159.2788 H   0  0  0  0  0  0  0  0  0  0  0  0
  150.1810  140.0923  158.9011 H   0  0  0  0  0  0  0  0  0  0  0  0
  149.6554  141.8189  158.9780 H   0  0  0  0  0  0  0  0  0  0  0  0
  151.5311  140.4774  156.9249 H   0  0  0  0  0  0  0  0  0  0  0  0
  149.6296  142.8197  156.6549 H   0  0  0  0  0  0  0  0  0  0  0  0
  147.9334  142.6374  155.0494 H   0  0  0  0  0  0  0  0  0  0  0  0
  149.1889  142.9988  153.9083 H   0  0  0  0  0  0  0  0  0  0  0  0
  148.9213  142.3218  151.7386 H   0  0  0  0  0  0  0  0  0  0  0  0
  147.8875  141.0074  150.0185 H   0  0  0  0  0  0  0  0  0  0  0  0
  151.4306  144.2446  156.9602 H   0  0  0  0  0  0  0  0  0  0  0  0
  150.5835  143.9601  158.4480 H   0  0  0  0  0  0  0  0  0  0  0  0
  152.1929  145.8421  158.6239 H   0  0  0  0  0  0  0  0  0  0  0  0
  152.5712  144.5854  159.7661 H   0  0  0  0  0  0  0  0  0  0  0  0
  153.9733  145.1134  157.1130 H   0  0  0  0  0  0  0  0  0  0  0  0
  154.6515  145.3119  158.7116 H   0  0  0  0  0  0  0  0  0  0  0  0
  155.4164  143.1884  157.6241 H   0  0  0  0  0  0  0  0  0  0  0  0
  154.5486  142.8738  159.1091 H   0  0  0  0  0  0  0  0  0  0  0  0
  153.8166  141.3460  157.2960 H   0  0  0  0  0  0  0  0  0  0  0  0
  153.3945  142.6925  156.2853 H   0  0  0  0  0  0  0  0  0  0  0  0
  1  2  1  0  0  0  0
  1 26  1  0  0  0  0
  1 27  1  0  0  0  0
  1 28  1  0  0  0  0
  2  3  1  0  0  0  0
  2 29  1  0  0  0  0
  2 30  1  0  0  0  0
  3  4  1  0  0  0  0
  4 19  1  0  0  0  0
  4  5  1  0  0  0  0
  4 31  1  0  0  0  0
  5  6  1  0  0  0  0
  5 32  1  0  0  0  0
  5 33  1  0  0  0  0
  6  7  1  0  0  0  0
  6 19  1  0  0  0  0
  6 34  1  0  0  0  0
  7  8  1  0  0  0  0
  7 35  1  0  0  0  0
  8  9  2  0  0  0  0
  8 10  1  0  0  0  0
 10 11  1  0  0  0  0
 10 36  1  0  0  0  0
 10 37  1  0  0  0  0
 11 17  1  0  0  0  0
 11 12  1  0  0  0  0
 12 13  2  0  0  0  0
 12 38  1  0  0  0  0
 13 14  1  0  0  0  0
 13 39  1  0  0  0  0
 14 15  2  0  0  0  0
 14 16  1  0  0  0  0
 16 25  1  0  0  0  0
 16 17  1  0  0  0  0
 17 18  2  0  0  0  0
 19 24  1  0  0  0  0
 19 20  1  0  0  0  0
 20 21  1  0  0  0  0
 20 40  1  0  0  0  0
 20 41  1  0  0  0  0
 21 22  1  0  0  0  0
 21 42  1  0  0  0  0
 21 43  1  0  0  0  0
 22 23  1  0  0  0  0
 22 44  1  0  0  0  0
 22 45  1  0  0  0  0
 23 24  1  0  0  0  0
 23 46  1  0  0  0  0
 23 47  1  0  0  0  0
 24 48  1  0  0  0  0
 24 49  1  0  0  0  0
M  END
> <s_m_source_file>
AV-unprocessed.smi

> <i_m_source_file_index>
701

> <i_lp_mmshare_version>
43012

> <i_f3d_flags>
0

> <s_epik_input>
W0NIMl0xW0NIMl1bQ0gyXVtDSDJdW0NIMl1DMTJbQ0BIXShPW0NIMl1bQ0gzXSlbQ0gyXVtDQEhdMltOSF1DKD1PKVtDSDJdbjNbY0hdW2NIXWMoPU8pW25IXWMzPU8=

> <s_epik_cmdline>
J2VwaWtfcHl0aG9uJywgJy1waCcsICc3LjAnLCAnLXRuJywgJzgnLCAnLW1hJywgJzIwMCcsICctbWV0YWxfYmluZGluZycsICctaW1hZScsICc8aW5maWxlLm1hZT4nLCAnLW9tYWUnLCAnPG91dGZpbGUubWFlPic=

> <r_lp_tautomer_probability>
0.999537

> <r_epik_Ionization_Penalty>
0.00304597

> <r_epik_Ionization_Penalty_Charging>
0.00304595

> <r_epik_Ionization_Penalty_Neutral>
1.88422e-08

> <r_epik_State_Penalty>
0.00214084

> <r_epik_Charging_Adjusted_Penalty>
0.00518679

> <i_epik_Tot_Q>
0

> <i_epik_Tot_abs_Q>
0

> <r_epik_Metal_State_Penalty>
0.361872

> <b_epik_Metal_Only>
0

> <s_lp_Force_Field>
OPLS_2005

> <r_lp_Energy>
28.8847

> <b_lp_Chiralities_Consistent>
1

> <s_lp_Variant>
AV-unprocessed.smi:701-2

> <Gold.Version>
5.8.1

> <Gold.Id.Protein>
6NUR|6NUR_protein|mol2

> <Gold.PLP.Fitness>
51.0931

> <Gold.PLP.PLP>
-45.5431

> <Gold.PLP.part.hbond>
-3.3487

> <Gold.PLP.part.metal>
0.0000

> <Gold.PLP.part.buried>
-2.2323

> <Gold.PLP.part.nonpolar>
-41.7696

> <Gold.PLP.part.repulsive>
2.0517

> <Gold.PLP.ligand.clash>
0.0000

> <Gold.PLP.ligand.torsion>
0.7091

> <Gold.PLP.Chemscore.Hbond>
2.2160

> <Gold.PLP.Chemscore.CHOScore>
0.0000

> <Gold.PLP.Chemscore.Metal>
0.0000

> <Gold.Chemscore.Hbonds>
donor molecule, donor type, donor heavy atom, donor atom, acceptor molecule, acceptor atom, score
      L1  H     7    35       P1  8028  0.32
      P1  H  7954  7966       L1    15  0.05
      P1  H  7989  7998       L1     9  0.98

> <Gold.PLP.Chemscore.Internal.Correction>
0.3201

> <Gold.Rescore>
     Score         DG    S(hbond)    S(metal)    S(lipo)     H(rot)  DE(clash)    DE(int)     intcor
     13.95     -18.19       0.86        0.00     129.81       2.09       3.56       0.68       ----

> <Gold.Chemscore.Fitness>
13.9519

> <Gold.Chemscore.DG>
-18.1946

> <Gold.Chemscore.ZeroCoef>
-5.4800

> <Gold.Chemscore.Hbond>
0.8641

> <Gold.Chemscore.Metal>
0.0000

> <Gold.Chemscore.Lipo>
129.8055

> <Gold.Chemscore.Internal_Hbond>
0.0000

> <Gold.Chemscore.DEClash>
3.5619

> <Gold.Chemscore.DEInternal>
0.6808

> <Gold.Chemscore.Rot>
2.0933

> <Gold.Chemscore.Internal.Correction>
   9.000000E+99

> <Gold.Chemscore.Hbonds>
donor molecule, donor type, donor heavy atom, donor atom, acceptor molecule, acceptor atom, score
      L1  H     7    35       P1  8028  0.31
      P1  H  7954  7966       L1    15  0.01
      P1  H  7989  7998       L1     9  0.44

> <Gold.Chemscore.Hbond.Weighted>
-2.8862

> <Gold.Chemscore.Metal.Weighted>
-0.0000

> <Gold.Chemscore.Lipo.Weighted>
-15.1872

> <Gold.Chemscore.Internal_Hbond.Weighted>
0.0000

> <Gold.Chemscore.DEClash.Weighted>
3.5619

> <Gold.Chemscore.DEInternal.Weighted>
0.6808

> <Gold.Chemscore.Rot.Weighted>
5.3588

> <Gold.Chemscore.Internal.Correction.Weighted>
   9.000000E+99

> <Gold.Protein.RotatedTorsions>
[ 6907 6896 6895 6894 ] final   68.11 input  -60.11 | X-H torsion
[ 7974 7965 7964 7962 ] final -174.39 input  175.53 | X-H torsion
[ 8008 7997 7996 7995 ] final  177.20 input   59.86 | X-H torsion
[ 10167 10162 10161 10158 ] final -140.33 input  -65.29 | X-H torsion
[ 10718 10713 10712 10709 ] final -139.77 input   66.30 | X-H torsion
[ 10763 10752 10751 10750 ] final   75.78 input  -60.55 | X-H torsion
[ 11005 11000 10999 10996 ] final -138.11 input  -57.11 | X-H torsion

> <Gold.Protein.ActiveResidues>
 VAL166  LYS551  ARG553  GLY616  TRP617  ASP618  TYR619  PRO620  LYS621  CYS622 
 ASP623  PHE694  ASN695  SER759  ASP760  ASP761  ALA762  ILE779  LEU786  VAL792 
 PHE793  MET794  SER795  GLU796  ALA797  LYS798  CYS799  TRP800  GLU811  SER814 

> <Gold.Protein.RotatedAtoms>
  152.4598  134.5209  159.9782 H   0  0  0  0  0  0  0  0  0  0  0  0  # atno 6907 bound_to 6896
  151.5261  133.3452  159.2918 H   0  0  0  0  0  0  0  0  0  0  0  0  # atno 6908 bound_to 6896
  150.8557  134.7925  159.7106 H   0  0  0  0  0  0  0  0  0  0  0  0  # atno 6909 bound_to 6896
  144.7132  140.1478  143.6386 H   0  0  0  0  0  0  0  0  0  0  0  0  # atno 7974 bound_to 7965
  156.0682  140.1364  156.9860 H   0  0  0  0  0  0  0  0  0  0  0  0  # atno 8008 bound_to 7997
  154.4517  140.0977  156.6690 H   0  0  0  0  0  0  0  0  0  0  0  0  # atno 8009 bound_to 7997
  155.5270  140.3457  155.4420 H   0  0  0  0  0  0  0  0  0  0  0  0  # atno 8010 bound_to 7997
  139.8292  143.7470  152.2666 H   0  0  0  0  0  0  0  0  0  0  0  0  # atno 10167 bound_to 10162
  156.3146  130.7501  151.1584 H   0  0  0  0  0  0  0  0  0  0  0  0  # atno 10718 bound_to 10713
  153.0679  135.4976  154.8240 H   0  0  0  0  0  0  0  0  0  0  0  0  # atno 10763 bound_to 10752
  154.6980  135.2996  154.9385 H   0  0  0  0  0  0  0  0  0  0  0  0  # atno 10764 bound_to 10752
  154.0118  135.6753  153.4819 H   0  0  0  0  0  0  0  0  0  0  0  0  # atno 10765 bound_to 10752
  140.8647  134.2125  157.4687 H   0  0  0  0  0  0  0  0  0  0  0  0  # atno 11005 bound_to 11000
  145.9143  139.2506  143.1419 LP  0  0  0  0  0  0  0  0  0  0  0  0  # atno 17320 bound_to 7965
  145.9684  140.8780  143.0175 LP  0  0  0  0  0  0  0  0  0  0  0  0  # atno 17321 bound_to 7965
  139.7672  144.7488  151.0277 LP  0  0  0  0  0  0  0  0  0  0  0  0  # atno 17342 bound_to 10162
  140.7808  143.4685  151.0179 LP  0  0  0  0  0  0  0  0  0  0  0  0  # atno 17343 bound_to 10162
  157.7399  131.0524  150.5204 LP  0  0  0  0  0  0  0  0  0  0  0  0  # atno 17370 bound_to 10713
  156.5348  130.4193  149.6183 LP  0  0  0  0  0  0  0  0  0  0  0  0  # atno 17371 bound_to 10713
  139.8708  134.9746  156.4852 LP  0  0  0  0  0  0  0  0  0  0  0  0  # atno 17394 bound_to 11000
  140.8643  133.8036  155.9297 LP  0  0  0  0  0  0  0  0  0  0  0  0  # atno 17395 bound_to 11000

$$$$
