AV-unprocessed.smi:1763|AV-procd|sdf|7127|dock4
  -GOLD-   22720 8363D 1   1.00000     0.00000
 Structure written by MMmdl.
 42 43  0  0  0  0  0  0  0  0  1 V2000
  143.4939  136.9581  152.6596 C   0  0  0  0  0  0  0  0  0  0  0  0
  144.5568  137.7897  152.1173 N   0  0  0  0  0  0  0  0  0  0  0  0
  145.8247  137.7758  152.5537 C   0  0  0  0  0  0  0  0  0  0  0  0
  146.2165  137.0586  153.4738 O   0  0  0  0  0  0  0  0  0  0  0  0
  146.8034  138.7205  151.8460 C   0  0  0  0  0  0  0  0  0  0  0  0
  147.4977  139.6771  152.7396 N   0  0  0  0  0  0  0  0  0  0  0  0
  148.2831  139.0025  153.7843 C   0  0  0  0  0  0  0  0  0  0  0  0
  149.0418  140.0311  154.6416 C   0  0  0  0  0  0  0  0  0  0  0  0
  148.0786  141.0439  155.2819 C   0  0  0  0  0  0  0  0  0  0  0  0
  148.8138  142.0927  155.9825 N   0  0  0  0  0  0  0  0  0  0  0  0
  149.5427  141.9155  157.0941 C   0  0  0  0  0  0  0  0  0  0  0  0
  149.6754  140.8256  157.6520 O   0  0  0  0  0  0  0  0  0  0  0  0
  150.0978  143.0709  157.5002 N   0  0  0  0  0  0  0  0  0  0  0  0
  150.9188  143.2996  158.6366 C   0  0  0  0  0  0  0  0  0  0  0  0
  151.1175  144.6595  158.9669 C   0  0  0  0  0  0  0  0  0  0  0  0
  151.9129  144.9932  160.0801 C   0  0  0  0  0  0  0  0  0  0  0  0
  152.4896  143.9572  160.8362 C   0  0  0  0  0  0  0  0  0  0  0  0
  152.2423  142.6301  160.4394 C   0  0  0  0  0  0  0  0  0  0  0  0
  151.4810  142.3079  159.3722 N   0  0  0  0  0  0  0  0  0  0  0  0
  147.2049  141.6626  154.1823 C   0  0  0  0  0  0  0  0  0  0  0  0
  146.5089  140.5724  153.3492 C   0  0  0  0  0  0  0  0  0  0  0  0
  142.5464  137.2081  152.1826 H   0  0  0  0  0  0  0  0  0  0  0  0
  143.3859  137.1126  153.7341 H   0  0  0  0  0  0  0  0  0  0  0  0
  143.6996  135.9026  152.4776 H   0  0  0  0  0  0  0  0  0  0  0  0
  144.3200  138.4072  151.3538 H   0  0  0  0  0  0  0  0  0  0  0  0
  147.5404  138.0986  151.3356 H   0  0  0  0  0  0  0  0  0  0  0  0
  146.2682  139.2672  151.0673 H   0  0  0  0  0  0  0  0  0  0  0  0
  147.6295  138.3949  154.4125 H   0  0  0  0  0  0  0  0  0  0  0  0
  149.0163  138.3254  153.3463 H   0  0  0  0  0  0  0  0  0  0  0  0
  149.6105  139.5127  155.4145 H   0  0  0  0  0  0  0  0  0  0  0  0
  149.7714  140.5521  154.0195 H   0  0  0  0  0  0  0  0  0  0  0  0
  147.4274  140.5241  155.9875 H   0  0  0  0  0  0  0  0  0  0  0  0
  148.7604  143.0219  155.5917 H   0  0  0  0  0  0  0  0  0  0  0  0
  149.9063  143.8838  156.9336 H   0  0  0  0  0  0  0  0  0  0  0  0
  150.6656  145.4429  158.3759 H   0  0  0  0  0  0  0  0  0  0  0  0
  152.0764  146.0263  160.3491 H   0  0  0  0  0  0  0  0  0  0  0  0
  153.1044  144.1732  161.6975 H   0  0  0  0  0  0  0  0  0  0  0  0
  152.6652  141.8053  160.9935 H   0  0  0  0  0  0  0  0  0  0  0  0
  146.4571  142.3208  154.6265 H   0  0  0  0  0  0  0  0  0  0  0  0
  147.8143  142.2862  153.5258 H   0  0  0  0  0  0  0  0  0  0  0  0
  145.9140  141.0518  152.5705 H   0  0  0  0  0  0  0  0  0  0  0  0
  145.8160  140.0049  153.9733 H   0  0  0  0  0  0  0  0  0  0  0  0
  1  2  1  0  0  0  0
  1 22  1  0  0  0  0
  1 23  1  0  0  0  0
  1 24  1  0  0  0  0
  2  3  1  0  0  0  0
  2 25  1  0  0  0  0
  3  4  2  0  0  0  0
  3  5  1  0  0  0  0
  5  6  1  0  0  0  0
  5 26  1  0  0  0  0
  5 27  1  0  0  0  0
  6 21  1  0  0  0  0
  6  7  1  0  0  0  0
  7  8  1  0  0  0  0
  7 28  1  0  0  0  0
  7 29  1  0  0  0  0
  8  9  1  0  0  0  0
  8 30  1  0  0  0  0
  8 31  1  0  0  0  0
  9 10  1  0  0  0  0
  9 20  1  0  0  0  0
  9 32  1  0  0  0  0
 10 11  1  0  0  0  0
 10 33  1  0  0  0  0
 11 12  2  0  0  0  0
 11 13  1  0  0  0  0
 13 14  1  0  0  0  0
 13 34  1  0  0  0  0
 14 19  1  0  0  0  0
 14 15  2  0  0  0  0
 15 16  1  0  0  0  0
 15 35  1  0  0  0  0
 16 17  2  0  0  0  0
 16 36  1  0  0  0  0
 17 18  1  0  0  0  0
 17 37  1  0  0  0  0
 18 19  2  0  0  0  0
 18 38  1  0  0  0  0
 20 21  1  0  0  0  0
 20 39  1  0  0  0  0
 20 40  1  0  0  0  0
 21 41  1  0  0  0  0
 21 42  1  0  0  0  0
M  END
> <s_m_source_file>
AV-unprocessed.smi

> <i_m_source_file_index>
1763

> <i_lp_mmshare_version>
43012

> <i_f3d_flags>
0

> <s_epik_input>
W0NIM11bTkhdQyg9TylbQ0gyXU4xW0NIMl1bQ0gyXVtDSF0oW0NIMl1bQ0gyXTEpW05IXUMoPU8pW05IXWMyW2NIXVtjSF1bY0hdW2NIXW4y

> <s_epik_cmdline>
J2VwaWtfcHl0aG9uJywgJy1waCcsICc3LjAnLCAnLXRuJywgJzgnLCAnLW1hJywgJzIwMCcsICctbWV0YWxfYmluZGluZycsICctaW1hZScsICc8aW5maWxlLm1hZT4nLCAnLW9tYWUnLCAnPG91dGZpbGUubWFlPic=

> <r_epik_Ionization_Penalty>
0.164783

> <r_epik_Ionization_Penalty_Charging>
0

> <r_epik_Ionization_Penalty_Neutral>
0.164783

> <r_epik_State_Penalty>
0.154069

> <r_epik_Charging_Adjusted_Penalty>
0.154069

> <i_epik_Tot_Q>
0

> <i_epik_Tot_abs_Q>
0

> <r_epik_Metal_State_Penalty>
0.158586

> <b_epik_Metal_Only>
0

> <s_lp_Force_Field>
OPLS_2005

> <r_lp_Energy>
16.3585

> <b_lp_Chiralities_Consistent>
1

> <s_lp_Variant>
AV-unprocessed.smi:1763-1

> <Gold.Version>
5.8.1

> <Gold.Id.Protein>
6NUR|6NUR_protein|mol2

> <Gold.PLP.Fitness>
46.2265

> <Gold.PLP.PLP>
-37.4587

> <Gold.PLP.part.hbond>
-3.9992

> <Gold.PLP.part.metal>
0.0000

> <Gold.PLP.part.buried>
-3.0809

> <Gold.PLP.part.nonpolar>
-33.7987

> <Gold.PLP.part.repulsive>
3.5430

> <Gold.PLP.ligand.clash>
0.0000

> <Gold.PLP.ligand.torsion>
0.1153

> <Gold.PLP.Chemscore.Hbond>
2.9920

> <Gold.PLP.Chemscore.CHOScore>
0.0000

> <Gold.PLP.Chemscore.Metal>
0.0000

> <Gold.Chemscore.Hbonds>
donor molecule, donor type, donor heavy atom, donor atom, acceptor molecule, acceptor atom, score
      L1  H     2    25       P1 10171  0.99
      L1  H    10    33       P1  8028  1.00
      L1  H    13    34       P1  8028  1.00

> <Gold.PLP.Chemscore.Internal.Correction>
0.0224

> <Gold.Rescore>
     Score         DG    S(hbond)    S(metal)    S(lipo)     H(rot)  DE(clash)    DE(int)     intcor
     16.45     -21.37       2.92        0.00      89.86       1.70       2.13       2.80       ----

> <Gold.Chemscore.Fitness>
16.4452

> <Gold.Chemscore.DG>
-21.3743

> <Gold.Chemscore.ZeroCoef>
-5.4800

> <Gold.Chemscore.Hbond>
2.9169

> <Gold.Chemscore.Metal>
0.0000

> <Gold.Chemscore.Lipo>
89.8566

> <Gold.Chemscore.Internal_Hbond>
0.0000

> <Gold.Chemscore.DEClash>
2.1329

> <Gold.Chemscore.DEInternal>
2.7962

> <Gold.Chemscore.Rot>
1.7037

> <Gold.Chemscore.Internal.Correction>
   9.000000E+99

> <Gold.Chemscore.Hbonds>
donor molecule, donor type, donor heavy atom, donor atom, acceptor molecule, acceptor atom, score
      L1  H     2    25       P1 10171  0.93
      L1  H    10    33       P1  8028  0.98
      L1  H    13    34       P1  8028  0.92

> <Gold.Chemscore.Hbond.Weighted>
-9.7425

> <Gold.Chemscore.Metal.Weighted>
-0.0000

> <Gold.Chemscore.Lipo.Weighted>
-10.5132

> <Gold.Chemscore.Internal_Hbond.Weighted>
0.0000

> <Gold.Chemscore.DEClash.Weighted>
2.1329

> <Gold.Chemscore.DEInternal.Weighted>
2.7962

> <Gold.Chemscore.Rot.Weighted>
4.3614

> <Gold.Chemscore.Internal.Correction.Weighted>
   9.000000E+99

> <Gold.Protein.RotatedTorsions>
[ 6907 6896 6895 6894 ] final   68.81 input  -60.11 | X-H torsion
[ 7974 7965 7964 7962 ] final  -97.19 input  175.53 | X-H torsion
[ 8008 7997 7996 7995 ] final   94.76 input   59.86 | X-H torsion
[ 10167 10162 10161 10158 ] final  -24.95 input  -65.29 | X-H torsion
[ 10718 10713 10712 10709 ] final  -71.98 input   66.30 | X-H torsion
[ 10763 10752 10751 10750 ] final   59.16 input  -60.55 | X-H torsion
[ 11005 11000 10999 10996 ] final  -99.46 input  -57.11 | X-H torsion

> <Gold.Protein.ActiveResidues>
 VAL166  LYS551  ARG553  GLY616  TRP617  ASP618  TYR619  PRO620  LYS621  CYS622 
 ASP623  PHE694  ASN695  SER759  ASP760  ASP761  ALA762  ILE779  LEU786  VAL792 
 PHE793  MET794  SER795  GLU796  ALA797  LYS798  CYS799  TRP800  GLU811  SER814 

> <Gold.Protein.RotatedAtoms>
  152.4645  134.5107  159.9752 H   0  0  0  0  0  0  0  0  0  0  0  0  # atno 6907 bound_to 6896
  151.5148  133.3472  159.2899 H   0  0  0  0  0  0  0  0  0  0  0  0  # atno 6908 bound_to 6896
  150.8623  134.8007  159.7154 H   0  0  0  0  0  0  0  0  0  0  0  0  # atno 6909 bound_to 6896
  145.3369  140.9452  143.2630 H   0  0  0  0  0  0  0  0  0  0  0  0  # atno 7974 bound_to 7965
  156.0615  140.3295  155.7467 H   0  0  0  0  0  0  0  0  0  0  0  0  # atno 8008 bound_to 7997
  155.5448  140.0605  157.2880 H   0  0  0  0  0  0  0  0  0  0  0  0  # atno 8009 bound_to 7997
  154.4483  140.1904  156.0615 H   0  0  0  0  0  0  0  0  0  0  0  0  # atno 8010 bound_to 7997
  140.7287  143.4308  151.0805 H   0  0  0  0  0  0  0  0  0  0  0  0  # atno 10167 bound_to 10162
  156.0340  130.4362  150.2524 H   0  0  0  0  0  0  0  0  0  0  0  0  # atno 10718 bound_to 10713
  152.9888  135.5581  154.5669 H   0  0  0  0  0  0  0  0  0  0  0  0  # atno 10763 bound_to 10752
  154.5077  135.2800  155.1371 H   0  0  0  0  0  0  0  0  0  0  0  0  # atno 10764 bound_to 10752
  154.2775  135.6351  153.5387 H   0  0  0  0  0  0  0  0  0  0  0  0  # atno 10765 bound_to 10752
  141.1307  133.8323  157.0975 H   0  0  0  0  0  0  0  0  0  0  0  0  # atno 11005 bound_to 11000
  144.8820  139.4891  143.6718 LP  0  0  0  0  0  0  0  0  0  0  0  0  # atno 17320 bound_to 7965
  146.3023  139.7466  142.9082 LP  0  0  0  0  0  0  0  0  0  0  0  0  # atno 17321 bound_to 7965
  139.7964  143.8145  152.3158 LP  0  0  0  0  0  0  0  0  0  0  0  0  # atno 17342 bound_to 10162
  139.8147  144.7321  150.9651 LP  0  0  0  0  0  0  0  0  0  0  0  0  # atno 17343 bound_to 10162
  157.0624  131.0094  151.3218 LP  0  0  0  0  0  0  0  0  0  0  0  0  # atno 17370 bound_to 10713
  157.5060  130.7909  149.7654 LP  0  0  0  0  0  0  0  0  0  0  0  0  # atno 17371 bound_to 10713
  140.0354  134.9881  157.0861 LP  0  0  0  0  0  0  0  0  0  0  0  0  # atno 17394 bound_to 11000
  140.4219  134.1872  155.7165 LP  0  0  0  0  0  0  0  0  0  0  0  0  # atno 17395 bound_to 11000

$$$$
