AV-unprocessed.smi:1762|AV-procd|sdf|7126|dock2
  -GOLD-   22720 8363D 1   1.00000     0.00000
 Structure written by MMmdl.
 52 53  0  0  0  0  0  0  0  0  3 V2000
  149.8011  136.5747  157.3360 C   0  0  0  0  0  0  0  0  0  0  0  0
  149.5278  137.7378  158.3064 C   0  0  1  0  0  0  0  0  0  0  0  0
  149.9745  139.1075  157.7645 C   0  0  0  0  0  0  0  0  0  0  0  0
  149.0736  139.5955  156.6798 N   0  3  2  0  0  0  0  0  0  0  0  0
  149.5404  140.8822  156.0597 C   0  0  1  0  0  0  0  0  0  0  0  0
  151.0761  140.8667  155.8604 C   0  0  0  0  0  0  0  0  0  0  0  0
  151.5490  140.1361  154.9824 O   0  0  0  0  0  0  0  0  0  0  0  0
  151.7019  141.6768  156.7588 N   0  5  0  0  0  0  0  0  0  0  0  0
  151.0336  142.7476  157.4962 C   0  0  0  0  0  0  0  0  0  0  0  0
  152.0783  143.6511  158.1919 C   0  0  0  0  0  0  0  0  0  0  0  0
  152.6193  143.0918  159.5037 C   0  0  0  0  0  0  0  0  0  0  0  0
  152.4251  143.7909  160.7170 C   0  0  0  0  0  0  0  0  0  0  0  0
  152.9273  143.2303  161.9073 C   0  0  0  0  0  0  0  0  0  0  0  0
  153.5990  141.9944  161.8446 C   0  0  0  0  0  0  0  0  0  0  0  0
  153.7375  141.3703  160.5891 C   0  0  0  0  0  0  0  0  0  0  0  0
  153.2584  141.8978  159.4421 N   0  0  0  0  0  0  0  0  0  0  0  0
  148.8025  141.2748  154.7342 C   0  0  0  0  0  0  0  0  0  0  0  0
  147.4056  141.8988  154.9380 C   0  0  0  0  0  0  0  0  0  0  0  0
  148.7202  140.1127  153.7250 C   0  0  0  0  0  0  0  0  0  0  0  0
  147.6746  139.6103  157.1880 C   0  0  0  0  0  0  0  0  0  0  0  0
  147.2607  138.2217  157.7086 C   0  0  2  0  0  0  0  0  0  0  0  0
  145.8528  138.2320  158.3144 C   0  0  0  0  0  0  0  0  0  0  0  0
  148.1656  137.7957  158.7206 O   0  0  0  0  0  0  0  0  0  0  0  0
  150.8706  136.4719  157.1498 H   0  0  0  0  0  0  0  0  0  0  0  0
  149.3191  136.7178  156.3692 H   0  0  0  0  0  0  0  0  0  0  0  0
  149.4477  135.6307  157.7512 H   0  0  0  0  0  0  0  0  0  0  0  0
  150.1057  137.5351  159.2086 H   0  0  0  0  0  0  0  0  0  0  0  0
  149.9768  139.8378  158.5756 H   0  0  0  0  0  0  0  0  0  0  0  0
  151.0075  139.0194  157.4291 H   0  0  0  0  0  0  0  0  0  0  0  0
  149.2833  141.6584  156.7853 H   0  0  0  0  0  0  0  0  0  0  0  0
  150.3982  143.3558  156.8510 H   0  0  0  0  0  0  0  0  0  0  0  0
  150.3676  142.3348  158.2542 H   0  0  0  0  0  0  0  0  0  0  0  0
  152.9193  143.8250  157.5190 H   0  0  0  0  0  0  0  0  0  0  0  0
  151.6461  144.6334  158.3897 H   0  0  0  0  0  0  0  0  0  0  0  0
  151.9055  144.7378  160.7341 H   0  0  0  0  0  0  0  0  0  0  0  0
  152.7983  143.7386  162.8514 H   0  0  0  0  0  0  0  0  0  0  0  0
  153.9975  141.5348  162.7370 H   0  0  0  0  0  0  0  0  0  0  0  0
  154.2444  140.4204  160.5042 H   0  0  0  0  0  0  0  0  0  0  0  0
  149.4155  142.0178  154.2256 H   0  0  0  0  0  0  0  0  0  0  0  0
  146.6856  141.1681  155.3060 H   0  0  0  0  0  0  0  0  0  0  0  0
  147.0153  142.2849  153.9962 H   0  0  0  0  0  0  0  0  0  0  0  0
  147.4241  142.7280  155.6442 H   0  0  0  0  0  0  0  0  0  0  0  0
  148.0517  139.3215  154.0658 H   0  0  0  0  0  0  0  0  0  0  0  0
  149.7017  139.6691  153.5555 H   0  0  0  0  0  0  0  0  0  0  0  0
  148.3471  140.4592  152.7610 H   0  0  0  0  0  0  0  0  0  0  0  0
  147.5822  140.3594  157.9761 H   0  0  0  0  0  0  0  0  0  0  0  0
  146.9693  139.8786  156.4045 H   0  0  0  0  0  0  0  0  0  0  0  0
  147.2654  137.5072  156.8853 H   0  0  0  0  0  0  0  0  0  0  0  0
  145.1091  138.5321  157.5757 H   0  0  0  0  0  0  0  0  0  0  0  0
  145.7887  138.9241  159.1547 H   0  0  0  0  0  0  0  0  0  0  0  0
  145.5781  137.2414  158.6776 H   0  0  0  0  0  0  0  0  0  0  0  0
  149.1072  138.9071  155.9415 H   0  0  0  0  0  0  0  0  0  0  0  0
  1  2  1  0  0  0  0
  1 24  1  0  0  0  0
  1 25  1  0  0  0  0
  1 26  1  0  0  0  0
  2 23  1  0  0  0  0
  2  3  1  0  0  0  0
  2 27  1  0  0  0  0
  3  4  1  0  0  0  0
  3 28  1  0  0  0  0
  3 29  1  0  0  0  0
  4  5  1  0  0  0  0
  4 20  1  0  0  0  0
  4 52  1  0  0  0  0
  5  6  1  0  0  0  0
  5 17  1  0  0  0  0
  5 30  1  0  0  0  0
  6  7  2  0  0  0  0
  6  8  1  0  0  0  0
  8  9  1  0  0  0  0
  9 10  1  0  0  0  0
  9 31  1  0  0  0  0
  9 32  1  0  0  0  0
 10 11  1  0  0  0  0
 10 33  1  0  0  0  0
 10 34  1  0  0  0  0
 11 16  1  0  0  0  0
 11 12  2  0  0  0  0
 12 13  1  0  0  0  0
 12 35  1  0  0  0  0
 13 14  2  0  0  0  0
 13 36  1  0  0  0  0
 14 15  1  0  0  0  0
 14 37  1  0  0  0  0
 15 16  2  0  0  0  0
 15 38  1  0  0  0  0
 17 18  1  0  0  0  0
 17 19  1  0  0  0  0
 17 39  1  0  0  0  0
 18 40  1  0  0  0  0
 18 41  1  0  0  0  0
 18 42  1  0  0  0  0
 19 43  1  0  0  0  0
 19 44  1  0  0  0  0
 19 45  1  0  0  0  0
 20 21  1  0  0  0  0
 20 46  1  0  0  0  0
 20 47  1  0  0  0  0
 21 22  1  0  0  0  0
 21 23  1  0  0  0  0
 21 48  1  0  0  0  0
 22 49  1  0  0  0  0
 22 50  1  0  0  0  0
 22 51  1  0  0  0  0
M  CHG  1   4   1
M  CHG  1   8  -1
M  END
> <s_m_source_file>
AV-unprocessed.smi

> <i_m_source_file_index>
1762

> <i_lp_mmshare_version>
43012

> <i_f3d_flags>
0

> <s_epik_input>
W0NIM11bQ0BASF0xW0NIMl1OKFtDSDJdW0NASF0oTzEpW0NIM10pW0NAQEhdKFtDSF0oW0NIM10pW0NIM10pQyg9TylbTkhdW0NIMl1bQ0gyXWMyW2NIXVtjSF1bY0hdW2NIXW4y

> <s_epik_cmdline>
J2VwaWtfcHl0aG9uJywgJy1waCcsICc3LjAnLCAnLXRuJywgJzgnLCAnLW1hJywgJzIwMCcsICctbWV0YWxfYmluZGluZycsICctaW1hZScsICc8aW5maWxlLm1hZT4nLCAnLW9tYWUnLCAnPG91dGZpbGUubWFlPic=

> <r_epik_Ionization_Penalty>
7.82966

> <r_epik_Ionization_Penalty_Charging>
7.7461

> <r_epik_Ionization_Penalty_Neutral>
0.0835571

> <r_epik_State_Penalty>
8.52273

> <r_epik_Charging_Adjusted_Penalty>
16.2688

> <i_epik_Tot_Q>
0

> <i_epik_Tot_abs_Q>
2

> <r_epik_Metal_State_Penalty>
4.47451

> <b_epik_Metal_Only>
1

> <s_lp_Force_Field>
OPLS_2005

> <r_lp_Energy>
24.57

> <b_lp_Chiralities_Consistent>
1

> <s_lp_Variant>
AV-unprocessed.smi:1762-28

> <Gold.Version>
5.8.1

> <Gold.Id.Protein>
6NUR|6NUR_protein|mol2

> <Gold.PLP.Fitness>
45.9075

> <Gold.PLP.PLP>
-43.9479

> <Gold.PLP.part.hbond>
-2.0000

> <Gold.PLP.part.metal>
0.0000

> <Gold.PLP.part.buried>
-0.9908

> <Gold.PLP.part.nonpolar>
-40.0946

> <Gold.PLP.part.repulsive>
0.0939

> <Gold.PLP.ligand.clash>
0.0000

> <Gold.PLP.ligand.torsion>
0.8850

> <Gold.PLP.Chemscore.Hbond>
1.1414

> <Gold.PLP.Chemscore.CHOScore>
0.0000

> <Gold.PLP.Chemscore.Metal>
0.0000

> <Gold.Chemscore.Hbonds>
donor molecule, donor type, donor heavy atom, donor atom, acceptor molecule, acceptor atom, score
      P1  H  7989  7998       L1     7  1.00

> <Gold.PLP.Chemscore.Internal.Correction>
0.3051

> <Gold.Rescore>
     Score         DG    S(hbond)    S(metal)    S(lipo)     H(rot)  DE(clash)    DE(int)     intcor
     16.19     -18.10       1.23        0.00     107.68       1.60       0.03       1.88       ----

> <Gold.Chemscore.Fitness>
16.1923

> <Gold.Chemscore.DG>
-18.0966

> <Gold.Chemscore.ZeroCoef>
-5.4800

> <Gold.Chemscore.Hbond>
1.2326

> <Gold.Chemscore.Metal>
0.0000

> <Gold.Chemscore.Lipo>
107.6818

> <Gold.Chemscore.Internal_Hbond>
0.0000

> <Gold.Chemscore.DEClash>
0.0292

> <Gold.Chemscore.DEInternal>
1.8752

> <Gold.Chemscore.Rot>
1.6012

> <Gold.Chemscore.Internal.Correction>
   9.000000E+99

> <Gold.Chemscore.Hbonds>
donor molecule, donor type, donor heavy atom, donor atom, acceptor molecule, acceptor atom, score
      P1  H  7989  7998       L1     7  0.82

> <Gold.Chemscore.Hbond.Weighted>
-4.1168

> <Gold.Chemscore.Metal.Weighted>
-0.0000

> <Gold.Chemscore.Lipo.Weighted>
-12.5988

> <Gold.Chemscore.Internal_Hbond.Weighted>
0.0000

> <Gold.Chemscore.DEClash.Weighted>
0.0292

> <Gold.Chemscore.DEInternal.Weighted>
1.8752

> <Gold.Chemscore.Rot.Weighted>
4.0990

> <Gold.Chemscore.Internal.Correction.Weighted>
   9.000000E+99

> <Gold.Protein.RotatedTorsions>
[ 6907 6896 6895 6894 ] final  129.72 input  -60.11 | X-H torsion
[ 7974 7965 7964 7962 ] final  140.09 input  175.53 | X-H torsion
[ 8008 7997 7996 7995 ] final   54.73 input   59.86 | X-H torsion
[ 10167 10162 10161 10158 ] final -147.44 input  -65.29 | X-H torsion
[ 10718 10713 10712 10709 ] final -137.59 input   66.30 | X-H torsion
[ 10763 10752 10751 10750 ] final   46.01 input  -60.55 | X-H torsion
[ 11005 11000 10999 10996 ] final   18.01 input  -57.11 | X-H torsion

> <Gold.Protein.ActiveResidues>
 VAL166  LYS551  ARG553  GLY616  TRP617  ASP618  TYR619  PRO620  LYS621  CYS622 
 ASP623  PHE694  ASN695  SER759  ASP760  ASP761  ALA762  ILE779  LEU786  VAL792 
 PHE793  MET794  SER795  GLU796  ALA797  LYS798  CYS799  TRP800  GLU811  SER814 

> <Gold.Protein.RotatedAtoms>
  152.3596  133.6280  159.6004 H   0  0  0  0  0  0  0  0  0  0  0  0  # atno 6907 bound_to 6896
  150.7592  133.9444  159.3475 H   0  0  0  0  0  0  0  0  0  0  0  0  # atno 6908 bound_to 6896
  151.7284  135.0881  160.0347 H   0  0  0  0  0  0  0  0  0  0  0  0  # atno 6909 bound_to 6896
  144.9219  139.5157  143.5659 H   0  0  0  0  0  0  0  0  0  0  0  0  # atno 7974 bound_to 7965
  155.4895  140.3471  155.4352 H   0  0  0  0  0  0  0  0  0  0  0  0  # atno 8008 bound_to 7997
  156.0986  140.1429  156.9526 H   0  0  0  0  0  0  0  0  0  0  0  0  # atno 8009 bound_to 7997
  154.4679  140.0911  156.7047 H   0  0  0  0  0  0  0  0  0  0  0  0  # atno 8010 bound_to 7997
  139.7622  143.8360  152.2609 H   0  0  0  0  0  0  0  0  0  0  0  0  # atno 10167 bound_to 10162
  156.2898  130.7369  151.1391 H   0  0  0  0  0  0  0  0  0  0  0  0  # atno 10718 bound_to 10713
  152.9816  135.6021  154.3530 H   0  0  0  0  0  0  0  0  0  0  0  0  # atno 10763 bound_to 10752
  154.3218  135.2769  155.2517 H   0  0  0  0  0  0  0  0  0  0  0  0  # atno 10764 bound_to 10752
  154.4681  135.5949  153.6358 H   0  0  0  0  0  0  0  0  0  0  0  0  # atno 10765 bound_to 10752
  140.4296  134.1434  155.7679 H   0  0  0  0  0  0  0  0  0  0  0  0  # atno 11005 bound_to 11000
  146.3208  139.8104  142.8947 LP  0  0  0  0  0  0  0  0  0  0  0  0  # atno 17320 bound_to 7965
  145.3283  141.0260  143.3461 LP  0  0  0  0  0  0  0  0  0  0  0  0  # atno 17321 bound_to 7965
  139.8370  144.7228  150.9379 LP  0  0  0  0  0  0  0  0  0  0  0  0  # atno 17342 bound_to 10162
  140.7808  143.4018  151.1137 LP  0  0  0  0  0  0  0  0  0  0  0  0  # atno 17343 bound_to 10162
  157.7339  131.0586  150.5552 LP  0  0  0  0  0  0  0  0  0  0  0  0  # atno 17370 bound_to 10713
  156.5667  130.4269  149.6038 LP  0  0  0  0  0  0  0  0  0  0  0  0  # atno 17371 bound_to 10713
  141.1751  133.8530  157.1447 LP  0  0  0  0  0  0  0  0  0  0  0  0  # atno 17394 bound_to 11000
  140.0143  134.9974  157.0461 LP  0  0  0  0  0  0  0  0  0  0  0  0  # atno 17395 bound_to 11000

$$$$
