AV-unprocessed.smi:217|AV-procd|sdf|1660|dock8
  -GOLD-   2262020 53D 1   1.00000     0.00000
 Structure written by MMmdl.
 57 61  0  0  0  0  0  0  0  0  1 V2000
  146.2967  131.7252  150.5152 O   0  0  0  0  0  0  0  0  0  0  0  0
  146.1488  133.0459  150.0359 C   0  0  0  0  0  0  0  0  0  0  0  0
  145.2326  133.8722  150.9532 C   0  0  0  0  0  0  0  0  0  0  0  0
  143.7881  133.3426  150.8425 C   0  0  0  0  0  0  0  0  0  0  0  0
  143.3691  133.2546  149.4955 O   0  0  0  0  0  0  0  0  0  0  0  0
  145.7486  134.0804  152.3950 C   0  0  0  0  0  0  0  0  0  0  0  0
  145.2829  135.5369  152.3438 C   0  0  0  0  0  0  0  0  0  0  0  0
  145.9883  136.5653  153.0506 N   0  0  0  0  0  0  0  0  0  0  0  0
  145.7527  137.9210  152.9874 C   0  0  0  0  0  0  0  0  0  0  0  0
  146.4995  138.6542  153.7680 N   0  0  0  0  0  0  0  0  0  0  0  0
  147.2819  137.7297  154.4473 C   0  0  0  0  0  0  0  0  0  0  0  0
  148.2829  137.8303  155.4480 C   0  0  0  0  0  0  0  0  0  0  0  0
  148.6762  139.0211  155.9480 N   0  0  0  0  0  0  0  0  0  0  0  0
  149.4764  139.8063  155.0137 C   0  0  0  0  0  0  0  0  0  0  0  0
  149.6894  141.2330  155.5465 C   0  0  0  0  0  0  0  0  0  0  0  0
  150.3066  141.2234  156.9620 C   0  0  0  0  0  0  0  0  0  0  0  0
  150.4699  142.6461  157.5355 C   0  0  2  0  0  0  0  0  0  0  0  0
  151.4955  143.5186  156.8111 C   0  0  0  0  0  0  0  0  0  0  0  0
  151.8267  144.5427  157.8720 C   0  0  0  0  0  0  0  0  0  0  0  0
  151.8110  143.6993  159.1436 C   0  0  0  0  0  0  0  0  0  0  0  0
  150.9504  142.5939  158.8770 O   0  0  0  0  0  0  0  0  0  0  0  0
  149.4345  140.3447  157.8834 C   0  0  0  0  0  0  0  0  0  0  0  0
  149.2320  138.9391  157.2952 C   0  0  0  0  0  0  0  0  0  0  0  0
  148.8472  136.6816  155.9055 N   0  0  0  0  0  0  0  0  0  0  0  0
  148.4492  135.5037  155.4146 C   0  0  0  0  0  0  0  0  0  0  0  0
  147.5261  135.2563  154.4819 N   0  0  0  0  0  0  0  0  0  0  0  0
  146.9655  136.4108  154.0185 C   0  0  0  0  0  0  0  0  0  0  0  0
  145.3825  135.4043  150.8223 C   0  0  0  0  0  0  0  0  0  0  0  0
  147.0823  131.3557  150.1416 H   0  0  0  0  0  0  0  0  0  0  0  0
  147.1346  133.5000  149.9358 H   0  0  0  0  0  0  0  0  0  0  0  0
  145.7366  132.9891  149.0282 H   0  0  0  0  0  0  0  0  0  0  0  0
  143.6985  132.3488  151.2811 H   0  0  0  0  0  0  0  0  0  0  0  0
  143.0870  133.9748  151.3874 H   0  0  0  0  0  0  0  0  0  0  0  0
  142.4366  133.4025  149.4607 H   0  0  0  0  0  0  0  0  0  0  0  0
  145.2530  133.4782  153.1569 H   0  0  0  0  0  0  0  0  0  0  0  0
  146.8337  133.9944  152.4778 H   0  0  0  0  0  0  0  0  0  0  0  0
  144.2407  135.6192  152.6565 H   0  0  0  0  0  0  0  0  0  0  0  0
  145.0077  138.3544  152.3358 H   0  0  0  0  0  0  0  0  0  0  0  0
  150.4412  139.3199  154.8616 H   0  0  0  0  0  0  0  0  0  0  0  0
  148.9809  139.8443  154.0425 H   0  0  0  0  0  0  0  0  0  0  0  0
  150.3299  141.7793  154.8543 H   0  0  0  0  0  0  0  0  0  0  0  0
  148.7338  141.7587  155.5651 H   0  0  0  0  0  0  0  0  0  0  0  0
  151.2957  140.7674  156.8973 H   0  0  0  0  0  0  0  0  0  0  0  0
  149.5077  143.1609  157.5459 H   0  0  0  0  0  0  0  0  0  0  0  0
  152.3852  142.9400  156.5582 H   0  0  0  0  0  0  0  0  0  0  0  0
  151.1052  143.9673  155.8973 H   0  0  0  0  0  0  0  0  0  0  0  0
  152.7798  145.0449  157.7036 H   0  0  0  0  0  0  0  0  0  0  0  0
  151.0431  145.3005  157.9149 H   0  0  0  0  0  0  0  0  0  0  0  0
  152.8081  143.3154  159.3623 H   0  0  0  0  0  0  0  0  0  0  0  0
  151.4695  144.2676  160.0091 H   0  0  0  0  0  0  0  0  0  0  0  0
  149.8905  140.2607  158.8701 H   0  0  0  0  0  0  0  0  0  0  0  0
  148.4626  140.8175  158.0316 H   0  0  0  0  0  0  0  0  0  0  0  0
  148.5634  138.3626  157.9362 H   0  0  0  0  0  0  0  0  0  0  0  0
  150.1854  138.4092  157.2678 H   0  0  0  0  0  0  0  0  0  0  0  0
  148.9408  134.6352  155.8274 H   0  0  0  0  0  0  0  0  0  0  0  0
  146.3600  135.7034  150.4392 H   0  0  0  0  0  0  0  0  0  0  0  0
  144.5806  135.8976  150.2721 H   0  0  0  0  0  0  0  0  0  0  0  0
  1  2  1  0  0  0  0
  1 29  1  0  0  0  0
  2  3  1  0  0  0  0
  2 30  1  0  0  0  0
  2 31  1  0  0  0  0
  3 28  1  0  0  0  0
  3  4  1  0  0  0  0
  3  6  1  0  0  0  0
  4  5  1  0  0  0  0
  4 32  1  0  0  0  0
  4 33  1  0  0  0  0
  5 34  1  0  0  0  0
  6  7  1  0  0  0  0
  6 35  1  0  0  0  0
  6 36  1  0  0  0  0
  7  8  1  0  0  0  0
  7 28  1  0  0  0  0
  7 37  1  0  0  0  0
  8 27  1  0  0  0  0
  8  9  1  0  0  0  0
  9 10  2  0  0  0  0
  9 38  1  0  0  0  0
 10 11  1  0  0  0  0
 11 27  2  0  0  0  0
 11 12  1  0  0  0  0
 12 13  1  0  0  0  0
 12 24  2  0  0  0  0
 13 23  1  0  0  0  0
 13 14  1  0  0  0  0
 14 15  1  0  0  0  0
 14 39  1  0  0  0  0
 14 40  1  0  0  0  0
 15 16  1  0  0  0  0
 15 41  1  0  0  0  0
 15 42  1  0  0  0  0
 16 17  1  0  0  0  0
 16 22  1  0  0  0  0
 16 43  1  0  0  0  0
 17 21  1  0  0  0  0
 17 18  1  0  0  0  0
 17 44  1  0  0  0  0
 18 19  1  0  0  0  0
 18 45  1  0  0  0  0
 18 46  1  0  0  0  0
 19 20  1  0  0  0  0
 19 47  1  0  0  0  0
 19 48  1  0  0  0  0
 20 21  1  0  0  0  0
 20 49  1  0  0  0  0
 20 50  1  0  0  0  0
 22 23  1  0  0  0  0
 22 51  1  0  0  0  0
 22 52  1  0  0  0  0
 23 53  1  0  0  0  0
 23 54  1  0  0  0  0
 24 25  1  0  0  0  0
 25 26  2  0  0  0  0
 25 55  1  0  0  0  0
 26 27  1  0  0  0  0
 28 56  1  0  0  0  0
 28 57  1  0  0  0  0
M  END
> <s_m_source_file>
AV-unprocessed.smi

> <i_m_source_file_index>
217

> <i_lp_mmshare_version>
43012

> <i_f3d_flags>
0

> <s_epik_input>
W09IXVtDSDJdQzEoW0NIMl1bT0hdKVtDSDJdW0NIXShbQ0gyXTEpbihbY0hdbjIpYyhjMjMpbltjSF1uYzNONFtDSDJdW0NIMl1bQ0hdKFtDSDJdW0NIMl00KVtDQEBIXTVbQ0gyXVtDSDJdW0NIMl1PNQ==

> <s_epik_cmdline>
J2VwaWtfcHl0aG9uJywgJy1waCcsICc3LjAnLCAnLXRuJywgJzgnLCAnLW1hJywgJzIwMCcsICctbWV0YWxfYmluZGluZycsICctaW1hZScsICc8aW5maWxlLm1hZT4nLCAnLW9tYWUnLCAnPG91dGZpbGUubWFlPic=

> <r_lp_tautomer_probability>
1

> <r_epik_Ionization_Penalty>
0.0037022

> <r_epik_Ionization_Penalty_Charging>
0

> <r_epik_Ionization_Penalty_Neutral>
0.0037022

> <r_epik_State_Penalty>
0.00257654

> <r_epik_Charging_Adjusted_Penalty>
0.00257654

> <i_epik_Tot_Q>
0

> <i_epik_Tot_abs_Q>
0

> <r_epik_Metal_State_Penalty>
-0

> <b_epik_Metal_Only>
0

> <s_lp_Force_Field>
OPLS_2005

> <r_lp_Energy>
56.6597

> <b_lp_Chiralities_Consistent>
1

> <s_lp_Variant>
AV-unprocessed.smi:217-1

> <Gold.Version>
5.8.1

> <Gold.Id.Protein>
6NUR|6NUR_protein|mol2

> <Gold.PLP.Fitness>
45.4589

> <Gold.PLP.PLP>
-36.1625

> <Gold.PLP.part.hbond>
-2.0000

> <Gold.PLP.part.metal>
0.0000

> <Gold.PLP.part.buried>
-4.0124

> <Gold.PLP.part.nonpolar>
-30.4812

> <Gold.PLP.part.repulsive>
0.3480

> <Gold.PLP.ligand.clash>
0.0000

> <Gold.PLP.ligand.torsion>
0.8879

> <Gold.PLP.Chemscore.Hbond>
2.0000

> <Gold.PLP.Chemscore.CHOScore>
1.4543

> <Gold.PLP.Chemscore.Metal>
0.0000

> <Gold.Chemscore.Hbonds>
donor molecule, donor type, donor heavy atom, donor atom, acceptor molecule, acceptor atom, score
      L1  H     1    29       P1 10747  1.00
      L1  H     5    34       P1 10186  1.00
      L1  C     9    38       P1 10171  0.40
      L1  C     9    38       P1 10175  1.00

> <Gold.PLP.Chemscore.Internal.Correction>
0.7092

> <Gold.Rescore>
     Score         DG    S(hbond)    S(metal)    S(lipo)     H(rot)  DE(clash)    DE(int)     intcor
     13.41     -15.34       1.99        0.00      99.29       3.28       0.12       1.81       ----

> <Gold.Chemscore.Fitness>
13.4071

> <Gold.Chemscore.DG>
-15.3414

> <Gold.Chemscore.ZeroCoef>
-5.4800

> <Gold.Chemscore.Hbond>
1.9921

> <Gold.Chemscore.Metal>
0.0000

> <Gold.Chemscore.Lipo>
99.2909

> <Gold.Chemscore.Internal_Hbond>
0.0000

> <Gold.Chemscore.DEClash>
0.1201

> <Gold.Chemscore.DEInternal>
1.8141

> <Gold.Chemscore.Rot>
3.2848

> <Gold.Chemscore.Internal.Correction>
   9.000000E+99

> <Gold.Chemscore.Hbonds>
donor molecule, donor type, donor heavy atom, donor atom, acceptor molecule, acceptor atom, score
      L1  H     1    29       P1 10747  0.95
      L1  H     5    34       P1 10186  0.98

> <Gold.Chemscore.Hbond.Weighted>
-6.6535

> <Gold.Chemscore.Metal.Weighted>
-0.0000

> <Gold.Chemscore.Lipo.Weighted>
-11.6170

> <Gold.Chemscore.Internal_Hbond.Weighted>
0.0000

> <Gold.Chemscore.DEClash.Weighted>
0.1201

> <Gold.Chemscore.DEInternal.Weighted>
1.8141

> <Gold.Chemscore.Rot.Weighted>
8.4092

> <Gold.Chemscore.Internal.Correction.Weighted>
   9.000000E+99

> <Gold.Protein.RotatedTorsions>
[ 6907 6896 6895 6894 ] final  -89.61 input  -60.11 | X-H torsion
[ 7974 7965 7964 7962 ] final  -54.16 input  175.53 | X-H torsion
[ 8008 7997 7996 7995 ] final -115.43 input   59.86 | X-H torsion
[ 10167 10162 10161 10158 ] final  114.54 input  -65.29 | X-H torsion
[ 10718 10713 10712 10709 ] final  -25.06 input   66.30 | X-H torsion
[ 10763 10752 10751 10750 ] final   50.73 input  -60.55 | X-H torsion
[ 11005 11000 10999 10996 ] final -115.25 input  -57.11 | X-H torsion

> <Gold.Protein.ActiveResidues>
 VAL166  LYS551  ARG553  GLY616  TRP617  ASP618  TYR619  PRO620  LYS621  CYS622 
 ASP623  PHE694  ASN695  SER759  ASP760  ASP761  ALA762  ILE779  LEU786  VAL792 
 PHE793  MET794  SER795  GLU796  ALA797  LYS798  CYS799  TRP800  GLU811  SER814 

> <Gold.Protein.RotatedAtoms>
  150.6875  134.2560  159.4529 H   0  0  0  0  0  0  0  0  0  0  0  0  # atno 6907 bound_to 6896
  152.0494  134.9660  160.0584 H   0  0  0  0  0  0  0  0  0  0  0  0  # atno 6908 bound_to 6896
  152.1130  133.4276  159.4677 H   0  0  0  0  0  0  0  0  0  0  0  0  # atno 6909 bound_to 6896
  145.8887  140.8087  142.9802 H   0  0  0  0  0  0  0  0  0  0  0  0  # atno 7974 bound_to 7965
  155.0519  140.0393  157.2546 H   0  0  0  0  0  0  0  0  0  0  0  0  # atno 8008 bound_to 7997
  154.7131  140.2696  155.6587 H   0  0  0  0  0  0  0  0  0  0  0  0  # atno 8009 bound_to 7997
  156.2795  140.2718  156.1779 H   0  0  0  0  0  0  0  0  0  0  0  0  # atno 8010 bound_to 7997
  139.6381  144.7121  151.2292 H   0  0  0  0  0  0  0  0  0  0  0  0  # atno 10167 bound_to 10162
  156.4694  130.4521  149.6879 H   0  0  0  0  0  0  0  0  0  0  0  0  # atno 10718 bound_to 10713
  152.9784  135.5869  154.4300 H   0  0  0  0  0  0  0  0  0  0  0  0  # atno 10763 bound_to 10752
  154.3914  135.2768  155.2154 H   0  0  0  0  0  0  0  0  0  0  0  0  # atno 10764 bound_to 10752
  154.4024  135.6100  153.5959 H   0  0  0  0  0  0  0  0  0  0  0  0  # atno 10765 bound_to 10752
  141.0500  133.9703  157.2853 H   0  0  0  0  0  0  0  0  0  0  0  0  # atno 11005 bound_to 11000
  144.6729  140.1496  143.7431 LP  0  0  0  0  0  0  0  0  0  0  0  0  # atno 17320 bound_to 7965
  145.8934  139.2389  143.1536 LP  0  0  0  0  0  0  0  0  0  0  0  0  # atno 17321 bound_to 7965
  140.7476  143.6360  150.8379 LP  0  0  0  0  0  0  0  0  0  0  0  0  # atno 17342 bound_to 10162
  139.9994  143.5761  152.2881 LP  0  0  0  0  0  0  0  0  0  0  0  0  # atno 17343 bound_to 10162
  156.3634  130.7493  151.2468 LP  0  0  0  0  0  0  0  0  0  0  0  0  # atno 17370 bound_to 10713
  157.7492  131.0344  150.4314 LP  0  0  0  0  0  0  0  0  0  0  0  0  # atno 17371 bound_to 10713
  139.9342  135.0198  156.8502 LP  0  0  0  0  0  0  0  0  0  0  0  0  # atno 17394 bound_to 11000
  140.6074  134.0114  155.7562 LP  0  0  0  0  0  0  0  0  0  0  0  0  # atno 17395 bound_to 11000

$$$$
