#       Name:                AV-unprocessed.smi:2800
#       Creating user name   scv26
#       Creation time:       Fri Mar 27 15:22:57 2020


#       File generated by GOLD software.
#

@<TRIPOS>MOLECULE
AV-unprocessed.smi:2800
    56    57     1
SMALL
NO_CHARGES


@<TRIPOS>ATOM
      1 ****        -2.2449  -1.6487   0.7348 C.3            1 S1                 0.0000
      2 ****        -2.0906  -0.1906   0.3426 C.ar           1 S1                 0.0000
      3 ****        -3.2215   0.5292   0.1693 N.pl3          1 S1                 1.0000
      4 ****        -3.2407   1.8360  -0.1839 C.ar           1 S1                 0.0000
      5 ****        -4.4855   2.4759  -0.3366 N.pl3          1 S1                 0.0000
      6 ****        -4.5946   3.7823  -0.9648 C.3            1 S1                 0.0000
      7 ****        -6.0973   4.0174  -1.1154 C.3            1 S1                 0.0000
      8 ****        -6.6516   2.6076  -1.3179 C.3            1 S1                 0.0000
      9 ****        -5.7229   1.7195  -0.4828 C.3            1 S1                 0.0000
     10 ****        -2.0068   2.5012  -0.3684 C.ar           1 S1                 0.0000
     11 ****        -0.7988   1.7957  -0.1972 C.ar           1 S1                 0.0000
     12 ****        -0.8295   0.4217   0.1491 C.ar           1 S1                 0.0000
     13 ****         0.3414  -0.3629   0.3478 N.am           1 S1                 0.0000
     14 ****         1.5807  -0.1603  -0.1310 C.2            1 S1                 0.0000
     15 ****         1.9272   0.7902  -0.8315 O.2            1 S1                 0.0000
     16 ****         2.4080  -1.1486   0.2385 N.am           1 S1                 0.0000
     17 ****         3.8332  -1.2419  -0.0889 C.3            1 S1                 0.0000
     18 ****         3.9974  -1.8036  -1.5260 C.3            1 S1                 0.0000
     19 ****         5.1581  -1.2919  -2.1470 O.3            1 S1                 0.0000
     20 ****         4.6042  -2.0109   1.0358 C.3            1 S1                 0.0000
     21 ****         4.4580  -1.2474   2.3715 C.3            1 S1                 0.0000
     22 ****         6.1105  -2.0951   0.7133 C.3            1 S1                 0.0000
     23 ****         4.0595  -3.4433   1.2402 C.3            1 S1                 0.0000
     24 ****         4.2166  -0.2189  -0.0964 H              1 S1                 0.0000
     25 ****        -1.7690  -1.8350   1.6980 H              1 S1                 0.0000
     26 ****        -1.7793  -2.2939  -0.0108 H              1 S1                 0.0000
     27 ****        -3.2954  -1.9305   0.8163 H              1 S1                 0.0000
     28 ****        -4.1257   4.5608  -0.3622 H              1 S1                 0.0000
     29 ****        -4.1094   3.7588  -1.9414 H              1 S1                 0.0000
     30 ****        -6.5001   4.4424  -0.1949 H              1 S1                 0.0000
     31 ****        -6.3414   4.6939  -1.9349 H              1 S1                 0.0000
     32 ****        -7.6988   2.5156  -1.0284 H              1 S1                 0.0000
     33 ****        -6.5704   2.3339  -2.3709 H              1 S1                 0.0000
     34 ****        -5.5705   0.7537  -0.9657 H              1 S1                 0.0000
     35 ****        -6.1442   1.5438   0.5076 H              1 S1                 0.0000
     36 ****        -1.9680   3.5469  -0.6349 H              1 S1                 0.0000
     37 ****         0.1286   2.3317  -0.3242 H              1 S1                 0.0000
     38 ****         0.2004  -1.2271   0.8502 H              1 S1                 0.0000
     39 ****         2.0320  -1.8918   0.8086 H              1 S1                 0.0000
     40 ****         4.0138  -2.8919  -1.5471 H              1 S1                 0.0000
     41 ****         3.1612  -1.5002  -2.1568 H              1 S1                 0.0000
     42 ****         5.1942  -1.6196  -3.0326 H              1 S1                 0.0000
     43 ****         5.0344  -1.7219   3.1664 H              1 S1                 0.0000
     44 ****         3.4225  -1.2074   2.7105 H              1 S1                 0.0000
     45 ****         4.8136  -0.2202   2.2824 H              1 S1                 0.0000
     46 ****         6.5338  -1.1072   0.5287 H              1 S1                 0.0000
     47 ****         6.3037  -2.7094  -0.1663 H              1 S1                 0.0000
     48 ****         6.6685  -2.5409   1.5373 H              1 S1                 0.0000
     49 ****         4.5880  -3.9508   2.0481 H              1 S1                 0.0000
     50 ****         4.1803  -4.0594   0.3501 H              1 S1                 0.0000
     51 ****         3.0012  -3.4458   1.5018 H              1 S1                 0.0000
     52 ****        -4.1148   0.0575   0.3114 H              1 S1                 0.0000
     53 ****         1.2617   1.4913  -1.0878 LP             1 S1                 0.0000
     54 ****         2.8743   0.8616  -1.1445 LP             1 S1                 0.0000
     55 ****         5.9692  -1.5902  -1.6438 LP             1 S1                 0.0000
     56 ****         5.1218  -0.2926  -2.1585 LP             1 S1                 0.0000
@<TRIPOS>BOND
    1    1    2 1     
    2    1   25 1     
    3    1   26 1     
    4    1   27 1     
    5    2   12 ar    
    6    2    3 ar    
    7    3    4 ar    
    8    3   52 1     
    9    4    5 1     
   10    4   10 ar    
   11    5    9 1     
   12    5    6 1     
   13    6    7 1     
   14    6   28 1     
   15    6   29 1     
   16    7    8 1     
   17    7   30 1     
   18    7   31 1     
   19    8    9 1     
   20    8   32 1     
   21    8   33 1     
   22    9   34 1     
   23    9   35 1     
   24   10   11 ar    
   25   10   36 1     
   26   11   12 ar    
   27   11   37 1     
   28   12   13 1     
   29   13   14 am    
   30   13   38 1     
   31   14   15 2     
   32   14   16 am    
   33   16   17 1     
   34   16   39 1     
   35   17   24 1     
   36   17   18 1     
   37   17   20 1     
   38   18   19 1     
   39   18   40 1     
   40   18   41 1     
   41   19   42 1     
   42   20   21 1     
   43   20   22 1     
   44   20   23 1     
   45   21   43 1     
   46   21   44 1     
   47   21   45 1     
   48   22   46 1     
   49   22   47 1     
   50   22   48 1     
   51   23   49 1     
   52   23   50 1     
   53   23   51 1     
   54   15   53 1     
   55   15   54 1     
   56   19   55 1     
   57   19   56 1     
@<TRIPOS>SUBSTRUCTURE
      1 S1             1
@<TRIPOS>SET
LONE_PAIRS      STATIC     ATOMS    <user>   **** ""
4 53 54 55 56
DONOR_HYDROGENS      STATIC     ATOMS    <user>   **** ""
4 52 38 39 42
ATOM$BLUE        STATIC     ATOMS    COLORGROUP SYSTEM
4 53 54 55 56
ATOM$RED        STATIC     ATOMS    COLORGROUP SYSTEM
4 52 38 39 42
