#       Name:                AV-unprocessed.smi:287
#       Creating user name   scv26
#       Creation time:       Thu Mar 26 22:02:02 2020


#       File generated by GOLD software.
#

@<TRIPOS>MOLECULE
AV-unprocessed.smi:287
    70    73     1
SMALL
NO_CHARGES


@<TRIPOS>ATOM
      1 ****        -0.2146   4.8086  -3.9733 C.3            1 S1                 0.0000
      2 ****        -0.6405   4.6747  -2.5512 C.2            1 S1                 0.0000
      3 ****        -1.3016   3.7083  -1.8508 C.2            1 S1                 0.0000
      4 ****        -1.4121   4.1595  -0.5014 C.2            1 S1                 0.0000
      5 ****        -2.0827   3.4085   0.6409 C.3            1 S1                 0.0000
      6 ****        -3.6105   3.4825   0.4845 C.3            1 S1                 0.0000
      7 ****        -1.8067   3.9730   1.9083 O.3            1 S1                 0.0000
      8 ****        -1.6288   1.9336   0.7249 C.3            1 S1                 0.0000
      9 ****        -0.1852   1.7750   0.6052 N.pl3          1 S1                 0.0000
     10 ****         0.3809   0.5501   0.5859 C.ar           1 S1                 0.0000
     11 ****         1.7291   0.5349   0.4594 N.ar           1 S1                 0.0000
     12 ****         2.3875  -0.6264   0.4272 C.ar           1 S1                 0.0000
     13 ****         1.8974  -1.8641   0.5039 N.ar           1 S1                 0.0000
     14 ****         0.5389  -1.8609   0.6319 C.ar           1 S1                 0.0000
     15 ****        -0.2926  -0.7046   0.6829 C.ar           1 S1                 0.0000
     16 ****        -1.6189  -1.1016   0.8209 N.2            1 S1                 0.0000
     17 ****        -1.5682  -2.4050   0.8473 C.2            1 S1                 0.0000
     18 ****        -0.3087  -2.9463   0.7328 N.pl3          1 S1                 0.0000
     19 ****         0.0611  -4.3972   0.7206 C.3            1 S1                 0.0000
     20 ****         1.2163  -4.5627   1.4801 O.3            1 S1                 0.0000
     21 ****         2.0175  -5.5809   0.8937 C.3            1 S1                 0.0000
     22 ****         3.4701  -5.4963   1.3947 C.3            1 S1                 0.0000
     23 ****         3.5903  -6.1456   2.6423 O.3            1 S1                 0.0000
     24 ****         1.8188  -5.3579  -0.6130 C.3            1 S1                 0.0000
     25 ****         2.7039  -4.3650  -1.1034 O.3            1 S1                 0.0000
     26 ****         0.3517  -4.9380  -0.6961 C.3            1 S1                 0.0000
     27 ****         0.0698  -4.0491  -1.7655 O.3            1 S1                 0.0000
     28 ****        -0.8075   5.3939  -0.4940 C.2            1 S1                 0.0000
     29 ****        -0.5740   6.4287   0.5571 C.3            1 S1                 0.0000
     30 ****        -0.3336   5.7112  -1.7314 O.3            1 S1                 0.0000
     31 ****        -0.7803  -4.9007   1.1986 H              1 S1                 0.0000
     32 ****         1.5867  -6.5505   1.1521 H              1 S1                 0.0000
     33 ****         2.0041  -6.2727  -1.1770 H              1 S1                 0.0000
     34 ****        -0.2648  -5.8285  -0.8253 H              1 S1                 0.0000
     35 ****        -0.2607   3.8473  -4.4856 H              1 S1                 0.0000
     36 ****         0.8092   5.1771  -4.0394 H              1 S1                 0.0000
     37 ****        -0.8613   5.5064  -4.5054 H              1 S1                 0.0000
     38 ****        -1.6644   2.7769  -2.2600 H              1 S1                 0.0000
     39 ****        -3.9333   3.0330  -0.4553 H              1 S1                 0.0000
     40 ****        -3.9603   4.5158   0.4906 H              1 S1                 0.0000
     41 ****        -4.1219   2.9556   1.2911 H              1 S1                 0.0000
     42 ****        -2.2493   3.4603   2.5673 H              1 S1                 0.0000
     43 ****        -1.9859   1.4715   1.6463 H              1 S1                 0.0000
     44 ****        -2.0819   1.3858  -0.1024 H              1 S1                 0.0000
     45 ****         0.3443   2.6322   0.5331 H              1 S1                 0.0000
     46 ****         3.4603  -0.5540   0.3245 H              1 S1                 0.0000
     47 ****        -2.4565  -3.0117   0.9460 H              1 S1                 0.0000
     48 ****         4.1385  -6.0030   0.6981 H              1 S1                 0.0000
     49 ****         3.8038  -4.4609   1.4738 H              1 S1                 0.0000
     50 ****         4.4882  -6.0795   2.9295 H              1 S1                 0.0000
     51 ****         2.5145  -3.5522  -0.6576 H              1 S1                 0.0000
     52 ****        -0.8346  -3.7826  -1.7048 H              1 S1                 0.0000
     53 ****        -1.5040   6.6763   1.0692 H              1 S1                 0.0000
     54 ****        -0.1758   7.3476   0.1261 H              1 S1                 0.0000
     55 ****         0.1381   6.0695   1.3003 H              1 S1                 0.0000
     56 ****        -2.1370   4.9165   1.9367 LP             1 S1                 0.0000
     57 ****        -0.8210   3.9597   2.0762 LP             1 S1                 0.0000
     58 ****         2.2331   1.3958   0.3899 LP             1 S1                 0.0000
     59 ****         2.4565  -2.6926   0.4716 LP             1 S1                 0.0000
     60 ****        -2.4290  -0.5189   0.8854 LP             1 S1                 0.0000
     61 ****         0.9690  -4.8266   2.4124 LP             1 S1                 0.0000
     62 ****         1.7287  -3.7042   1.5015 LP             1 S1                 0.0000
     63 ****         3.3365  -7.1082   2.5475 LP             1 S1                 0.0000
     64 ****         2.9893  -5.7067   3.3103 LP             1 S1                 0.0000
     65 ****         2.5709  -4.2498  -2.0878 LP             1 S1                 0.0000
     66 ****         3.6495  -4.6366  -0.9243 LP             1 S1                 0.0000
     67 ****         0.2271  -4.5112  -2.6382 LP             1 S1                 0.0000
     68 ****         0.6627  -3.2464  -1.7017 LP             1 S1                 0.0000
     69 ****        -0.7676   6.5498  -2.0607 LP             1 S1                 0.0000
     70 ****         0.6575   5.8401  -1.6970 LP             1 S1                 0.0000
@<TRIPOS>BOND
    1    1    2 1     
    2    1   35 1     
    3    1   36 1     
    4    1   37 1     
    5    2   30 1     
    6    2    3 2     
    7    3    4 1     
    8    3   38 1     
    9    4    5 1     
   10    4   28 2     
   11    5    6 1     
   12    5    7 1     
   13    5    8 1     
   14    6   39 1     
   15    6   40 1     
   16    6   41 1     
   17    7   42 1     
   18    8    9 1     
   19    8   43 1     
   20    8   44 1     
   21    9   10 1     
   22    9   45 1     
   23   10   15 ar    
   24   10   11 ar    
   25   11   12 ar    
   26   12   13 ar    
   27   12   46 1     
   28   13   14 ar    
   29   14   18 1     
   30   14   15 ar    
   31   15   16 1     
   32   16   17 2     
   33   17   18 1     
   34   17   47 1     
   35   18   19 1     
   36   19   31 1     
   37   19   26 1     
   38   19   20 1     
   39   20   21 1     
   40   21   32 1     
   41   21   22 1     
   42   21   24 1     
   43   22   23 1     
   44   22   48 1     
   45   22   49 1     
   46   23   50 1     
   47   24   33 1     
   48   24   25 1     
   49   24   26 1     
   50   25   51 1     
   51   26   34 1     
   52   26   27 1     
   53   27   52 1     
   54   28   29 1     
   55   28   30 1     
   56   29   53 1     
   57   29   54 1     
   58   29   55 1     
   59    7   56 1     
   60    7   57 1     
   61   11   58 1     
   62   13   59 1     
   63   16   60 1     
   64   20   61 1     
   65   20   62 1     
   66   23   63 1     
   67   23   64 1     
   68   25   65 1     
   69   25   66 1     
   70   27   67 1     
   71   27   68 1     
   72   30   69 1     
   73   30   70 1     
@<TRIPOS>SUBSTRUCTURE
      1 S1             1
@<TRIPOS>SET
LONE_PAIRS      STATIC     ATOMS    <user>   **** ""
15 56 57 58 59 60 61 62 63 64 65 66 67 68 69 70
DONOR_HYDROGENS      STATIC     ATOMS    <user>   **** ""
5 42 45 50 51 52
ATOM$BLUE        STATIC     ATOMS    COLORGROUP SYSTEM
15 56 57 58 59 60 61 62 63 64 65 66 67 68 69 70
ATOM$RED        STATIC     ATOMS    COLORGROUP SYSTEM
5 42 45 50 51 52
