AV-unprocessed.smi:1426|AV-procd|sdf|5808|dock5
  -GOLD-   22720 5463D 1   1.00000     0.00000
 Structure written by MMmdl.
 44 46  0  0  0  0  0  0  0  0  2 V2000
  149.7845  133.5086  155.5376 O   0  0  0  0  0  0  0  0  0  0  0  0
  149.4866  134.2738  154.6207 C   0  0  0  0  0  0  0  0  0  0  0  0
  149.8094  135.5746  154.6053 N   0  0  0  0  0  0  0  0  0  0  0  0
  150.5451  136.2663  155.6585 C   0  0  0  0  0  0  0  0  0  0  0  0
  150.4361  137.7975  155.5277 C   0  0  1  0  0  0  0  0  0  0  0  0
  150.7158  138.5462  156.8141 C   0  0  0  0  0  0  0  0  0  0  0  0
  151.0002  139.9540  156.3003 C   0  0  0  0  0  0  0  0  0  0  0  0
  151.6070  139.7839  155.0225 O   0  0  0  0  0  0  0  0  0  0  0  0
  151.4592  138.4356  154.5857 C   0  0  0  0  0  0  0  0  0  0  0  0
  148.7852  133.9326  153.5268 N   0  0  0  0  0  0  0  0  0  0  0  0
  148.2527  132.6554  153.1899 C   0  0  0  0  0  0  0  0  0  0  0  0
  148.7771  131.4666  153.7599 C   0  0  0  0  0  0  0  0  0  0  0  0
  148.2192  130.2191  153.4229 C   0  0  0  0  0  0  0  0  0  0  0  0
  147.1464  130.1769  152.5164 C   0  0  0  0  0  0  0  0  0  0  0  0
  146.6832  131.3225  151.9755 N   0  3  0  0  0  0  0  0  0  0  0  0
  147.1873  132.5523  152.2483 C   0  0  0  0  0  0  0  0  0  0  0  0
  146.6071  133.6624  151.5929 N   0  0  0  0  0  0  0  0  0  0  0  0
  146.0428  134.7634  152.3647 C   0  0  0  0  0  0  0  0  0  0  0  0
  145.2140  135.5643  151.3643 C   0  0  0  0  0  0  0  0  0  0  0  0
  144.6646  134.4740  150.4496 C   0  0  0  0  0  0  0  0  0  0  0  0
  145.7932  133.4382  150.4023 C   0  0  0  0  0  0  0  0  0  0  0  0
  149.5229  136.1303  153.8127 H   0  0  0  0  0  0  0  0  0  0  0  0
  150.1863  135.9443  156.6377 H   0  0  0  0  0  0  0  0  0  0  0  0
  151.5891  135.9581  155.5983 H   0  0  0  0  0  0  0  0  0  0  0  0
  149.4339  138.0661  155.1888 H   0  0  0  0  0  0  0  0  0  0  0  0
  149.8853  138.5122  157.5200 H   0  0  0  0  0  0  0  0  0  0  0  0
  151.6012  138.1430  157.3077 H   0  0  0  0  0  0  0  0  0  0  0  0
  150.0688  140.5064  156.1706 H   0  0  0  0  0  0  0  0  0  0  0  0
  151.6404  140.5232  156.9747 H   0  0  0  0  0  0  0  0  0  0  0  0
  152.4273  137.9404  154.6728 H   0  0  0  0  0  0  0  0  0  0  0  0
  151.1495  138.3886  153.5412 H   0  0  0  0  0  0  0  0  0  0  0  0
  148.5240  134.6902  152.9131 H   0  0  0  0  0  0  0  0  0  0  0  0
  149.6074  131.4913  154.4496 H   0  0  0  0  0  0  0  0  0  0  0  0
  148.6091  129.3092  153.8550 H   0  0  0  0  0  0  0  0  0  0  0  0
  146.6536  129.2683  152.2018 H   0  0  0  0  0  0  0  0  0  0  0  0
  145.3940  134.3835  153.1551 H   0  0  0  0  0  0  0  0  0  0  0  0
  146.8240  135.3716  152.8220 H   0  0  0  0  0  0  0  0  0  0  0  0
  144.4334  136.1600  151.8383 H   0  0  0  0  0  0  0  0  0  0  0  0
  145.8593  136.2365  150.7968 H   0  0  0  0  0  0  0  0  0  0  0  0
  143.7773  134.0302  150.9034 H   0  0  0  0  0  0  0  0  0  0  0  0
  144.3869  134.8446  149.4622 H   0  0  0  0  0  0  0  0  0  0  0  0
  146.4115  133.6025  149.5194 H   0  0  0  0  0  0  0  0  0  0  0  0
  145.3974  132.4227  150.3585 H   0  0  0  0  0  0  0  0  0  0  0  0
  145.9104  131.2576  151.3130 H   0  0  0  0  0  0  0  0  0  0  0  0
  1  2  2  0  0  0  0
  2  3  1  0  0  0  0
  2 10  1  0  0  0  0
  3  4  1  0  0  0  0
  3 22  1  0  0  0  0
  4  5  1  0  0  0  0
  4 23  1  0  0  0  0
  4 24  1  0  0  0  0
  5  9  1  0  0  0  0
  5  6  1  0  0  0  0
  5 25  1  0  0  0  0
  6  7  1  0  0  0  0
  6 26  1  0  0  0  0
  6 27  1  0  0  0  0
  7  8  1  0  0  0  0
  7 28  1  0  0  0  0
  7 29  1  0  0  0  0
  8  9  1  0  0  0  0
  9 30  1  0  0  0  0
  9 31  1  0  0  0  0
 10 11  1  0  0  0  0
 10 32  1  0  0  0  0
 11 16  1  0  0  0  0
 11 12  2  0  0  0  0
 12 13  1  0  0  0  0
 12 33  1  0  0  0  0
 13 14  2  0  0  0  0
 13 34  1  0  0  0  0
 14 15  1  0  0  0  0
 14 35  1  0  0  0  0
 15 16  2  0  0  0  0
 15 44  1  0  0  0  0
 16 17  1  0  0  0  0
 17 21  1  0  0  0  0
 17 18  1  0  0  0  0
 18 19  1  0  0  0  0
 18 36  1  0  0  0  0
 18 37  1  0  0  0  0
 19 20  1  0  0  0  0
 19 38  1  0  0  0  0
 19 39  1  0  0  0  0
 20 21  1  0  0  0  0
 20 40  1  0  0  0  0
 20 41  1  0  0  0  0
 21 42  1  0  0  0  0
 21 43  1  0  0  0  0
M  CHG  1  15   1
M  END
> <s_m_source_file>
AV-unprocessed.smi

> <i_m_source_file_index>
1426

> <i_lp_mmshare_version>
43012

> <i_f3d_flags>
0

> <s_epik_input>
W0NIMl0xT1tDSDJdW0NIMl1bQ0BIXTFbQ0gyXVtOSF1DKD1PKVtOSF1jMltjSF1bY0hdW2NIXW5jMk4zW0NIMl1bQ0gyXVtDSDJdW0NIMl0z

> <s_epik_cmdline>
J2VwaWtfcHl0aG9uJywgJy1waCcsICc3LjAnLCAnLXRuJywgJzgnLCAnLW1hJywgJzIwMCcsICctbWV0YWxfYmluZGluZycsICctaW1hZScsICc8aW5maWxlLm1hZT4nLCAnLW9tYWUnLCAnPG91dGZpbGUubWFlPic=

> <r_lp_tautomer_probability>
0.999994

> <r_epik_Ionization_Penalty>
1.10677

> <r_epik_Ionization_Penalty_Charging>
1.10675

> <r_epik_Ionization_Penalty_Neutral>
2.02663e-05

> <r_epik_State_Penalty>
1.16438

> <r_epik_Charging_Adjusted_Penalty>
2.27113

> <i_epik_Tot_Q>
1

> <i_epik_Tot_abs_Q>
1

> <r_epik_Metal_State_Penalty>
1.25078

> <b_epik_Metal_Only>
0

> <s_lp_Force_Field>
OPLS_2005

> <r_lp_Energy>
54.362

> <b_lp_Chiralities_Consistent>
1

> <s_lp_Variant>
AV-unprocessed.smi:1426-4

> <Gold.Version>
5.8.1

> <Gold.Id.Protein>
6NUR|6NUR_protein|mol2

> <Gold.PLP.Fitness>
43.7085

> <Gold.PLP.PLP>
-35.9384

> <Gold.PLP.part.hbond>
-3.7716

> <Gold.PLP.part.metal>
0.0000

> <Gold.PLP.part.buried>
-3.6779

> <Gold.PLP.part.nonpolar>
-28.0245

> <Gold.PLP.part.repulsive>
0.3105

> <Gold.PLP.ligand.clash>
0.0000

> <Gold.PLP.ligand.torsion>
0.6806

> <Gold.PLP.Chemscore.Hbond>
2.9120

> <Gold.PLP.Chemscore.CHOScore>
0.0000

> <Gold.PLP.Chemscore.Metal>
0.0000

> <Gold.Chemscore.Hbonds>
donor molecule, donor type, donor heavy atom, donor atom, acceptor molecule, acceptor atom, score
      L1  H     3    22       P1  7948  0.98
      L1  H    10    32       P1  7948  1.00
      P1  H  7989  7998       L1     8  1.00

> <Gold.PLP.Chemscore.Internal.Correction>
0.3953

> <Gold.Rescore>
     Score         DG    S(hbond)    S(metal)    S(lipo)     H(rot)  DE(clash)    DE(int)     intcor
     16.34     -18.37       2.48        0.00      69.99       1.40       0.03       1.99       ----

> <Gold.Chemscore.Fitness>
16.3447

> <Gold.Chemscore.DG>
-18.3712

> <Gold.Chemscore.ZeroCoef>
-5.4800

> <Gold.Chemscore.Hbond>
2.4828

> <Gold.Chemscore.Metal>
0.0000

> <Gold.Chemscore.Lipo>
69.9881

> <Gold.Chemscore.Internal_Hbond>
0.0000

> <Gold.Chemscore.DEClash>
0.0348

> <Gold.Chemscore.DEInternal>
1.9917

> <Gold.Chemscore.Rot>
1.4023

> <Gold.Chemscore.Internal.Correction>
   9.000000E+99

> <Gold.Chemscore.Hbonds>
donor molecule, donor type, donor heavy atom, donor atom, acceptor molecule, acceptor atom, score
      L1  H     3    22       P1  7948  0.54
      L1  H    10    32       P1  7948  0.29
      P1  H  7989  7998       L1     8  0.64

> <Gold.Chemscore.Hbond.Weighted>
-8.2924

> <Gold.Chemscore.Metal.Weighted>
-0.0000

> <Gold.Chemscore.Lipo.Weighted>
-8.1886

> <Gold.Chemscore.Internal_Hbond.Weighted>
0.0000

> <Gold.Chemscore.DEClash.Weighted>
0.0348

> <Gold.Chemscore.DEInternal.Weighted>
1.9917

> <Gold.Chemscore.Rot.Weighted>
3.5898

> <Gold.Chemscore.Internal.Correction.Weighted>
   9.000000E+99

> <Gold.Protein.RotatedTorsions>
[ 6907 6896 6895 6894 ] final  -99.73 input  -60.11 | X-H torsion
[ 7974 7965 7964 7962 ] final -173.89 input  175.53 | X-H torsion
[ 8008 7997 7996 7995 ] final  -91.70 input   59.86 | X-H torsion
[ 10167 10162 10161 10158 ] final  -63.73 input  -65.29 | X-H torsion
[ 10718 10713 10712 10709 ] final   55.49 input   66.30 | X-H torsion
[ 10763 10752 10751 10750 ] final  -95.06 input  -60.55 | X-H torsion
[ 11005 11000 10999 10996 ] final  -52.04 input  -57.11 | X-H torsion

> <Gold.Protein.ActiveResidues>
 VAL166  LYS551  ARG553  GLY616  TRP617  ASP618  TYR619  PRO620  LYS621  CYS622 
 ASP623  PHE694  ASN695  SER759  ASP760  ASP761  ALA762  ILE779  LEU786  VAL792 
 PHE793  MET794  SER795  GLU796  ALA797  LYS798  CYS799  TRP800  GLU811  SER814 

> <Gold.Protein.RotatedAtoms>
  150.7090  134.0995  159.3960 H   0  0  0  0  0  0  0  0  0  0  0  0  # atno 6907 bound_to 6896
  151.8981  135.0387  160.0513 H   0  0  0  0  0  0  0  0  0  0  0  0  # atno 6908 bound_to 6896
  152.2436  133.5121  159.5321 H   0  0  0  0  0  0  0  0  0  0  0  0  # atno 6909 bound_to 6896
  144.7135  140.1554  143.6380 H   0  0  0  0  0  0  0  0  0  0  0  0  # atno 7974 bound_to 7965
  154.7140  140.0516  157.0577 H   0  0  0  0  0  0  0  0  0  0  0  0  # atno 8008 bound_to 7997
  155.0517  140.3180  155.4671 H   0  0  0  0  0  0  0  0  0  0  0  0  # atno 8009 bound_to 7997
  156.2797  140.2114  156.5642 H   0  0  0  0  0  0  0  0  0  0  0  0  # atno 8010 bound_to 7997
  140.5850  143.2332  151.6262 H   0  0  0  0  0  0  0  0  0  0  0  0  # atno 10167 bound_to 10162
  157.5349  130.8656  149.8739 H   0  0  0  0  0  0  0  0  0  0  0  0  # atno 10718 bound_to 10713
  154.7113  135.5135  153.8670 H   0  0  0  0  0  0  0  0  0  0  0  0  # atno 10763 bound_to 10752
  153.0783  135.6623  154.0108 H   0  0  0  0  0  0  0  0  0  0  0  0  # atno 10764 bound_to 10752
  153.9949  135.3016  155.3388 H   0  0  0  0  0  0  0  0  0  0  0  0  # atno 10765 bound_to 10752
  141.0903  133.6634  156.3966 H   0  0  0  0  0  0  0  0  0  0  0  0  # atno 11005 bound_to 11000
  145.9079  139.2469  143.1455 LP  0  0  0  0  0  0  0  0  0  0  0  0  # atno 17320 bound_to 7965
  145.9746  140.8733  143.0145 LP  0  0  0  0  0  0  0  0  0  0  0  0  # atno 17321 bound_to 7965
  139.5192  144.3260  152.0868 LP  0  0  0  0  0  0  0  0  0  0  0  0  # atno 17342 bound_to 10162
  140.2416  144.4263  150.6258 LP  0  0  0  0  0  0  0  0  0  0  0  0  # atno 17343 bound_to 10162
  156.0451  130.3730  150.1338 LP  0  0  0  0  0  0  0  0  0  0  0  0  # atno 17370 bound_to 10713
  156.9521  130.9778  151.3496 LP  0  0  0  0  0  0  0  0  0  0  0  0  # atno 17371 bound_to 10713
  140.5267  134.6252  157.5336 LP  0  0  0  0  0  0  0  0  0  0  0  0  # atno 17394 bound_to 11000
  139.9728  134.7265  156.0008 LP  0  0  0  0  0  0  0  0  0  0  0  0  # atno 17395 bound_to 11000

$$$$
