#       Name:                AV-unprocessed.smi:2925
#       Creating user name   scv26
#       Creation time:       Fri Mar 27 16:11:34 2020


#       File generated by GOLD software.
#

@<TRIPOS>MOLECULE
AV-unprocessed.smi:2925
    50    51     1
SMALL
NO_CHARGES


@<TRIPOS>ATOM
      1 ****        -2.2664   0.2887   3.3753 C.3            1 S1                 0.0000
      2 ****        -2.6321  -0.8333   2.3922 C.3            1 S1                 0.0000
      3 ****        -2.1041  -0.6027   0.9606 C.3            1 S1                 0.0000
      4 ****        -0.6436  -0.5277   0.9879 N.am           1 S1                 0.0000
      5 ****         0.1067   0.3413   0.2957 C.2            1 S1                 0.0000
      6 ****        -0.3539   1.2074  -0.4494 O.2            1 S1                 0.0000
      7 ****         1.4180   0.1225   0.4974 N.am           1 S1                 0.0000
      8 ****         2.4724   0.8110  -0.1215 C.2            1 S1                 0.0000
      9 ****         3.4085   0.1040  -0.8077 C.2            1 S1                 0.0000
     10 ****         3.3209  -1.4067  -0.9559 C.3            1 S1                 0.0000
     11 ****         4.5042   0.8124  -1.4362 C.2            1 S1                 0.0000
     12 ****         4.5777   2.1454  -1.3241 C.2            1 S1                 0.0000
     13 ****         3.6271   2.8773  -0.5979 N.am           1 S1                 0.0000
     14 ****         3.8055   4.3297  -0.5187 C.3            1 S1                 0.0000
     15 ****         2.5853   2.2796   0.0490 C.2            1 S1                 0.0000
     16 ****         1.8090   2.9410   0.7422 O.2            1 S1                 0.0000
     17 ****        -2.5422  -1.7175  -0.0142 C.3            1 S1                 0.0000
     18 ****        -4.0570  -1.8549  -0.1900 C.3            1 S1                 0.0000
     19 ****        -4.1591  -2.4602  -1.5707 C.3            1 S1                 0.0000
     20 ****        -3.0482  -1.7218  -2.3070 C.3            1 S1                 0.0000
     21 ****        -2.0456  -1.4637  -1.3293 O.3            1 S1                 0.0000
     22 ****        -2.7068   0.1021   4.3549 H              1 S1                 0.0000
     23 ****        -2.6347   1.2529   3.0243 H              1 S1                 0.0000
     24 ****        -1.1878   0.3707   3.5111 H              1 S1                 0.0000
     25 ****        -2.2589  -1.7839   2.7751 H              1 S1                 0.0000
     26 ****        -3.7185  -0.9219   2.3711 H              1 S1                 0.0000
     27 ****        -2.5143   0.3446   0.6052 H              1 S1                 0.0000
     28 ****        -0.1689  -1.2040   1.5674 H              1 S1                 0.0000
     29 ****         1.6767  -0.6919   1.0344 H              1 S1                 0.0000
     30 ****         4.1420  -1.7928  -1.5605 H              1 S1                 0.0000
     31 ****         2.3859  -1.6896  -1.4408 H              1 S1                 0.0000
     32 ****         3.3658  -1.8904   0.0203 H              1 S1                 0.0000
     33 ****         5.2550   0.2770  -1.9989 H              1 S1                 0.0000
     34 ****         5.3688   2.7279  -1.7732 H              1 S1                 0.0000
     35 ****         2.8949   4.8491  -0.8210 H              1 S1                 0.0000
     36 ****         4.6083   4.6905  -1.1626 H              1 S1                 0.0000
     37 ****         4.0435   4.6280   0.5032 H              1 S1                 0.0000
     38 ****        -2.1347  -2.6779   0.3062 H              1 S1                 0.0000
     39 ****        -4.5204  -2.4730   0.5795 H              1 S1                 0.0000
     40 ****        -4.5377  -0.8755  -0.1781 H              1 S1                 0.0000
     41 ****        -3.9406  -3.5281  -1.5299 H              1 S1                 0.0000
     42 ****        -5.1388  -2.3259  -2.0298 H              1 S1                 0.0000
     43 ****        -2.6504  -2.2931  -3.1460 H              1 S1                 0.0000
     44 ****        -3.4129  -0.7672  -2.6884 H              1 S1                 0.0000
     45 ****        -1.3435   1.2923  -0.5656 LP             1 S1                 0.0000
     46 ****         0.2618   1.8256  -0.9381 LP             1 S1                 0.0000
     47 ****         1.0583   2.4881   1.2231 LP             1 S1                 0.0000
     48 ****         1.9302   3.9303   0.8234 LP             1 S1                 0.0000
     49 ****        -1.2586  -2.0559  -1.5025 LP             1 S1                 0.0000
     50 ****        -1.7632  -0.5066  -1.3941 LP             1 S1                 0.0000
@<TRIPOS>BOND
    1    1    2 1     
    2    1   22 1     
    3    1   23 1     
    4    1   24 1     
    5    2    3 1     
    6    2   25 1     
    7    2   26 1     
    8    3    4 1     
    9    3   17 1     
   10    3   27 1     
   11    4    5 am    
   12    4   28 1     
   13    5    6 2     
   14    5    7 am    
   15    7    8 1     
   16    7   29 1     
   17    8   15 1     
   18    8    9 2     
   19    9   10 1     
   20    9   11 1     
   21   10   30 1     
   22   10   31 1     
   23   10   32 1     
   24   11   12 2     
   25   11   33 1     
   26   12   13 1     
   27   12   34 1     
   28   13   14 1     
   29   13   15 am    
   30   14   35 1     
   31   14   36 1     
   32   14   37 1     
   33   15   16 2     
   34   17   21 1     
   35   17   18 1     
   36   17   38 1     
   37   18   19 1     
   38   18   39 1     
   39   18   40 1     
   40   19   20 1     
   41   19   41 1     
   42   19   42 1     
   43   20   21 1     
   44   20   43 1     
   45   20   44 1     
   46    6   45 1     
   47    6   46 1     
   48   16   47 1     
   49   16   48 1     
   50   21   49 1     
   51   21   50 1     
@<TRIPOS>SUBSTRUCTURE
      1 S1             1
@<TRIPOS>SET
LONE_PAIRS      STATIC     ATOMS    <user>   **** ""
6 45 46 47 48 49 50
DONOR_HYDROGENS      STATIC     ATOMS    <user>   **** ""
2 28 29
ATOM$BLUE        STATIC     ATOMS    COLORGROUP SYSTEM
6 45 46 47 48 49 50
ATOM$RED        STATIC     ATOMS    COLORGROUP SYSTEM
2 28 29
