AV-unprocessed.smi:1840|AV-procd|sdf|7489|dock4
  -GOLD-   22720 9193D 1   1.00000     0.00000
 Structure written by MMmdl.
 43 44  0  0  0  0  0  0  0  0  1 V2000
  150.6029  134.3587  155.6010 C   0  0  0  0  0  0  0  0  0  0  0  0
  149.1526  134.8404  155.7521 C   0  0  1  0  0  0  0  0  0  0  0  0
  149.0822  136.2494  156.3718 C   0  0  0  0  0  0  0  0  0  0  0  0
  149.8667  137.2186  155.6268 N   0  0  0  0  0  0  0  0  0  0  0  0
  151.2375  137.2932  155.4951 C   0  0  0  0  0  0  0  0  0  0  0  0
  151.5107  138.3605  154.6885 C   0  0  0  0  0  0  0  0  0  0  0  0
  150.2253  138.8847  154.3755 C   0  0  0  0  0  0  0  0  0  0  0  0
  149.2435  138.1993  154.9389 N   0  0  0  0  0  0  0  0  0  0  0  0
  148.4935  134.8367  154.4476 N   0  0  0  0  0  0  0  0  0  0  0  0
  147.4599  134.0579  154.1002 C   0  0  0  0  0  0  0  0  0  0  0  0
  146.9577  133.2070  154.8345 O   0  0  0  0  0  0  0  0  0  0  0  0
  147.0342  134.3318  152.8587 N   0  0  0  0  0  0  0  0  0  0  0  0
  145.9184  133.6823  152.1722 C   0  0  2  0  0  0  0  0  0  0  0  0
  146.2856  132.2056  151.9248 C   0  0  0  0  0  0  0  0  0  0  0  0
  145.1860  131.4683  151.1475 C   0  0  0  0  0  0  0  0  0  0  0  0
  144.8805  132.1798  149.8231 C   0  0  0  0  0  0  0  0  0  0  0  0
  144.4938  133.6466  150.0645 C   0  0  0  0  0  0  0  0  0  0  0  0
  145.5840  134.4108  150.8439 C   0  0  1  0  0  0  0  0  0  0  0  0
  145.1655  135.8772  151.0557 C   0  0  0  0  0  0  0  0  0  0  0  0
  151.1080  134.3313  156.5668 H   0  0  0  0  0  0  0  0  0  0  0  0
  151.1741  135.0160  154.9448 H   0  0  0  0  0  0  0  0  0  0  0  0
  150.6420  133.3526  155.1820 H   0  0  0  0  0  0  0  0  0  0  0  0
  148.6391  134.1515  156.4256 H   0  0  0  0  0  0  0  0  0  0  0  0
  148.0484  136.5975  156.4006 H   0  0  0  0  0  0  0  0  0  0  0  0
  149.4337  136.2340  157.4046 H   0  0  0  0  0  0  0  0  0  0  0  0
  151.8961  136.5856  155.9764 H   0  0  0  0  0  0  0  0  0  0  0  0
  152.4806  138.7120  154.3701 H   0  0  0  0  0  0  0  0  0  0  0  0
  149.9779  139.7367  153.7594 H   0  0  0  0  0  0  0  0  0  0  0  0
  148.8331  135.5015  153.7680 H   0  0  0  0  0  0  0  0  0  0  0  0
  147.5166  135.0542  152.3444 H   0  0  0  0  0  0  0  0  0  0  0  0
  145.0301  133.6990  152.8065 H   0  0  0  0  0  0  0  0  0  0  0  0
  147.2219  132.1451  151.3675 H   0  0  0  0  0  0  0  0  0  0  0  0
  146.4603  131.7009  152.8757 H   0  0  0  0  0  0  0  0  0  0  0  0
  145.4911  130.4391  150.9559 H   0  0  0  0  0  0  0  0  0  0  0  0
  144.2806  131.4158  151.7534 H   0  0  0  0  0  0  0  0  0  0  0  0
  145.7529  132.1323  149.1700 H   0  0  0  0  0  0  0  0  0  0  0  0
  144.0744  131.6636  149.3012 H   0  0  0  0  0  0  0  0  0  0  0  0
  144.3098  134.1339  149.1064 H   0  0  0  0  0  0  0  0  0  0  0  0
  143.5526  133.6862  150.6147 H   0  0  0  0  0  0  0  0  0  0  0  0
  146.4837  134.4160  150.2264 H   0  0  0  0  0  0  0  0  0  0  0  0
  144.2987  135.9493  151.7134 H   0  0  0  0  0  0  0  0  0  0  0  0
  144.9046  136.3512  150.1091 H   0  0  0  0  0  0  0  0  0  0  0  0
  145.9685  136.4668  151.4982 H   0  0  0  0  0  0  0  0  0  0  0  0
  1  2  1  0  0  0  0
  1 20  1  0  0  0  0
  1 21  1  0  0  0  0
  1 22  1  0  0  0  0
  2  3  1  0  0  0  0
  2  9  1  0  0  0  0
  2 23  1  0  0  0  0
  3  4  1  0  0  0  0
  3 24  1  0  0  0  0
  3 25  1  0  0  0  0
  4  8  1  0  0  0  0
  4  5  1  0  0  0  0
  5  6  2  0  0  0  0
  5 26  1  0  0  0  0
  6  7  1  0  0  0  0
  6 27  1  0  0  0  0
  7  8  2  0  0  0  0
  7 28  1  0  0  0  0
  9 10  1  0  0  0  0
  9 29  1  0  0  0  0
 10 11  2  0  0  0  0
 10 12  1  0  0  0  0
 12 13  1  0  0  0  0
 12 30  1  0  0  0  0
 13 18  1  0  0  0  0
 13 14  1  0  0  0  0
 13 31  1  0  0  0  0
 14 15  1  0  0  0  0
 14 32  1  0  0  0  0
 14 33  1  0  0  0  0
 15 16  1  0  0  0  0
 15 34  1  0  0  0  0
 15 35  1  0  0  0  0
 16 17  1  0  0  0  0
 16 36  1  0  0  0  0
 16 37  1  0  0  0  0
 17 18  1  0  0  0  0
 17 38  1  0  0  0  0
 17 39  1  0  0  0  0
 18 19  1  0  0  0  0
 18 40  1  0  0  0  0
 19 41  1  0  0  0  0
 19 42  1  0  0  0  0
 19 43  1  0  0  0  0
M  END
> <s_m_source_file>
AV-unprocessed.smi

> <i_m_source_file_index>
1840

> <i_lp_mmshare_version>
43012

> <i_f3d_flags>
0

> <s_epik_input>
bjFbY0hdW2NIXVtjSF1uMVtDSDJdW0NAQEhdKFtDSDNdKVtOSF1DKD1PKVtOSF1bQ0BASF0yW0NIMl1bQ0gyXVtDSDJdW0NIMl1bQ0BIXTJbQ0gzXQ==

> <s_epik_cmdline>
J2VwaWtfcHl0aG9uJywgJy1waCcsICc3LjAnLCAnLXRuJywgJzgnLCAnLW1hJywgJzIwMCcsICctbWV0YWxfYmluZGluZycsICctaW1hZScsICc8aW5maWxlLm1hZT4nLCAnLW9tYWUnLCAnPG91dGZpbGUubWFlPic=

> <r_lp_tautomer_probability>
1

> <r_epik_Ionization_Penalty>
7.38659e-05

> <r_epik_Ionization_Penalty_Charging>
0

> <r_epik_Ionization_Penalty_Neutral>
7.38659e-05

> <r_epik_State_Penalty>
-0

> <r_epik_Charging_Adjusted_Penalty>
0

> <i_epik_Tot_Q>
0

> <i_epik_Tot_abs_Q>
0

> <r_epik_Metal_State_Penalty>
-0

> <b_epik_Metal_Only>
0

> <s_lp_Force_Field>
OPLS_2005

> <r_lp_Energy>
8.744

> <b_lp_Chiralities_Consistent>
1

> <s_lp_Variant>
AV-unprocessed.smi:1840-2

> <Gold.Version>
5.8.1

> <Gold.Id.Protein>
6NUR|6NUR_protein|mol2

> <Gold.PLP.Fitness>
41.9417

> <Gold.PLP.PLP>
-33.2245

> <Gold.PLP.part.hbond>
-2.0000

> <Gold.PLP.part.metal>
0.0000

> <Gold.PLP.part.buried>
-4.9772

> <Gold.PLP.part.nonpolar>
-26.1027

> <Gold.PLP.part.repulsive>
0.2062

> <Gold.PLP.ligand.clash>
0.0000

> <Gold.PLP.ligand.torsion>
0.1576

> <Gold.PLP.Chemscore.Hbond>
2.0000

> <Gold.PLP.Chemscore.CHOScore>
1.0000

> <Gold.PLP.Chemscore.Metal>
0.0000

> <Gold.Chemscore.Hbonds>
donor molecule, donor type, donor heavy atom, donor atom, acceptor molecule, acceptor atom, score
      L1  H     9    29       P1  7948  1.00
      L1  H    12    30       P1  7948  1.00
      L1  C     7    28       P1  7957  0.73

> <Gold.PLP.Chemscore.Internal.Correction>
0.0323

> <Gold.Rescore>
     Score         DG    S(hbond)    S(metal)    S(lipo)     H(rot)  DE(clash)    DE(int)     intcor
     17.30     -17.73       1.86        0.00      85.84       1.56       0.05       0.38       ----

> <Gold.Chemscore.Fitness>
17.2962

> <Gold.Chemscore.DG>
-17.7334

> <Gold.Chemscore.ZeroCoef>
-5.4800

> <Gold.Chemscore.Hbond>
1.8558

> <Gold.Chemscore.Metal>
0.0000

> <Gold.Chemscore.Lipo>
85.8353

> <Gold.Chemscore.Internal_Hbond>
0.0000

> <Gold.Chemscore.DEClash>
0.0523

> <Gold.Chemscore.DEInternal>
0.3849

> <Gold.Chemscore.Rot>
1.5576

> <Gold.Chemscore.Internal.Correction>
   9.000000E+99

> <Gold.Chemscore.Hbonds>
donor molecule, donor type, donor heavy atom, donor atom, acceptor molecule, acceptor atom, score
      L1  H     9    29       P1  7948  0.82
      L1  H    12    30       P1  7948  0.97

> <Gold.Chemscore.Hbond.Weighted>
-6.1982

> <Gold.Chemscore.Metal.Weighted>
-0.0000

> <Gold.Chemscore.Lipo.Weighted>
-10.0427

> <Gold.Chemscore.Internal_Hbond.Weighted>
0.0000

> <Gold.Chemscore.DEClash.Weighted>
0.0523

> <Gold.Chemscore.DEInternal.Weighted>
0.3849

> <Gold.Chemscore.Rot.Weighted>
3.9875

> <Gold.Chemscore.Internal.Correction.Weighted>
   9.000000E+99

> <Gold.Protein.RotatedTorsions>
[ 6907 6896 6895 6894 ] final  -78.87 input  -60.11 | X-H torsion
[ 7974 7965 7964 7962 ] final   95.86 input  175.53 | X-H torsion
[ 8008 7997 7996 7995 ] final   67.26 input   59.86 | X-H torsion
[ 10167 10162 10161 10158 ] final  129.89 input  -65.29 | X-H torsion
[ 10718 10713 10712 10709 ] final  -30.02 input   66.30 | X-H torsion
[ 10763 10752 10751 10750 ] final   17.85 input  -60.55 | X-H torsion
[ 11005 11000 10999 10996 ] final  -75.91 input  -57.11 | X-H torsion

> <Gold.Protein.ActiveResidues>
 VAL166  LYS551  ARG553  GLY616  TRP617  ASP618  TYR619  PRO620  LYS621  CYS622 
 ASP623  PHE694  ASN695  SER759  ASP760  ASP761  ALA762  ILE779  LEU786  VAL792 
 PHE793  MET794  SER795  GLU796  ALA797  LYS798  CYS799  TRP800  GLU811  SER814 

> <Gold.Protein.RotatedAtoms>
  150.6963  134.4207  159.5203 H   0  0  0  0  0  0  0  0  0  0  0  0  # atno 6907 bound_to 6896
  152.1951  134.8635  160.0523 H   0  0  0  0  0  0  0  0  0  0  0  0  # atno 6908 bound_to 6896
  151.9576  133.3650  159.4060 H   0  0  0  0  0  0  0  0  0  0  0  0  # atno 6909 bound_to 6896
  145.4466  139.2296  143.3063 H   0  0  0  0  0  0  0  0  0  0  0  0  # atno 7974 bound_to 7965
  155.6901  140.3496  155.4890 H   0  0  0  0  0  0  0  0  0  0  0  0  # atno 8008 bound_to 7997
  155.9532  140.1123  157.0982 H   0  0  0  0  0  0  0  0  0  0  0  0  # atno 8009 bound_to 7997
  154.4126  140.1190  156.5066 H   0  0  0  0  0  0  0  0  0  0  0  0  # atno 8010 bound_to 7997
  139.5456  144.6770  151.4484 H   0  0  0  0  0  0  0  0  0  0  0  0  # atno 10167 bound_to 10162
  156.4051  130.4397  149.7293 H   0  0  0  0  0  0  0  0  0  0  0  0  # atno 10718 bound_to 10713
  153.1302  135.6738  153.9191 H   0  0  0  0  0  0  0  0  0  0  0  0  # atno 10763 bound_to 10752
  153.8680  135.3073  155.3442 H   0  0  0  0  0  0  0  0  0  0  0  0  # atno 10764 bound_to 10752
  154.7700  135.4944  153.9712 H   0  0  0  0  0  0  0  0  0  0  0  0  # atno 10765 bound_to 10752
  141.1649  133.6964  156.7589 H   0  0  0  0  0  0  0  0  0  0  0  0  # atno 11005 bound_to 11000
  146.2527  140.5220  142.8886 LP  0  0  0  0  0  0  0  0  0  0  0  0  # atno 17320 bound_to 7965
  144.8088  140.6348  143.6429 LP  0  0  0  0  0  0  0  0  0  0  0  0  # atno 17321 bound_to 7965
  140.6703  143.8309  150.6991 LP  0  0  0  0  0  0  0  0  0  0  0  0  # atno 17342 bound_to 10162
  140.1731  143.4178  152.1987 LP  0  0  0  0  0  0  0  0  0  0  0  0  # atno 17343 bound_to 10162
  156.4294  130.7808  151.2827 LP  0  0  0  0  0  0  0  0  0  0  0  0  # atno 17370 bound_to 10713
  157.7505  131.0158  150.3521 LP  0  0  0  0  0  0  0  0  0  0  0  0  # atno 17371 bound_to 10713
  140.2548  134.8512  157.3703 LP  0  0  0  0  0  0  0  0  0  0  0  0  # atno 17394 bound_to 11000
  140.1667  134.4660  155.7858 LP  0  0  0  0  0  0  0  0  0  0  0  0  # atno 17395 bound_to 11000

$$$$
