AV-unprocessed.smi:2340|AV-procd|sdf|9344|dock9
  -GOLD-   2272012563D 1   1.00000     0.00000
 Structure written by MMmdl.
 40 41  0  0  0  0  0  0  0  0  1 V2000
  145.2347  130.2946  151.8218 C   0  0  0  0  0  0  0  0  0  0  0  0
  145.4247  131.7611  151.5933 C   0  0  0  0  0  0  0  0  0  0  0  0
  146.2699  132.3534  150.6889 C   0  0  0  0  0  0  0  0  0  0  0  0
  146.1849  134.0915  150.7626 S   0  0  0  0  0  0  0  0  0  0  0  0
  144.9739  133.9490  152.0344 C   0  0  0  0  0  0  0  0  0  0  0  0
  144.3493  135.1273  152.7203 C   0  0  2  0  0  0  0  0  0  0  0  0
  142.8179  135.0237  152.7548 C   0  0  0  0  0  0  0  0  0  0  0  0
  144.8324  136.4715  152.1422 C   0  0  0  0  0  0  0  0  0  0  0  0
  146.2001  136.7660  152.5537 N   0  0  0  0  0  0  0  0  0  0  0  0
  146.5518  137.7595  153.3780 C   0  0  0  0  0  0  0  0  0  0  0  0
  145.7534  138.5321  153.9081 O   0  0  0  0  0  0  0  0  0  0  0  0
  147.8789  137.8089  153.5520 N   0  0  0  0  0  0  0  0  0  0  0  0
  148.5798  138.7710  154.3958 C   0  0  2  0  0  0  0  0  0  0  0  0
  148.1556  140.1925  154.0892 C   0  0  0  0  0  0  0  0  0  0  0  0
  149.3552  140.9924  154.5834 C   0  0  0  0  0  0  0  0  0  0  0  0
  150.4910  140.1600  154.3744 O   0  0  0  0  0  0  0  0  0  0  0  0
  150.0829  138.8242  154.0894 C   0  0  1  0  0  0  0  0  0  0  0  0
  150.9290  137.8312  154.8955 C   0  0  0  0  0  0  0  0  0  0  0  0
  144.6945  132.6811  152.3509 N   0  0  0  0  0  0  0  0  0  0  0  0
  145.9203  129.7041  151.2135 H   0  0  0  0  0  0  0  0  0  0  0  0
  144.2202  129.9856  151.5693 H   0  0  0  0  0  0  0  0  0  0  0  0
  145.4116  130.0322  152.8650 H   0  0  0  0  0  0  0  0  0  0  0  0
  146.9382  131.8749  149.9882 H   0  0  0  0  0  0  0  0  0  0  0  0
  144.6825  135.0965  153.7592 H   0  0  0  0  0  0  0  0  0  0  0  0
  142.4989  134.0997  153.2383 H   0  0  0  0  0  0  0  0  0  0  0  0
  142.3945  135.0376  151.7501 H   0  0  0  0  0  0  0  0  0  0  0  0
  142.3817  135.8547  153.3096 H   0  0  0  0  0  0  0  0  0  0  0  0
  144.7812  136.4398  151.0523 H   0  0  0  0  0  0  0  0  0  0  0  0
  144.1786  137.2819  152.4673 H   0  0  0  0  0  0  0  0  0  0  0  0
  146.9285  136.1830  152.1674 H   0  0  0  0  0  0  0  0  0  0  0  0
  148.4475  137.1289  153.0691 H   0  0  0  0  0  0  0  0  0  0  0  0
  148.4108  138.5725  155.4563 H   0  0  0  0  0  0  0  0  0  0  0  0
  148.0362  140.3357  153.0139 H   0  0  0  0  0  0  0  0  0  0  0  0
  147.2234  140.4780  154.5775 H   0  0  0  0  0  0  0  0  0  0  0  0
  149.4602  141.9490  154.0708 H   0  0  0  0  0  0  0  0  0  0  0  0
  149.2637  141.1887  155.6523 H   0  0  0  0  0  0  0  0  0  0  0  0
  150.2477  138.6641  153.0226 H   0  0  0  0  0  0  0  0  0  0  0  0
  150.6487  136.8020  154.6711 H   0  0  0  0  0  0  0  0  0  0  0  0
  150.8056  137.9865  155.9676 H   0  0  0  0  0  0  0  0  0  0  0  0
  151.9876  137.9435  154.6615 H   0  0  0  0  0  0  0  0  0  0  0  0
  1  2  1  0  0  0  0
  1 20  1  0  0  0  0
  1 21  1  0  0  0  0
  1 22  1  0  0  0  0
  2 19  1  0  0  0  0
  2  3  2  0  0  0  0
  3  4  1  0  0  0  0
  3 23  1  0  0  0  0
  4  5  1  0  0  0  0
  5  6  1  0  0  0  0
  5 19  2  0  0  0  0
  6  7  1  0  0  0  0
  6  8  1  0  0  0  0
  6 24  1  0  0  0  0
  7 25  1  0  0  0  0
  7 26  1  0  0  0  0
  7 27  1  0  0  0  0
  8  9  1  0  0  0  0
  8 28  1  0  0  0  0
  8 29  1  0  0  0  0
  9 10  1  0  0  0  0
  9 30  1  0  0  0  0
 10 11  2  0  0  0  0
 10 12  1  0  0  0  0
 12 13  1  0  0  0  0
 12 31  1  0  0  0  0
 13 17  1  0  0  0  0
 13 14  1  0  0  0  0
 13 32  1  0  0  0  0
 14 15  1  0  0  0  0
 14 33  1  0  0  0  0
 14 34  1  0  0  0  0
 15 16  1  0  0  0  0
 15 35  1  0  0  0  0
 15 36  1  0  0  0  0
 16 17  1  0  0  0  0
 17 18  1  0  0  0  0
 17 37  1  0  0  0  0
 18 38  1  0  0  0  0
 18 39  1  0  0  0  0
 18 40  1  0  0  0  0
M  END
> <s_m_source_file>
AV-unprocessed.smi

> <i_m_source_file_index>
2340

> <i_lp_mmshare_version>
43012

> <i_f3d_flags>
0

> <s_epik_input>
W0NIM11jMVtjSF1zYyhuMSlbQ0BIXShbQ0gzXSlbQ0gyXVtOSF1DKD1PKVtOSF1bQ0BASF0yW0NIMl1bQ0gyXU9bQ0BIXTJbQ0gzXQ==

> <s_epik_cmdline>
J2VwaWtfcHl0aG9uJywgJy1waCcsICc3LjAnLCAnLXRuJywgJzgnLCAnLW1hJywgJzIwMCcsICctbWV0YWxfYmluZGluZycsICctaW1hZScsICc8aW5maWxlLm1hZT4nLCAnLW9tYWUnLCAnPG91dGZpbGUubWFlPic=

> <r_epik_Ionization_Penalty>
0.00156622

> <r_epik_Ionization_Penalty_Charging>
0

> <r_epik_Ionization_Penalty_Neutral>
0.00156622

> <r_epik_State_Penalty>
0.00101902

> <r_epik_Charging_Adjusted_Penalty>
0.00101902

> <i_epik_Tot_Q>
0

> <i_epik_Tot_abs_Q>
0

> <r_epik_Metal_State_Penalty>
-0

> <b_epik_Metal_Only>
0

> <s_lp_Force_Field>
OPLS_2005

> <r_lp_Energy>
4.8577

> <b_lp_Chiralities_Consistent>
1

> <s_lp_Variant>
AV-unprocessed.smi:2340-1

> <Gold.Version>
5.8.1

> <Gold.Id.Protein>
6NUR|6NUR_protein|mol2

> <Gold.PLP.Fitness>
41.5201

> <Gold.PLP.PLP>
-30.7778

> <Gold.PLP.part.hbond>
-3.0000

> <Gold.PLP.part.metal>
0.0000

> <Gold.PLP.part.buried>
-3.0746

> <Gold.PLP.part.nonpolar>
-25.0201

> <Gold.PLP.part.repulsive>
0.4330

> <Gold.PLP.ligand.clash>
0.0000

> <Gold.PLP.ligand.torsion>
0.4088

> <Gold.PLP.Chemscore.Hbond>
2.8160

> <Gold.PLP.Chemscore.CHOScore>
1.0000

> <Gold.PLP.Chemscore.Metal>
0.0000

> <Gold.Chemscore.Hbonds>
donor molecule, donor type, donor heavy atom, donor atom, acceptor molecule, acceptor atom, score
      L1  H     9    30       P1  7948  0.80
      L1  H    12    31       P1  7948  1.00
      P1  H  7989  7998       L1    16  1.00
      L1  C     3    23       P1 10747  1.00

> <Gold.PLP.Chemscore.Internal.Correction>
0.1119

> <Gold.Rescore>
     Score         DG    S(hbond)    S(metal)    S(lipo)     H(rot)  DE(clash)    DE(int)     intcor
     18.27     -20.46       2.65        0.00      86.09       1.53       0.64       1.55       ----

> <Gold.Chemscore.Fitness>
18.2738

> <Gold.Chemscore.DG>
-20.4641

> <Gold.Chemscore.ZeroCoef>
-5.4800

> <Gold.Chemscore.Hbond>
2.6452

> <Gold.Chemscore.Metal>
0.0000

> <Gold.Chemscore.Lipo>
86.0894

> <Gold.Chemscore.Internal_Hbond>
0.0000

> <Gold.Chemscore.DEClash>
0.6368

> <Gold.Chemscore.DEInternal>
1.5535

> <Gold.Chemscore.Rot>
1.5325

> <Gold.Chemscore.Internal.Correction>
   9.000000E+99

> <Gold.Chemscore.Hbonds>
donor molecule, donor type, donor heavy atom, donor atom, acceptor molecule, acceptor atom, score
      L1  H     9    30       P1  7948  0.74
      L1  H    12    31       P1  7948  0.97
      P1  H  7989  7998       L1    16  0.79

> <Gold.Chemscore.Hbond.Weighted>
-8.8349

> <Gold.Chemscore.Metal.Weighted>
-0.0000

> <Gold.Chemscore.Lipo.Weighted>
-10.0725

> <Gold.Chemscore.Internal_Hbond.Weighted>
0.0000

> <Gold.Chemscore.DEClash.Weighted>
0.6368

> <Gold.Chemscore.DEInternal.Weighted>
1.5535

> <Gold.Chemscore.Rot.Weighted>
3.9233

> <Gold.Chemscore.Internal.Correction.Weighted>
   9.000000E+99

> <Gold.Protein.RotatedTorsions>
[ 6907 6896 6895 6894 ] final  -46.73 input  -60.11 | X-H torsion
[ 7974 7965 7964 7962 ] final   86.24 input  175.53 | X-H torsion
[ 8008 7997 7996 7995 ] final -127.91 input   59.86 | X-H torsion
[ 10167 10162 10161 10158 ] final -137.12 input  -65.29 | X-H torsion
[ 10718 10713 10712 10709 ] final   12.29 input   66.30 | X-H torsion
[ 10763 10752 10751 10750 ] final -173.78 input  -60.55 | X-H torsion
[ 11005 11000 10999 10996 ] final -108.87 input  -57.11 | X-H torsion

> <Gold.Protein.ActiveResidues>
 VAL166  LYS551  ARG553  GLY616  TRP617  ASP618  TYR619  PRO620  LYS621  CYS622 
 ASP623  PHE694  ASN695  SER759  ASP760  ASP761  ALA762  ILE779  LEU786  VAL792 
 PHE793  MET794  SER795  GLU796  ALA797  LYS798  CYS799  TRP800  GLU811  SER814 

> <Gold.Protein.RotatedAtoms>
  150.9082  134.8498  159.7406 H   0  0  0  0  0  0  0  0  0  0  0  0  # atno 6907 bound_to 6896
  152.4930  134.4399  159.9550 H   0  0  0  0  0  0  0  0  0  0  0  0  # atno 6908 bound_to 6896
  151.4444  133.3595  159.2821 H   0  0  0  0  0  0  0  0  0  0  0  0  # atno 6909 bound_to 6896
  145.5749  139.2318  143.2385 H   0  0  0  0  0  0  0  0  0  0  0  0  # atno 7974 bound_to 7965
  155.2540  140.0433  157.2990 H   0  0  0  0  0  0  0  0  0  0  0  0  # atno 8008 bound_to 7997
  154.5751  140.2385  155.8103 H   0  0  0  0  0  0  0  0  0  0  0  0  # atno 8009 bound_to 7997
  156.2152  140.2987  155.9831 H   0  0  0  0  0  0  0  0  0  0  0  0  # atno 8010 bound_to 7997
  139.8609  143.7078  152.2650 H   0  0  0  0  0  0  0  0  0  0  0  0  # atno 10167 bound_to 10162
  157.0080  130.6105  149.5704 H   0  0  0  0  0  0  0  0  0  0  0  0  # atno 10718 bound_to 10713
  154.6039  135.2857  155.0505 H   0  0  0  0  0  0  0  0  0  0  0  0  # atno 10763 bound_to 10752
  154.1760  135.6464  153.5025 H   0  0  0  0  0  0  0  0  0  0  0  0  # atno 10764 bound_to 10752
  153.0168  135.5412  154.6768 H   0  0  0  0  0  0  0  0  0  0  0  0  # atno 10765 bound_to 10752
  141.0878  133.9107  157.2145 H   0  0  0  0  0  0  0  0  0  0  0  0  # atno 11005 bound_to 11000
  146.1758  140.6575  142.9212 LP  0  0  0  0  0  0  0  0  0  0  0  0  # atno 17320 bound_to 7965
  144.7421  140.4969  143.6862 LP  0  0  0  0  0  0  0  0  0  0  0  0  # atno 17321 bound_to 7965
  139.7374  144.7568  151.0705 LP  0  0  0  0  0  0  0  0  0  0  0  0  # atno 17342 bound_to 10162
  140.7775  143.5013  150.9767 LP  0  0  0  0  0  0  0  0  0  0  0  0  # atno 17343 bound_to 10162
  156.0146  130.5240  150.8096 LP  0  0  0  0  0  0  0  0  0  0  0  0  # atno 17370 bound_to 10713
  157.5342  131.0938  150.9915 LP  0  0  0  0  0  0  0  0  0  0  0  0  # atno 17371 bound_to 10713
  139.9699  135.0131  156.9485 LP  0  0  0  0  0  0  0  0  0  0  0  0  # atno 17394 bound_to 11000
  140.5322  134.0803  155.7318 LP  0  0  0  0  0  0  0  0  0  0  0  0  # atno 17395 bound_to 11000

$$$$
