#       Name:                AV-unprocessed.smi:35
#       Creating user name   scv26
#       Creation time:       Thu Mar 26 16:02:40 2020


#       File generated by GOLD software.
#

@<TRIPOS>MOLECULE
AV-unprocessed.smi:35
    41    42     1
SMALL
NO_CHARGES


@<TRIPOS>ATOM
      1 ****        -2.5978   4.3618  -1.0189 O.2            1 S1                 0.0000
      2 ****        -2.1406   3.2846  -0.6430 C.2            1 S1                 0.0000
      3 ****        -2.9772   2.3265  -0.0632 N.am           1 S1                 0.0000
      4 ****        -2.5762   1.0708   0.3980 C.2            1 S1                 0.0000
      5 ****        -3.4061   0.2990   0.8764 O.2            1 S1                 0.0000
      6 ****        -1.2064   0.7459   0.2742 N.am           1 S1                 0.0000
      7 ****        -0.7125  -0.6057   0.7456 C.3            1 S1                 0.0000
      8 ****         0.5741  -0.4511   1.2642 O.3            1 S1                 0.0000
      9 ****         1.3879  -1.5455   0.8559 C.3            1 S1                 0.0000
     10 ****         2.8829  -1.1895   0.9365 C.3            1 S1                 0.0000
     11 ****         3.3570  -1.3772   2.2529 O.3            1 S1                 0.0000
     12 ****         0.8610  -1.8744  -0.5478 C.3            1 S1                 0.0000
     13 ****         1.4418  -1.0230  -1.5225 O.3            1 S1                 0.0000
     14 ****        -0.6396  -1.6487  -0.3911 C.3            1 S1                 0.0000
     15 ****        -1.2797  -1.2882  -1.6039 O.3            1 S1                 0.0000
     16 ****        -0.3382   1.6639  -0.3014 C.2            1 S1                 0.0000
     17 ****        -0.7440   2.8761  -0.7463 C.2            1 S1                 0.0000
     18 ****         0.6497   4.0395  -1.5386 Br             1 S1                 0.0000
     19 ****        -3.9552   2.5610   0.0256 H              1 S1                 0.0000
     20 ****        -1.3654  -0.9182   1.5624 H              1 S1                 0.0000
     21 ****         1.1690  -2.3960   1.5050 H              1 S1                 0.0000
     22 ****         3.4610  -1.8465   0.2861 H              1 S1                 0.0000
     23 ****         3.0663  -0.1652   0.6106 H              1 S1                 0.0000
     24 ****         4.2769  -1.1614   2.2743 H              1 S1                 0.0000
     25 ****         1.0826  -2.9049  -0.8271 H              1 S1                 0.0000
     26 ****         1.0615  -1.2294  -2.3628 H              1 S1                 0.0000
     27 ****        -1.0990  -2.5647  -0.0175 H              1 S1                 0.0000
     28 ****        -0.9403  -0.4496  -1.8780 H              1 S1                 0.0000
     29 ****         0.7063   1.4106  -0.4066 H              1 S1                 0.0000
     30 ****        -1.9954   5.0426  -1.4356 LP             1 S1                 0.0000
     31 ****        -3.5722   4.5574  -0.9080 LP             1 S1                 0.0000
     32 ****        -4.3666   0.5710   0.9347 LP             1 S1                 0.0000
     33 ****        -3.1202  -0.6004   1.2070 LP             1 S1                 0.0000
     34 ****         0.5294  -0.4239   2.2629 LP             1 S1                 0.0000
     35 ****         0.9694   0.4024   0.9249 LP             1 S1                 0.0000
     36 ****         3.2279  -2.3308   2.5251 LP             1 S1                 0.0000
     37 ****         2.8560  -0.7808   2.8801 LP             1 S1                 0.0000
     38 ****         2.4304  -1.1702  -1.5537 LP             1 S1                 0.0000
     39 ****         1.2541  -0.0682  -1.2920 LP             1 S1                 0.0000
     40 ****        -2.2671  -1.2233  -1.4595 LP             1 S1                 0.0000
     41 ****        -1.0898  -1.9759  -2.3046 LP             1 S1                 0.0000
@<TRIPOS>BOND
    1    1    2 2     
    2    2   17 1     
    3    2    3 1     
    4    3   19 1     
    5    3    4 1     
    6    4    5 2     
    7    4    6 1     
    8    6    7 1     
    9    6   16 1     
   10    7   14 1     
   11    7    8 1     
   12    7   20 1     
   13    8    9 1     
   14    9   10 1     
   15    9   12 1     
   16    9   21 1     
   17   10   11 1     
   18   10   22 1     
   19   10   23 1     
   20   11   24 1     
   21   12   13 1     
   22   12   14 1     
   23   12   25 1     
   24   13   26 1     
   25   14   15 1     
   26   14   27 1     
   27   15   28 1     
   28   16   17 2     
   29   16   29 1     
   30   17   18 1     
   31    1   30 1     
   32    1   31 1     
   33    5   32 1     
   34    5   33 1     
   35    8   34 1     
   36    8   35 1     
   37   11   36 1     
   38   11   37 1     
   39   13   38 1     
   40   13   39 1     
   41   15   40 1     
   42   15   41 1     
@<TRIPOS>SUBSTRUCTURE
      1 S1             1
@<TRIPOS>SET
LONE_PAIRS      STATIC     ATOMS    <user>   **** ""
12 30 31 32 33 34 35 36 37 38 39 40 41
DONOR_HYDROGENS      STATIC     ATOMS    <user>   **** ""
4 19 24 26 28
ATOM$BLUE        STATIC     ATOMS    COLORGROUP SYSTEM
12 30 31 32 33 34 35 36 37 38 39 40 41
ATOM$RED        STATIC     ATOMS    COLORGROUP SYSTEM
4 19 24 26 28
