AV-unprocessed.smi:2923|AV-procd|sdf|11212|dock6
  -GOLD-   2272016103D 1   1.00000     0.00000
 Structure written by MMmdl.
 46 48  0  0  0  0  0  0  0  0  1 V2000
  149.0404  128.5083  154.6256 C   0  0  0  0  0  0  0  0  0  0  0  0
  148.8888  129.5059  153.5776 N   0  0  0  0  0  0  0  0  0  0  0  0
  147.6951  129.3969  152.7537 C   0  0  0  0  0  0  0  0  0  0  0  0
  149.1248  130.8120  154.0265 C   0  0  0  0  0  0  0  0  0  0  0  0
  150.1866  131.1048  154.9123 C   0  0  0  0  0  0  0  0  0  0  0  0
  150.3776  132.4371  155.3257 C   0  0  0  0  0  0  0  0  0  0  0  0
  149.5048  133.4368  154.8345 C   0  0  0  0  0  0  0  0  0  0  0  0
  149.5826  134.8110  155.1872 N   0  0  0  0  0  0  0  0  0  0  0  0
  150.6190  135.4787  155.7223 C   0  0  0  0  0  0  0  0  0  0  0  0
  151.7119  134.9900  156.0076 O   0  0  0  0  0  0  0  0  0  0  0  0
  150.3250  136.7750  155.8897 N   0  0  0  0  0  0  0  0  0  0  0  0
  151.2543  137.7682  156.4191 C   0  0  2  0  0  0  0  0  0  0  0  0
  150.5928  138.7131  157.4347 C   0  0  1  0  0  0  0  0  0  0  0  0
  151.0364  138.6981  158.8725 C   0  0  0  0  0  0  0  0  0  0  0  0
  152.0634  139.8329  158.9252 C   0  0  0  0  0  0  0  0  0  0  0  0
  152.4895  139.9959  157.5745 O   0  0  0  0  0  0  0  0  0  0  0  0
  151.3427  139.8411  156.7422 C   0  0  1  0  0  0  0  0  0  0  0  0
  151.5165  138.9722  155.4784 C   0  0  0  0  0  0  0  0  0  0  0  0
  152.8933  139.0209  154.8141 C   0  0  0  0  0  0  0  0  0  0  0  0
  150.4834  139.2506  154.3767 C   0  0  0  0  0  0  0  0  0  0  0  0
  148.4671  133.0340  153.9682 C   0  0  0  0  0  0  0  0  0  0  0  0
  148.2791  131.7592  153.5669 N   0  0  0  0  0  0  0  0  0  0  0  0
  149.9611  128.6716  155.1873 H   0  0  0  0  0  0  0  0  0  0  0  0
  149.0853  127.5097  154.1901 H   0  0  0  0  0  0  0  0  0  0  0  0
  148.2006  128.5400  155.3207 H   0  0  0  0  0  0  0  0  0  0  0  0
  147.6791  130.1746  151.9891 H   0  0  0  0  0  0  0  0  0  0  0  0
  146.7923  129.4876  153.3589 H   0  0  0  0  0  0  0  0  0  0  0  0
  147.6726  128.4299  152.2505 H   0  0  0  0  0  0  0  0  0  0  0  0
  150.8417  130.3257  155.2736 H   0  0  0  0  0  0  0  0  0  0  0  0
  151.1758  132.6600  156.0165 H   0  0  0  0  0  0  0  0  0  0  0  0
  148.7784  135.3674  154.9366 H   0  0  0  0  0  0  0  0  0  0  0  0
  149.4059  137.0989  155.6265 H   0  0  0  0  0  0  0  0  0  0  0  0
  152.1802  137.3400  156.8103 H   0  0  0  0  0  0  0  0  0  0  0  0
  149.5145  138.8010  157.2900 H   0  0  0  0  0  0  0  0  0  0  0  0
  150.2141  138.8694  159.5675 H   0  0  0  0  0  0  0  0  0  0  0  0
  151.4983  137.7437  159.1272 H   0  0  0  0  0  0  0  0  0  0  0  0
  151.5948  140.7586  159.2626 H   0  0  0  0  0  0  0  0  0  0  0  0
  152.9013  139.6132  159.5871 H   0  0  0  0  0  0  0  0  0  0  0  0
  150.7612  140.7566  156.6234 H   0  0  0  0  0  0  0  0  0  0  0  0
  153.0998  140.0050  154.3925 H   0  0  0  0  0  0  0  0  0  0  0  0
  152.9736  138.2911  154.0079 H   0  0  0  0  0  0  0  0  0  0  0  0
  153.6908  138.8002  155.5238 H   0  0  0  0  0  0  0  0  0  0  0  0
  150.6336  140.2340  153.9302 H   0  0  0  0  0  0  0  0  0  0  0  0
  149.4638  139.2286  154.7625 H   0  0  0  0  0  0  0  0  0  0  0  0
  150.5420  138.5154  153.5733 H   0  0  0  0  0  0  0  0  0  0  0  0
  147.7669  133.7582  153.5781 H   0  0  0  0  0  0  0  0  0  0  0  0
  1  2  1  0  0  0  0
  1 23  1  0  0  0  0
  1 24  1  0  0  0  0
  1 25  1  0  0  0  0
  2  3  1  0  0  0  0
  2  4  1  0  0  0  0
  3 26  1  0  0  0  0
  3 27  1  0  0  0  0
  3 28  1  0  0  0  0
  4 22  1  0  0  0  0
  4  5  2  0  0  0  0
  5  6  1  0  0  0  0
  5 29  1  0  0  0  0
  6  7  2  0  0  0  0
  6 30  1  0  0  0  0
  7  8  1  0  0  0  0
  7 21  1  0  0  0  0
  8  9  1  0  0  0  0
  8 31  1  0  0  0  0
  9 10  2  0  0  0  0
  9 11  1  0  0  0  0
 11 12  1  0  0  0  0
 11 32  1  0  0  0  0
 12 18  1  0  0  0  0
 12 13  1  0  0  0  0
 12 33  1  0  0  0  0
 13 17  1  0  0  0  0
 13 14  1  0  0  0  0
 13 34  1  0  0  0  0
 14 15  1  0  0  0  0
 14 35  1  0  0  0  0
 14 36  1  0  0  0  0
 15 16  1  0  0  0  0
 15 37  1  0  0  0  0
 15 38  1  0  0  0  0
 16 17  1  0  0  0  0
 17 18  1  0  0  0  0
 17 39  1  0  0  0  0
 18 19  1  0  0  0  0
 18 20  1  0  0  0  0
 19 40  1  0  0  0  0
 19 41  1  0  0  0  0
 19 42  1  0  0  0  0
 20 43  1  0  0  0  0
 20 44  1  0  0  0  0
 20 45  1  0  0  0  0
 21 22  2  0  0  0  0
 21 46  1  0  0  0  0
M  END
> <s_m_source_file>
AV-unprocessed.smi

> <i_m_source_file_index>
2923

> <i_lp_mmshare_version>
43012

> <i_f3d_flags>
0

> <s_epik_input>
W0NIM11OKFtDSDNdKWMxW2NIXVtjSF1jKFtjSF1uMSlbTkhdQyg9TylbTkhdW0NASF0yQyhbQ0gzXSkoW0NIM10pW0NAQEhdKFtDQEhdMjMpT1tDSDJdW0NIMl0z

> <s_epik_cmdline>
J2VwaWtfcHl0aG9uJywgJy1waCcsICc3LjAnLCAnLXRuJywgJzgnLCAnLW1hJywgJzIwMCcsICctbWV0YWxfYmluZGluZycsICctaW1hZScsICc8aW5maWxlLm1hZT4nLCAnLW9tYWUnLCAnPG91dGZpbGUubWFlPic=

> <r_lp_tautomer_probability>
1

> <r_epik_Ionization_Penalty>
0.628785

> <r_epik_Ionization_Penalty_Charging>
0

> <r_epik_Ionization_Penalty_Neutral>
0.628785

> <r_epik_State_Penalty>
0.644286

> <r_epik_Charging_Adjusted_Penalty>
0.644286

> <i_epik_Tot_Q>
0

> <i_epik_Tot_abs_Q>
0

> <r_epik_Metal_State_Penalty>
0.308404

> <b_epik_Metal_Only>
0

> <s_lp_Force_Field>
OPLS_2005

> <r_lp_Energy>
42.6723

> <b_lp_Chiralities_Consistent>
1

> <s_lp_Variant>
AV-unprocessed.smi:2923-11

> <Gold.Version>
5.8.1

> <Gold.Id.Protein>
6NUR|6NUR_protein|mol2

> <Gold.PLP.Fitness>
35.8429

> <Gold.PLP.PLP>
-30.8320

> <Gold.PLP.part.hbond>
-2.0000

> <Gold.PLP.part.metal>
0.0000

> <Gold.PLP.part.buried>
-2.4220

> <Gold.PLP.part.nonpolar>
-26.5993

> <Gold.PLP.part.repulsive>
0.2856

> <Gold.PLP.ligand.clash>
0.0000

> <Gold.PLP.ligand.torsion>
0.4587

> <Gold.PLP.Chemscore.Hbond>
1.8480

> <Gold.PLP.Chemscore.CHOScore>
0.0000

> <Gold.PLP.Chemscore.Metal>
0.0000

> <Gold.Chemscore.Hbonds>
donor molecule, donor type, donor heavy atom, donor atom, acceptor molecule, acceptor atom, score
      P1  H  7997  8010       L1    16  0.84
      P1  H 10752 10763       L1    10  0.85

> <Gold.PLP.Chemscore.Internal.Correction>
0.3843

> <Gold.Rescore>
     Score         DG    S(hbond)    S(metal)    S(lipo)     H(rot)  DE(clash)    DE(int)     intcor
     16.55     -17.17       1.77        0.00      75.57       1.19       0.07       0.54       ----

> <Gold.Chemscore.Fitness>
16.5497

> <Gold.Chemscore.DG>
-17.1659

> <Gold.Chemscore.ZeroCoef>
-5.4800

> <Gold.Chemscore.Hbond>
1.7664

> <Gold.Chemscore.Metal>
0.0000

> <Gold.Chemscore.Lipo>
75.5724

> <Gold.Chemscore.Internal_Hbond>
0.0000

> <Gold.Chemscore.DEClash>
0.0749

> <Gold.Chemscore.DEInternal>
0.5413

> <Gold.Chemscore.Rot>
1.1937

> <Gold.Chemscore.Internal.Correction>
   9.000000E+99

> <Gold.Chemscore.Hbonds>
donor molecule, donor type, donor heavy atom, donor atom, acceptor molecule, acceptor atom, score
      P1  H  7997  8010       L1    16  0.79
      P1  H 10752 10763       L1    10  0.68

> <Gold.Chemscore.Hbond.Weighted>
-5.8998

> <Gold.Chemscore.Metal.Weighted>
-0.0000

> <Gold.Chemscore.Lipo.Weighted>
-8.8420

> <Gold.Chemscore.Internal_Hbond.Weighted>
0.0000

> <Gold.Chemscore.DEClash.Weighted>
0.0749

> <Gold.Chemscore.DEInternal.Weighted>
0.5413

> <Gold.Chemscore.Rot.Weighted>
3.0559

> <Gold.Chemscore.Internal.Correction.Weighted>
   9.000000E+99

> <Gold.Protein.RotatedTorsions>
[ 6907 6896 6895 6894 ] final   55.96 input  -60.11 | X-H torsion
[ 7974 7965 7964 7962 ] final  -97.61 input  175.53 | X-H torsion
[ 8008 7997 7996 7995 ] final   54.72 input   59.86 | X-H torsion
[ 10167 10162 10161 10158 ] final -127.85 input  -65.29 | X-H torsion
[ 10718 10713 10712 10709 ] final  105.23 input   66.30 | X-H torsion
[ 10763 10752 10751 10750 ] final   74.15 input  -60.55 | X-H torsion
[ 11005 11000 10999 10996 ] final  -83.55 input  -57.11 | X-H torsion

> <Gold.Protein.ActiveResidues>
 VAL166  LYS551  ARG553  GLY616  TRP617  ASP618  TYR619  PRO620  LYS621  CYS622 
 ASP623  PHE694  ASN695  SER759  ASP760  ASP761  ALA762  ILE779  LEU786  VAL792 
 PHE793  MET794  SER795  GLU796  ALA797  LYS798  CYS799  TRP800  GLU811  SER814 

> <Gold.Protein.RotatedAtoms>
  152.3589  134.6900  160.0213 H   0  0  0  0  0  0  0  0  0  0  0  0  # atno 6907 bound_to 6896
  151.7230  133.3309  159.3328 H   0  0  0  0  0  0  0  0  0  0  0  0  # atno 6908 bound_to 6896
  150.7591  134.6365  159.6259 H   0  0  0  0  0  0  0  0  0  0  0  0  # atno 6909 bound_to 6896
  145.3314  140.9442  143.2659 H   0  0  0  0  0  0  0  0  0  0  0  0  # atno 7974 bound_to 7965
  155.4894  140.3471  155.4352 H   0  0  0  0  0  0  0  0  0  0  0  0  # atno 8008 bound_to 7997
  156.0987  140.1429  156.9525 H   0  0  0  0  0  0  0  0  0  0  0  0  # atno 8009 bound_to 7997
  154.4680  140.0911  156.7048 H   0  0  0  0  0  0  0  0  0  0  0  0  # atno 8010 bound_to 7997
  139.9565  143.5997  152.2459 H   0  0  0  0  0  0  0  0  0  0  0  0  # atno 10167 bound_to 10162
  157.6713  131.0823  150.5826 H   0  0  0  0  0  0  0  0  0  0  0  0  # atno 10718 bound_to 10713
  153.0568  135.5036  154.8000 H   0  0  0  0  0  0  0  0  0  0  0  0  # atno 10763 bound_to 10752
  154.6820  135.2970  154.9602 H   0  0  0  0  0  0  0  0  0  0  0  0  # atno 10764 bound_to 10752
  154.0386  135.6720  153.4840 H   0  0  0  0  0  0  0  0  0  0  0  0  # atno 10765 bound_to 10752
  141.1657  133.7300  156.8737 H   0  0  0  0  0  0  0  0  0  0  0  0  # atno 11005 bound_to 11000
  144.8861  139.4837  143.6700 LP  0  0  0  0  0  0  0  0  0  0  0  0  # atno 17320 bound_to 7965
  146.3044  139.7531  142.9067 LP  0  0  0  0  0  0  0  0  0  0  0  0  # atno 17321 bound_to 7965
  139.6587  144.7662  151.2004 LP  0  0  0  0  0  0  0  0  0  0  0  0  # atno 17342 bound_to 10162
  140.7567  143.6044  150.8667 LP  0  0  0  0  0  0  0  0  0  0  0  0  # atno 17343 bound_to 10162
  156.6126  130.4384  149.5853 LP  0  0  0  0  0  0  0  0  0  0  0  0  # atno 17370 bound_to 10713
  156.2418  130.6856  151.1563 LP  0  0  0  0  0  0  0  0  0  0  0  0  # atno 17371 bound_to 10713
  140.1764  134.9064  157.2895 LP  0  0  0  0  0  0  0  0  0  0  0  0  # atno 17394 bound_to 11000
  140.2444  134.3757  155.7467 LP  0  0  0  0  0  0  0  0  0  0  0  0  # atno 17395 bound_to 11000

$$$$
