AV-unprocessed.smi:1692|AV-procd|sdf|6782|dock3
  -GOLD-   22720 7543D 1   1.00000     0.00000
 Structure written by MMmdl.
 45 46  0  0  0  0  0  0  0  0  1 V2000
  153.7413  138.1449  154.9756 C   0  0  0  0  0  0  0  0  0  0  0  0
  152.3716  138.6404  155.4520 C   0  0  2  0  0  0  0  0  0  0  0  0
  151.3098  138.5664  154.3403 C   0  0  0  0  0  0  0  0  0  0  0  0
  150.0282  139.1108  154.7705 N   0  0  0  0  0  0  0  0  0  0  0  0
  149.0296  138.9905  153.7092 C   0  0  0  0  0  0  0  0  0  0  0  0
  147.6109  139.4476  154.0897 C   0  0  0  0  0  0  0  0  0  0  0  0
  146.5749  139.0529  153.0250 C   0  0  0  0  0  0  0  0  0  0  0  0
  146.7901  137.6939  152.5413 N   0  0  0  0  0  0  0  0  0  0  0  0
  145.8187  136.8108  152.2675 C   0  0  0  0  0  0  0  0  0  0  0  0
  144.6194  137.0618  152.3908 O   0  0  0  0  0  0  0  0  0  0  0  0
  146.3303  135.6399  151.8484 N   0  0  0  0  0  0  0  0  0  0  0  0
  145.6336  134.4574  151.4818 C   0  0  0  0  0  0  0  0  0  0  0  0
  146.4552  133.3783  151.0839 C   0  0  0  0  0  0  0  0  0  0  0  0
  145.8618  132.1592  150.7029 C   0  0  0  0  0  0  0  0  0  0  0  0
  144.4601  132.0502  150.7297 C   0  0  0  0  0  0  0  0  0  0  0  0
  143.7154  133.1720  151.1382 C   0  0  0  0  0  0  0  0  0  0  0  0
  144.2821  134.3414  151.5037 N   0  0  0  0  0  0  0  0  0  0  0  0
  150.2214  140.4925  155.2055 C   0  0  0  0  0  0  0  0  0  0  0  0
  151.3047  140.6307  156.2947 C   0  0  1  0  0  0  0  0  0  0  0  0
  150.8461  140.1349  157.6766 C   0  0  0  0  0  0  0  0  0  0  0  0
  152.5138  139.9940  155.8788 O   0  0  0  0  0  0  0  0  0  0  0  0
  153.6896  137.1079  154.6433 H   0  0  0  0  0  0  0  0  0  0  0  0
  154.4763  138.1998  155.7789 H   0  0  0  0  0  0  0  0  0  0  0  0
  154.1112  138.7454  154.1441 H   0  0  0  0  0  0  0  0  0  0  0  0
  152.0594  138.0243  156.2959 H   0  0  0  0  0  0  0  0  0  0  0  0
  151.6637  139.1078  153.4613 H   0  0  0  0  0  0  0  0  0  0  0  0
  151.1841  137.5270  154.0351 H   0  0  0  0  0  0  0  0  0  0  0  0
  149.3635  139.5349  152.8246 H   0  0  0  0  0  0  0  0  0  0  0  0
  148.9663  137.9435  153.4092 H   0  0  0  0  0  0  0  0  0  0  0  0
  147.3362  139.0082  155.0496 H   0  0  0  0  0  0  0  0  0  0  0  0
  147.5844  140.5290  154.2225 H   0  0  0  0  0  0  0  0  0  0  0  0
  145.5716  139.1043  153.4483 H   0  0  0  0  0  0  0  0  0  0  0  0
  146.5951  139.7564  152.1910 H   0  0  0  0  0  0  0  0  0  0  0  0
  147.7483  137.4043  152.4116 H   0  0  0  0  0  0  0  0  0  0  0  0
  147.3364  135.5852  151.7922 H   0  0  0  0  0  0  0  0  0  0  0  0
  147.5309  133.4789  151.0695 H   0  0  0  0  0  0  0  0  0  0  0  0
  146.4723  131.3229  150.3958 H   0  0  0  0  0  0  0  0  0  0  0  0
  143.9681  131.1320  150.4449 H   0  0  0  0  0  0  0  0  0  0  0  0
  142.6368  133.1304  151.1725 H   0  0  0  0  0  0  0  0  0  0  0  0
  150.5060  141.1039  154.3479 H   0  0  0  0  0  0  0  0  0  0  0  0
  149.2885  140.9087  155.5839 H   0  0  0  0  0  0  0  0  0  0  0  0
  151.5385  141.6904  156.4001 H   0  0  0  0  0  0  0  0  0  0  0  0
  149.9908  140.7107  158.0303 H   0  0  0  0  0  0  0  0  0  0  0  0
  151.6436  140.2422  158.4121 H   0  0  0  0  0  0  0  0  0  0  0  0
  150.5470  139.0873  157.6578 H   0  0  0  0  0  0  0  0  0  0  0  0
  1  2  1  0  0  0  0
  1 22  1  0  0  0  0
  1 23  1  0  0  0  0
  1 24  1  0  0  0  0
  2 21  1  0  0  0  0
  2  3  1  0  0  0  0
  2 25  1  0  0  0  0
  3  4  1  0  0  0  0
  3 26  1  0  0  0  0
  3 27  1  0  0  0  0
  4  5  1  0  0  0  0
  4 18  1  0  0  0  0
  5  6  1  0  0  0  0
  5 28  1  0  0  0  0
  5 29  1  0  0  0  0
  6  7  1  0  0  0  0
  6 30  1  0  0  0  0
  6 31  1  0  0  0  0
  7  8  1  0  0  0  0
  7 32  1  0  0  0  0
  7 33  1  0  0  0  0
  8  9  1  0  0  0  0
  8 34  1  0  0  0  0
  9 10  2  0  0  0  0
  9 11  1  0  0  0  0
 11 12  1  0  0  0  0
 11 35  1  0  0  0  0
 12 17  1  0  0  0  0
 12 13  2  0  0  0  0
 13 14  1  0  0  0  0
 13 36  1  0  0  0  0
 14 15  2  0  0  0  0
 14 37  1  0  0  0  0
 15 16  1  0  0  0  0
 15 38  1  0  0  0  0
 16 17  2  0  0  0  0
 16 39  1  0  0  0  0
 18 19  1  0  0  0  0
 18 40  1  0  0  0  0
 18 41  1  0  0  0  0
 19 20  1  0  0  0  0
 19 21  1  0  0  0  0
 19 42  1  0  0  0  0
 20 43  1  0  0  0  0
 20 44  1  0  0  0  0
 20 45  1  0  0  0  0
M  END
> <s_m_source_file>
AV-unprocessed.smi

> <i_m_source_file_index>
1692

> <i_lp_mmshare_version>
43012

> <i_f3d_flags>
0

> <s_epik_input>
W0NIM11bQ0BASF0xW0NIMl1OKFtDSDJdW0NASF0oTzEpW0NIM10pW0NIMl1bQ0gyXVtDSDJdW05IXUMoPU8pW05IXWMyW2NIXVtjSF1bY0hdW2NIXW4y

> <s_epik_cmdline>
J2VwaWtfcHl0aG9uJywgJy1waCcsICc3LjAnLCAnLXRuJywgJzgnLCAnLW1hJywgJzIwMCcsICctbWV0YWxfYmluZGluZycsICctaW1hZScsICc8aW5maWxlLm1hZT4nLCAnLW9tYWUnLCAnPG91dGZpbGUubWFlPic=

> <r_epik_Ionization_Penalty>
0.594711

> <r_epik_Ionization_Penalty_Charging>
0

> <r_epik_Ionization_Penalty_Neutral>
0.594711

> <r_epik_State_Penalty>
0.608529

> <r_epik_Charging_Adjusted_Penalty>
0.608529

> <i_epik_Tot_Q>
0

> <i_epik_Tot_abs_Q>
0

> <r_epik_Metal_State_Penalty>
0.608528

> <b_epik_Metal_Only>
0

> <s_lp_Force_Field>
OPLS_2005

> <r_lp_Energy>
25.8915

> <b_lp_Chiralities_Consistent>
1

> <s_lp_Variant>
AV-unprocessed.smi:1692-5

> <Gold.Version>
5.8.1

> <Gold.Id.Protein>
6NUR|6NUR_protein|mol2

> <Gold.PLP.Fitness>
45.5105

> <Gold.PLP.PLP>
-33.9445

> <Gold.PLP.part.hbond>
-3.0000

> <Gold.PLP.part.metal>
0.0000

> <Gold.PLP.part.buried>
0.1067

> <Gold.PLP.part.nonpolar>
-32.1659

> <Gold.PLP.part.repulsive>
1.2354

> <Gold.PLP.ligand.clash>
0.0000

> <Gold.PLP.ligand.torsion>
0.2482

> <Gold.PLP.Chemscore.Hbond>
3.0000

> <Gold.PLP.Chemscore.CHOScore>
0.9995

> <Gold.PLP.Chemscore.Metal>
0.0000

> <Gold.Chemscore.Hbonds>
donor molecule, donor type, donor heavy atom, donor atom, acceptor molecule, acceptor atom, score
      L1  H     8    34       P1  7948  1.00
      L1  H    11    35       P1  7948  1.00
      P1  H  7997  8009       L1    21  1.00
      L1  C    16    39       P1 10186  0.69

> <Gold.PLP.Chemscore.Internal.Correction>
0.0639

> <Gold.Rescore>
     Score         DG    S(hbond)    S(metal)    S(lipo)     H(rot)  DE(clash)    DE(int)     intcor
     17.97     -20.99       2.89        0.00      87.94       1.73       1.46       1.56       ----

> <Gold.Chemscore.Fitness>
17.9734

> <Gold.Chemscore.DG>
-20.9928

> <Gold.Chemscore.ZeroCoef>
-5.4800

> <Gold.Chemscore.Hbond>
2.8874

> <Gold.Chemscore.Metal>
0.0000

> <Gold.Chemscore.Lipo>
87.9395

> <Gold.Chemscore.Internal_Hbond>
0.0000

> <Gold.Chemscore.DEClash>
1.4625

> <Gold.Chemscore.DEInternal>
1.5569

> <Gold.Chemscore.Rot>
1.7266

> <Gold.Chemscore.Internal.Correction>
   9.000000E+99

> <Gold.Chemscore.Hbonds>
donor molecule, donor type, donor heavy atom, donor atom, acceptor molecule, acceptor atom, score
      L1  H     8    34       P1  7948  0.95
      L1  H    11    35       P1  7948  0.98
      P1  H  7997  8009       L1    21  0.42

> <Gold.Chemscore.Hbond.Weighted>
-9.6439

> <Gold.Chemscore.Metal.Weighted>
-0.0000

> <Gold.Chemscore.Lipo.Weighted>
-10.2889

> <Gold.Chemscore.Internal_Hbond.Weighted>
0.0000

> <Gold.Chemscore.DEClash.Weighted>
1.4625

> <Gold.Chemscore.DEInternal.Weighted>
1.5569

> <Gold.Chemscore.Rot.Weighted>
4.4200

> <Gold.Chemscore.Internal.Correction.Weighted>
   9.000000E+99

> <Gold.Protein.RotatedTorsions>
[ 6907 6896 6895 6894 ] final   30.98 input  -60.11 | X-H torsion
[ 7974 7965 7964 7962 ] final  171.30 input  175.53 | X-H torsion
[ 8008 7997 7996 7995 ] final -171.89 input   59.86 | X-H torsion
[ 10167 10162 10161 10158 ] final  -19.63 input  -65.29 | X-H torsion
[ 10718 10713 10712 10709 ] final   49.85 input   66.30 | X-H torsion
[ 10763 10752 10751 10750 ] final  -66.90 input  -60.55 | X-H torsion
[ 11005 11000 10999 10996 ] final   89.04 input  -57.11 | X-H torsion

> <Gold.Protein.ActiveResidues>
 VAL166  LYS551  ARG553  GLY616  TRP617  ASP618  TYR619  PRO620  LYS621  CYS622 
 ASP623  PHE694  ASN695  SER759  ASP760  ASP761  ALA762  ILE779  LEU786  VAL792 
 PHE793  MET794  SER795  GLU796  ALA797  LYS798  CYS799  TRP800  GLU811  SER814 

> <Gold.Protein.RotatedAtoms>
  152.0538  134.9637  160.0574 H   0  0  0  0  0  0  0  0  0  0  0  0  # atno 6907 bound_to 6896
  152.1028  133.4254  159.4603 H   0  0  0  0  0  0  0  0  0  0  0  0  # atno 6908 bound_to 6896
  150.6840  134.2660  159.4612 H   0  0  0  0  0  0  0  0  0  0  0  0  # atno 6909 bound_to 6896
  144.7299  139.9330  143.6425 H   0  0  0  0  0  0  0  0  0  0  0  0  # atno 7974 bound_to 7965
  155.9375  140.1102  157.1082 H   0  0  0  0  0  0  0  0  0  0  0  0  # atno 8008 bound_to 7997
  154.4082  140.1225  156.4949 H   0  0  0  0  0  0  0  0  0  0  0  0  # atno 8009 bound_to 7997
  155.7003  140.3472  155.4932 H   0  0  0  0  0  0  0  0  0  0  0  0  # atno 8010 bound_to 7997
  140.7270  143.4800  151.0130 H   0  0  0  0  0  0  0  0  0  0  0  0  # atno 10167 bound_to 10162
  157.4828  130.8326  149.8112 H   0  0  0  0  0  0  0  0  0  0  0  0  # atno 10718 bound_to 10713
  154.3666  135.6104  153.5718 H   0  0  0  0  0  0  0  0  0  0  0  0  # atno 10763 bound_to 10752
  152.9791  135.5828  154.4571 H   0  0  0  0  0  0  0  0  0  0  0  0  # atno 10764 bound_to 10752
  154.4317  135.2848  155.1885 H   0  0  0  0  0  0  0  0  0  0  0  0  # atno 10765 bound_to 10752
  139.8883  134.8526  156.3086 H   0  0  0  0  0  0  0  0  0  0  0  0  # atno 11005 bound_to 11000
  146.0843  139.3831  143.0445 LP  0  0  0  0  0  0  0  0  0  0  0  0  # atno 17320 bound_to 7965
  145.7798  140.9861  143.1105 LP  0  0  0  0  0  0  0  0  0  0  0  0  # atno 17321 bound_to 7965
  139.8498  143.7453  152.3178 LP  0  0  0  0  0  0  0  0  0  0  0  0  # atno 17342 bound_to 10162
  139.7631  144.7500  151.0334 LP  0  0  0  0  0  0  0  0  0  0  0  0  # atno 17343 bound_to 10162
  156.0130  130.3825  150.2201 LP  0  0  0  0  0  0  0  0  0  0  0  0  # atno 17370 bound_to 10713
  157.0387  131.0029  151.3290 LP  0  0  0  0  0  0  0  0  0  0  0  0  # atno 17371 bound_to 10713
  140.9865  133.7235  156.0750 LP  0  0  0  0  0  0  0  0  0  0  0  0  # atno 17394 bound_to 11000
  140.7681  134.3864  157.5513 LP  0  0  0  0  0  0  0  0  0  0  0  0  # atno 17395 bound_to 11000

$$$$
