AV-unprocessed.smi:526|AV-procd|sdf|2812|dock9
  -GOLD-   2262023293D 1   1.00000     0.00000
 Structure written by MMmdl.
 30 30  0  0  0  0  0  0  0  0  2 V2000
  152.0401  145.9684  160.0592 C   0  0  0  0  0  0  0  0  0  0  0  0
  151.9683  144.7924  159.4138 C   0  0  0  0  0  0  0  0  0  0  0  0
  152.8289  143.6067  159.8075 C   0  0  0  0  0  0  0  0  0  0  0  0
  151.0213  144.5688  158.2488 C   0  0  0  0  0  0  0  0  0  0  0  0
  149.6980  143.3848  158.6508 S   0  0  0  0  0  0  0  0  0  0  0  0
  150.0786  141.9146  157.6334 C   0  0  0  0  0  0  0  0  0  0  0  0
  149.5631  142.0042  156.3476 N   0  0  0  0  0  0  0  0  0  0  0  0
  149.7577  140.9547  155.4691 C   0  0  0  0  0  0  0  0  0  0  0  0
  149.1388  141.1577  154.0973 C   0  0  0  0  0  0  0  0  0  0  0  0
  150.4527  139.8523  155.8393 C   0  0  0  0  0  0  0  0  0  0  0  0
  150.6901  138.6653  154.9034 C   0  0  0  0  0  0  0  0  0  0  0  0
  152.1629  138.3001  154.6810 C   0  0  0  0  0  0  0  0  0  0  0  0
  152.3849  137.3140  153.9453 O   0  0  0  0  0  0  0  0  0  0  0  0
  153.0416  138.9970  155.2363 O   0  5  0  0  0  0  0  0  0  0  0  0
  151.0021  139.8002  157.2109 C   0  0  0  0  0  0  0  0  0  0  0  0
  151.6578  138.8379  157.6081 O   0  0  0  0  0  0  0  0  0  0  0  0
  150.7560  140.8903  158.0601 N   0  0  0  0  0  0  0  0  0  0  0  0
  149.0445  142.8047  156.0177 H   0  0  0  0  0  0  0  0  0  0  0  0
  152.7186  146.1130  160.8872 H   0  0  0  0  0  0  0  0  0  0  0  0
  151.4210  146.8054  159.7707 H   0  0  0  0  0  0  0  0  0  0  0  0
  153.4403  143.2865  158.9636 H   0  0  0  0  0  0  0  0  0  0  0  0
  152.2075  142.7671  160.1188 H   0  0  0  0  0  0  0  0  0  0  0  0
  153.4962  143.8564  160.6332 H   0  0  0  0  0  0  0  0  0  0  0  0
  150.5691  145.5188  157.9612 H   0  0  0  0  0  0  0  0  0  0  0  0
  151.5942  144.2078  157.3939 H   0  0  0  0  0  0  0  0  0  0  0  0
  149.9021  141.0904  153.3219 H   0  0  0  0  0  0  0  0  0  0  0  0
  148.6612  142.1345  154.0120 H   0  0  0  0  0  0  0  0  0  0  0  0
  148.3825  140.3966  153.9045 H   0  0  0  0  0  0  0  0  0  0  0  0
  150.2498  138.8887  153.9316 H   0  0  0  0  0  0  0  0  0  0  0  0
  150.1597  137.7810  155.2579 H   0  0  0  0  0  0  0  0  0  0  0  0
  1  2  2  0  0  0  0
  1 19  1  0  0  0  0
  1 20  1  0  0  0  0
  2  3  1  0  0  0  0
  2  4  1  0  0  0  0
  3 21  1  0  0  0  0
  3 22  1  0  0  0  0
  3 23  1  0  0  0  0
  4 24  1  0  0  0  0
  4 25  1  0  0  0  0
  4  5  1  0  0  0  0
  5  6  1  0  0  0  0
  6 17  2  0  0  0  0
  6  7  1  0  0  0  0
  7  8  1  0  0  0  0
  7 18  1  0  0  0  0
  8 10  2  0  0  0  0
  8  9  1  0  0  0  0
  9 26  1  0  0  0  0
  9 27  1  0  0  0  0
  9 28  1  0  0  0  0
 10 15  1  0  0  0  0
 10 11  1  0  0  0  0
 11 12  1  0  0  0  0
 11 29  1  0  0  0  0
 11 30  1  0  0  0  0
 12 13  2  0  0  0  0
 12 14  1  0  0  0  0
 15 17  1  0  0  0  0
 15 16  2  0  0  0  0
M  CHG  1  14  -1
M  END
> <s_m_source_file>
AV-unprocessed.smi

> <i_m_source_file_index>
526

> <i_lp_mmshare_version>
43012

> <i_f3d_flags>
0

> <s_epik_input>
W0NIMl09QyhbQ0gzXSlbQ0gyXVNjMW5jKFtDSDNdKWMoYyg9TylbbkhdMSlbQ0gyXUMoPU8pW09IXQ==

> <s_epik_cmdline>
J2VwaWtfcHl0aG9uJywgJy1waCcsICc3LjAnLCAnLXRuJywgJzgnLCAnLW1hJywgJzIwMCcsICctbWV0YWxfYmluZGluZycsICctaW1hZScsICc8aW5maWxlLm1hZT4nLCAnLW9tYWUnLCAnPG91dGZpbGUubWFlPic=

> <r_lp_tautomer_probability>
0.273662

> <r_epik_Ionization_Penalty>
0.012426

> <r_epik_Ionization_Penalty_Charging>
0.012254

> <r_epik_Ionization_Penalty_Neutral>
0.000171952

> <r_epik_State_Penalty>
0.787696

> <r_epik_Charging_Adjusted_Penalty>
0.79995

> <i_epik_Tot_Q>
-1

> <i_epik_Tot_abs_Q>
1

> <r_epik_Metal_State_Penalty>
0.901144

> <b_epik_Metal_Only>
0

> <s_lp_Force_Field>
OPLS_2005

> <r_lp_Energy>
7.99396

> <b_lp_Chiralities_Consistent>
1

> <s_lp_Variant>
AV-unprocessed.smi:526-2

> <Gold.Version>
5.8.1

> <Gold.Id.Protein>
6NUR|6NUR_protein|mol2

> <Gold.PLP.Fitness>
47.5732

> <Gold.PLP.PLP>
-35.2132

> <Gold.PLP.part.hbond>
-3.0000

> <Gold.PLP.part.metal>
0.0000

> <Gold.PLP.part.buried>
-3.1403

> <Gold.PLP.part.nonpolar>
-30.2011

> <Gold.PLP.part.repulsive>
0.7715

> <Gold.PLP.ligand.clash>
0.0000

> <Gold.PLP.ligand.torsion>
0.7740

> <Gold.PLP.Chemscore.Hbond>
4.6320

> <Gold.PLP.Chemscore.CHOScore>
0.0000

> <Gold.PLP.Chemscore.Metal>
0.0000

> <Gold.Chemscore.Hbonds>
donor molecule, donor type, donor heavy atom, donor atom, acceptor molecule, acceptor atom, score
      L1  H     7    18       P1  8028  1.00
      P1  H  7997  8010       L1    14  2.00
      P1  H 10752 10764       L1    13  1.63

> <Gold.PLP.Chemscore.Internal.Correction>
0.0121

> <Gold.Rescore>
     Score         DG    S(hbond)    S(metal)    S(lipo)     H(rot)  DE(clash)    DE(int)     intcor
     13.73     -18.30       2.69        0.00      83.91       2.34       0.43       4.14       ----

> <Gold.Chemscore.Fitness>
13.7301

> <Gold.Chemscore.DG>
-18.3008

> <Gold.Chemscore.ZeroCoef>
-5.4800

> <Gold.Chemscore.Hbond>
2.6943

> <Gold.Chemscore.Metal>
0.0000

> <Gold.Chemscore.Lipo>
83.9079

> <Gold.Chemscore.Internal_Hbond>
0.0000

> <Gold.Chemscore.DEClash>
0.4258

> <Gold.Chemscore.DEInternal>
4.1449

> <Gold.Chemscore.Rot>
2.3420

> <Gold.Chemscore.Internal.Correction>
   9.000000E+99

> <Gold.Chemscore.Hbonds>
donor molecule, donor type, donor heavy atom, donor atom, acceptor molecule, acceptor atom, score
      L1  H     7    18       P1  8028  0.95
      P1  H  7997  8010       L1    14  0.99
      P1  H 10752 10764       L1    13  0.81

> <Gold.Chemscore.Hbond.Weighted>
-8.9991

> <Gold.Chemscore.Metal.Weighted>
-0.0000

> <Gold.Chemscore.Lipo.Weighted>
-9.8172

> <Gold.Chemscore.Internal_Hbond.Weighted>
0.0000

> <Gold.Chemscore.DEClash.Weighted>
0.4258

> <Gold.Chemscore.DEInternal.Weighted>
4.1449

> <Gold.Chemscore.Rot.Weighted>
5.9955

> <Gold.Chemscore.Internal.Correction.Weighted>
   9.000000E+99

> <Gold.Protein.RotatedTorsions>
[ 6907 6896 6895 6894 ] final  -72.23 input  -60.11 | X-H torsion
[ 7974 7965 7964 7962 ] final  -61.99 input  175.53 | X-H torsion
[ 8008 7997 7996 7995 ] final  102.30 input   59.86 | X-H torsion
[ 10167 10162 10161 10158 ] final   21.52 input  -65.29 | X-H torsion
[ 10718 10713 10712 10709 ] final  136.34 input   66.30 | X-H torsion
[ 10763 10752 10751 10750 ] final  -91.28 input  -60.55 | X-H torsion
[ 11005 11000 10999 10996 ] final  -52.41 input  -57.11 | X-H torsion

> <Gold.Protein.ActiveResidues>
 VAL166  LYS551  ARG553  GLY616  TRP617  ASP618  TYR619  PRO620  LYS621  CYS622 
 ASP623  PHE694  ASN695  SER759  ASP760  ASP761  ALA762  ILE779  LEU786  VAL792 
 PHE793  MET794  SER795  GLU796  ALA797  LYS798  CYS799  TRP800  GLU811  SER814 

> <Gold.Protein.RotatedAtoms>
  150.7178  134.5192  159.5645 H   0  0  0  0  0  0  0  0  0  0  0  0  # atno 6907 bound_to 6896
  152.2751  134.7887  160.0416 H   0  0  0  0  0  0  0  0  0  0  0  0  # atno 6908 bound_to 6896
  151.8553  133.3412  159.3723 H   0  0  0  0  0  0  0  0  0  0  0  0  # atno 6909 bound_to 6896
  145.7967  140.8678  143.0252 H   0  0  0  0  0  0  0  0  0  0  0  0  # atno 7974 bound_to 7965
  156.1380  140.3183  155.8451 H   0  0  0  0  0  0  0  0  0  0  0  0  # atno 8008 bound_to 7997
  155.4208  140.0512  157.3043 H   0  0  0  0  0  0  0  0  0  0  0  0  # atno 8009 bound_to 7997
  154.4953  140.2108  155.9473 H   0  0  0  0  0  0  0  0  0  0  0  0  # atno 8010 bound_to 7997
  140.5420  143.9660  150.6525 H   0  0  0  0  0  0  0  0  0  0  0  0  # atno 10167 bound_to 10162
  157.4477  131.1063  151.0070 H   0  0  0  0  0  0  0  0  0  0  0  0  # atno 10718 bound_to 10713
  154.6744  135.5273  153.8181 H   0  0  0  0  0  0  0  0  0  0  0  0  # atno 10763 bound_to 10752
  153.0523  135.6537  154.0673 H   0  0  0  0  0  0  0  0  0  0  0  0  # atno 10764 bound_to 10752
  154.0568  135.2965  155.3311 H   0  0  0  0  0  0  0  0  0  0  0  0  # atno 10765 bound_to 10752
  141.0923  133.6630  156.4020 H   0  0  0  0  0  0  0  0  0  0  0  0  # atno 11005 bound_to 11000
  144.6774  140.0201  143.7484 LP  0  0  0  0  0  0  0  0  0  0  0  0  # atno 17320 bound_to 7965
  145.9920  139.3022  143.0979 LP  0  0  0  0  0  0  0  0  0  0  0  0  # atno 17321 bound_to 7965
  140.3063  143.3227  152.0922 LP  0  0  0  0  0  0  0  0  0  0  0  0  # atno 17342 bound_to 10162
  139.4992  144.6664  151.6345 LP  0  0  0  0  0  0  0  0  0  0  0  0  # atno 17343 bound_to 10162
  157.0911  130.5943  149.5440 LP  0  0  0  0  0  0  0  0  0  0  0  0  # atno 17370 bound_to 10713
  155.9974  130.5045  150.7532 LP  0  0  0  0  0  0  0  0  0  0  0  0  # atno 17371 bound_to 10713
  140.5223  134.6292  157.5322 LP  0  0  0  0  0  0  0  0  0  0  0  0  # atno 17394 bound_to 11000
  139.9751  134.7228  155.9965 LP  0  0  0  0  0  0  0  0  0  0  0  0  # atno 17395 bound_to 11000

$$$$
