AV-unprocessed.smi:1381|AV-procd|sdf|5604|dock10
  -GOLD-   22720 5213D 1   1.00000     0.00000
 Structure written by MMmdl.
 42 43  0  0  0  0  0  0  0  0  1 V2000
  138.1710  136.9217  153.8737 C   0  0  0  0  0  0  0  0  0  0  0  0
  139.6610  136.9474  153.8705 C   0  0  0  0  0  0  0  0  0  0  0  0
  140.5741  137.8796  153.4648 C   0  0  0  0  0  0  0  0  0  0  0  0
  141.8173  137.2513  153.7417 C   0  0  0  0  0  0  0  0  0  0  0  0
  143.0426  137.9040  153.4520 N   0  0  0  0  0  0  0  0  0  0  0  0
  144.2803  137.5153  153.8030 C   0  0  0  0  0  0  0  0  0  0  0  0
  144.5479  136.5113  154.4642 O   0  0  0  0  0  0  0  0  0  0  0  0
  145.2076  138.3670  153.3426 N   0  0  0  0  0  0  0  0  0  0  0  0
  146.6436  138.2444  153.5721 C   0  0  0  0  0  0  0  0  0  0  0  0
  147.0040  138.4089  155.0616 C   0  0  0  0  0  0  0  0  0  0  0  0
  148.2988  139.0370  155.3283 N   0  0  0  0  0  0  0  0  0  0  0  0
  148.3790  140.3995  154.8069 C   0  0  0  0  0  0  0  0  0  0  0  0
  149.7532  141.0530  155.0564 C   0  0  1  0  0  0  0  0  0  0  0  0
  149.9738  141.4663  156.5218 C   0  0  0  0  0  0  0  0  0  0  0  0
  150.7997  140.2045  154.5818 O   0  0  0  0  0  0  0  0  0  0  0  0
  150.7635  138.8641  155.0684 C   0  0  2  0  0  0  0  0  0  0  0  0
  151.9023  138.0855  154.4012 C   0  0  0  0  0  0  0  0  0  0  0  0
  149.3864  138.2481  154.7645 C   0  0  0  0  0  0  0  0  0  0  0  0
  141.6760  136.0453  154.2709 N   0  0  0  0  0  0  0  0  0  0  0  0
  140.2932  135.8446  154.3562 O   0  0  0  0  0  0  0  0  0  0  0  0
  137.7641  137.9005  153.6194 H   0  0  0  0  0  0  0  0  0  0  0  0
  137.7898  136.6422  154.8560 H   0  0  0  0  0  0  0  0  0  0  0  0
  137.7960  136.2008  153.1468 H   0  0  0  0  0  0  0  0  0  0  0  0
  140.3806  138.8523  153.0371 H   0  0  0  0  0  0  0  0  0  0  0  0
  142.9694  138.7541  152.9132 H   0  0  0  0  0  0  0  0  0  0  0  0
  144.8996  139.1684  152.8117 H   0  0  0  0  0  0  0  0  0  0  0  0
  146.9909  137.2737  153.2148 H   0  0  0  0  0  0  0  0  0  0  0  0
  147.1583  138.9852  152.9612 H   0  0  0  0  0  0  0  0  0  0  0  0
  146.2187  139.0041  155.5297 H   0  0  0  0  0  0  0  0  0  0  0  0
  146.9629  137.4342  155.5498 H   0  0  0  0  0  0  0  0  0  0  0  0
  148.1849  140.3876  153.7333 H   0  0  0  0  0  0  0  0  0  0  0  0
  147.6061  141.0256  155.2519 H   0  0  0  0  0  0  0  0  0  0  0  0
  149.8038  141.9636  154.4587 H   0  0  0  0  0  0  0  0  0  0  0  0
  149.2368  142.2078  156.8305 H   0  0  0  0  0  0  0  0  0  0  0  0
  150.9615  141.9071  156.6565 H   0  0  0  0  0  0  0  0  0  0  0  0
  149.8892  140.6208  157.2040 H   0  0  0  0  0  0  0  0  0  0  0  0
  150.9329  138.8646  156.1457 H   0  0  0  0  0  0  0  0  0  0  0  0
  151.9283  137.0524  154.7487 H   0  0  0  0  0  0  0  0  0  0  0  0
  152.8682  138.5369  154.6289 H   0  0  0  0  0  0  0  0  0  0  0  0
  151.7885  138.0719  153.3168 H   0  0  0  0  0  0  0  0  0  0  0  0
  149.3521  137.2347  155.1664 H   0  0  0  0  0  0  0  0  0  0  0  0
  149.2558  138.1590  153.6848 H   0  0  0  0  0  0  0  0  0  0  0  0
  1  2  1  0  0  0  0
  1 21  1  0  0  0  0
  1 22  1  0  0  0  0
  1 23  1  0  0  0  0
  2 20  1  0  0  0  0
  2  3  2  0  0  0  0
  3  4  1  0  0  0  0
  3 24  1  0  0  0  0
  4  5  1  0  0  0  0
  4 19  2  0  0  0  0
  5  6  1  0  0  0  0
  5 25  1  0  0  0  0
  6  7  2  0  0  0  0
  6  8  1  0  0  0  0
  8  9  1  0  0  0  0
  8 26  1  0  0  0  0
  9 10  1  0  0  0  0
  9 27  1  0  0  0  0
  9 28  1  0  0  0  0
 10 11  1  0  0  0  0
 10 29  1  0  0  0  0
 10 30  1  0  0  0  0
 11 18  1  0  0  0  0
 11 12  1  0  0  0  0
 12 13  1  0  0  0  0
 12 31  1  0  0  0  0
 12 32  1  0  0  0  0
 13 14  1  0  0  0  0
 13 15  1  0  0  0  0
 13 33  1  0  0  0  0
 14 34  1  0  0  0  0
 14 35  1  0  0  0  0
 14 36  1  0  0  0  0
 15 16  1  0  0  0  0
 16 17  1  0  0  0  0
 16 18  1  0  0  0  0
 16 37  1  0  0  0  0
 17 38  1  0  0  0  0
 17 39  1  0  0  0  0
 17 40  1  0  0  0  0
 18 41  1  0  0  0  0
 18 42  1  0  0  0  0
 19 20  1  0  0  0  0
M  END
> <s_m_source_file>
AV-unprocessed.smi

> <i_m_source_file_index>
1381

> <i_lp_mmshare_version>
43012

> <i_f3d_flags>
0

> <s_epik_input>
W0NIM11jMVtjSF1jKG5vMSlbTkhdQyg9TylbTkhdW0NIMl1bQ0gyXU4yW0NIMl1bQ0BASF0oW0NIM10pT1tDQEBIXShbQ0gzXSlbQ0gyXTI=

> <s_epik_cmdline>
J2VwaWtfcHl0aG9uJywgJy1waCcsICc3LjAnLCAnLXRuJywgJzgnLCAnLW1hJywgJzIwMCcsICctbWV0YWxfYmluZGluZycsICctaW1hZScsICc8aW5maWxlLm1hZT4nLCAnLW9tYWUnLCAnPG91dGZpbGUubWFlPic=

> <r_epik_Ionization_Penalty>
0.214073

> <r_epik_Ionization_Penalty_Charging>
0

> <r_epik_Ionization_Penalty_Neutral>
0.214073

> <r_epik_State_Penalty>
0.204211

> <r_epik_Charging_Adjusted_Penalty>
0.204211

> <i_epik_Tot_Q>
0

> <i_epik_Tot_abs_Q>
0

> <r_epik_Metal_State_Penalty>
0.217067

> <b_epik_Metal_Only>
0

> <s_lp_Force_Field>
OPLS_2005

> <r_lp_Energy>
24.2919

> <b_lp_Chiralities_Consistent>
1

> <s_lp_Variant>
AV-unprocessed.smi:1381-3

> <Gold.Version>
5.8.1

> <Gold.Id.Protein>
6NUR|6NUR_protein|mol2

> <Gold.PLP.Fitness>
42.3374

> <Gold.PLP.PLP>
-30.8579

> <Gold.PLP.part.hbond>
-3.9380

> <Gold.PLP.part.metal>
0.0000

> <Gold.PLP.part.buried>
-6.5394

> <Gold.PLP.part.nonpolar>
-21.8075

> <Gold.PLP.part.repulsive>
0.3271

> <Gold.PLP.ligand.clash>
0.0000

> <Gold.PLP.ligand.torsion>
0.2511

> <Gold.PLP.Chemscore.Hbond>
3.9913

> <Gold.PLP.Chemscore.CHOScore>
0.0000

> <Gold.PLP.Chemscore.Metal>
0.0000

> <Gold.Chemscore.Hbonds>
donor molecule, donor type, donor heavy atom, donor atom, acceptor molecule, acceptor atom, score
      L1  H     5    25       P1 10175  1.00
      L1  H     8    26       P1 10175  1.00
      P1  H  7989  7998       L1    15  0.98
      P1  H 11000 11005       L1    20  1.00

> <Gold.PLP.Chemscore.Internal.Correction>
0.0080

> <Gold.Rescore>
     Score         DG    S(hbond)    S(metal)    S(lipo)     H(rot)  DE(clash)    DE(int)     intcor
     19.79     -21.40       3.68        0.00      65.21       1.57       0.15       1.46       ----

> <Gold.Chemscore.Fitness>
19.7877

> <Gold.Chemscore.DG>
-21.3963

> <Gold.Chemscore.ZeroCoef>
-5.4800

> <Gold.Chemscore.Hbond>
3.6841

> <Gold.Chemscore.Metal>
0.0000

> <Gold.Chemscore.Lipo>
65.2136

> <Gold.Chemscore.Internal_Hbond>
0.0000

> <Gold.Chemscore.DEClash>
0.1521

> <Gold.Chemscore.DEInternal>
1.4565

> <Gold.Chemscore.Rot>
1.5697

> <Gold.Chemscore.Internal.Correction>
   9.000000E+99

> <Gold.Chemscore.Hbonds>
donor molecule, donor type, donor heavy atom, donor atom, acceptor molecule, acceptor atom, score
      L1  H     5    25       P1 10175  0.95
      L1  H     8    26       P1 10175  0.95
      P1  H  7989  7998       L1    15  0.75
      P1  H 11000 11005       L1    20  0.44

> <Gold.Chemscore.Hbond.Weighted>
-12.3048

> <Gold.Chemscore.Metal.Weighted>
-0.0000

> <Gold.Chemscore.Lipo.Weighted>
-7.6300

> <Gold.Chemscore.Internal_Hbond.Weighted>
0.0000

> <Gold.Chemscore.DEClash.Weighted>
0.1521

> <Gold.Chemscore.DEInternal.Weighted>
1.4565

> <Gold.Chemscore.Rot.Weighted>
4.0185

> <Gold.Chemscore.Internal.Correction.Weighted>
   9.000000E+99

> <Gold.Protein.RotatedTorsions>
[ 6907 6896 6895 6894 ] final  -75.51 input  -60.11 | X-H torsion
[ 7974 7965 7964 7962 ] final  132.61 input  175.53 | X-H torsion
[ 8008 7997 7996 7995 ] final -138.19 input   59.86 | X-H torsion
[ 10167 10162 10161 10158 ] final  124.76 input  -65.29 | X-H torsion
[ 10718 10713 10712 10709 ] final   26.10 input   66.30 | X-H torsion
[ 10763 10752 10751 10750 ] final -139.97 input  -60.55 | X-H torsion
[ 11005 11000 10999 10996 ] final   54.16 input  -57.11 | X-H torsion

> <Gold.Protein.ActiveResidues>
 VAL166  LYS551  ARG553  GLY616  TRP617  ASP618  TYR619  PRO620  LYS621  CYS622 
 ASP623  PHE694  ASN695  SER759  ASP760  ASP761  ALA762  ILE779  LEU786  VAL792 
 PHE793  MET794  SER795  GLU796  ALA797  LYS798  CYS799  TRP800  GLU811  SER814 

> <Gold.Protein.RotatedAtoms>
  150.7057  134.4711  159.5425 H   0  0  0  0  0  0  0  0  0  0  0  0  # atno 6907 bound_to 6896
  152.2367  134.8266  160.0475 H   0  0  0  0  0  0  0  0  0  0  0  0  # atno 6908 bound_to 6896
  151.9063  133.3515  159.3885 H   0  0  0  0  0  0  0  0  0  0  0  0  # atno 6909 bound_to 6896
  144.9951  139.4367  143.5320 H   0  0  0  0  0  0  0  0  0  0  0  0  # atno 7974 bound_to 7965
  155.4242  140.0520  157.3023 H   0  0  0  0  0  0  0  0  0  0  0  0  # atno 8008 bound_to 7997
  154.4889  140.2112  155.9551 H   0  0  0  0  0  0  0  0  0  0  0  0  # atno 8009 bound_to 7997
  156.1314  140.3171  155.8360 H   0  0  0  0  0  0  0  0  0  0  0  0  # atno 8010 bound_to 7997
  139.5724  144.6945  151.3744 H   0  0  0  0  0  0  0  0  0  0  0  0  # atno 10167 bound_to 10162
  157.2023  130.6895  149.6193 H   0  0  0  0  0  0  0  0  0  0  0  0  # atno 10718 bound_to 10713
  154.8593  135.3567  154.5633 H   0  0  0  0  0  0  0  0  0  0  0  0  # atno 10763 bound_to 10752
  153.6247  135.7004  153.5302 H   0  0  0  0  0  0  0  0  0  0  0  0  # atno 10764 bound_to 10752
  153.3099  135.4181  155.1287 H   0  0  0  0  0  0  0  0  0  0  0  0  # atno 10765 bound_to 10752
  140.0708  134.5472  155.9048 H   0  0  0  0  0  0  0  0  0  0  0  0  # atno 11005 bound_to 11000
  146.3440  139.9306  142.8754 LP  0  0  0  0  0  0  0  0  0  0  0  0  # atno 17320 bound_to 7965
  145.2231  140.9943  143.4034 LP  0  0  0  0  0  0  0  0  0  0  0  0  # atno 17321 bound_to 7965
  140.7008  143.7637  150.7399 LP  0  0  0  0  0  0  0  0  0  0  0  0  # atno 17342 bound_to 10162
  140.1147  143.4667  152.2349 LP  0  0  0  0  0  0  0  0  0  0  0  0  # atno 17343 bound_to 10162
  155.9699  130.4578  150.5978 LP  0  0  0  0  0  0  0  0  0  0  0  0  # atno 17370 bound_to 10713
  157.3755  131.0772  151.1522 LP  0  0  0  0  0  0  0  0  0  0  0  0  # atno 17371 bound_to 10713
  141.2011  133.6616  156.5932 LP  0  0  0  0  0  0  0  0  0  0  0  0  # atno 17394 bound_to 11000
  140.3630  134.7671  157.4546 LP  0  0  0  0  0  0  0  0  0  0  0  0  # atno 17395 bound_to 11000

$$$$
