AV-unprocessed.smi:1978|AV-procd|sdf|8008|dock5
  -GOLD-   2272010193D 1   1.00000     0.00000
 Structure written by MMmdl.
 44 45  0  0  0  0  0  0  0  0  3 V2000
  147.1771  135.6075  163.0246 C   0  0  0  0  0  0  0  0  0  0  0  0
  147.5658  135.8045  161.5996 C   0  0  0  0  0  0  0  0  0  0  0  0
  147.8058  134.9358  160.5726 C   0  0  0  0  0  0  0  0  0  0  0  0
  148.1276  135.7981  159.4908 C   0  0  0  0  0  0  0  0  0  0  0  0
  148.4452  135.2673  158.2127 N   0  0  0  0  0  0  0  0  0  0  0  0
  148.8390  135.9188  157.1033 C   0  0  0  0  0  0  0  0  0  0  0  0
  148.9765  137.1478  157.1147 O   0  0  0  0  0  0  0  0  0  0  0  0
  149.0364  135.0748  156.0530 N   0  5  0  0  0  0  0  0  0  0  0  0
  148.4573  135.2478  154.7198 C   0  0  0  0  0  0  0  0  0  0  0  0
  148.1010  133.8778  154.0816 C   0  0  2  0  0  0  0  0  0  0  0  0
  149.3280  132.9507  153.8692 C   0  0  0  0  0  0  0  0  0  0  0  0
  147.2988  134.1001  152.8369 N   0  3  1  0  0  0  0  0  0  0  0  0
  146.9974  132.8935  152.0102 C   0  0  0  0  0  0  0  0  0  0  0  0
  146.4662  133.2935  150.6249 C   0  0  0  0  0  0  0  0  0  0  0  0
  145.2372  134.2021  150.7460 C   0  0  0  0  0  0  0  0  0  0  0  0
  145.5689  135.4207  151.6197 C   0  0  0  0  0  0  0  0  0  0  0  0
  146.1265  135.0141  153.0001 C   0  0  1  0  0  0  0  0  0  0  0  0
  145.0328  134.4519  153.9322 C   0  0  0  0  0  0  0  0  0  0  0  0
  148.0873  137.0786  159.8285 N   0  0  0  0  0  0  0  0  0  0  0  0
  147.7275  137.0890  161.1815 O   0  0  0  0  0  0  0  0  0  0  0  0
  147.1292  134.5468  163.2721 H   0  0  0  0  0  0  0  0  0  0  0  0
  146.1985  136.0452  163.2221 H   0  0  0  0  0  0  0  0  0  0  0  0
  147.9001  136.0777  163.6911 H   0  0  0  0  0  0  0  0  0  0  0  0
  147.7577  133.8574  160.5933 H   0  0  0  0  0  0  0  0  0  0  0  0
  148.3567  134.2660  158.1232 H   0  0  0  0  0  0  0  0  0  0  0  0
  147.5584  135.8657  154.7526 H   0  0  0  0  0  0  0  0  0  0  0  0
  149.1405  135.7793  154.0569 H   0  0  0  0  0  0  0  0  0  0  0  0
  147.4481  133.3713  154.7941 H   0  0  0  0  0  0  0  0  0  0  0  0
  149.7980  132.6819  154.8168 H   0  0  0  0  0  0  0  0  0  0  0  0
  150.1004  133.4034  153.2450 H   0  0  0  0  0  0  0  0  0  0  0  0
  149.0392  132.0126  153.3964 H   0  0  0  0  0  0  0  0  0  0  0  0
  147.9017  132.2989  151.8767 H   0  0  0  0  0  0  0  0  0  0  0  0
  146.2728  132.2541  152.5145 H   0  0  0  0  0  0  0  0  0  0  0  0
  147.2498  133.8096  150.0686 H   0  0  0  0  0  0  0  0  0  0  0  0
  146.2154  132.4014  150.0502 H   0  0  0  0  0  0  0  0  0  0  0  0
  144.9131  134.5270  149.7570 H   0  0  0  0  0  0  0  0  0  0  0  0
  144.4041  133.6456  151.1768 H   0  0  0  0  0  0  0  0  0  0  0  0
  146.3085  136.0344  151.1037 H   0  0  0  0  0  0  0  0  0  0  0  0
  144.6857  136.0496  151.7373 H   0  0  0  0  0  0  0  0  0  0  0  0
  146.4961  135.9312  153.4615 H   0  0  0  0  0  0  0  0  0  0  0  0
  144.1977  135.1482  154.0093 H   0  0  0  0  0  0  0  0  0  0  0  0
  145.4075  134.2982  154.9437 H   0  0  0  0  0  0  0  0  0  0  0  0
  144.6317  133.5029  153.5776 H   0  0  0  0  0  0  0  0  0  0  0  0
  147.9316  134.6390  152.2626 H   0  0  0  0  0  0  0  0  0  0  0  0
  1  2  1  0  0  0  0
  1 21  1  0  0  0  0
  1 22  1  0  0  0  0
  1 23  1  0  0  0  0
  2 20  1  0  0  0  0
  2  3  2  0  0  0  0
  3  4  1  0  0  0  0
  3 24  1  0  0  0  0
  4  5  1  0  0  0  0
  4 19  2  0  0  0  0
  5  6  1  0  0  0  0
  5 25  1  0  0  0  0
  6  7  2  0  0  0  0
  6  8  1  0  0  0  0
  8  9  1  0  0  0  0
  9 10  1  0  0  0  0
  9 26  1  0  0  0  0
  9 27  1  0  0  0  0
 10 11  1  0  0  0  0
 10 12  1  0  0  0  0
 10 28  1  0  0  0  0
 11 29  1  0  0  0  0
 11 30  1  0  0  0  0
 11 31  1  0  0  0  0
 12 17  1  0  0  0  0
 12 13  1  0  0  0  0
 12 44  1  0  0  0  0
 13 14  1  0  0  0  0
 13 32  1  0  0  0  0
 13 33  1  0  0  0  0
 14 15  1  0  0  0  0
 14 34  1  0  0  0  0
 14 35  1  0  0  0  0
 15 16  1  0  0  0  0
 15 36  1  0  0  0  0
 15 37  1  0  0  0  0
 16 17  1  0  0  0  0
 16 38  1  0  0  0  0
 16 39  1  0  0  0  0
 17 18  1  0  0  0  0
 17 40  1  0  0  0  0
 18 41  1  0  0  0  0
 18 42  1  0  0  0  0
 18 43  1  0  0  0  0
 19 20  1  0  0  0  0
M  CHG  1   8  -1
M  CHG  1  12   1
M  END
> <s_m_source_file>
AV-unprocessed.smi

> <i_m_source_file_index>
1978

> <i_lp_mmshare_version>
43012

> <i_f3d_flags>
0

> <s_epik_input>
W0NIM11jMVtjSF1jKG5vMSlbTkhdQyg9TylbTkhdW0NIMl1bQ0BIXShbQ0gzXSlOMltDSDJdW0NIMl1bQ0gyXVtDSDJdW0NASF0yW0NIM10=

> <s_epik_cmdline>
J2VwaWtfcHl0aG9uJywgJy1waCcsICc3LjAnLCAnLXRuJywgJzgnLCAnLW1hJywgJzIwMCcsICctbWV0YWxfYmluZGluZycsICctaW1hZScsICc8aW5maWxlLm1hZT4nLCAnLW9tYWUnLCAnPG91dGZpbGUubWFlPic=

> <r_epik_Ionization_Penalty>
6.7666

> <r_epik_Ionization_Penalty_Charging>
6.7666

> <r_epik_Ionization_Penalty_Neutral>
5.77131e-06

> <r_epik_State_Penalty>
6.79217

> <r_epik_Charging_Adjusted_Penalty>
13.5588

> <i_epik_Tot_Q>
0

> <i_epik_Tot_abs_Q>
2

> <r_epik_Metal_State_Penalty>
2.72569

> <b_epik_Metal_Only>
1

> <s_lp_Force_Field>
OPLS_2005

> <r_lp_Energy>
20.2617

> <b_lp_Chiralities_Consistent>
1

> <s_lp_Variant>
AV-unprocessed.smi:1978-17

> <Gold.Version>
5.8.1

> <Gold.Id.Protein>
6NUR|6NUR_protein|mol2

> <Gold.PLP.Fitness>
40.0594

> <Gold.PLP.PLP>
-31.1439

> <Gold.PLP.part.hbond>
-4.0154

> <Gold.PLP.part.metal>
0.0000

> <Gold.PLP.part.buried>
-1.6905

> <Gold.PLP.part.nonpolar>
-25.2347

> <Gold.PLP.part.repulsive>
0.1087

> <Gold.PLP.ligand.clash>
0.0000

> <Gold.PLP.ligand.torsion>
0.7423

> <Gold.PLP.Chemscore.Hbond>
3.3968

> <Gold.PLP.Chemscore.CHOScore>
0.0000

> <Gold.PLP.Chemscore.Metal>
0.0000

> <Gold.Chemscore.Hbonds>
donor molecule, donor type, donor heavy atom, donor atom, acceptor molecule, acceptor atom, score
      L1  H    12    44       P1  7948  2.00
      P1  H  6931  6943       L1    20  0.99
      P1  H  6934  6947       L1    20  0.35

> <Gold.PLP.Chemscore.Internal.Correction>
0.2095

> <Gold.Rescore>
     Score         DG    S(hbond)    S(metal)    S(lipo)     H(rot)  DE(clash)    DE(int)     intcor
     12.21     -14.28       1.56        0.00      63.83       1.52       0.01       2.06       ----

> <Gold.Chemscore.Fitness>
12.2072

> <Gold.Chemscore.DG>
-14.2820

> <Gold.Chemscore.ZeroCoef>
-5.4800

> <Gold.Chemscore.Hbond>
1.5637

> <Gold.Chemscore.Metal>
0.0000

> <Gold.Chemscore.Lipo>
63.8294

> <Gold.Chemscore.Internal_Hbond>
0.0000

> <Gold.Chemscore.DEClash>
0.0106

> <Gold.Chemscore.DEInternal>
2.0641

> <Gold.Chemscore.Rot>
1.5190

> <Gold.Chemscore.Internal.Correction>
   9.000000E+99

> <Gold.Chemscore.Hbonds>
donor molecule, donor type, donor heavy atom, donor atom, acceptor molecule, acceptor atom, score
      L1  H    12    44       P1  7948  0.44
      P1  H  6931  6943       L1    20  0.28
      P1  H  6934  6947       L1    20  0.01

> <Gold.Chemscore.Hbond.Weighted>
-5.2226

> <Gold.Chemscore.Metal.Weighted>
-0.0000

> <Gold.Chemscore.Lipo.Weighted>
-7.4680

> <Gold.Chemscore.Internal_Hbond.Weighted>
0.0000

> <Gold.Chemscore.DEClash.Weighted>
0.0106

> <Gold.Chemscore.DEInternal.Weighted>
2.0641

> <Gold.Chemscore.Rot.Weighted>
3.8886

> <Gold.Chemscore.Internal.Correction.Weighted>
   9.000000E+99

> <Gold.Protein.RotatedTorsions>
[ 6907 6896 6895 6894 ] final    4.52 input  -60.11 | X-H torsion
[ 7974 7965 7964 7962 ] final   55.77 input  175.53 | X-H torsion
[ 8008 7997 7996 7995 ] final    7.17 input   59.86 | X-H torsion
[ 10167 10162 10161 10158 ] final    4.22 input  -65.29 | X-H torsion
[ 10718 10713 10712 10709 ] final  -93.74 input   66.30 | X-H torsion
[ 10763 10752 10751 10750 ] final  -55.96 input  -60.55 | X-H torsion
[ 11005 11000 10999 10996 ] final  -82.65 input  -57.11 | X-H torsion

> <Gold.Protein.ActiveResidues>
 VAL166  LYS551  ARG553  GLY616  TRP617  ASP618  TYR619  PRO620  LYS621  CYS622 
 ASP623  PHE694  ASN695  SER759  ASP760  ASP761  ALA762  ILE779  LEU786  VAL792 
 PHE793  MET794  SER795  GLU796  ALA797  LYS798  CYS799  TRP800  GLU811  SER814 

> <Gold.Protein.RotatedAtoms>
  151.6427  135.1011  160.0144 H   0  0  0  0  0  0  0  0  0  0  0  0  # atno 6907 bound_to 6896
  152.4045  133.6864  159.6353 H   0  0  0  0  0  0  0  0  0  0  0  0  # atno 6908 bound_to 6896
  150.7941  133.8650  159.3283 H   0  0  0  0  0  0  0  0  0  0  0  0  # atno 6909 bound_to 6896
  145.9468  139.3937  143.0330 H   0  0  0  0  0  0  0  0  0  0  0  0  # atno 7974 bound_to 7965
  154.7504  140.2766  155.6298 H   0  0  0  0  0  0  0  0  0  0  0  0  # atno 8008 bound_to 7997
  156.2894  140.2679  156.2182 H   0  0  0  0  0  0  0  0  0  0  0  0  # atno 8009 bound_to 7997
  155.0145  140.0372  157.2402 H   0  0  0  0  0  0  0  0  0  0  0  0  # atno 8010 bound_to 7997
  140.6546  143.7460  150.7631 H   0  0  0  0  0  0  0  0  0  0  0  0  # atno 10167 bound_to 10162
  156.0017  130.5039  150.5822 H   0  0  0  0  0  0  0  0  0  0  0  0  # atno 10718 bound_to 10713
  154.1991  135.6414  153.5082 H   0  0  0  0  0  0  0  0  0  0  0  0  # atno 10763 bound_to 10752
  153.0016  135.5447  154.6334 H   0  0  0  0  0  0  0  0  0  0  0  0  # atno 10764 bound_to 10752
  154.5743  135.2919  155.0770 H   0  0  0  0  0  0  0  0  0  0  0  0  # atno 10765 bound_to 10752
  141.1662  133.7255  156.8604 H   0  0  0  0  0  0  0  0  0  0  0  0  # atno 11005 bound_to 11000
  145.8225  140.9672  143.0891 LP  0  0  0  0  0  0  0  0  0  0  0  0  # atno 17320 bound_to 7965
  144.6788  140.0059  143.7484 LP  0  0  0  0  0  0  0  0  0  0  0  0  # atno 17321 bound_to 7965
  140.1118  143.4693  152.2366 LP  0  0  0  0  0  0  0  0  0  0  0  0  # atno 17342 bound_to 10162
  139.5766  144.7490  151.3749 LP  0  0  0  0  0  0  0  0  0  0  0  0  # atno 17343 bound_to 10162
  157.3700  131.0764  151.1566 LP  0  0  0  0  0  0  0  0  0  0  0  0  # atno 17370 bound_to 10713
  157.2322  130.6530  149.5854 LP  0  0  0  0  0  0  0  0  0  0  0  0  # atno 17371 bound_to 10713
  140.1853  134.9004  157.2996 LP  0  0  0  0  0  0  0  0  0  0  0  0  # atno 17394 bound_to 11000
  140.2350  134.3863  155.7505 LP  0  0  0  0  0  0  0  0  0  0  0  0  # atno 17395 bound_to 11000

$$$$
