AV-unprocessed.smi:1383|AV-procd|sdf|5622|dock8
  -GOLD-   22720 5233D 1   1.00000     0.00000
 Structure written by MMmdl.
 31 31  0  0  0  0  0  0  0  0  1 V2000
  153.0872  142.0242  160.2867 C   0  0  0  0  0  0  0  0  0  0  0  0
  152.2034  143.2786  160.3726 C   0  0  0  0  0  0  0  0  0  0  0  0
  151.7574  143.8364  159.0030 C   0  0  2  0  0  0  0  0  0  0  0  0
  151.0934  145.2152  159.1607 C   0  0  0  0  0  0  0  0  0  0  0  0
  150.8091  142.8725  158.2727 C   0  0  0  0  0  0  0  0  0  0  0  0
  149.6977  142.6353  158.7474 O   0  0  0  0  0  0  0  0  0  0  0  0
  151.2818  142.3381  157.1308 N   0  0  0  0  0  0  0  0  0  0  0  0
  150.6410  141.4240  156.2548 C   0  0  0  0  0  0  0  0  0  0  0  0
  149.4598  141.6434  155.6668 N   0  0  0  0  0  0  0  0  0  0  0  0
  149.0686  140.5787  154.8477 C   0  0  0  0  0  0  0  0  0  0  0  0
  147.7677  140.6438  154.0997 C   0  0  0  0  0  0  0  0  0  0  0  0
  147.2952  139.2411  153.7080 C   0  0  0  0  0  0  0  0  0  0  0  0
  148.0021  138.5921  152.7780 N   0  0  0  0  0  0  0  0  0  0  0  0
  146.3096  138.7428  154.2470 O   0  0  0  0  0  0  0  0  0  0  0  0
  149.9728  139.5436  154.8384 C   0  0  0  0  0  0  0  0  0  0  0  0
  151.3564  139.8730  155.8463 S   0  0  0  0  0  0  0  0  0  0  0  0
  153.4193  141.7186  161.2791 H   0  0  0  0  0  0  0  0  0  0  0  0
  153.9757  142.2092  159.6826 H   0  0  0  0  0  0  0  0  0  0  0  0
  152.5516  141.1817  159.8487 H   0  0  0  0  0  0  0  0  0  0  0  0
  151.3311  143.0631  160.9915 H   0  0  0  0  0  0  0  0  0  0  0  0
  152.7599  144.0516  160.9039 H   0  0  0  0  0  0  0  0  0  0  0  0
  152.6492  143.9737  158.3889 H   0  0  0  0  0  0  0  0  0  0  0  0
  150.7512  145.6047  158.2010 H   0  0  0  0  0  0  0  0  0  0  0  0
  151.7949  145.9404  159.5739 H   0  0  0  0  0  0  0  0  0  0  0  0
  150.2322  145.1724  159.8288 H   0  0  0  0  0  0  0  0  0  0  0  0
  152.2126  142.6190  156.8594 H   0  0  0  0  0  0  0  0  0  0  0  0
  146.9969  141.1224  154.7052 H   0  0  0  0  0  0  0  0  0  0  0  0
  147.8731  141.2530  153.2009 H   0  0  0  0  0  0  0  0  0  0  0  0
  147.7320  137.6614  152.4958 H   0  0  0  0  0  0  0  0  0  0  0  0
  148.8116  139.0341  152.3670 H   0  0  0  0  0  0  0  0  0  0  0  0
  149.9097  138.6105  154.2986 H   0  0  0  0  0  0  0  0  0  0  0  0
  1  2  1  0  0  0  0
  1 17  1  0  0  0  0
  1 18  1  0  0  0  0
  1 19  1  0  0  0  0
  2  3  1  0  0  0  0
  2 20  1  0  0  0  0
  2 21  1  0  0  0  0
  3  4  1  0  0  0  0
  3  5  1  0  0  0  0
  3 22  1  0  0  0  0
  4 23  1  0  0  0  0
  4 24  1  0  0  0  0
  4 25  1  0  0  0  0
  5  6  2  0  0  0  0
  5  7  1  0  0  0  0
  7  8  1  0  0  0  0
  7 26  1  0  0  0  0
  8 16  1  0  0  0  0
  8  9  2  0  0  0  0
  9 10  1  0  0  0  0
 10 11  1  0  0  0  0
 10 15  2  0  0  0  0
 11 12  1  0  0  0  0
 11 27  1  0  0  0  0
 11 28  1  0  0  0  0
 12 13  1  0  0  0  0
 12 14  2  0  0  0  0
 13 29  1  0  0  0  0
 13 30  1  0  0  0  0
 15 16  1  0  0  0  0
 15 31  1  0  0  0  0
M  END
> <s_m_source_file>
AV-unprocessed.smi

> <i_m_source_file_index>
1383

> <i_lp_mmshare_version>
43012

> <i_f3d_flags>
0

> <s_epik_input>
W0NIM11bQ0gyXVtDQEhdKFtDSDNdKUMoPU8pW05IXWMxbmMoW2NIXXMxKVtDSDJdQyg9TylbTkgyXQ==

> <s_epik_cmdline>
J2VwaWtfcHl0aG9uJywgJy1waCcsICc3LjAnLCAnLXRuJywgJzgnLCAnLW1hJywgJzIwMCcsICctbWV0YWxfYmluZGluZycsICctaW1hZScsICc8aW5maWxlLm1hZT4nLCAnLW9tYWUnLCAnPG91dGZpbGUubWFlPic=

> <r_lp_tautomer_probability>
1

> <r_epik_Ionization_Penalty>
0.00017492

> <r_epik_Ionization_Penalty_Charging>
0

> <r_epik_Ionization_Penalty_Neutral>
0.00017492

> <r_epik_State_Penalty>
-0

> <r_epik_Charging_Adjusted_Penalty>
0

> <i_epik_Tot_Q>
0

> <i_epik_Tot_abs_Q>
0

> <r_epik_Metal_State_Penalty>
0.109333

> <b_epik_Metal_Only>
0

> <s_lp_Force_Field>
OPLS_2005

> <r_lp_Energy>
2.98053

> <b_lp_Chiralities_Consistent>
1

> <s_lp_Variant>
AV-unprocessed.smi:1383-1

> <Gold.Version>
5.8.1

> <Gold.Id.Protein>
6NUR|6NUR_protein|mol2

> <Gold.PLP.Fitness>
38.4533

> <Gold.PLP.PLP>
-35.5157

> <Gold.PLP.part.hbond>
-2.0382

> <Gold.PLP.part.metal>
0.0000

> <Gold.PLP.part.buried>
-5.1516

> <Gold.PLP.part.nonpolar>
-30.1704

> <Gold.PLP.part.repulsive>
0.8166

> <Gold.PLP.ligand.clash>
0.0000

> <Gold.PLP.ligand.torsion>
0.9752

> <Gold.PLP.Chemscore.Hbond>
1.6153

> <Gold.PLP.Chemscore.CHOScore>
0.0000

> <Gold.PLP.Chemscore.Metal>
0.0000

> <Gold.Chemscore.Hbonds>
donor molecule, donor type, donor heavy atom, donor atom, acceptor molecule, acceptor atom, score
      L1  H    13    29       P1  7948  0.51
      L1  H    13    30       P1  7957  1.00

> <Gold.PLP.Chemscore.Internal.Correction>
0.0422

> <Gold.Rescore>
     Score         DG    S(hbond)    S(metal)    S(lipo)     H(rot)  DE(clash)    DE(int)     intcor
     13.29     -14.20       1.89        0.00      68.65       2.19       0.03       0.88       ----

> <Gold.Chemscore.Fitness>
13.2859

> <Gold.Chemscore.DG>
-14.1956

> <Gold.Chemscore.ZeroCoef>
-5.4800

> <Gold.Chemscore.Hbond>
1.8870

> <Gold.Chemscore.Metal>
0.0000

> <Gold.Chemscore.Lipo>
68.6476

> <Gold.Chemscore.Internal_Hbond>
0.0000

> <Gold.Chemscore.DEClash>
0.0270

> <Gold.Chemscore.DEInternal>
0.8827

> <Gold.Chemscore.Rot>
2.1948

> <Gold.Chemscore.Internal.Correction>
   9.000000E+99

> <Gold.Chemscore.Hbonds>
donor molecule, donor type, donor heavy atom, donor atom, acceptor molecule, acceptor atom, score
      L1  H    13    29       P1  7948  0.51
      L1  H    13    30       P1  7957  0.96

> <Gold.Chemscore.Hbond.Weighted>
-6.3025

> <Gold.Chemscore.Metal.Weighted>
-0.0000

> <Gold.Chemscore.Lipo.Weighted>
-8.0318

> <Gold.Chemscore.Internal_Hbond.Weighted>
0.0000

> <Gold.Chemscore.DEClash.Weighted>
0.0270

> <Gold.Chemscore.DEInternal.Weighted>
0.8827

> <Gold.Chemscore.Rot.Weighted>
5.6186

> <Gold.Chemscore.Internal.Correction.Weighted>
   9.000000E+99

> <Gold.Protein.RotatedTorsions>
[ 6907 6896 6895 6894 ] final  153.53 input  -60.11 | X-H torsion
[ 7974 7965 7964 7962 ] final  124.00 input  175.53 | X-H torsion
[ 8008 7997 7996 7995 ] final  -80.64 input   59.86 | X-H torsion
[ 10167 10162 10161 10158 ] final  117.54 input  -65.29 | X-H torsion
[ 10718 10713 10712 10709 ] final   36.64 input   66.30 | X-H torsion
[ 10763 10752 10751 10750 ] final -101.87 input  -60.55 | X-H torsion
[ 11005 11000 10999 10996 ] final   38.02 input  -57.11 | X-H torsion

> <Gold.Protein.ActiveResidues>
 VAL166  LYS551  ARG553  GLY616  TRP617  ASP618  TYR619  PRO620  LYS621  CYS622 
 ASP623  PHE694  ASN695  SER759  ASP760  ASP761  ALA762  ILE779  LEU786  VAL792 
 PHE793  MET794  SER795  GLU796  ALA797  LYS798  CYS799  TRP800  GLU811  SER814 

> <Gold.Protein.RotatedAtoms>
  152.0713  133.4108  159.4460 H   0  0  0  0  0  0  0  0  0  0  0  0  # atno 6907 bound_to 6896
  150.6863  134.3088  159.4746 H   0  0  0  0  0  0  0  0  0  0  0  0  # atno 6908 bound_to 6896
  152.0920  134.9400  160.0622 H   0  0  0  0  0  0  0  0  0  0  0  0  # atno 6909 bound_to 6896
  145.0894  139.3598  143.4868 H   0  0  0  0  0  0  0  0  0  0  0  0  # atno 7974 bound_to 7965
  154.5903  140.0660  156.9229 H   0  0  0  0  0  0  0  0  0  0  0  0  # atno 8008 bound_to 7997
  155.2307  140.3337  155.4285 H   0  0  0  0  0  0  0  0  0  0  0  0  # atno 8009 bound_to 7997
  156.2251  140.1816  156.7367 H   0  0  0  0  0  0  0  0  0  0  0  0  # atno 8010 bound_to 7997
  139.6171  144.7094  151.2715 H   0  0  0  0  0  0  0  0  0  0  0  0  # atno 10167 bound_to 10162
  157.3373  130.7529  149.6888 H   0  0  0  0  0  0  0  0  0  0  0  0  # atno 10718 bound_to 10713
  154.7691  135.4882  153.9612 H   0  0  0  0  0  0  0  0  0  0  0  0  # atno 10763 bound_to 10752
  153.1344  135.6760  153.9133 H   0  0  0  0  0  0  0  0  0  0  0  0  # atno 10764 bound_to 10752
  153.8827  135.3130  155.3424 H   0  0  0  0  0  0  0  0  0  0  0  0  # atno 10765 bound_to 10752
  140.2168  134.3689  155.8023 H   0  0  0  0  0  0  0  0  0  0  0  0  # atno 11005 bound_to 11000
  146.3531  140.0721  142.8622 LP  0  0  0  0  0  0  0  0  0  0  0  0  # atno 17320 bound_to 7965
  145.1084  140.9390  143.4671 LP  0  0  0  0  0  0  0  0  0  0  0  0  # atno 17321 bound_to 7965
  140.7358  143.6725  150.8069 LP  0  0  0  0  0  0  0  0  0  0  0  0  # atno 17342 bound_to 10162
  140.0330  143.5424  152.2751 LP  0  0  0  0  0  0  0  0  0  0  0  0  # atno 17343 bound_to 10162
  155.9703  130.4178  150.4295 LP  0  0  0  0  0  0  0  0  0  0  0  0  # atno 17370 bound_to 10713
  157.2337  131.0510  151.2477 LP  0  0  0  0  0  0  0  0  0  0  0  0  # atno 17371 bound_to 10713
  141.2224  133.7172  156.8509 LP  0  0  0  0  0  0  0  0  0  0  0  0  # atno 17394 bound_to 11000
  140.1892  134.8978  157.3040 LP  0  0  0  0  0  0  0  0  0  0  0  0  # atno 17395 bound_to 11000

$$$$
