AV-unprocessed.smi:2224|AV-procd|sdf|8996|dock6
  -GOLD-   2272012203D 1   1.00000     0.00000
 Structure written by MMmdl.
 44 46  0  0  0  0  0  0  0  0  1 V2000
  141.7780  134.3794  152.9309 C   0  0  0  0  0  0  0  0  0  0  0  0
  143.1868  134.2161  152.4002 C   0  0  0  0  0  0  0  0  0  0  0  0
  143.4891  133.2304  151.4411 C   0  0  0  0  0  0  0  0  0  0  0  0
  144.8194  133.1296  150.9888 C   0  0  0  0  0  0  0  0  0  0  0  0
  145.2151  132.0927  149.9587 C   0  0  0  0  0  0  0  0  0  0  0  0
  145.8119  133.9300  151.4333 N   0  0  0  0  0  0  0  0  0  0  0  0
  145.5321  134.8825  152.3573 C   0  0  0  0  0  0  0  0  0  0  0  0
  146.5004  135.7765  152.8857 N   0  0  0  0  0  0  0  0  0  0  0  0
  146.4602  136.4560  154.0452 C   0  0  0  0  0  0  0  0  0  0  0  0
  145.5363  136.4270  154.8586 O   0  0  0  0  0  0  0  0  0  0  0  0
  147.5647  137.1963  154.2077 N   0  0  0  0  0  0  0  0  0  0  0  0
  147.8187  138.0868  155.3416 C   0  0  1  0  0  0  0  0  0  0  0  0
  149.2996  138.0902  155.7829 C   0  0  1  0  0  0  0  0  0  0  0  0
  150.3082  137.0874  155.2779 C   0  0  0  0  0  0  0  0  0  0  0  0
  150.9982  137.8443  154.1393 C   0  0  0  0  0  0  0  0  0  0  0  0
  150.0798  138.8729  153.7754 O   0  0  0  0  0  0  0  0  0  0  0  0
  149.4755  139.3628  154.9708 C   0  0  1  0  0  0  0  0  0  0  0  0
  147.9477  139.5784  154.9305 C   0  0  0  0  0  0  0  0  0  0  0  0
  147.3594  140.0317  153.5872 C   0  0  0  0  0  0  0  0  0  0  0  0
  147.4259  140.5630  155.9811 C   0  0  0  0  0  0  0  0  0  0  0  0
  144.2233  135.0520  152.8620 C   0  0  0  0  0  0  0  0  0  0  0  0
  141.0779  133.7285  152.4060 H   0  0  0  0  0  0  0  0  0  0  0  0
  141.4434  135.4095  152.8063 H   0  0  0  0  0  0  0  0  0  0  0  0
  141.7443  134.1324  153.9921 H   0  0  0  0  0  0  0  0  0  0  0  0
  142.7230  132.5694  151.0627 H   0  0  0  0  0  0  0  0  0  0  0  0
  144.3392  131.5910  149.5464 H   0  0  0  0  0  0  0  0  0  0  0  0
  145.8591  131.3385  150.4114 H   0  0  0  0  0  0  0  0  0  0  0  0
  145.7571  132.5592  149.1355 H   0  0  0  0  0  0  0  0  0  0  0  0
  147.3182  135.9183  152.3121 H   0  0  0  0  0  0  0  0  0  0  0  0
  148.2707  137.1683  153.4868 H   0  0  0  0  0  0  0  0  0  0  0  0
  147.1427  137.9303  156.1843 H   0  0  0  0  0  0  0  0  0  0  0  0
  149.3835  138.2951  156.8513 H   0  0  0  0  0  0  0  0  0  0  0  0
  151.0248  136.8001  156.0478 H   0  0  0  0  0  0  0  0  0  0  0  0
  149.8358  136.1734  154.9188 H   0  0  0  0  0  0  0  0  0  0  0  0
  151.9229  138.3039  154.4912 H   0  0  0  0  0  0  0  0  0  0  0  0
  151.2368  137.2018  153.2915 H   0  0  0  0  0  0  0  0  0  0  0  0
  150.0601  140.1356  155.4722 H   0  0  0  0  0  0  0  0  0  0  0  0
  147.6032  141.0728  153.3738 H   0  0  0  0  0  0  0  0  0  0  0  0
  146.2729  139.9398  153.5779 H   0  0  0  0  0  0  0  0  0  0  0  0
  147.7392  139.4440  152.7512 H   0  0  0  0  0  0  0  0  0  0  0  0
  147.7364  141.5853  155.7631 H   0  0  0  0  0  0  0  0  0  0  0  0
  147.7960  140.3215  156.9780 H   0  0  0  0  0  0  0  0  0  0  0  0
  146.3368  140.5522  156.0323 H   0  0  0  0  0  0  0  0  0  0  0  0
  144.0133  135.8142  153.5985 H   0  0  0  0  0  0  0  0  0  0  0  0
  1  2  1  0  0  0  0
  1 22  1  0  0  0  0
  1 23  1  0  0  0  0
  1 24  1  0  0  0  0
  2 21  1  0  0  0  0
  2  3  2  0  0  0  0
  3  4  1  0  0  0  0
  3 25  1  0  0  0  0
  4  5  1  0  0  0  0
  4  6  2  0  0  0  0
  5 26  1  0  0  0  0
  5 27  1  0  0  0  0
  5 28  1  0  0  0  0
  6  7  1  0  0  0  0
  7  8  1  0  0  0  0
  7 21  2  0  0  0  0
  8  9  1  0  0  0  0
  8 29  1  0  0  0  0
  9 10  2  0  0  0  0
  9 11  1  0  0  0  0
 11 12  1  0  0  0  0
 11 30  1  0  0  0  0
 12 18  1  0  0  0  0
 12 13  1  0  0  0  0
 12 31  1  0  0  0  0
 13 17  1  0  0  0  0
 13 14  1  0  0  0  0
 13 32  1  0  0  0  0
 14 15  1  0  0  0  0
 14 33  1  0  0  0  0
 14 34  1  0  0  0  0
 15 16  1  0  0  0  0
 15 35  1  0  0  0  0
 15 36  1  0  0  0  0
 16 17  1  0  0  0  0
 17 18  1  0  0  0  0
 17 37  1  0  0  0  0
 18 19  1  0  0  0  0
 18 20  1  0  0  0  0
 19 38  1  0  0  0  0
 19 39  1  0  0  0  0
 19 40  1  0  0  0  0
 20 41  1  0  0  0  0
 20 42  1  0  0  0  0
 20 43  1  0  0  0  0
 21 44  1  0  0  0  0
M  END
> <s_m_source_file>
AV-unprocessed.smi

> <i_m_source_file_index>
2224

> <i_lp_mmshare_version>
43012

> <i_f3d_flags>
0

> <s_epik_input>
W0NIM11jMVtjSF1jKFtDSDNdKW5jKFtjSF0xKVtOSF1DKD1PKVtOSF1bQ0BIXTJDKFtDSDNdKShbQ0gzXSlbQ0BIXShbQ0BASF0yMylPW0NIMl1bQ0gyXTM=

> <s_epik_cmdline>
J2VwaWtfcHl0aG9uJywgJy1waCcsICc3LjAnLCAnLXRuJywgJzgnLCAnLW1hJywgJzIwMCcsICctbWV0YWxfYmluZGluZycsICctaW1hZScsICc8aW5maWxlLm1hZT4nLCAnLW9tYWUnLCAnPG91dGZpbGUubWFlPic=

> <r_lp_tautomer_probability>
1

> <r_epik_Ionization_Penalty>
0.000276544

> <r_epik_Ionization_Penalty_Charging>
0

> <r_epik_Ionization_Penalty_Neutral>
0.000276544

> <r_epik_State_Penalty>
-0

> <r_epik_Charging_Adjusted_Penalty>
0

> <i_epik_Tot_Q>
0

> <i_epik_Tot_abs_Q>
0

> <r_epik_Metal_State_Penalty>
-0

> <b_epik_Metal_Only>
0

> <s_lp_Force_Field>
OPLS_2005

> <r_lp_Energy>
39.8946

> <b_lp_Chiralities_Consistent>
1

> <s_lp_Variant>
AV-unprocessed.smi:2224-6

> <Gold.Version>
5.8.1

> <Gold.Id.Protein>
6NUR|6NUR_protein|mol2

> <Gold.PLP.Fitness>
32.5480

> <Gold.PLP.PLP>
-27.0800

> <Gold.PLP.part.hbond>
-2.0000

> <Gold.PLP.part.metal>
0.0000

> <Gold.PLP.part.buried>
-5.4264

> <Gold.PLP.part.nonpolar>
-21.2889

> <Gold.PLP.part.repulsive>
1.6654

> <Gold.PLP.ligand.clash>
0.0000

> <Gold.PLP.ligand.torsion>
0.2758

> <Gold.PLP.Chemscore.Hbond>
1.9440

> <Gold.PLP.Chemscore.CHOScore>
0.0000

> <Gold.PLP.Chemscore.Metal>
0.0000

> <Gold.Chemscore.Hbonds>
donor molecule, donor type, donor heavy atom, donor atom, acceptor molecule, acceptor atom, score
      L1  H     8    29       P1  7948  1.00
      L1  H    11    30       P1  7948  0.94

> <Gold.PLP.Chemscore.Internal.Correction>
0.1876

> <Gold.Rescore>
     Score         DG    S(hbond)    S(metal)    S(lipo)     H(rot)  DE(clash)    DE(int)     intcor
     15.91     -17.95       1.92        0.00      73.70       1.00       0.29       1.74       ----

> <Gold.Chemscore.Fitness>
15.9116

> <Gold.Chemscore.DG>
-17.9453

> <Gold.Chemscore.ZeroCoef>
-5.4800

> <Gold.Chemscore.Hbond>
1.9170

> <Gold.Chemscore.Metal>
0.0000

> <Gold.Chemscore.Lipo>
73.6970

> <Gold.Chemscore.Internal_Hbond>
0.0000

> <Gold.Chemscore.DEClash>
0.2930

> <Gold.Chemscore.DEInternal>
1.7407

> <Gold.Chemscore.Rot>
1.0000

> <Gold.Chemscore.Internal.Correction>
   9.000000E+99

> <Gold.Chemscore.Hbonds>
donor molecule, donor type, donor heavy atom, donor atom, acceptor molecule, acceptor atom, score
      L1  H     8    29       P1  7948  1.00
      L1  H    11    30       P1  7948  0.88

> <Gold.Chemscore.Hbond.Weighted>
-6.4028

> <Gold.Chemscore.Metal.Weighted>
-0.0000

> <Gold.Chemscore.Lipo.Weighted>
-8.6225

> <Gold.Chemscore.Internal_Hbond.Weighted>
0.0000

> <Gold.Chemscore.DEClash.Weighted>
0.2930

> <Gold.Chemscore.DEInternal.Weighted>
1.7407

> <Gold.Chemscore.Rot.Weighted>
2.5600

> <Gold.Chemscore.Internal.Correction.Weighted>
   9.000000E+99

> <Gold.Protein.RotatedTorsions>
[ 6907 6896 6895 6894 ] final -119.80 input  -60.11 | X-H torsion
[ 7974 7965 7964 7962 ] final -177.54 input  175.53 | X-H torsion
[ 8008 7997 7996 7995 ] final   29.66 input   59.86 | X-H torsion
[ 10167 10162 10161 10158 ] final  -80.06 input  -65.29 | X-H torsion
[ 10718 10713 10712 10709 ] final -104.34 input   66.30 | X-H torsion
[ 10763 10752 10751 10750 ] final    5.88 input  -60.55 | X-H torsion
[ 11005 11000 10999 10996 ] final -154.48 input  -57.11 | X-H torsion

> <Gold.Protein.ActiveResidues>
 VAL166  LYS551  ARG553  GLY616  TRP617  ASP618  TYR619  PRO620  LYS621  CYS622 
 ASP623  PHE694  ASN695  SER759  ASP760  ASP761  ALA762  ILE779  LEU786  VAL792 
 PHE793  MET794  SER795  GLU796  ALA797  LYS798  CYS799  TRP800  GLU811  SER814 

> <Gold.Protein.RotatedAtoms>
  150.8336  133.8050  159.3088 H   0  0  0  0  0  0  0  0  0  0  0  0  # atno 6907 bound_to 6896
  151.5772  135.1058  160.0018 H   0  0  0  0  0  0  0  0  0  0  0  0  # atno 6908 bound_to 6896
  152.4412  133.7410  159.6697 H   0  0  0  0  0  0  0  0  0  0  0  0  # atno 6909 bound_to 6896
  144.7128  140.1004  143.6417 H   0  0  0  0  0  0  0  0  0  0  0  0  # atno 7974 bound_to 7965
  155.0780  140.3207  155.4610 H   0  0  0  0  0  0  0  0  0  0  0  0  # atno 8008 bound_to 7997
  156.2774  140.2100  156.5854 H   0  0  0  0  0  0  0  0  0  0  0  0  # atno 8009 bound_to 7997
  154.7001  140.0508  157.0437 H   0  0  0  0  0  0  0  0  0  0  0  0  # atno 8010 bound_to 7997
  140.4537  143.2475  151.8451 H   0  0  0  0  0  0  0  0  0  0  0  0  # atno 10167 bound_to 10162
  156.0301  130.5511  150.7383 H   0  0  0  0  0  0  0  0  0  0  0  0  # atno 10718 bound_to 10713
  153.2543  135.6917  153.7646 H   0  0  0  0  0  0  0  0  0  0  0  0  # atno 10763 bound_to 10752
  153.6729  135.3341  155.3159 H   0  0  0  0  0  0  0  0  0  0  0  0  # atno 10764 bound_to 10752
  154.8406  135.4504  154.1511 H   0  0  0  0  0  0  0  0  0  0  0  0  # atno 10765 bound_to 10752
  140.6969  134.3980  157.5214 H   0  0  0  0  0  0  0  0  0  0  0  0  # atno 11005 bound_to 11000
  145.9543  139.2755  143.1193 LP  0  0  0  0  0  0  0  0  0  0  0  0  # atno 17320 bound_to 7965
  145.9289  140.9062  143.0366 LP  0  0  0  0  0  0  0  0  0  0  0  0  # atno 17321 bound_to 7965
  139.4799  144.5090  151.8959 LP  0  0  0  0  0  0  0  0  0  0  0  0  # atno 17342 bound_to 10162
  140.4176  144.2286  150.5887 LP  0  0  0  0  0  0  0  0  0  0  0  0  # atno 17343 bound_to 10162
  157.4958  131.0914  151.0373 LP  0  0  0  0  0  0  0  0  0  0  0  0  # atno 17370 bound_to 10713
  157.0767  130.5886  149.5412 LP  0  0  0  0  0  0  0  0  0  0  0  0  # atno 17371 bound_to 10713
  139.8908  134.8796  156.2353 LP  0  0  0  0  0  0  0  0  0  0  0  0  # atno 17394 bound_to 11000
  141.0196  133.7049  156.1246 LP  0  0  0  0  0  0  0  0  0  0  0  0  # atno 17395 bound_to 11000

$$$$
