AV-unprocessed.smi:3263|AV-procd|sdf|12493|dock10
  -GOLD-   2272018393D 1   1.00000     0.00000
 Structure written by MMmdl.
 42 44  0  0  0  0  0  0  0  0  2 V2000
  153.0455  140.2050  158.0174 O   0  0  0  0  0  0  0  0  0  0  0  0
  151.9056  140.4095  157.5992 C   0  0  0  0  0  0  0  0  0  0  0  0
  150.9375  141.2949  158.3908 C   0  0  0  0  0  0  0  0  0  0  0  0
  151.3153  142.7924  158.3390 C   0  0  1  0  0  0  0  0  0  0  0  0
  150.4351  143.7254  159.2013 C   0  0  0  0  0  0  0  0  0  0  0  0
  151.4746  144.5458  159.9883 C   0  0  1  0  0  0  0  0  0  0  0  0
  152.0932  143.6564  161.0819 C   0  0  0  0  0  0  0  0  0  0  0  0
  152.9939  142.7050  160.2733 C   0  0  0  0  0  0  0  0  0  0  0  0
  152.7431  143.1484  158.8168 C   0  0  2  0  0  0  0  0  0  0  0  0
  152.6215  144.6597  158.9896 C   0  0  0  0  0  0  0  0  0  0  0  0
  151.4414  139.8909  156.4517 N   0  0  0  0  0  0  0  0  0  0  0  0
  152.2120  139.0457  155.5478 C   0  0  0  0  0  0  0  0  0  0  0  0
  151.3162  138.4028  154.4754 C   0  0  0  0  0  0  0  0  0  0  0  0
  150.7560  137.0666  154.9213 C   0  0  0  0  0  0  0  0  0  0  0  0
  151.0049  136.5356  156.2055 C   0  0  0  0  0  0  0  0  0  0  0  0
  150.4552  135.2834  156.5512 C   0  0  0  0  0  0  0  0  0  0  0  0
  149.6707  134.5890  155.6070 C   0  0  0  0  0  0  0  0  0  0  0  0
  149.4555  135.1653  154.3385 C   0  0  0  0  0  0  0  0  0  0  0  0
  149.9989  136.3672  154.0449 N   0  3  0  0  0  0  0  0  0  0  0  0
  149.9269  141.1409  158.0118 H   0  0  0  0  0  0  0  0  0  0  0  0
  150.9370  140.9534  159.4264 H   0  0  0  0  0  0  0  0  0  0  0  0
  151.2412  143.1229  157.3010 H   0  0  0  0  0  0  0  0  0  0  0  0
  149.8258  144.3692  158.5657 H   0  0  0  0  0  0  0  0  0  0  0  0
  149.7607  143.1839  159.8662 H   0  0  0  0  0  0  0  0  0  0  0  0
  151.0908  145.4951  160.3627 H   0  0  0  0  0  0  0  0  0  0  0  0
  152.6895  144.2492  161.7767 H   0  0  0  0  0  0  0  0  0  0  0  0
  151.3377  143.1236  161.6602 H   0  0  0  0  0  0  0  0  0  0  0  0
  154.0397  142.8624  160.5406 H   0  0  0  0  0  0  0  0  0  0  0  0
  152.7725  141.6544  160.4547 H   0  0  0  0  0  0  0  0  0  0  0  0
  153.5242  142.8323  158.1247 H   0  0  0  0  0  0  0  0  0  0  0  0
  152.3461  145.1838  158.0725 H   0  0  0  0  0  0  0  0  0  0  0  0
  153.5163  145.1228  159.4097 H   0  0  0  0  0  0  0  0  0  0  0  0
  150.4915  140.1046  156.1828 H   0  0  0  0  0  0  0  0  0  0  0  0
  153.0087  139.6303  155.0846 H   0  0  0  0  0  0  0  0  0  0  0  0
  152.6998  138.2699  156.1388 H   0  0  0  0  0  0  0  0  0  0  0  0
  150.4924  139.0734  154.2267 H   0  0  0  0  0  0  0  0  0  0  0  0
  151.8771  138.2521  153.5517 H   0  0  0  0  0  0  0  0  0  0  0  0
  151.6101  137.0781  156.9174 H   0  0  0  0  0  0  0  0  0  0  0  0
  150.6337  134.8598  157.5288 H   0  0  0  0  0  0  0  0  0  0  0  0
  149.2408  133.6288  155.8524 H   0  0  0  0  0  0  0  0  0  0  0  0
  148.8704  134.7051  153.5557 H   0  0  0  0  0  0  0  0  0  0  0  0
  149.8309  136.7660  153.1205 H   0  0  0  0  0  0  0  0  0  0  0  0
  1  2  2  0  0  0  0
  2  3  1  0  0  0  0
  2 11  1  0  0  0  0
  3  4  1  0  0  0  0
  3 20  1  0  0  0  0
  3 21  1  0  0  0  0
  4  9  1  0  0  0  0
  4  5  1  0  0  0  0
  4 22  1  0  0  0  0
  5  6  1  0  0  0  0
  5 23  1  0  0  0  0
  5 24  1  0  0  0  0
  6 10  1  0  0  0  0
  6  7  1  0  0  0  0
  6 25  1  0  0  0  0
  7  8  1  0  0  0  0
  7 26  1  0  0  0  0
  7 27  1  0  0  0  0
  8  9  1  0  0  0  0
  8 28  1  0  0  0  0
  8 29  1  0  0  0  0
  9 10  1  0  0  0  0
  9 30  1  0  0  0  0
 10 31  1  0  0  0  0
 10 32  1  0  0  0  0
 11 12  1  0  0  0  0
 11 33  1  0  0  0  0
 12 13  1  0  0  0  0
 12 34  1  0  0  0  0
 12 35  1  0  0  0  0
 13 14  1  0  0  0  0
 13 36  1  0  0  0  0
 13 37  1  0  0  0  0
 14 19  1  0  0  0  0
 14 15  2  0  0  0  0
 15 16  1  0  0  0  0
 15 38  1  0  0  0  0
 16 17  2  0  0  0  0
 16 39  1  0  0  0  0
 17 18  1  0  0  0  0
 17 40  1  0  0  0  0
 18 19  2  0  0  0  0
 18 41  1  0  0  0  0
 19 42  1  0  0  0  0
M  CHG  1  19   1
M  END
> <s_m_source_file>
AV-unprocessed.smi

> <i_m_source_file_index>
3263

> <i_lp_mmshare_version>
43012

> <i_f3d_flags>
0

> <s_epik_input>
W0NIMl0xW0NIMl1bQ0BASF0oW0NIMl0yKVtDQEBIXShbQ0gyXVtDQEhdMTIpW0NIMl1DKD1PKVtOSF1bQ0gyXVtDSDJdYzNbY0hdW2NIXVtjSF1bY0hdbjM=

> <s_epik_cmdline>
J2VwaWtfcHl0aG9uJywgJy1waCcsICc3LjAnLCAnLXRuJywgJzgnLCAnLW1hJywgJzIwMCcsICctbWV0YWxfYmluZGluZycsICctaW1hZScsICc8aW5maWxlLm1hZT4nLCAnLW9tYWUnLCAnPG91dGZpbGUubWFlPic=

> <r_epik_Ionization_Penalty>
1.83579

> <r_epik_Ionization_Penalty_Charging>
1.83579

> <r_epik_Ionization_Penalty_Neutral>
2.47288e-08

> <r_epik_State_Penalty>
1.95213

> <r_epik_Charging_Adjusted_Penalty>
3.78793

> <i_epik_Tot_Q>
1

> <i_epik_Tot_abs_Q>
1

> <r_epik_Metal_State_Penalty>
1.97847

> <b_epik_Metal_Only>
0

> <s_lp_Force_Field>
OPLS_2005

> <r_lp_Energy>
51.7701

> <b_lp_Chiralities_Consistent>
1

> <s_lp_Variant>
AV-unprocessed.smi:3263-8

> <Gold.Version>
5.8.1

> <Gold.Id.Protein>
6NUR|6NUR_protein|mol2

> <Gold.PLP.Fitness>
48.7841

> <Gold.PLP.PLP>
-40.7355

> <Gold.PLP.part.hbond>
-2.8410

> <Gold.PLP.part.metal>
0.0000

> <Gold.PLP.part.buried>
-2.5272

> <Gold.PLP.part.nonpolar>
-35.8958

> <Gold.PLP.part.repulsive>
0.1591

> <Gold.PLP.ligand.clash>
0.0000

> <Gold.PLP.ligand.torsion>
0.3791

> <Gold.PLP.Chemscore.Hbond>
2.9280

> <Gold.PLP.Chemscore.CHOScore>
0.0000

> <Gold.PLP.Chemscore.Metal>
0.0000

> <Gold.Chemscore.Hbonds>
donor molecule, donor type, donor heavy atom, donor atom, acceptor molecule, acceptor atom, score
      L1  H    19    42       P1  7948  1.15
      P1  H  7997  8010       L1     1  0.98

> <Gold.PLP.Chemscore.Internal.Correction>
0.0229

> <Gold.Rescore>
     Score         DG    S(hbond)    S(metal)    S(lipo)     H(rot)  DE(clash)    DE(int)     intcor
     21.21     -21.66       1.86        0.00     119.47       1.56       0.05       0.40       ----

> <Gold.Chemscore.Fitness>
21.2064

> <Gold.Chemscore.DG>
-21.6594

> <Gold.Chemscore.ZeroCoef>
-5.4800

> <Gold.Chemscore.Hbond>
1.8579

> <Gold.Chemscore.Metal>
0.0000

> <Gold.Chemscore.Lipo>
119.4676

> <Gold.Chemscore.Internal_Hbond>
0.0000

> <Gold.Chemscore.DEClash>
0.0500

> <Gold.Chemscore.DEInternal>
0.4030

> <Gold.Chemscore.Rot>
1.5640

> <Gold.Chemscore.Internal.Correction>
   9.000000E+99

> <Gold.Chemscore.Hbonds>
donor molecule, donor type, donor heavy atom, donor atom, acceptor molecule, acceptor atom, score
      L1  H    19    42       P1  7948  0.11
      P1  H  7997  8010       L1     1  0.92

> <Gold.Chemscore.Hbond.Weighted>
-6.2055

> <Gold.Chemscore.Metal.Weighted>
-0.0000

> <Gold.Chemscore.Lipo.Weighted>
-13.9777

> <Gold.Chemscore.Internal_Hbond.Weighted>
0.0000

> <Gold.Chemscore.DEClash.Weighted>
0.0500

> <Gold.Chemscore.DEInternal.Weighted>
0.4030

> <Gold.Chemscore.Rot.Weighted>
4.0038

> <Gold.Chemscore.Internal.Correction.Weighted>
   9.000000E+99

> <Gold.Protein.RotatedTorsions>
[ 6907 6896 6895 6894 ] final   62.44 input  -60.11 | X-H torsion
[ 7974 7965 7964 7962 ] final  114.08 input  175.53 | X-H torsion
[ 8008 7997 7996 7995 ] final   38.98 input   59.86 | X-H torsion
[ 10167 10162 10161 10158 ] final  -90.39 input  -65.29 | X-H torsion
[ 10718 10713 10712 10709 ] final  -64.79 input   66.30 | X-H torsion
[ 10763 10752 10751 10750 ] final  -16.64 input  -60.55 | X-H torsion
[ 11005 11000 10999 10996 ] final  117.25 input  -57.11 | X-H torsion

> <Gold.Protein.ActiveResidues>
 VAL166  LYS551  ARG553  GLY616  TRP617  ASP618  TYR619  PRO620  LYS621  CYS622 
 ASP623  PHE694  ASN695  SER759  ASP760  ASP761  ALA762  ILE779  LEU786  VAL792 
 PHE793  MET794  SER795  GLU796  ALA797  LYS798  CYS799  TRP800  GLU811  SER814 

> <Gold.Protein.RotatedAtoms>
  152.4172  134.6020  160.0002 H   0  0  0  0  0  0  0  0  0  0  0  0  # atno 6907 bound_to 6896
  151.6180  133.3336  159.3090 H   0  0  0  0  0  0  0  0  0  0  0  0  # atno 6908 bound_to 6896
  150.8060  134.7225  159.6711 H   0  0  0  0  0  0  0  0  0  0  0  0  # atno 6909 bound_to 6896
  145.2088  139.2916  143.4279 H   0  0  0  0  0  0  0  0  0  0  0  0  # atno 7974 bound_to 7965
  155.2292  140.3337  155.4305 H   0  0  0  0  0  0  0  0  0  0  0  0  # atno 8008 bound_to 7997
  156.2302  140.1847  156.7308 H   0  0  0  0  0  0  0  0  0  0  0  0  # atno 8009 bound_to 7997
  154.5965  140.0630  156.9296 H   0  0  0  0  0  0  0  0  0  0  0  0  # atno 8010 bound_to 7997
  140.3553  143.2870  151.9678 H   0  0  0  0  0  0  0  0  0  0  0  0  # atno 10167 bound_to 10162
  156.0708  130.4238  150.1470 H   0  0  0  0  0  0  0  0  0  0  0  0  # atno 10718 bound_to 10713
  153.5616  135.7009  153.5544 H   0  0  0  0  0  0  0  0  0  0  0  0  # atno 10763 bound_to 10752
  153.3424  135.4017  155.1582 H   0  0  0  0  0  0  0  0  0  0  0  0  # atno 10764 bound_to 10752
  154.8647  135.3745  154.5134 H   0  0  0  0  0  0  0  0  0  0  0  0  # atno 10765 bound_to 10752
  139.9068  134.9608  156.7322 H   0  0  0  0  0  0  0  0  0  0  0  0  # atno 11005 bound_to 11000
  146.3402  140.2357  142.8594 LP  0  0  0  0  0  0  0  0  0  0  0  0  # atno 17320 bound_to 7965
  144.9876  140.8517  143.5359 LP  0  0  0  0  0  0  0  0  0  0  0  0  # atno 17321 bound_to 7965
  139.4821  144.6040  151.7554 LP  0  0  0  0  0  0  0  0  0  0  0  0  # atno 17342 bound_to 10162
  140.5179  144.0924  150.6014 LP  0  0  0  0  0  0  0  0  0  0  0  0  # atno 17343 bound_to 10162
  156.9522  130.9778  151.3496 LP  0  0  0  0  0  0  0  0  0  0  0  0  # atno 17370 bound_to 10713
  157.5777  130.8355  149.8479 LP  0  0  0  0  0  0  0  0  0  0  0  0  # atno 17371 bound_to 10713
  140.6916  133.9385  155.7970 LP  0  0  0  0  0  0  0  0  0  0  0  0  # atno 17394 bound_to 11000
  141.0437  134.0584  157.3870 LP  0  0  0  0  0  0  0  0  0  0  0  0  # atno 17395 bound_to 11000

$$$$
