AV-unprocessed.smi:1593|AV-procd|sdf|6413|dock3
  -GOLD-   22720 7 43D 1   1.00000     0.00000
 Structure written by MMmdl.
 36 37  0  0  0  0  0  0  0  0  3 V2000
  152.1742  139.9236  155.1489 C   0  0  0  0  0  0  0  0  0  0  0  0
  151.7065  138.5119  155.0544 C   0  0  0  0  0  0  0  0  0  0  0  0
  150.5512  137.9428  154.5982 C   0  0  0  0  0  0  0  0  0  0  0  0
  150.7758  136.5545  154.7981 C   0  0  0  0  0  0  0  0  0  0  0  0
  149.7887  135.6016  154.4320 N   0  0  0  0  0  0  0  0  0  0  0  0
  149.4386  134.4660  155.0633 C   0  0  0  0  0  0  0  0  0  0  0  0
  149.9694  134.1603  156.1380 O   0  0  0  0  0  0  0  0  0  0  0  0
  148.4841  133.7729  154.3835 N   0  5  0  0  0  0  0  0  0  0  0  0
  148.2529  132.3359  154.5118 C   0  0  0  0  0  0  0  0  0  0  0  0
  148.6613  131.6250  153.2073 C   0  0  0  0  0  0  0  0  0  0  0  0
  147.5387  131.5613  152.2339 N   0  3  0  0  0  0  0  0  0  0  0  0
  146.4947  130.5792  152.6151 C   0  0  0  0  0  0  0  0  0  0  0  0
  145.4119  130.4993  151.5255 C   0  0  0  0  0  0  0  0  0  0  0  0
  144.8515  131.7888  151.3105 O   0  0  0  0  0  0  0  0  0  0  0  0
  145.8252  132.7260  150.8671 C   0  0  0  0  0  0  0  0  0  0  0  0
  146.9175  132.8796  151.9380 C   0  0  0  0  0  0  0  0  0  0  0  0
  151.9624  136.3007  155.3301 N   0  0  0  0  0  0  0  0  0  0  0  0
  152.5645  137.5532  155.4970 O   0  0  0  0  0  0  0  0  0  0  0  0
  151.4203  140.6107  154.7642 H   0  0  0  0  0  0  0  0  0  0  0  0
  153.0879  140.0668  154.5721 H   0  0  0  0  0  0  0  0  0  0  0  0
  152.3810  140.1935  156.1845 H   0  0  0  0  0  0  0  0  0  0  0  0
  149.6862  138.4410  154.1866 H   0  0  0  0  0  0  0  0  0  0  0  0
  149.2947  135.7943  153.5735 H   0  0  0  0  0  0  0  0  0  0  0  0
  148.8175  131.9010  155.3377 H   0  0  0  0  0  0  0  0  0  0  0  0
  147.2051  132.1167  154.7203 H   0  0  0  0  0  0  0  0  0  0  0  0
  149.4935  132.1788  152.7692 H   0  0  0  0  0  0  0  0  0  0  0  0
  149.0400  130.6214  153.4085 H   0  0  0  0  0  0  0  0  0  0  0  0
  146.9435  129.5949  152.7542 H   0  0  0  0  0  0  0  0  0  0  0  0
  146.0495  130.8688  153.5684 H   0  0  0  0  0  0  0  0  0  0  0  0
  145.8255  130.1090  150.5941 H   0  0  0  0  0  0  0  0  0  0  0  0
  144.6195  129.8167  151.8327 H   0  0  0  0  0  0  0  0  0  0  0  0
  146.2534  132.4037  149.9164 H   0  0  0  0  0  0  0  0  0  0  0  0
  145.3373  133.6844  150.6882 H   0  0  0  0  0  0  0  0  0  0  0  0
  146.4877  133.2954  152.8507 H   0  0  0  0  0  0  0  0  0  0  0  0
  147.6709  133.5871  151.5903 H   0  0  0  0  0  0  0  0  0  0  0  0
  147.9412  131.2228  151.3715 H   0  0  0  0  0  0  0  0  0  0  0  0
  1  2  1  0  0  0  0
  1 19  1  0  0  0  0
  1 20  1  0  0  0  0
  1 21  1  0  0  0  0
  2 18  1  0  0  0  0
  2  3  2  0  0  0  0
  3  4  1  0  0  0  0
  3 22  1  0  0  0  0
  4  5  1  0  0  0  0
  4 17  2  0  0  0  0
  5  6  1  0  0  0  0
  5 23  1  0  0  0  0
  6  7  2  0  0  0  0
  6  8  1  0  0  0  0
  8  9  1  0  0  0  0
  9 10  1  0  0  0  0
  9 24  1  0  0  0  0
  9 25  1  0  0  0  0
 10 11  1  0  0  0  0
 10 26  1  0  0  0  0
 10 27  1  0  0  0  0
 11 16  1  0  0  0  0
 11 12  1  0  0  0  0
 11 36  1  0  0  0  0
 12 13  1  0  0  0  0
 12 28  1  0  0  0  0
 12 29  1  0  0  0  0
 13 14  1  0  0  0  0
 13 30  1  0  0  0  0
 13 31  1  0  0  0  0
 14 15  1  0  0  0  0
 15 16  1  0  0  0  0
 15 32  1  0  0  0  0
 15 33  1  0  0  0  0
 16 34  1  0  0  0  0
 16 35  1  0  0  0  0
 17 18  1  0  0  0  0
M  CHG  1   8  -1
M  CHG  1  11   1
M  END
> <s_m_source_file>
AV-unprocessed.smi

> <i_m_source_file_index>
1593

> <i_lp_mmshare_version>
43012

> <i_f3d_flags>
0

> <s_epik_input>
W0NIM11jMVtjSF1jKG5vMSlbTkhdQyg9TylbTkhdW0NIMl1bQ0gyXU4yW0NIMl1bQ0gyXU9bQ0gyXVtDSDJdMg==

> <s_epik_cmdline>
J2VwaWtfcHl0aG9uJywgJy1waCcsICc3LjAnLCAnLXRuJywgJzgnLCAnLW1hJywgJzIwMCcsICctbWV0YWxfYmluZGluZycsICctaW1hZScsICc8aW5maWxlLm1hZT4nLCAnLW9tYWUnLCAnPG91dGZpbGUubWFlPic=

> <r_epik_Ionization_Penalty>
6.79272

> <r_epik_Ionization_Penalty_Charging>
6.79272

> <r_epik_Ionization_Penalty_Neutral>
5.6208e-06

> <r_epik_State_Penalty>
7.45901

> <r_epik_Charging_Adjusted_Penalty>
14.2517

> <i_epik_Tot_Q>
0

> <i_epik_Tot_abs_Q>
2

> <r_epik_Metal_State_Penalty>
3.38639

> <b_epik_Metal_Only>
1

> <s_lp_Force_Field>
OPLS_2005

> <r_lp_Energy>
12.9182

> <b_lp_Chiralities_Consistent>
1

> <s_lp_Variant>
AV-unprocessed.smi:1593-5

> <Gold.Version>
5.8.1

> <Gold.Id.Protein>
6NUR|6NUR_protein|mol2

> <Gold.PLP.Fitness>
36.3996

> <Gold.PLP.PLP>
-28.5620

> <Gold.PLP.part.hbond>
-3.9082

> <Gold.PLP.part.metal>
0.0000

> <Gold.PLP.part.buried>
-2.2332

> <Gold.PLP.part.nonpolar>
-23.0916

> <Gold.PLP.part.repulsive>
0.3650

> <Gold.PLP.ligand.clash>
0.0000

> <Gold.PLP.ligand.torsion>
0.6730

> <Gold.PLP.Chemscore.Hbond>
3.0000

> <Gold.PLP.Chemscore.CHOScore>
0.0000

> <Gold.PLP.Chemscore.Metal>
0.0000

> <Gold.Chemscore.Hbonds>
donor molecule, donor type, donor heavy atom, donor atom, acceptor molecule, acceptor atom, score
      L1  H     5    23       P1  7948  1.00
      L1  H    11    36       P1 10747  1.00
      P1  H 10752 10763       L1    17  0.71

> <Gold.PLP.Chemscore.Internal.Correction>
0.1836

> <Gold.Rescore>
     Score         DG    S(hbond)    S(metal)    S(lipo)     H(rot)  DE(clash)    DE(int)     intcor
     15.74     -17.39       2.68        0.00      60.82       1.62       0.26       1.39       ----

> <Gold.Chemscore.Fitness>
15.7415

> <Gold.Chemscore.DG>
-17.3876

> <Gold.Chemscore.ZeroCoef>
-5.4800

> <Gold.Chemscore.Hbond>
2.6783

> <Gold.Chemscore.Metal>
0.0000

> <Gold.Chemscore.Lipo>
60.8233

> <Gold.Chemscore.Internal_Hbond>
0.0000

> <Gold.Chemscore.DEClash>
0.2566

> <Gold.Chemscore.DEInternal>
1.3895

> <Gold.Chemscore.Rot>
1.6228

> <Gold.Chemscore.Internal.Correction>
   9.000000E+99

> <Gold.Chemscore.Hbonds>
donor molecule, donor type, donor heavy atom, donor atom, acceptor molecule, acceptor atom, score
      L1  H     5    23       P1  7948  0.60
      L1  H    11    36       P1 10747  0.95
      P1  H 10752 10763       L1    17  0.24

> <Gold.Chemscore.Hbond.Weighted>
-8.9455

> <Gold.Chemscore.Metal.Weighted>
-0.0000

> <Gold.Chemscore.Lipo.Weighted>
-7.1163

> <Gold.Chemscore.Internal_Hbond.Weighted>
0.0000

> <Gold.Chemscore.DEClash.Weighted>
0.2566

> <Gold.Chemscore.DEInternal.Weighted>
1.3895

> <Gold.Chemscore.Rot.Weighted>
4.1542

> <Gold.Chemscore.Internal.Correction.Weighted>
   9.000000E+99

> <Gold.Protein.RotatedTorsions>
[ 6907 6896 6895 6894 ] final  178.51 input  -60.11 | X-H torsion
[ 7974 7965 7964 7962 ] final  106.41 input  175.53 | X-H torsion
[ 8008 7997 7996 7995 ] final   61.28 input   59.86 | X-H torsion
[ 10167 10162 10161 10158 ] final  -39.01 input  -65.29 | X-H torsion
[ 10718 10713 10712 10709 ] final  106.83 input   66.30 | X-H torsion
[ 10763 10752 10751 10750 ] final   57.59 input  -60.55 | X-H torsion
[ 11005 11000 10999 10996 ] final  102.66 input  -57.11 | X-H torsion

> <Gold.Protein.ActiveResidues>
 VAL166  LYS551  ARG553  GLY616  TRP617  ASP618  TYR619  PRO620  LYS621  CYS622 
 ASP623  PHE694  ASN695  SER759  ASP760  ASP761  ALA762  ILE779  LEU786  VAL792 
 PHE793  MET794  SER795  GLU796  ALA797  LYS798  CYS799  TRP800  GLU811  SER814 

> <Gold.Protein.RotatedAtoms>
  151.6866  133.3311  159.3232 H   0  0  0  0  0  0  0  0  0  0  0  0  # atno 6907 bound_to 6896
  150.7798  134.6734  159.6414 H   0  0  0  0  0  0  0  0  0  0  0  0  # atno 6908 bound_to 6896
  152.3852  134.6532  160.0180 H   0  0  0  0  0  0  0  0  0  0  0  0  # atno 6909 bound_to 6896
  145.3069  139.2552  143.3784 H   0  0  0  0  0  0  0  0  0  0  0  0  # atno 7974 bound_to 7965
  155.5959  140.3493  155.4580 H   0  0  0  0  0  0  0  0  0  0  0  0  # atno 8008 bound_to 7997
  156.0266  140.1265  157.0327 H   0  0  0  0  0  0  0  0  0  0  0  0  # atno 8009 bound_to 7997
  154.4335  140.1052  156.6025 H   0  0  0  0  0  0  0  0  0  0  0  0  # atno 8010 bound_to 7997
  140.7076  143.3241  151.2721 H   0  0  0  0  0  0  0  0  0  0  0  0  # atno 10167 bound_to 10162
  157.6653  131.0859  150.6065 H   0  0  0  0  0  0  0  0  0  0  0  0  # atno 10718 bound_to 10713
  152.9853  135.5636  154.5414 H   0  0  0  0  0  0  0  0  0  0  0  0  # atno 10763 bound_to 10752
  154.4868  135.2791  155.1530 H   0  0  0  0  0  0  0  0  0  0  0  0  # atno 10764 bound_to 10752
  154.3015  135.6306  153.5480 H   0  0  0  0  0  0  0  0  0  0  0  0  # atno 10765 bound_to 10752
  139.8779  134.9233  156.5092 H   0  0  0  0  0  0  0  0  0  0  0  0  # atno 11005 bound_to 11000
  146.3132  140.3596  142.8663 LP  0  0  0  0  0  0  0  0  0  0  0  0  # atno 17320 bound_to 7965
  144.9047  140.7686  143.5845 LP  0  0  0  0  0  0  0  0  0  0  0  0  # atno 17321 bound_to 7965
  139.6704  144.0030  152.2749 LP  0  0  0  0  0  0  0  0  0  0  0  0  # atno 17342 bound_to 10162
  139.9627  144.6547  150.8064 LP  0  0  0  0  0  0  0  0  0  0  0  0  # atno 17343 bound_to 10162
  156.6366  130.4447  149.5767 LP  0  0  0  0  0  0  0  0  0  0  0  0  # atno 17370 bound_to 10713
  156.2241  130.6755  151.1398 LP  0  0  0  0  0  0  0  0  0  0  0  0  # atno 17371 bound_to 10713
  140.8533  133.8115  155.9190 LP  0  0  0  0  0  0  0  0  0  0  0  0  # atno 17394 bound_to 11000
  140.9123  134.2245  157.4978 LP  0  0  0  0  0  0  0  0  0  0  0  0  # atno 17395 bound_to 11000

$$$$
