AV-unprocessed.smi:2905|AV-procd|sdf|11161|dock6
  -GOLD-   2272016 43D 1   1.00000     0.00000
 Structure written by MMmdl.
 39 40  0  0  0  0  0  0  0  0  1 V2000
  146.1651  132.1218  149.5147 C   0  0  0  0  0  0  0  0  0  0  0  0
  144.9728  132.4140  150.4587 C   0  0  0  0  0  0  0  0  0  0  0  0
  143.6800  132.1744  149.6524 C   0  0  0  0  0  0  0  0  0  0  0  0
  145.0672  131.4208  151.6350 C   0  0  0  0  0  0  0  0  0  0  0  0
  144.9955  133.8582  150.9913 C   0  0  0  0  0  0  0  0  0  0  0  0
  143.9720  134.6652  150.6825 N   0  0  0  0  0  0  0  0  0  0  0  0
  144.0038  135.9294  151.1554 C   0  0  0  0  0  0  0  0  0  0  0  0
  145.0755  136.3964  151.9533 C   0  0  0  0  0  0  0  0  0  0  0  0
  145.2016  137.7145  152.4670 N   0  0  0  0  0  0  0  0  0  0  0  0
  146.1211  138.1996  153.3236 C   0  0  0  0  0  0  0  0  0  0  0  0
  147.0809  137.5637  153.7534 O   0  0  0  0  0  0  0  0  0  0  0  0
  145.9314  139.4875  153.6626 N   0  0  0  0  0  0  0  0  0  0  0  0
  146.7389  140.3125  154.5631 C   0  0  0  0  0  0  0  0  0  0  0  0
  146.3548  141.8137  154.5138 C   0  0  0  0  0  0  0  0  0  0  0  0
  147.6824  142.5176  154.4401 C   0  0  0  0  0  0  0  0  0  0  0  0
  148.6973  141.6712  154.2776 C   0  0  0  0  0  0  0  0  0  0  0  0
  148.2443  140.2380  154.2111 C   0  0  0  0  0  0  0  0  0  0  0  0
  146.1024  135.4653  152.2067 C   0  0  0  0  0  0  0  0  0  0  0  0
  146.0577  134.2033  151.7304 N   0  0  0  0  0  0  0  0  0  0  0  0
  146.1374  131.0955  149.1469 H   0  0  0  0  0  0  0  0  0  0  0  0
  147.1222  132.2548  150.0211 H   0  0  0  0  0  0  0  0  0  0  0  0
  146.1575  132.7754  148.6414 H   0  0  0  0  0  0  0  0  0  0  0  0
  143.6026  132.8691  148.8153 H   0  0  0  0  0  0  0  0  0  0  0  0
  142.7899  132.3037  150.2692 H   0  0  0  0  0  0  0  0  0  0  0  0
  143.6456  131.1630  149.2461 H   0  0  0  0  0  0  0  0  0  0  0  0
  145.0796  130.3882  151.2844 H   0  0  0  0  0  0  0  0  0  0  0  0
  144.2209  131.5190  152.3153 H   0  0  0  0  0  0  0  0  0  0  0  0
  145.9758  131.5828  152.2162 H   0  0  0  0  0  0  0  0  0  0  0  0
  143.1744  136.5546  150.8643 H   0  0  0  0  0  0  0  0  0  0  0  0
  144.5224  138.3793  152.1265 H   0  0  0  0  0  0  0  0  0  0  0  0
  145.1575  139.9585  153.2165 H   0  0  0  0  0  0  0  0  0  0  0  0
  146.6265  139.9547  155.5884 H   0  0  0  0  0  0  0  0  0  0  0  0
  145.7664  142.0657  153.6304 H   0  0  0  0  0  0  0  0  0  0  0  0
  145.7990  142.1191  155.4007 H   0  0  0  0  0  0  0  0  0  0  0  0
  147.7700  143.5927  154.4935 H   0  0  0  0  0  0  0  0  0  0  0  0
  149.7352  141.9533  154.1791 H   0  0  0  0  0  0  0  0  0  0  0  0
  148.7965  139.6207  154.9203 H   0  0  0  0  0  0  0  0  0  0  0  0
  148.4205  139.8542  153.2054 H   0  0  0  0  0  0  0  0  0  0  0  0
  146.9671  135.7320  152.7966 H   0  0  0  0  0  0  0  0  0  0  0  0
  1  2  1  0  0  0  0
  1 20  1  0  0  0  0
  1 21  1  0  0  0  0
  1 22  1  0  0  0  0
  2  3  1  0  0  0  0
  2  4  1  0  0  0  0
  2  5  1  0  0  0  0
  3 23  1  0  0  0  0
  3 24  1  0  0  0  0
  3 25  1  0  0  0  0
  4 26  1  0  0  0  0
  4 27  1  0  0  0  0
  4 28  1  0  0  0  0
  5 19  1  0  0  0  0
  5  6  2  0  0  0  0
  6  7  1  0  0  0  0
  7  8  2  0  0  0  0
  7 29  1  0  0  0  0
  8  9  1  0  0  0  0
  8 18  1  0  0  0  0
  9 10  1  0  0  0  0
  9 30  1  0  0  0  0
 10 11  2  0  0  0  0
 10 12  1  0  0  0  0
 12 13  1  0  0  0  0
 12 31  1  0  0  0  0
 13 17  1  0  0  0  0
 13 14  1  0  0  0  0
 13 32  1  0  0  0  0
 14 15  1  0  0  0  0
 14 33  1  0  0  0  0
 14 34  1  0  0  0  0
 15 16  2  0  0  0  0
 15 35  1  0  0  0  0
 16 17  1  0  0  0  0
 16 36  1  0  0  0  0
 17 37  1  0  0  0  0
 17 38  1  0  0  0  0
 18 19  2  0  0  0  0
 18 39  1  0  0  0  0
M  END
> <s_m_source_file>
AV-unprocessed.smi

> <i_m_source_file_index>
2905

> <i_lp_mmshare_version>
43012

> <i_f3d_flags>
0

> <s_epik_input>
W0NIM11DKFtDSDNdKShbQ0gzXSljMW5bY0hdYyhbY0hdbjEpW05IXUMoPU8pW05IXVtDSF0yW0NIMl1bQ0hdPVtDSF1bQ0gyXTI=

> <s_epik_cmdline>
J2VwaWtfcHl0aG9uJywgJy1waCcsICc3LjAnLCAnLXRuJywgJzgnLCAnLW1hJywgJzIwMCcsICctbWV0YWxfYmluZGluZycsICctaW1hZScsICc8aW5maWxlLm1hZT4nLCAnLW9tYWUnLCAnPG91dGZpbGUubWFlPic=

> <r_lp_tautomer_probability>
1

> <r_epik_Ionization_Penalty>
2.65275e-05

> <r_epik_Ionization_Penalty_Charging>
0

> <r_epik_Ionization_Penalty_Neutral>
2.65275e-05

> <r_epik_State_Penalty>
-0

> <r_epik_Charging_Adjusted_Penalty>
0

> <i_epik_Tot_Q>
0

> <i_epik_Tot_abs_Q>
0

> <r_epik_Metal_State_Penalty>
-0

> <b_epik_Metal_Only>
0

> <s_lp_Force_Field>
OPLS_2005

> <r_lp_Energy>
27.7511

> <b_lp_Chiralities_Consistent>
1

> <s_lp_Variant>
AV-unprocessed.smi:2905-1

> <Gold.Version>
5.8.1

> <Gold.Id.Protein>
6NUR|6NUR_protein|mol2

> <Gold.PLP.Fitness>
36.6766

> <Gold.PLP.PLP>
-28.1485

> <Gold.PLP.part.hbond>
-2.7452

> <Gold.PLP.part.metal>
0.0000

> <Gold.PLP.part.buried>
4.1746

> <Gold.PLP.part.nonpolar>
-30.3797

> <Gold.PLP.part.repulsive>
1.0432

> <Gold.PLP.ligand.clash>
0.0000

> <Gold.PLP.ligand.torsion>
0.1193

> <Gold.PLP.Chemscore.Hbond>
1.4272

> <Gold.PLP.Chemscore.CHOScore>
1.4932

> <Gold.PLP.Chemscore.Metal>
0.0000

> <Gold.Chemscore.Hbonds>
donor molecule, donor type, donor heavy atom, donor atom, acceptor molecule, acceptor atom, score
      L1  H     9    30       P1 10175  0.39
      L1  H    12    31       P1 10175  1.00
      L1  C     7    29       P1 10171  0.68
      L1  C    18    39       P1  7948  0.83

> <Gold.PLP.Chemscore.Internal.Correction>
0.0057

> <Gold.Rescore>
     Score         DG    S(hbond)    S(metal)    S(lipo)     H(rot)  DE(clash)    DE(int)     intcor
     12.47     -17.46       1.77        0.00      77.45       1.17       1.79       3.21       ----

> <Gold.Chemscore.Fitness>
12.4687

> <Gold.Chemscore.DG>
-17.4646

> <Gold.Chemscore.ZeroCoef>
-5.4800

> <Gold.Chemscore.Hbond>
1.7719

> <Gold.Chemscore.Metal>
0.0000

> <Gold.Chemscore.Lipo>
77.4487

> <Gold.Chemscore.Internal_Hbond>
0.0000

> <Gold.Chemscore.DEClash>
1.7889

> <Gold.Chemscore.DEInternal>
3.2070

> <Gold.Chemscore.Rot>
1.1699

> <Gold.Chemscore.Internal.Correction>
   9.000000E+99

> <Gold.Chemscore.Hbonds>
donor molecule, donor type, donor heavy atom, donor atom, acceptor molecule, acceptor atom, score
      L1  H     9    30       P1 10175  0.38
      L1  H    12    31       P1 10175  1.00

> <Gold.Chemscore.Hbond.Weighted>
-5.9180

> <Gold.Chemscore.Metal.Weighted>
-0.0000

> <Gold.Chemscore.Lipo.Weighted>
-9.0615

> <Gold.Chemscore.Internal_Hbond.Weighted>
0.0000

> <Gold.Chemscore.DEClash.Weighted>
1.7889

> <Gold.Chemscore.DEInternal.Weighted>
3.2070

> <Gold.Chemscore.Rot.Weighted>
2.9949

> <Gold.Chemscore.Internal.Correction.Weighted>
   9.000000E+99

> <Gold.Protein.RotatedTorsions>
[ 6907 6896 6895 6894 ] final   48.69 input  -60.11 | X-H torsion
[ 7974 7965 7964 7962 ] final  110.71 input  175.53 | X-H torsion
[ 8008 7997 7996 7995 ] final -173.52 input   59.86 | X-H torsion
[ 10167 10162 10161 10158 ] final  -53.35 input  -65.29 | X-H torsion
[ 10718 10713 10712 10709 ] final -103.73 input   66.30 | X-H torsion
[ 10763 10752 10751 10750 ] final  -55.26 input  -60.55 | X-H torsion
[ 11005 11000 10999 10996 ] final  -39.74 input  -57.11 | X-H torsion

> <Gold.Protein.ActiveResidues>
 VAL166  LYS551  ARG553  GLY616  TRP617  ASP618  TYR619  PRO620  LYS621  CYS622 
 ASP623  PHE694  ASN695  SER759  ASP760  ASP761  ALA762  ILE779  LEU786  VAL792 
 PHE793  MET794  SER795  GLU796  ALA797  LYS798  CYS799  TRP800  GLU811  SER814 

> <Gold.Protein.RotatedAtoms>
  152.2824  134.7814  160.0393 H   0  0  0  0  0  0  0  0  0  0  0  0  # atno 6907 bound_to 6896
  151.8389  133.3415  159.3645 H   0  0  0  0  0  0  0  0  0  0  0  0  # atno 6908 bound_to 6896
  150.7195  134.5339  159.5758 H   0  0  0  0  0  0  0  0  0  0  0  0  # atno 6909 bound_to 6896
  145.2515  139.2738  143.4064 H   0  0  0  0  0  0  0  0  0  0  0  0  # atno 7974 bound_to 7965
  155.9584  140.1140  157.0916 H   0  0  0  0  0  0  0  0  0  0  0  0  # atno 8008 bound_to 7997
  154.4126  140.1186  156.5213 H   0  0  0  0  0  0  0  0  0  0  0  0  # atno 8009 bound_to 7997
  155.6752  140.3473  155.4836 H   0  0  0  0  0  0  0  0  0  0  0  0  # atno 8010 bound_to 7997
  140.6489  143.2553  151.4779 H   0  0  0  0  0  0  0  0  0  0  0  0  # atno 10167 bound_to 10162
  156.0276  130.5481  150.7295 H   0  0  0  0  0  0  0  0  0  0  0  0  # atno 10718 bound_to 10713
  154.1879  135.6432  153.5052 H   0  0  0  0  0  0  0  0  0  0  0  0  # atno 10763 bound_to 10752
  153.0042  135.5421  154.6445 H   0  0  0  0  0  0  0  0  0  0  0  0  # atno 10764 bound_to 10752
  154.5827  135.2926  155.0689 H   0  0  0  0  0  0  0  0  0  0  0  0  # atno 10765 bound_to 10752
  141.0124  133.6901  156.2227 H   0  0  0  0  0  0  0  0  0  0  0  0  # atno 11005 bound_to 11000
  146.3301  140.2907  142.8615 LP  0  0  0  0  0  0  0  0  0  0  0  0  # atno 17320 bound_to 7965
  144.9498  140.8167  143.5579 LP  0  0  0  0  0  0  0  0  0  0  0  0  # atno 17321 bound_to 7965
  139.5702  144.1946  152.1825 LP  0  0  0  0  0  0  0  0  0  0  0  0  # atno 17342 bound_to 10162
  140.1240  144.5348  150.6845 LP  0  0  0  0  0  0  0  0  0  0  0  0  # atno 17343 bound_to 10162
  157.4891  131.0909  151.0448 LP  0  0  0  0  0  0  0  0  0  0  0  0  # atno 17370 bound_to 10713
  157.0860  130.5922  149.5430 LP  0  0  0  0  0  0  0  0  0  0  0  0  # atno 17371 bound_to 10713
  140.6711  134.4866  157.5587 LP  0  0  0  0  0  0  0  0  0  0  0  0  # atno 17394 bound_to 11000
  139.9097  134.8371  156.1572 LP  0  0  0  0  0  0  0  0  0  0  0  0  # atno 17395 bound_to 11000

$$$$
