AV-unprocessed.smi:1167|AV-procd|sdf|4938|dock6
  -GOLD-   22720 3523D 1   1.00000     0.00000
 Structure written by MMmdl.
 41 42  0  0  0  0  0  0  0  0  1 V2000
  145.9126  137.7060  151.6074 C   0  0  0  0  0  0  0  0  0  0  0  0
  146.2823  137.6217  152.9793 O   0  0  0  0  0  0  0  0  0  0  0  0
  146.9583  138.6846  153.5425 C   0  0  0  0  0  0  0  0  0  0  0  0
  146.9666  139.9164  152.8594 C   0  0  0  0  0  0  0  0  0  0  0  0
  147.6558  141.0065  153.4251 C   0  0  0  0  0  0  0  0  0  0  0  0
  148.3192  140.8294  154.6639 C   0  0  0  0  0  0  0  0  0  0  0  0
  149.0521  141.8367  155.3519 N   0  0  0  0  0  0  0  0  0  0  0  0
  150.2070  141.7434  156.0341 C   0  0  0  0  0  0  0  0  0  0  0  0
  150.8692  140.7183  156.1902 O   0  0  0  0  0  0  0  0  0  0  0  0
  150.5631  142.9331  156.5393 N   0  0  0  0  0  0  0  0  0  0  0  0
  151.7615  143.1873  157.3335 C   0  0  0  0  0  0  0  0  0  0  0  0
  151.9663  142.0379  158.3436 C   0  0  0  0  0  0  0  0  0  0  0  0
  153.1051  142.3547  159.3294 C   0  0  0  0  0  0  0  0  0  0  0  0
  152.8133  143.6285  159.9970 N   0  0  0  0  0  0  0  0  0  0  0  0
  152.4595  143.7074  161.3023 C   0  0  0  0  0  0  0  0  0  0  0  0
  152.4226  142.4315  162.1467 C   0  0  0  0  0  0  0  0  0  0  0  0
  152.1637  144.7705  161.8484 O   0  0  0  0  0  0  0  0  0  0  0  0
  152.8169  144.7487  159.0479 C   0  0  0  0  0  0  0  0  0  0  0  0
  151.6632  144.5556  158.0476 C   0  0  0  0  0  0  0  0  0  0  0  0
  148.2468  139.5560  155.2662 C   0  0  0  0  0  0  0  0  0  0  0  0
  147.5889  138.5070  154.7293 N   0  0  0  0  0  0  0  0  0  0  0  0
  145.3892  136.7946  151.3187 H   0  0  0  0  0  0  0  0  0  0  0  0
  146.7877  137.8029  150.9632 H   0  0  0  0  0  0  0  0  0  0  0  0
  145.2395  138.5455  151.4265 H   0  0  0  0  0  0  0  0  0  0  0  0
  146.4530  140.0245  151.9154 H   0  0  0  0  0  0  0  0  0  0  0  0
  147.6531  141.9433  152.8926 H   0  0  0  0  0  0  0  0  0  0  0  0
  148.6349  142.7556  155.3269 H   0  0  0  0  0  0  0  0  0  0  0  0
  149.9608  143.7238  156.3623 H   0  0  0  0  0  0  0  0  0  0  0  0
  152.6310  143.2044  156.6735 H   0  0  0  0  0  0  0  0  0  0  0  0
  151.0464  141.8700  158.9060 H   0  0  0  0  0  0  0  0  0  0  0  0
  152.1800  141.1081  157.8155 H   0  0  0  0  0  0  0  0  0  0  0  0
  153.2294  141.5285  160.0306 H   0  0  0  0  0  0  0  0  0  0  0  0
  154.0530  142.4345  158.7951 H   0  0  0  0  0  0  0  0  0  0  0  0
  153.4011  141.9508  162.1654 H   0  0  0  0  0  0  0  0  0  0  0  0
  151.6882  141.7285  161.7523 H   0  0  0  0  0  0  0  0  0  0  0  0
  152.1444  142.6600  163.1761 H   0  0  0  0  0  0  0  0  0  0  0  0
  152.7354  145.7251  159.5229 H   0  0  0  0  0  0  0  0  0  0  0  0
  153.7695  144.7642  158.5165 H   0  0  0  0  0  0  0  0  0  0  0  0
  151.6703  145.3643  157.3160 H   0  0  0  0  0  0  0  0  0  0  0  0
  150.7133  144.6287  158.5795 H   0  0  0  0  0  0  0  0  0  0  0  0
  148.7340  139.3695  156.2123 H   0  0  0  0  0  0  0  0  0  0  0  0
  1  2  1  0  0  0  0
  1 22  1  0  0  0  0
  1 23  1  0  0  0  0
  1 24  1  0  0  0  0
  2  3  1  0  0  0  0
  3 21  1  0  0  0  0
  3  4  2  0  0  0  0
  4  5  1  0  0  0  0
  4 25  1  0  0  0  0
  5  6  2  0  0  0  0
  5 26  1  0  0  0  0
  6  7  1  0  0  0  0
  6 20  1  0  0  0  0
  7  8  1  0  0  0  0
  7 27  1  0  0  0  0
  8  9  2  0  0  0  0
  8 10  1  0  0  0  0
 10 11  1  0  0  0  0
 10 28  1  0  0  0  0
 11 19  1  0  0  0  0
 11 12  1  0  0  0  0
 11 29  1  0  0  0  0
 12 13  1  0  0  0  0
 12 30  1  0  0  0  0
 12 31  1  0  0  0  0
 13 14  1  0  0  0  0
 13 32  1  0  0  0  0
 13 33  1  0  0  0  0
 14 15  1  0  0  0  0
 14 18  1  0  0  0  0
 15 16  1  0  0  0  0
 15 17  2  0  0  0  0
 16 34  1  0  0  0  0
 16 35  1  0  0  0  0
 16 36  1  0  0  0  0
 18 19  1  0  0  0  0
 18 37  1  0  0  0  0
 18 38  1  0  0  0  0
 19 39  1  0  0  0  0
 19 40  1  0  0  0  0
 20 21  2  0  0  0  0
 20 41  1  0  0  0  0
M  END
> <s_m_source_file>
AV-unprocessed.smi

> <i_m_source_file_index>
1167

> <i_lp_mmshare_version>
43012

> <i_f3d_flags>
0

> <s_epik_input>
W0NIM11PYzFbY0hdW2NIXWMoW2NIXW4xKVtOSF1DKD1PKVtOSF1bQ0hdMltDSDJdW0NIMl1OKEMoPU8pW0NIM10pW0NIMl1bQ0gyXTI=

> <s_epik_cmdline>
J2VwaWtfcHl0aG9uJywgJy1waCcsICc3LjAnLCAnLXRuJywgJzgnLCAnLW1hJywgJzIwMCcsICctbWV0YWxfYmluZGluZycsICctaW1hZScsICc8aW5maWxlLm1hZT4nLCAnLW9tYWUnLCAnPG91dGZpbGUubWFlPic=

> <r_lp_tautomer_probability>
1

> <r_epik_Ionization_Penalty>
9.6092e-05

> <r_epik_Ionization_Penalty_Charging>
0

> <r_epik_Ionization_Penalty_Neutral>
9.6092e-05

> <r_epik_State_Penalty>
-0

> <r_epik_Charging_Adjusted_Penalty>
0

> <i_epik_Tot_Q>
0

> <i_epik_Tot_abs_Q>
0

> <r_epik_Metal_State_Penalty>
-0

> <b_epik_Metal_Only>
0

> <s_lp_Force_Field>
OPLS_2005

> <r_lp_Energy>
24.5609

> <b_lp_Chiralities_Consistent>
1

> <s_lp_Variant>
AV-unprocessed.smi:1167-1

> <Gold.Version>
5.8.1

> <Gold.Id.Protein>
6NUR|6NUR_protein|mol2

> <Gold.PLP.Fitness>
42.2115

> <Gold.PLP.PLP>
-37.8683

> <Gold.PLP.part.hbond>
-2.0000

> <Gold.PLP.part.metal>
0.0000

> <Gold.PLP.part.buried>
-2.9739

> <Gold.PLP.part.nonpolar>
-35.2528

> <Gold.PLP.part.repulsive>
2.7656

> <Gold.PLP.ligand.clash>
0.0000

> <Gold.PLP.ligand.torsion>
0.7166

> <Gold.PLP.Chemscore.Hbond>
1.9199

> <Gold.PLP.Chemscore.CHOScore>
0.0000

> <Gold.PLP.Chemscore.Metal>
0.0000

> <Gold.Chemscore.Hbonds>
donor molecule, donor type, donor heavy atom, donor atom, acceptor molecule, acceptor atom, score
      L1  H     7    27       P1  8028  0.96
      L1  H    10    28       P1  8028  1.00

> <Gold.PLP.Chemscore.Internal.Correction>
0.0168

> <Gold.Rescore>
     Score         DG    S(hbond)    S(metal)    S(lipo)     H(rot)  DE(clash)    DE(int)     intcor
     14.07     -20.72       1.92        0.00     103.28       1.27       3.60       3.06       ----

> <Gold.Chemscore.Fitness>
14.0660

> <Gold.Chemscore.DG>
-20.7250

> <Gold.Chemscore.ZeroCoef>
-5.4800

> <Gold.Chemscore.Hbond>
1.9235

> <Gold.Chemscore.Metal>
0.0000

> <Gold.Chemscore.Lipo>
103.2789

> <Gold.Chemscore.Internal_Hbond>
0.0000

> <Gold.Chemscore.DEClash>
3.6010

> <Gold.Chemscore.DEInternal>
3.0580

> <Gold.Chemscore.Rot>
1.2746

> <Gold.Chemscore.Internal.Correction>
   9.000000E+99

> <Gold.Chemscore.Hbonds>
donor molecule, donor type, donor heavy atom, donor atom, acceptor molecule, acceptor atom, score
      L1  H     7    27       P1  8028  0.89
      L1  H    10    28       P1  8028  0.99

> <Gold.Chemscore.Hbond.Weighted>
-6.4243

> <Gold.Chemscore.Metal.Weighted>
-0.0000

> <Gold.Chemscore.Lipo.Weighted>
-12.0836

> <Gold.Chemscore.Internal_Hbond.Weighted>
0.0000

> <Gold.Chemscore.DEClash.Weighted>
3.6010

> <Gold.Chemscore.DEInternal.Weighted>
3.0580

> <Gold.Chemscore.Rot.Weighted>
3.2630

> <Gold.Chemscore.Internal.Correction.Weighted>
   9.000000E+99

> <Gold.Protein.RotatedTorsions>
[ 6907 6896 6895 6894 ] final   13.53 input  -60.11 | X-H torsion
[ 7974 7965 7964 7962 ] final  -42.48 input  175.53 | X-H torsion
[ 8008 7997 7996 7995 ] final   38.62 input   59.86 | X-H torsion
[ 10167 10162 10161 10158 ] final   60.78 input  -65.29 | X-H torsion
[ 10718 10713 10712 10709 ] final  149.18 input   66.30 | X-H torsion
[ 10763 10752 10751 10750 ] final  -49.01 input  -60.55 | X-H torsion
[ 11005 11000 10999 10996 ] final   18.74 input  -57.11 | X-H torsion

> <Gold.Protein.ActiveResidues>
 VAL166  LYS551  ARG553  GLY616  TRP617  ASP618  TYR619  PRO620  LYS621  CYS622 
 ASP623  PHE694  ASN695  SER759  ASP760  ASP761  ALA762  ILE779  LEU786  VAL792 
 PHE793  MET794  SER795  GLU796  ALA797  LYS798  CYS799  TRP800  GLU811  SER814 

> <Gold.Protein.RotatedAtoms>
  151.7877  135.0744  160.0382 H   0  0  0  0  0  0  0  0  0  0  0  0  # atno 6907 bound_to 6896
  152.3178  133.5817  159.5732 H   0  0  0  0  0  0  0  0  0  0  0  0  # atno 6908 bound_to 6896
  150.7353  133.9972  159.3668 H   0  0  0  0  0  0  0  0  0  0  0  0  # atno 6909 bound_to 6896
  146.0112  140.6962  142.9223 H   0  0  0  0  0  0  0  0  0  0  0  0  # atno 7974 bound_to 7965
  155.2231  140.3332  155.4313 H   0  0  0  0  0  0  0  0  0  0  0  0  # atno 8008 bound_to 7997
  156.2325  140.1857  156.7252 H   0  0  0  0  0  0  0  0  0  0  0  0  # atno 8009 bound_to 7997
  154.6002  140.0624  156.9344 H   0  0  0  0  0  0  0  0  0  0  0  0  # atno 8010 bound_to 7997
  140.1619  144.4362  150.6705 H   0  0  0  0  0  0  0  0  0  0  0  0  # atno 10167 bound_to 10162
  157.2993  131.0868  151.1402 H   0  0  0  0  0  0  0  0  0  0  0  0  # atno 10718 bound_to 10713
  154.0872  135.6582  153.4847 H   0  0  0  0  0  0  0  0  0  0  0  0  # atno 10763 bound_to 10752
  153.0335  135.5194  154.7416 H   0  0  0  0  0  0  0  0  0  0  0  0  # atno 10764 bound_to 10752
  154.6529  135.3004  154.9933 H   0  0  0  0  0  0  0  0  0  0  0  0  # atno 10765 bound_to 10752
  140.4215  134.1514  155.7673 H   0  0  0  0  0  0  0  0  0  0  0  0  # atno 11005 bound_to 11000
  144.6953  140.3401  143.7200 LP  0  0  0  0  0  0  0  0  0  0  0  0  # atno 17320 bound_to 7965
  145.7339  139.1744  143.2414 LP  0  0  0  0  0  0  0  0  0  0  0  0  # atno 17321 bound_to 7965
  140.6637  143.2261  151.5794 LP  0  0  0  0  0  0  0  0  0  0  0  0  # atno 17342 bound_to 10162
  139.5377  144.2734  152.1286 LP  0  0  0  0  0  0  0  0  0  0  0  0  # atno 17343 bound_to 10162
  157.2768  130.6731  149.6046 LP  0  0  0  0  0  0  0  0  0  0  0  0  # atno 17370 bound_to 10713
  155.9670  130.4462  150.5531 LP  0  0  0  0  0  0  0  0  0  0  0  0  # atno 17371 bound_to 10713
  141.1782  133.8469  157.1349 LP  0  0  0  0  0  0  0  0  0  0  0  0  # atno 17394 bound_to 11000
  140.0197  134.9951  157.0566 LP  0  0  0  0  0  0  0  0  0  0  0  0  # atno 17395 bound_to 11000

$$$$
