AV-unprocessed.smi:744|AV-procd|sdf|3568|dock2
  -GOLD-   22720 0563D 1   1.00000     0.00000
 Structure written by MMmdl.
 34 35  0  0  0  0  0  0  0  0  1 V2000
  144.4777  136.7299  151.6952 O   0  0  0  0  0  0  0  0  0  0  0  0
  145.6818  136.4730  151.6763 C   0  0  0  0  0  0  0  0  0  0  0  0
  146.6386  137.3952  151.8553 N   0  0  0  0  0  0  0  0  0  0  0  0
  146.4130  138.8169  152.0979 C   0  0  0  0  0  0  0  0  0  0  0  0
  147.0898  139.3070  153.3952 C   0  0  2  0  0  0  0  0  0  0  0  0
  147.1911  140.8428  153.4584 C   0  0  0  0  0  0  0  0  0  0  0  0
  148.5370  141.1804  154.1180 C   0  0  0  0  0  0  0  0  0  0  0  0
  149.1275  139.8470  154.5753 C   0  0  0  0  0  0  0  0  0  0  0  0
  148.5335  138.8219  153.6110 C   0  0  1  0  0  0  0  0  0  0  0  0
  148.6018  137.5242  154.1653 O   0  0  0  0  0  0  0  0  0  0  0  0
  146.2152  135.2570  151.4654 N   0  0  0  0  0  0  0  0  0  0  0  0
  145.5408  134.0315  151.2197 C   0  0  0  0  0  0  0  0  0  0  0  0
  146.3400  132.8732  151.3492 C   0  0  0  0  0  0  0  0  0  0  0  0
  145.7658  131.6067  151.1267 C   0  0  0  0  0  0  0  0  0  0  0  0
  144.4053  131.5313  150.7791 C   0  0  0  0  0  0  0  0  0  0  0  0
  143.6812  132.7327  150.6701 C   0  0  0  0  0  0  0  0  0  0  0  0
  144.2295  133.9476  150.8833 N   0  0  0  0  0  0  0  0  0  0  0  0
  147.6008  137.0919  151.8190 H   0  0  0  0  0  0  0  0  0  0  0  0
  146.7367  139.4185  151.2465 H   0  0  0  0  0  0  0  0  0  0  0  0
  145.3355  138.9630  152.1764 H   0  0  0  0  0  0  0  0  0  0  0  0
  146.4901  138.9874  154.2497 H   0  0  0  0  0  0  0  0  0  0  0  0
  147.1534  141.2847  152.4618 H   0  0  0  0  0  0  0  0  0  0  0  0
  146.3566  141.2592  154.0235 H   0  0  0  0  0  0  0  0  0  0  0  0
  149.1979  141.6417  153.3829 H   0  0  0  0  0  0  0  0  0  0  0  0
  148.4281  141.8819  154.9455 H   0  0  0  0  0  0  0  0  0  0  0  0
  150.2179  139.8457  154.5730 H   0  0  0  0  0  0  0  0  0  0  0  0
  148.7973  139.6382  155.5943 H   0  0  0  0  0  0  0  0  0  0  0  0
  149.0840  138.8443  152.6692 H   0  0  0  0  0  0  0  0  0  0  0  0
  148.9897  136.9473  153.5250 H   0  0  0  0  0  0  0  0  0  0  0  0
  147.2228  135.2016  151.4773 H   0  0  0  0  0  0  0  0  0  0  0  0
  147.3838  132.9496  151.6168 H   0  0  0  0  0  0  0  0  0  0  0  0
  146.3595  130.7096  151.2214 H   0  0  0  0  0  0  0  0  0  0  0  0
  143.9290  130.5787  150.6006 H   0  0  0  0  0  0  0  0  0  0  0  0
  142.6343  132.7188  150.4051 H   0  0  0  0  0  0  0  0  0  0  0  0
  1  2  2  0  0  0  0
  2  3  1  0  0  0  0
  2 11  1  0  0  0  0
  3  4  1  0  0  0  0
  3 18  1  0  0  0  0
  4  5  1  0  0  0  0
  4 19  1  0  0  0  0
  4 20  1  0  0  0  0
  5  9  1  0  0  0  0
  5  6  1  0  0  0  0
  5 21  1  0  0  0  0
  6  7  1  0  0  0  0
  6 22  1  0  0  0  0
  6 23  1  0  0  0  0
  7  8  1  0  0  0  0
  7 24  1  0  0  0  0
  7 25  1  0  0  0  0
  8  9  1  0  0  0  0
  8 26  1  0  0  0  0
  8 27  1  0  0  0  0
  9 10  1  0  0  0  0
  9 28  1  0  0  0  0
 10 29  1  0  0  0  0
 11 12  1  0  0  0  0
 11 30  1  0  0  0  0
 12 17  1  0  0  0  0
 12 13  2  0  0  0  0
 13 14  1  0  0  0  0
 13 31  1  0  0  0  0
 14 15  2  0  0  0  0
 14 32  1  0  0  0  0
 15 16  1  0  0  0  0
 15 33  1  0  0  0  0
 16 17  2  0  0  0  0
 16 34  1  0  0  0  0
M  END
> <s_m_source_file>
AV-unprocessed.smi

> <i_m_source_file_index>
744

> <i_lp_mmshare_version>
43012

> <i_f3d_flags>
0

> <s_epik_input>
bjFbY0hdW2NIXVtjSF1bY0hdYzFbTkhdQyg9TylbTkhdW0NIMl1bQ0BASF0yW0NIMl1bQ0gyXVtDSDJdW0NASF0yW09IXQ==

> <s_epik_cmdline>
J2VwaWtfcHl0aG9uJywgJy1waCcsICc3LjAnLCAnLXRuJywgJzgnLCAnLW1hJywgJzIwMCcsICctbWV0YWxfYmluZGluZycsICctaW1hZScsICc8aW5maWxlLm1hZT4nLCAnLW9tYWUnLCAnPG91dGZpbGUubWFlPic=

> <r_lp_tautomer_probability>
1

> <r_epik_Ionization_Penalty>
5.04769e-05

> <r_epik_Ionization_Penalty_Charging>
0

> <r_epik_Ionization_Penalty_Neutral>
5.04769e-05

> <r_epik_State_Penalty>
-0

> <r_epik_Charging_Adjusted_Penalty>
0

> <i_epik_Tot_Q>
0

> <i_epik_Tot_abs_Q>
0

> <r_epik_Metal_State_Penalty>
-0

> <b_epik_Metal_Only>
0

> <s_lp_Force_Field>
OPLS_2005

> <r_lp_Energy>
24.8684

> <b_lp_Chiralities_Consistent>
1

> <s_lp_Variant>
AV-unprocessed.smi:744-1

> <Gold.Version>
5.8.1

> <Gold.Id.Protein>
6NUR|6NUR_protein|mol2

> <Gold.PLP.Fitness>
42.4324

> <Gold.PLP.PLP>
-30.9985

> <Gold.PLP.part.hbond>
-3.0000

> <Gold.PLP.part.metal>
0.0000

> <Gold.PLP.part.buried>
-2.8203

> <Gold.PLP.part.nonpolar>
-29.1833

> <Gold.PLP.part.repulsive>
2.9053

> <Gold.PLP.ligand.clash>
0.0000

> <Gold.PLP.ligand.torsion>
0.1726

> <Gold.PLP.Chemscore.Hbond>
2.9280

> <Gold.PLP.Chemscore.CHOScore>
0.9982

> <Gold.PLP.Chemscore.Metal>
0.0000

> <Gold.Chemscore.Hbonds>
donor molecule, donor type, donor heavy atom, donor atom, acceptor molecule, acceptor atom, score
      L1  H     3    18       P1  7948  1.00
      L1  H    10    29       P1  7948  0.99
      L1  H    11    30       P1  7948  0.93
      L1  C    16    34       P1 10186  1.00

> <Gold.PLP.Chemscore.Internal.Correction>
0.0006

> <Gold.Rescore>
     Score         DG    S(hbond)    S(metal)    S(lipo)     H(rot)  DE(clash)    DE(int)     intcor
     15.49     -19.02       2.78        0.00      75.76       1.81       1.27       2.26       ----

> <Gold.Chemscore.Fitness>
15.4901

> <Gold.Chemscore.DG>
-19.0154

> <Gold.Chemscore.ZeroCoef>
-5.4800

> <Gold.Chemscore.Hbond>
2.7823

> <Gold.Chemscore.Metal>
0.0000

> <Gold.Chemscore.Lipo>
75.7594

> <Gold.Chemscore.Internal_Hbond>
0.0000

> <Gold.Chemscore.DEClash>
1.2651

> <Gold.Chemscore.DEInternal>
2.2602

> <Gold.Chemscore.Rot>
1.8052

> <Gold.Chemscore.Internal.Correction>
   9.000000E+99

> <Gold.Chemscore.Hbonds>
donor molecule, donor type, donor heavy atom, donor atom, acceptor molecule, acceptor atom, score
      L1  H     3    18       P1  7948  0.97
      L1  H    10    29       P1  7948  0.94
      L1  H    11    30       P1  7948  0.76

> <Gold.Chemscore.Hbond.Weighted>
-9.2928

> <Gold.Chemscore.Metal.Weighted>
-0.0000

> <Gold.Chemscore.Lipo.Weighted>
-8.8638

> <Gold.Chemscore.Internal_Hbond.Weighted>
0.0000

> <Gold.Chemscore.DEClash.Weighted>
1.2651

> <Gold.Chemscore.DEInternal.Weighted>
2.2602

> <Gold.Chemscore.Rot.Weighted>
4.6212

> <Gold.Chemscore.Internal.Correction.Weighted>
   9.000000E+99

> <Gold.Protein.RotatedTorsions>
[ 6907 6896 6895 6894 ] final -177.00 input  -60.11 | X-H torsion
[ 7974 7965 7964 7962 ] final  113.55 input  175.53 | X-H torsion
[ 8008 7997 7996 7995 ] final   96.82 input   59.86 | X-H torsion
[ 10167 10162 10161 10158 ] final  -97.33 input  -65.29 | X-H torsion
[ 10718 10713 10712 10709 ] final  -78.70 input   66.30 | X-H torsion
[ 10763 10752 10751 10750 ] final   52.22 input  -60.55 | X-H torsion
[ 11005 11000 10999 10996 ] final  -32.40 input  -57.11 | X-H torsion

> <Gold.Protein.ActiveResidues>
 VAL166  LYS551  ARG553  GLY616  TRP617  ASP618  TYR619  PRO620  LYS621  CYS622 
 ASP623  PHE694  ASN695  SER759  ASP760  ASP761  ALA762  ILE779  LEU786  VAL792 
 PHE793  MET794  SER795  GLU796  ALA797  LYS798  CYS799  TRP800  GLU811  SER814 

> <Gold.Protein.RotatedAtoms>
  151.6139  133.3345  159.3073 H   0  0  0  0  0  0  0  0  0  0  0  0  # atno 6907 bound_to 6896
  150.8142  134.7317  159.6726 H   0  0  0  0  0  0  0  0  0  0  0  0  # atno 6908 bound_to 6896
  152.4238  134.5911  160.0026 H   0  0  0  0  0  0  0  0  0  0  0  0  # atno 6909 bound_to 6896
  145.2155  139.2886  143.4245 H   0  0  0  0  0  0  0  0  0  0  0  0  # atno 7974 bound_to 7965
  156.0837  140.3267  155.7726 H   0  0  0  0  0  0  0  0  0  0  0  0  # atno 8008 bound_to 7997
  155.5111  140.0577  157.2940 H   0  0  0  0  0  0  0  0  0  0  0  0  # atno 8009 bound_to 7997
  154.4597  140.1960  156.0297 H   0  0  0  0  0  0  0  0  0  0  0  0  # atno 8010 bound_to 7997
  140.2845  143.3260  152.0408 H   0  0  0  0  0  0  0  0  0  0  0  0  # atno 10167 bound_to 10162
  156.0111  130.4525  150.3537 H   0  0  0  0  0  0  0  0  0  0  0  0  # atno 10718 bound_to 10713
  152.9788  135.5819  154.4544 H   0  0  0  0  0  0  0  0  0  0  0  0  # atno 10763 bound_to 10752
  154.4128  135.2770  155.2028 H   0  0  0  0  0  0  0  0  0  0  0  0  # atno 10764 bound_to 10752
  154.3810  135.6146  153.5845 H   0  0  0  0  0  0  0  0  0  0  0  0  # atno 10765 bound_to 10752
  140.9549  133.7199  156.1278 H   0  0  0  0  0  0  0  0  0  0  0  0  # atno 11005 bound_to 11000
  146.3388  140.2445  142.8596 LP  0  0  0  0  0  0  0  0  0  0  0  0  # atno 17320 bound_to 7965
  144.9815  140.8463  143.5394 LP  0  0  0  0  0  0  0  0  0  0  0  0  # atno 17321 bound_to 7965
  139.4954  144.6568  151.6554 LP  0  0  0  0  0  0  0  0  0  0  0  0  # atno 17342 bound_to 10162
  140.5784  143.9989  150.6254 LP  0  0  0  0  0  0  0  0  0  0  0  0  # atno 17343 bound_to 10162
  157.1628  131.0349  151.2833 LP  0  0  0  0  0  0  0  0  0  0  0  0  # atno 17370 bound_to 10713
  157.4296  130.7483  149.6979 LP  0  0  0  0  0  0  0  0  0  0  0  0  # atno 17371 bound_to 10713
  140.7550  134.4002  157.5535 LP  0  0  0  0  0  0  0  0  0  0  0  0  # atno 17394 bound_to 11000
  139.8859  134.8924  156.2616 LP  0  0  0  0  0  0  0  0  0  0  0  0  # atno 17395 bound_to 11000

$$$$
