AV-unprocessed.smi:263|AV-procd|sdf|2005|dock2
  -GOLD-   2262021203D 1   1.00000     0.00000
 Structure written by MMmdl.
 57 61  0  0  0  0  0  0  0  0  1 V2000
  144.7907  138.6269  153.4942 O   0  0  0  0  0  0  0  0  0  0  0  0
  144.4957  137.2668  153.2273 C   0  0  0  0  0  0  0  0  0  0  0  0
  145.5641  136.7313  152.2413 C   0  0  0  0  0  0  0  0  0  0  0  0
  145.8671  135.3177  152.4042 N   0  0  0  0  0  0  0  0  0  0  0  0
  146.8460  134.7720  153.2037 C   0  0  0  0  0  0  0  0  0  0  0  0
  146.9237  133.4697  153.1782 N   0  0  0  0  0  0  0  0  0  0  0  0
  145.9117  133.0858  152.3059 C   0  0  0  0  0  0  0  0  0  0  0  0
  145.4412  131.8315  151.8243 C   0  0  0  0  0  0  0  0  0  0  0  0
  145.9762  130.6482  152.2180 N   0  0  0  0  0  0  0  0  0  0  0  0
  146.3790  130.6007  153.6219 C   0  0  0  0  0  0  0  0  0  0  0  0
  147.3405  129.4277  153.8799 C   0  0  0  0  0  0  0  0  0  0  0  0
  146.7664  128.0810  153.3789 C   0  0  2  0  0  0  0  0  0  0  0  0
  145.6521  127.7654  154.1946 O   0  0  0  0  0  0  0  0  0  0  0  0
  147.7626  126.9100  153.5513 C   0  0  0  0  0  0  0  0  0  0  0  0
  148.9268  126.9580  152.5482 C   0  0  0  0  0  0  0  0  0  0  0  0
  148.4099  127.0306  151.1051 C   0  0  0  0  0  0  0  0  0  0  0  0
  147.4707  128.2299  150.9131 C   0  0  0  0  0  0  0  0  0  0  0  0
  146.2866  128.1992  151.9052 C   0  0  2  0  0  0  0  0  0  0  0  0
  145.3623  129.4204  151.7083 C   0  0  0  0  0  0  0  0  0  0  0  0
  144.4096  131.8499  150.9377 N   0  0  0  0  0  0  0  0  0  0  0  0
  143.8665  133.0100  150.5572 C   0  0  0  0  0  0  0  0  0  0  0  0
  144.1957  134.2479  150.9303 N   0  0  0  0  0  0  0  0  0  0  0  0
  145.2382  134.2378  151.8095 C   0  0  0  0  0  0  0  0  0  0  0  0
  144.4877  136.5023  154.5691 C   0  0  0  0  0  0  0  0  0  0  0  0
  143.2926  136.8992  155.4539 C   0  0  0  0  0  0  0  0  0  0  0  0
  142.0742  136.7157  154.7432 O   0  0  0  0  0  0  0  0  0  0  0  0
  141.9805  137.5481  153.5937 C   0  0  0  0  0  0  0  0  0  0  0  0
  143.0926  137.1883  152.5924 C   0  0  0  0  0  0  0  0  0  0  0  0
  144.4392  139.1551  152.7938 H   0  0  0  0  0  0  0  0  0  0  0  0
  145.2304  136.8840  151.2139 H   0  0  0  0  0  0  0  0  0  0  0  0
  146.4927  137.2950  152.3430 H   0  0  0  0  0  0  0  0  0  0  0  0
  147.5108  135.3752  153.8048 H   0  0  0  0  0  0  0  0  0  0  0  0
  146.8575  131.5288  153.9322 H   0  0  0  0  0  0  0  0  0  0  0  0
  145.4848  130.4946  154.2373 H   0  0  0  0  0  0  0  0  0  0  0  0
  148.2836  129.6434  153.3785 H   0  0  0  0  0  0  0  0  0  0  0  0
  147.5739  129.3698  154.9438 H   0  0  0  0  0  0  0  0  0  0  0  0
  145.0802  128.5169  154.2255 H   0  0  0  0  0  0  0  0  0  0  0  0
  148.1527  126.8916  154.5698 H   0  0  0  0  0  0  0  0  0  0  0  0
  147.2366  125.9636  153.4139 H   0  0  0  0  0  0  0  0  0  0  0  0
  149.5679  127.8150  152.7551 H   0  0  0  0  0  0  0  0  0  0  0  0
  149.5532  126.0739  152.6706 H   0  0  0  0  0  0  0  0  0  0  0  0
  149.2497  127.1027  150.4134 H   0  0  0  0  0  0  0  0  0  0  0  0
  147.8832  126.1083  150.8568 H   0  0  0  0  0  0  0  0  0  0  0  0
  148.0388  129.1532  151.0301 H   0  0  0  0  0  0  0  0  0  0  0  0
  147.0949  128.2343  149.8896 H   0  0  0  0  0  0  0  0  0  0  0  0
  145.7049  127.3079  151.6645 H   0  0  0  0  0  0  0  0  0  0  0  0
  144.4185  129.2568  152.2307 H   0  0  0  0  0  0  0  0  0  0  0  0
  145.1221  129.5292  150.6497 H   0  0  0  0  0  0  0  0  0  0  0  0
  143.0513  132.9351  149.8528 H   0  0  0  0  0  0  0  0  0  0  0  0
  144.4342  135.4308  154.3726 H   0  0  0  0  0  0  0  0  0  0  0  0
  145.4159  136.6687  155.1171 H   0  0  0  0  0  0  0  0  0  0  0  0
  143.2720  136.2787  156.3501 H   0  0  0  0  0  0  0  0  0  0  0  0
  143.3795  137.9336  155.7897 H   0  0  0  0  0  0  0  0  0  0  0  0
  141.0038  137.3998  153.1330 H   0  0  0  0  0  0  0  0  0  0  0  0
  142.0349  138.5986  153.8836 H   0  0  0  0  0  0  0  0  0  0  0  0
  143.0309  137.8348  151.7161 H   0  0  0  0  0  0  0  0  0  0  0  0
  142.9152  136.1732  152.2345 H   0  0  0  0  0  0  0  0  0  0  0  0
  1  2  1  0  0  0  0
  1 29  1  0  0  0  0
  2 28  1  0  0  0  0
  2  3  1  0  0  0  0
  2 24  1  0  0  0  0
  3  4  1  0  0  0  0
  3 30  1  0  0  0  0
  3 31  1  0  0  0  0
  4 23  1  0  0  0  0
  4  5  1  0  0  0  0
  5  6  2  0  0  0  0
  5 32  1  0  0  0  0
  6  7  1  0  0  0  0
  7 23  2  0  0  0  0
  7  8  1  0  0  0  0
  8  9  1  0  0  0  0
  8 20  2  0  0  0  0
  9 19  1  0  0  0  0
  9 10  1  0  0  0  0
 10 11  1  0  0  0  0
 10 33  1  0  0  0  0
 10 34  1  0  0  0  0
 11 12  1  0  0  0  0
 11 35  1  0  0  0  0
 11 36  1  0  0  0  0
 12 18  1  0  0  0  0
 12 13  1  0  0  0  0
 12 14  1  0  0  0  0
 13 37  1  0  0  0  0
 14 15  1  0  0  0  0
 14 38  1  0  0  0  0
 14 39  1  0  0  0  0
 15 16  1  0  0  0  0
 15 40  1  0  0  0  0
 15 41  1  0  0  0  0
 16 17  1  0  0  0  0
 16 42  1  0  0  0  0
 16 43  1  0  0  0  0
 17 18  1  0  0  0  0
 17 44  1  0  0  0  0
 17 45  1  0  0  0  0
 18 19  1  0  0  0  0
 18 46  1  0  0  0  0
 19 47  1  0  0  0  0
 19 48  1  0  0  0  0
 20 21  1  0  0  0  0
 21 22  2  0  0  0  0
 21 49  1  0  0  0  0
 22 23  1  0  0  0  0
 24 25  1  0  0  0  0
 24 50  1  0  0  0  0
 24 51  1  0  0  0  0
 25 26  1  0  0  0  0
 25 52  1  0  0  0  0
 25 53  1  0  0  0  0
 26 27  1  0  0  0  0
 27 28  1  0  0  0  0
 27 54  1  0  0  0  0
 27 55  1  0  0  0  0
 28 56  1  0  0  0  0
 28 57  1  0  0  0  0
M  END
> <s_m_source_file>
AV-unprocessed.smi

> <i_m_source_file_index>
263

> <i_lp_mmshare_version>
43012

> <i_f3d_flags>
0

> <s_epik_input>
W0NIMl0xW0NIMl1PW0NIMl1bQ0gyXUMxKFtPSF0pW0NIMl1uKFtjSF1uMiljKGMyMyluW2NIXW5jM04oW0NIMl1bQ0gyXTQpW0NIMl1bQ0BASF0oW0NAXTQ1W09IXSlbQ0gyXVtDSDJdW0NIMl1bQ0gyXTU=

> <s_epik_cmdline>
J2VwaWtfcHl0aG9uJywgJy1waCcsICc3LjAnLCAnLXRuJywgJzgnLCAnLW1hJywgJzIwMCcsICctbWV0YWxfYmluZGluZycsICctaW1hZScsICc8aW5maWxlLm1hZT4nLCAnLW9tYWUnLCAnPG91dGZpbGUubWFlPic=

> <r_lp_tautomer_probability>
1

> <r_epik_Ionization_Penalty>
0.00747493

> <r_epik_Ionization_Penalty_Charging>
0

> <r_epik_Ionization_Penalty_Neutral>
0.00747493

> <r_epik_State_Penalty>
0.00549307

> <r_epik_Charging_Adjusted_Penalty>
0.00549307

> <i_epik_Tot_Q>
0

> <i_epik_Tot_abs_Q>
0

> <r_epik_Metal_State_Penalty>
-0

> <b_epik_Metal_Only>
0

> <s_lp_Force_Field>
OPLS_2005

> <r_lp_Energy>
40.0447

> <b_lp_Chiralities_Consistent>
1

> <s_lp_Variant>
AV-unprocessed.smi:263-3

> <Gold.Version>
5.8.1

> <Gold.Id.Protein>
6NUR|6NUR_protein|mol2

> <Gold.PLP.Fitness>
45.5169

> <Gold.PLP.PLP>
-38.6897

> <Gold.PLP.part.hbond>
-1.6201

> <Gold.PLP.part.metal>
0.0000

> <Gold.PLP.part.buried>
-4.4232

> <Gold.PLP.part.nonpolar>
-32.4624

> <Gold.PLP.part.repulsive>
0.6239

> <Gold.PLP.ligand.clash>
0.0000

> <Gold.PLP.ligand.torsion>
1.3198

> <Gold.PLP.Chemscore.Hbond>
1.6920

> <Gold.PLP.Chemscore.CHOScore>
1.3381

> <Gold.PLP.Chemscore.Metal>
0.0000

> <Gold.Chemscore.Hbonds>
donor molecule, donor type, donor heavy atom, donor atom, acceptor molecule, acceptor atom, score
      L1  H     1    29       P1 10175  0.90
      L1  H    13    37       P1 10956  0.71
      L1  C     5    32       P1  7948  0.30
      L1  C    21    49       P1 10186  0.97

> <Gold.PLP.Chemscore.Internal.Correction>
0.3765

> <Gold.Rescore>
     Score         DG    S(hbond)    S(metal)    S(lipo)     H(rot)  DE(clash)    DE(int)     intcor
     12.83     -14.96       1.95        0.00      82.79       2.62       0.13       1.99       ----

> <Gold.Chemscore.Fitness>
12.8340

> <Gold.Chemscore.DG>
-14.9617

> <Gold.Chemscore.ZeroCoef>
-5.4800

> <Gold.Chemscore.Hbond>
1.9494

> <Gold.Chemscore.Metal>
0.0000

> <Gold.Chemscore.Lipo>
82.7894

> <Gold.Chemscore.Internal_Hbond>
0.0000

> <Gold.Chemscore.DEClash>
0.1328

> <Gold.Chemscore.DEInternal>
1.9949

> <Gold.Chemscore.Rot>
2.6232

> <Gold.Chemscore.Internal.Correction>
   9.000000E+99

> <Gold.Chemscore.Hbonds>
donor molecule, donor type, donor heavy atom, donor atom, acceptor molecule, acceptor atom, score
      L1  H     1    29       P1 10175  0.83
      L1  H    13    37       P1 10956  0.69

> <Gold.Chemscore.Hbond.Weighted>
-6.5109

> <Gold.Chemscore.Metal.Weighted>
-0.0000

> <Gold.Chemscore.Lipo.Weighted>
-9.6864

> <Gold.Chemscore.Internal_Hbond.Weighted>
0.0000

> <Gold.Chemscore.DEClash.Weighted>
0.1328

> <Gold.Chemscore.DEInternal.Weighted>
1.9949

> <Gold.Chemscore.Rot.Weighted>
6.7155

> <Gold.Chemscore.Internal.Correction.Weighted>
   9.000000E+99

> <Gold.Protein.RotatedTorsions>
[ 6907 6896 6895 6894 ] final  178.42 input  -60.11 | X-H torsion
[ 7974 7965 7964 7962 ] final -153.14 input  175.53 | X-H torsion
[ 8008 7997 7996 7995 ] final   50.64 input   59.86 | X-H torsion
[ 10167 10162 10161 10158 ] final  -21.54 input  -65.29 | X-H torsion
[ 10718 10713 10712 10709 ] final  -21.26 input   66.30 | X-H torsion
[ 10763 10752 10751 10750 ] final   77.54 input  -60.55 | X-H torsion
[ 11005 11000 10999 10996 ] final -179.81 input  -57.11 | X-H torsion

> <Gold.Protein.ActiveResidues>
 VAL166  LYS551  ARG553  GLY616  TRP617  ASP618  TYR619  PRO620  LYS621  CYS622 
 ASP623  PHE694  ASN695  SER759  ASP760  ASP761  ALA762  ILE779  LEU786  VAL792 
 PHE793  MET794  SER795  GLU796  ALA797  LYS798  CYS799  TRP800  GLU811  SER814 

> <Gold.Protein.RotatedAtoms>
  151.6880  133.3311  159.3235 H   0  0  0  0  0  0  0  0  0  0  0  0  # atno 6907 bound_to 6896
  150.7792  134.6723  159.6407 H   0  0  0  0  0  0  0  0  0  0  0  0  # atno 6908 bound_to 6896
  152.3844  134.6544  160.0183 H   0  0  0  0  0  0  0  0  0  0  0  0  # atno 6909 bound_to 6896
  144.7756  140.4566  143.5876 H   0  0  0  0  0  0  0  0  0  0  0  0  # atno 7974 bound_to 7965
  155.4221  140.3447  155.4272 H   0  0  0  0  0  0  0  0  0  0  0  0  # atno 8008 bound_to 7997
  156.1387  140.1535  156.8986 H   0  0  0  0  0  0  0  0  0  0  0  0  # atno 8009 bound_to 7997
  154.4953  140.0829  156.7663 H   0  0  0  0  0  0  0  0  0  0  0  0  # atno 8010 bound_to 7997
  140.7282  143.4618  151.0369 H   0  0  0  0  0  0  0  0  0  0  0  0  # atno 10167 bound_to 10162
  156.5206  130.4631  149.6599 H   0  0  0  0  0  0  0  0  0  0  0  0  # atno 10718 bound_to 10713
  153.0806  135.4910  154.8496 H   0  0  0  0  0  0  0  0  0  0  0  0  # atno 10763 bound_to 10752
  154.7146  135.3027  154.9146 H   0  0  0  0  0  0  0  0  0  0  0  0  # atno 10764 bound_to 10752
  153.9829  135.6787  153.4804 H   0  0  0  0  0  0  0  0  0  0  0  0  # atno 10765 bound_to 10752
  140.4145  134.6662  157.4631 H   0  0  0  0  0  0  0  0  0  0  0  0  # atno 11005 bound_to 11000
  145.6195  139.1522  143.3030 LP  0  0  0  0  0  0  0  0  0  0  0  0  # atno 17320 bound_to 7965
  146.1933  140.6306  142.9135 LP  0  0  0  0  0  0  0  0  0  0  0  0  # atno 17321 bound_to 7965
  139.8303  143.7699  152.3179 LP  0  0  0  0  0  0  0  0  0  0  0  0  # atno 17342 bound_to 10162
  139.7813  144.7443  151.0084 LP  0  0  0  0  0  0  0  0  0  0  0  0  # atno 17343 bound_to 10162
  156.3153  130.7251  151.2152 LP  0  0  0  0  0  0  0  0  0  0  0  0  # atno 17370 bound_to 10713
  157.7437  131.0470  150.4922 LP  0  0  0  0  0  0  0  0  0  0  0  0  # atno 17371 bound_to 10713
  140.0244  134.6499  155.9194 LP  0  0  0  0  0  0  0  0  0  0  0  0  # atno 17394 bound_to 11000
  141.1808  133.6546  156.5013 LP  0  0  0  0  0  0  0  0  0  0  0  0  # atno 17395 bound_to 11000

$$$$
