AV-unprocessed.smi:153|AV-procd|sdf|1251|dock8
  -GOLD-   2262018483D 1   1.00000     0.00000
 Structure written by MMmdl.
 60 63  0  0  0  0  0  0  0  0  2 V2000
  150.8702  142.9477  156.7908 C   0  0  0  0  0  0  0  0  0  0  0  0
  150.3893  141.5451  156.3853 C   0  0  1  0  0  0  0  0  0  0  0  0
  151.3879  140.9120  155.5938 O   0  0  0  0  0  0  0  0  0  0  0  0
  151.2095  139.5121  155.7061 C   0  0  0  0  0  0  0  0  0  0  0  0
  150.9408  139.3398  157.1932 C   0  0  0  0  0  0  0  0  0  0  0  0
  150.0685  140.5515  157.5363 C   0  0  1  0  0  0  0  0  0  0  0  0
  150.4765  141.0461  158.8006 O   0  0  0  0  0  0  0  0  0  0  0  0
  148.5498  140.2374  157.5921 C   0  0  0  0  0  0  0  0  0  0  0  0
  148.0227  139.5850  156.4016 N   0  0  0  0  0  0  0  0  0  0  0  0
  147.5712  138.2893  156.3043 C   0  0  0  0  0  0  0  0  0  0  0  0
  147.1467  137.9371  155.1226 N   0  0  0  0  0  0  0  0  0  0  0  0
  147.3427  139.0640  154.3303 C   0  0  0  0  0  0  0  0  0  0  0  0
  147.1008  139.3832  152.9586 C   0  0  0  0  0  0  0  0  0  0  0  0
  146.5672  138.5306  152.0404 N   0  0  0  0  0  0  0  0  0  0  0  0
  146.7762  138.7738  150.6187 C   0  0  0  0  0  0  0  0  0  0  0  0
  146.0904  137.2100  152.4584 C   0  0  0  0  0  0  0  0  0  0  0  0
  145.7378  136.2968  151.2667 C   0  0  2  0  0  0  0  0  0  0  0  0
  144.4308  136.6409  150.8526 O   0  0  0  0  0  0  0  0  0  0  0  0
  145.7568  134.7945  151.6286 C   0  0  0  0  0  0  0  0  0  0  0  0
  145.7219  133.9085  150.4378 N   0  3  0  0  0  0  0  0  0  0  0  0
  146.2852  132.5575  150.6874 C   0  0  0  0  0  0  0  0  0  0  0  0
  146.2366  131.7077  149.4062 C   0  0  0  0  0  0  0  0  0  0  0  0
  144.8974  131.6305  148.9345 O   0  0  0  0  0  0  0  0  0  0  0  0
  144.3763  132.9116  148.6039 C   0  0  0  0  0  0  0  0  0  0  0  0
  144.3615  133.8010  149.8586 C   0  0  0  0  0  0  0  0  0  0  0  0
  147.4137  140.6431  152.5556 N   0  0  0  0  0  0  0  0  0  0  0  0
  147.9361  141.5254  153.4108 C   0  0  0  0  0  0  0  0  0  0  0  0
  148.2158  141.3649  154.7038 N   0  0  0  0  0  0  0  0  0  0  0  0
  147.8945  140.1098  155.1269 C   0  0  0  0  0  0  0  0  0  0  0  0
  150.1266  143.4562  157.4053 H   0  0  0  0  0  0  0  0  0  0  0  0
  151.0480  143.5645  155.9098 H   0  0  0  0  0  0  0  0  0  0  0  0
  151.8029  142.9033  157.3537 H   0  0  0  0  0  0  0  0  0  0  0  0
  149.5120  141.6565  155.7456 H   0  0  0  0  0  0  0  0  0  0  0  0
  150.3521  139.1956  155.1101 H   0  0  0  0  0  0  0  0  0  0  0  0
  152.0902  138.9651  155.3687 H   0  0  0  0  0  0  0  0  0  0  0  0
  150.4943  138.3751  157.4284 H   0  0  0  0  0  0  0  0  0  0  0  0
  151.8943  139.3904  157.7220 H   0  0  0  0  0  0  0  0  0  0  0  0
  151.2738  141.5399  158.6861 H   0  0  0  0  0  0  0  0  0  0  0  0
  148.3329  139.6002  158.4507 H   0  0  0  0  0  0  0  0  0  0  0  0
  147.9833  141.1568  157.7481 H   0  0  0  0  0  0  0  0  0  0  0  0
  147.5588  137.6108  157.1450 H   0  0  0  0  0  0  0  0  0  0  0  0
  146.6319  139.8273  150.3767 H   0  0  0  0  0  0  0  0  0  0  0  0
  146.0652  138.2006  150.0230 H   0  0  0  0  0  0  0  0  0  0  0  0
  147.7814  138.4764  150.3195 H   0  0  0  0  0  0  0  0  0  0  0  0
  146.7938  136.7088  153.1237 H   0  0  0  0  0  0  0  0  0  0  0  0
  145.1956  137.3696  153.0614 H   0  0  0  0  0  0  0  0  0  0  0  0
  146.4163  136.5146  150.4430 H   0  0  0  0  0  0  0  0  0  0  0  0
  144.4865  137.2189  150.1076 H   0  0  0  0  0  0  0  0  0  0  0  0
  146.6432  134.5408  152.2092 H   0  0  0  0  0  0  0  0  0  0  0  0
  144.9037  134.5825  152.2753 H   0  0  0  0  0  0  0  0  0  0  0  0
  147.3166  132.6284  151.0311 H   0  0  0  0  0  0  0  0  0  0  0  0
  145.7194  132.0641  151.4797 H   0  0  0  0  0  0  0  0  0  0  0  0
  146.8839  132.1275  148.6343 H   0  0  0  0  0  0  0  0  0  0  0  0
  146.5974  130.6996  149.6105 H   0  0  0  0  0  0  0  0  0  0  0  0
  144.9708  133.3665  147.8097 H   0  0  0  0  0  0  0  0  0  0  0  0
  143.3646  132.7929  148.2160 H   0  0  0  0  0  0  0  0  0  0  0  0
  143.6784  133.3872  150.6022 H   0  0  0  0  0  0  0  0  0  0  0  0
  143.9903  134.7929  149.5984 H   0  0  0  0  0  0  0  0  0  0  0  0
  148.1606  142.4992  153.0008 H   0  0  0  0  0  0  0  0  0  0  0  0
  146.2953  134.3473  149.7316 H   0  0  0  0  0  0  0  0  0  0  0  0
  1  2  1  0  0  0  0
  1 30  1  0  0  0  0
  1 31  1  0  0  0  0
  1 32  1  0  0  0  0
  2  6  1  0  0  0  0
  2  3  1  0  0  0  0
  2 33  1  0  0  0  0
  3  4  1  0  0  0  0
  4  5  1  0  0  0  0
  4 34  1  0  0  0  0
  4 35  1  0  0  0  0
  5  6  1  0  0  0  0
  5 36  1  0  0  0  0
  5 37  1  0  0  0  0
  6  7  1  0  0  0  0
  6  8  1  0  0  0  0
  7 38  1  0  0  0  0
  8  9  1  0  0  0  0
  8 39  1  0  0  0  0
  8 40  1  0  0  0  0
  9 29  1  0  0  0  0
  9 10  1  0  0  0  0
 10 11  2  0  0  0  0
 10 41  1  0  0  0  0
 11 12  1  0  0  0  0
 12 29  2  0  0  0  0
 12 13  1  0  0  0  0
 13 14  1  0  0  0  0
 13 26  2  0  0  0  0
 14 15  1  0  0  0  0
 14 16  1  0  0  0  0
 15 42  1  0  0  0  0
 15 43  1  0  0  0  0
 15 44  1  0  0  0  0
 16 17  1  0  0  0  0
 16 45  1  0  0  0  0
 16 46  1  0  0  0  0
 17 18  1  0  0  0  0
 17 19  1  0  0  0  0
 17 47  1  0  0  0  0
 18 48  1  0  0  0  0
 19 20  1  0  0  0  0
 19 49  1  0  0  0  0
 19 50  1  0  0  0  0
 20 25  1  0  0  0  0
 20 21  1  0  0  0  0
 20 60  1  0  0  0  0
 21 22  1  0  0  0  0
 21 51  1  0  0  0  0
 21 52  1  0  0  0  0
 22 23  1  0  0  0  0
 22 53  1  0  0  0  0
 22 54  1  0  0  0  0
 23 24  1  0  0  0  0
 24 25  1  0  0  0  0
 24 55  1  0  0  0  0
 24 56  1  0  0  0  0
 25 57  1  0  0  0  0
 25 58  1  0  0  0  0
 26 27  1  0  0  0  0
 27 28  2  0  0  0  0
 27 59  1  0  0  0  0
 28 29  1  0  0  0  0
M  CHG  1  20   1
M  END
> <s_m_source_file>
AV-unprocessed.smi

> <i_m_source_file_index>
153

> <i_lp_mmshare_version>
43012

> <i_f3d_flags>
0

> <s_epik_input>
W0NIMl0xW0NIMl1PW0NAQEhdKFtDSDNdKVtDQEBdMShbT0hdKVtDSDJdbihbY0hdbjIpYyhjMjMpbltjSF1uYzNOKFtDSDNdKVtDSDJdW0NASF0oW09IXSlbQ0gyXU40W0NIMl1bQ0gyXU9bQ0gyXVtDSDJdNA==

> <s_epik_cmdline>
J2VwaWtfcHl0aG9uJywgJy1waCcsICc3LjAnLCAnLXRuJywgJzgnLCAnLW1hJywgJzIwMCcsICctbWV0YWxfYmluZGluZycsICctaW1hZScsICc8aW5maWxlLm1hZT4nLCAnLW9tYWUnLCAnPG91dGZpbGUubWFlPic=

> <r_lp_tautomer_probability>
1

> <r_epik_Ionization_Penalty>
0.403509

> <r_epik_Ionization_Penalty_Charging>
0.40072

> <r_epik_Ionization_Penalty_Neutral>
0.00278876

> <r_epik_State_Penalty>
0.400058

> <r_epik_Charging_Adjusted_Penalty>
0.800778

> <i_epik_Tot_Q>
1

> <i_epik_Tot_abs_Q>
1

> <r_epik_Metal_State_Penalty>
0.400321

> <b_epik_Metal_Only>
0

> <s_lp_Force_Field>
OPLS_2005

> <r_lp_Energy>
45.7554

> <b_lp_Chiralities_Consistent>
1

> <s_lp_Variant>
AV-unprocessed.smi:153-2

> <Gold.Version>
5.8.1

> <Gold.Id.Protein>
6NUR|6NUR_protein|mol2

> <Gold.PLP.Fitness>
47.3343

> <Gold.PLP.PLP>
-39.6450

> <Gold.PLP.part.hbond>
-3.7189

> <Gold.PLP.part.metal>
0.0000

> <Gold.PLP.part.buried>
1.8973

> <Gold.PLP.part.nonpolar>
-39.3717

> <Gold.PLP.part.repulsive>
2.0410

> <Gold.PLP.ligand.clash>
0.0000

> <Gold.PLP.ligand.torsion>
0.7766

> <Gold.PLP.Chemscore.Hbond>
2.9560

> <Gold.PLP.Chemscore.CHOScore>
0.0000

> <Gold.PLP.Chemscore.Metal>
0.0000

> <Gold.Chemscore.Hbonds>
donor molecule, donor type, donor heavy atom, donor atom, acceptor molecule, acceptor atom, score
      L1  H    18    48       P1 10171  0.64
      L1  H    20    60       P1  7921  0.46
      P1  H  7989  7998       L1     3  0.42
      P1  H 10785 10796       L1    23  0.09

> <Gold.PLP.Chemscore.Internal.Correction>
0.3745

> <Gold.Rescore>
     Score         DG    S(hbond)    S(metal)    S(lipo)     H(rot)  DE(clash)    DE(int)     intcor
      7.99     -11.69       1.51        0.00      89.24       3.62       0.12       3.59       ----

> <Gold.Chemscore.Fitness>
7.9854

> <Gold.Chemscore.DG>
-11.6893

> <Gold.Chemscore.ZeroCoef>
-5.4800

> <Gold.Chemscore.Hbond>
1.5062

> <Gold.Chemscore.Metal>
0.0000

> <Gold.Chemscore.Lipo>
89.2408

> <Gold.Chemscore.Internal_Hbond>
0.0000

> <Gold.Chemscore.DEClash>
0.1181

> <Gold.Chemscore.DEInternal>
3.5858

> <Gold.Chemscore.Rot>
3.6182

> <Gold.Chemscore.Internal.Correction>
   9.000000E+99

> <Gold.Chemscore.Hbonds>
donor molecule, donor type, donor heavy atom, donor atom, acceptor molecule, acceptor atom, score
      L1  H    18    48       P1 10171  0.62
      L1  H    20    60       P1  7921  0.08
      P1  H  7989  7998       L1     3  0.05
      P1  H 10785 10796       L1    23  0.06

> <Gold.Chemscore.Hbond.Weighted>
-5.0306

> <Gold.Chemscore.Metal.Weighted>
-0.0000

> <Gold.Chemscore.Lipo.Weighted>
-10.4412

> <Gold.Chemscore.Internal_Hbond.Weighted>
0.0000

> <Gold.Chemscore.DEClash.Weighted>
0.1181

> <Gold.Chemscore.DEInternal.Weighted>
3.5858

> <Gold.Chemscore.Rot.Weighted>
9.2625

> <Gold.Chemscore.Internal.Correction.Weighted>
   9.000000E+99

> <Gold.Protein.RotatedTorsions>
[ 6907 6896 6895 6894 ] final  136.32 input  -60.11 | X-H torsion
[ 7974 7965 7964 7962 ] final -152.83 input  175.53 | X-H torsion
[ 8008 7997 7996 7995 ] final -168.69 input   59.86 | X-H torsion
[ 10167 10162 10161 10158 ] final   -7.25 input  -65.29 | X-H torsion
[ 10718 10713 10712 10709 ] final  -45.38 input   66.30 | X-H torsion
[ 10763 10752 10751 10750 ] final   99.12 input  -60.55 | X-H torsion
[ 11005 11000 10999 10996 ] final  -69.53 input  -57.11 | X-H torsion

> <Gold.Protein.ActiveResidues>
 VAL166  LYS551  ARG553  GLY616  TRP617  ASP618  TYR619  PRO620  LYS621  CYS622 
 ASP623  PHE694  ASN695  SER759  ASP760  ASP761  ALA762  ILE779  LEU786  VAL792 
 PHE793  MET794  SER795  GLU796  ALA797  LYS798  CYS799  TRP800  GLU811  SER814 

> <Gold.Protein.RotatedAtoms>
  152.2907  133.5558  159.5555 H   0  0  0  0  0  0  0  0  0  0  0  0  # atno 6907 bound_to 6896
  150.7234  134.0433  159.3782 H   0  0  0  0  0  0  0  0  0  0  0  0  # atno 6908 bound_to 6896
  151.8339  135.0613  160.0491 H   0  0  0  0  0  0  0  0  0  0  0  0  # atno 6909 bound_to 6896
  144.7773  140.4609  143.5864 H   0  0  0  0  0  0  0  0  0  0  0  0  # atno 7974 bound_to 7965
  155.8948  140.1031  157.1393 H   0  0  0  0  0  0  0  0  0  0  0  0  # atno 8008 bound_to 7997
  154.4019  140.1304  156.4425 H   0  0  0  0  0  0  0  0  0  0  0  0  # atno 8009 bound_to 7997
  155.7492  140.3465  155.5144 H   0  0  0  0  0  0  0  0  0  0  0  0  # atno 8010 bound_to 7997
  140.7023  143.6102  150.8712 H   0  0  0  0  0  0  0  0  0  0  0  0  # atno 10167 bound_to 10162
  156.2289  130.4171  149.8900 H   0  0  0  0  0  0  0  0  0  0  0  0  # atno 10718 bound_to 10713
  153.2974  135.4124  155.1222 H   0  0  0  0  0  0  0  0  0  0  0  0  # atno 10763 bound_to 10752
  154.8539  135.3533  154.5898 H   0  0  0  0  0  0  0  0  0  0  0  0  # atno 10764 bound_to 10752
  153.6322  135.7060  153.5329 H   0  0  0  0  0  0  0  0  0  0  0  0  # atno 10765 bound_to 10752
  141.1556  133.6767  156.6613 H   0  0  0  0  0  0  0  0  0  0  0  0  # atno 11005 bound_to 11000
  145.6150  139.1517  143.3055 LP  0  0  0  0  0  0  0  0  0  0  0  0  # atno 17320 bound_to 7965
  146.1960  140.6263  142.9124 LP  0  0  0  0  0  0  0  0  0  0  0  0  # atno 17321 bound_to 7965
  139.9825  143.5936  152.2938 LP  0  0  0  0  0  0  0  0  0  0  0  0  # atno 17342 bound_to 10162
  139.6562  144.7662  151.2052 LP  0  0  0  0  0  0  0  0  0  0  0  0  # atno 17343 bound_to 10162
  156.6521  130.8747  151.3533 LP  0  0  0  0  0  0  0  0  0  0  0  0  # atno 17370 bound_to 10713
  157.7123  130.9455  150.1134 LP  0  0  0  0  0  0  0  0  0  0  0  0  # atno 17371 bound_to 10713
  140.3245  134.7980  157.4278 LP  0  0  0  0  0  0  0  0  0  0  0  0  # atno 17394 bound_to 11000
  140.1068  134.5398  155.8302 LP  0  0  0  0  0  0  0  0  0  0  0  0  # atno 17395 bound_to 11000

$$$$
