AV-unprocessed.smi:3328|AV-procd|sdf|12793|dock4
  -GOLD-   2272019143D 1   1.00000     0.00000
 Structure written by MMmdl.
 40 41  0  0  0  0  0  0  0  0  1 V2000
  146.3139  143.4204  153.3195 C   0  0  0  0  0  0  0  0  0  0  0  0
  146.9803  142.2780  154.0302 C   0  0  0  0  0  0  0  0  0  0  0  0
  146.8196  140.8837  153.7894 C   0  0  0  0  0  0  0  0  0  0  0  0
  147.5571  140.1342  154.5922 N   0  0  0  0  0  0  0  0  0  0  0  0
  148.2085  141.0198  155.3760 N   0  0  0  0  0  0  0  0  0  0  0  0
  149.1262  140.5475  156.3987 C   0  0  0  0  0  0  0  0  0  0  0  0
  150.5891  140.5221  155.9118 C   0  0  2  0  0  0  0  0  0  0  0  0
  150.7841  139.4644  154.8111 C   0  0  0  0  0  0  0  0  0  0  0  0
  151.4609  140.2306  157.0452 N   0  0  0  0  0  0  0  0  0  0  0  0
  151.4195  141.2720  158.0599 C   0  0  0  0  0  0  0  0  0  0  0  0
  152.8400  141.5268  158.5851 C   0  0  0  0  0  0  0  0  0  0  0  0
  152.8421  142.5285  159.6469 N   0  0  0  0  0  0  0  0  0  0  0  0
  153.4094  142.2272  160.9501 C   0  0  0  0  0  0  0  0  0  0  0  0
  153.0449  143.4310  161.8311 C   0  0  0  0  0  0  0  0  0  0  0  0
  152.5804  144.5279  160.8666 C   0  0  0  0  0  0  0  0  0  0  0  0
  152.3933  143.7859  159.5542 C   0  0  0  0  0  0  0  0  0  0  0  0
  151.8922  144.3066  158.5589 O   0  0  0  0  0  0  0  0  0  0  0  0
  147.8821  142.3203  155.0556 C   0  0  0  0  0  0  0  0  0  0  0  0
  145.4980  143.0805  152.6812 H   0  0  0  0  0  0  0  0  0  0  0  0
  147.0152  143.9613  152.6840 H   0  0  0  0  0  0  0  0  0  0  0  0
  145.8931  144.1406  154.0215 H   0  0  0  0  0  0  0  0  0  0  0  0
  146.1926  140.3972  153.0569 H   0  0  0  0  0  0  0  0  0  0  0  0
  149.0234  141.1650  157.2930 H   0  0  0  0  0  0  0  0  0  0  0  0
  148.8112  139.5420  156.6805 H   0  0  0  0  0  0  0  0  0  0  0  0
  150.8333  141.5066  155.5102 H   0  0  0  0  0  0  0  0  0  0  0  0
  150.1062  139.6450  153.9765 H   0  0  0  0  0  0  0  0  0  0  0  0
  150.5852  138.4594  155.1849 H   0  0  0  0  0  0  0  0  0  0  0  0
  151.7957  139.4762  154.4063 H   0  0  0  0  0  0  0  0  0  0  0  0
  152.4079  140.0786  156.7283 H   0  0  0  0  0  0  0  0  0  0  0  0
  151.0054  142.1894  157.6428 H   0  0  0  0  0  0  0  0  0  0  0  0
  150.7695  140.9598  158.8784 H   0  0  0  0  0  0  0  0  0  0  0  0
  153.2710  140.5988  158.9643 H   0  0  0  0  0  0  0  0  0  0  0  0
  153.4901  141.8610  157.7747 H   0  0  0  0  0  0  0  0  0  0  0  0
  153.0098  141.2952  161.3519 H   0  0  0  0  0  0  0  0  0  0  0  0
  154.4912  142.1240  160.8565 H   0  0  0  0  0  0  0  0  0  0  0  0
  152.2322  143.1664  162.5089 H   0  0  0  0  0  0  0  0  0  0  0  0
  153.8888  143.7546  162.4415 H   0  0  0  0  0  0  0  0  0  0  0  0
  151.6535  144.9998  161.1940 H   0  0  0  0  0  0  0  0  0  0  0  0
  153.3420  145.2983  160.7423 H   0  0  0  0  0  0  0  0  0  0  0  0
  148.3133  143.1600  155.5806 H   0  0  0  0  0  0  0  0  0  0  0  0
  1  2  1  0  0  0  0
  1 19  1  0  0  0  0
  1 20  1  0  0  0  0
  1 21  1  0  0  0  0
  2 18  2  0  0  0  0
  2  3  1  0  0  0  0
  3  4  2  0  0  0  0
  3 22  1  0  0  0  0
  4  5  1  0  0  0  0
  5  6  1  0  0  0  0
  5 18  1  0  0  0  0
  6  7  1  0  0  0  0
  6 23  1  0  0  0  0
  6 24  1  0  0  0  0
  7  8  1  0  0  0  0
  7  9  1  0  0  0  0
  7 25  1  0  0  0  0
  8 26  1  0  0  0  0
  8 27  1  0  0  0  0
  8 28  1  0  0  0  0
  9 10  1  0  0  0  0
  9 29  1  0  0  0  0
 10 11  1  0  0  0  0
 10 30  1  0  0  0  0
 10 31  1  0  0  0  0
 11 12  1  0  0  0  0
 11 32  1  0  0  0  0
 11 33  1  0  0  0  0
 12 16  1  0  0  0  0
 12 13  1  0  0  0  0
 13 14  1  0  0  0  0
 13 34  1  0  0  0  0
 13 35  1  0  0  0  0
 14 15  1  0  0  0  0
 14 36  1  0  0  0  0
 14 37  1  0  0  0  0
 15 16  1  0  0  0  0
 15 38  1  0  0  0  0
 15 39  1  0  0  0  0
 16 17  2  0  0  0  0
 18 40  1  0  0  0  0
M  END
> <s_m_source_file>
AV-unprocessed.smi

> <i_m_source_file_index>
3328

> <i_lp_mmshare_version>
43012

> <i_f3d_flags>
0

> <s_epik_input>
W0NIM11jMVtjSF1ubihbY0hdMSlbQ0gyXVtDQEhdKFtDSDNdKVtOSF1bQ0gyXVtDSDJdTjJbQ0gyXVtDSDJdW0NIMl1DMj1P

> <s_epik_cmdline>
J2VwaWtfcHl0aG9uJywgJy1waCcsICc3LjAnLCAnLXRuJywgJzgnLCAnLW1hJywgJzIwMCcsICctbWV0YWxfYmluZGluZycsICctaW1hZScsICc8aW5maWxlLm1hZT4nLCAnLW9tYWUnLCAnPG91dGZpbGUubWFlPic=

> <r_lp_tautomer_probability>
1

> <r_epik_Ionization_Penalty>
2.53591

> <r_epik_Ionization_Penalty_Charging>
0

> <r_epik_Ionization_Penalty_Neutral>
2.53591

> <r_epik_State_Penalty>
2.70334

> <r_epik_Charging_Adjusted_Penalty>
2.70334

> <i_epik_Tot_Q>
0

> <i_epik_Tot_abs_Q>
0

> <r_epik_Metal_State_Penalty>
2.70327

> <b_epik_Metal_Only>
0

> <s_lp_Force_Field>
OPLS_2005

> <r_lp_Energy>
20.4488

> <b_lp_Chiralities_Consistent>
1

> <s_lp_Variant>
AV-unprocessed.smi:3328-3

> <Gold.Version>
5.8.1

> <Gold.Id.Protein>
6NUR|6NUR_protein|mol2

> <Gold.PLP.Fitness>
44.1936

> <Gold.PLP.PLP>
-39.5979

> <Gold.PLP.part.hbond>
0.0000

> <Gold.PLP.part.metal>
0.0000

> <Gold.PLP.part.buried>
-2.3751

> <Gold.PLP.part.nonpolar>
-37.0371

> <Gold.PLP.part.repulsive>
0.1480

> <Gold.PLP.ligand.clash>
0.0000

> <Gold.PLP.ligand.torsion>
0.6879

> <Gold.PLP.Chemscore.Hbond>
0.0000

> <Gold.PLP.Chemscore.CHOScore>
1.9490

> <Gold.PLP.Chemscore.Metal>
0.0000

> <Gold.Chemscore.Hbonds>
donor molecule, donor type, donor heavy atom, donor atom, acceptor molecule, acceptor atom, score
      L1  C     3    22       P1 10175  0.89
      L1  C    18    40       P1  8028  0.04

> <Gold.PLP.Chemscore.Internal.Correction>
0.1243

> <Gold.Rescore>
     Score         DG    S(hbond)    S(metal)    S(lipo)     H(rot)  DE(clash)    DE(int)     intcor
     10.69     -11.37       0.00        0.00      91.71       1.89       0.04       0.63       ----

> <Gold.Chemscore.Fitness>
10.6930

> <Gold.Chemscore.DG>
-11.3666

> <Gold.Chemscore.ZeroCoef>
-5.4800

> <Gold.Chemscore.Hbond>
0.0000

> <Gold.Chemscore.Metal>
0.0000

> <Gold.Chemscore.Lipo>
91.7099

> <Gold.Chemscore.Internal_Hbond>
0.0000

> <Gold.Chemscore.DEClash>
0.0447

> <Gold.Chemscore.DEInternal>
0.6289

> <Gold.Chemscore.Rot>
1.8920

> <Gold.Chemscore.Internal.Correction>
   9.000000E+99

> <Gold.Chemscore.Hbond.Weighted>
-0.0000

> <Gold.Chemscore.Metal.Weighted>
-0.0000

> <Gold.Chemscore.Lipo.Weighted>
-10.7301

> <Gold.Chemscore.Internal_Hbond.Weighted>
0.0000

> <Gold.Chemscore.DEClash.Weighted>
0.0447

> <Gold.Chemscore.DEInternal.Weighted>
0.6289

> <Gold.Chemscore.Rot.Weighted>
4.8435

> <Gold.Chemscore.Internal.Correction.Weighted>
   9.000000E+99

> <Gold.Protein.RotatedTorsions>
[ 6907 6896 6895 6894 ] final   96.59 input  -60.11 | X-H torsion
[ 7974 7965 7964 7962 ] final -116.37 input  175.53 | X-H torsion
[ 8008 7997 7996 7995 ] final  -13.84 input   59.86 | X-H torsion
[ 10167 10162 10161 10158 ] final  -74.54 input  -65.29 | X-H torsion
[ 10718 10713 10712 10709 ] final  124.11 input   66.30 | X-H torsion
[ 10763 10752 10751 10750 ] final -125.52 input  -60.55 | X-H torsion
[ 11005 11000 10999 10996 ] final -154.67 input  -57.11 | X-H torsion

> <Gold.Protein.ActiveResidues>
 VAL166  LYS551  ARG553  GLY616  TRP617  ASP618  TYR619  PRO620  LYS621  CYS622 
 ASP623  PHE694  ASN695  SER759  ASP760  ASP761  ALA762  ILE779  LEU786  VAL792 
 PHE793  MET794  SER795  GLU796  ALA797  LYS798  CYS799  TRP800  GLU811  SER814 

> <Gold.Protein.RotatedAtoms>
  152.5433  134.0863  159.8257 H   0  0  0  0  0  0  0  0  0  0  0  0  # atno 6907 bound_to 6896
  151.0959  133.5273  159.2620 H   0  0  0  0  0  0  0  0  0  0  0  0  # atno 6908 bound_to 6896
  151.2047  135.0466  159.8941 H   0  0  0  0  0  0  0  0  0  0  0  0  # atno 6909 bound_to 6896
  145.0975  140.8530  143.3946 H   0  0  0  0  0  0  0  0  0  0  0  0  # atno 7974 bound_to 7965
  154.5259  140.2239  155.8891 H   0  0  0  0  0  0  0  0  0  0  0  0  # atno 8008 bound_to 7997
  156.1712  140.3121  155.8942 H   0  0  0  0  0  0  0  0  0  0  0  0  # atno 8009 bound_to 7997
  155.3553  140.0458  157.3037 H   0  0  0  0  0  0  0  0  0  0  0  0  # atno 8010 bound_to 7997
  140.5018  143.2360  151.7739 H   0  0  0  0  0  0  0  0  0  0  0  0  # atno 10167 bound_to 10162
  157.5612  131.1089  150.8536 H   0  0  0  0  0  0  0  0  0  0  0  0  # atno 10718 bound_to 10713
  154.8736  135.4027  154.3281 H   0  0  0  0  0  0  0  0  0  0  0  0  # atno 10763 bound_to 10752
  153.4099  135.7020  153.6372 H   0  0  0  0  0  0  0  0  0  0  0  0  # atno 10764 bound_to 10752
  153.5079  135.3713  155.2543 H   0  0  0  0  0  0  0  0  0  0  0  0  # atno 10765 bound_to 10752
  140.6948  134.4002  157.5216 H   0  0  0  0  0  0  0  0  0  0  0  0  # atno 11005 bound_to 11000
  145.0994  139.2833  143.5694 LP  0  0  0  0  0  0  0  0  0  0  0  0  # atno 17320 bound_to 7965
  146.3530  140.0556  142.8633 LP  0  0  0  0  0  0  0  0  0  0  0  0  # atno 17321 bound_to 7965
  139.4874  144.4511  151.9652 LP  0  0  0  0  0  0  0  0  0  0  0  0  # atno 17342 bound_to 10162
  140.3601  144.2984  150.5935 LP  0  0  0  0  0  0  0  0  0  0  0  0  # atno 17343 bound_to 10162
  156.9033  130.5254  149.5282 LP  0  0  0  0  0  0  0  0  0  0  0  0  # atno 17370 bound_to 10713
  156.0664  130.5706  150.9297 LP  0  0  0  0  0  0  0  0  0  0  0  0  # atno 17371 bound_to 10713
  139.8913  134.8783  156.2326 LP  0  0  0  0  0  0  0  0  0  0  0  0  # atno 17394 bound_to 11000
  141.0212  133.7040  156.1271 LP  0  0  0  0  0  0  0  0  0  0  0  0  # atno 17395 bound_to 11000

$$$$
