AV-unprocessed.smi:1409|AV-procd|sdf|5728|dock7
  -GOLD-   22720 5363D 1   1.00000     0.00000
 Structure written by MMmdl.
 37 38  0  0  0  0  0  0  0  0  1 V2000
  147.7429  131.9776  153.2198 C   0  0  0  0  0  0  0  0  0  0  0  0
  147.5079  133.0635  152.3299 O   0  0  0  0  0  0  0  0  0  0  0  0
  146.3735  133.0370  151.5408 C   0  0  0  0  0  0  0  0  0  0  0  0
  145.8821  131.8309  151.1606 N   0  0  0  0  0  0  0  0  0  0  0  0
  144.7743  131.8015  150.3924 C   0  0  0  0  0  0  0  0  0  0  0  0
  144.1005  132.9612  149.9695 C   0  0  0  0  0  0  0  0  0  0  0  0
  144.6067  134.2135  150.3636 C   0  0  0  0  0  0  0  0  0  0  0  0
  145.7754  134.2629  151.1636 C   0  0  0  0  0  0  0  0  0  0  0  0
  146.3785  135.4646  151.6338 N   0  0  0  0  0  0  0  0  0  0  0  0
  145.8066  136.5911  152.0929 C   0  0  0  0  0  0  0  0  0  0  0  0
  144.5973  136.7973  152.1839 O   0  0  0  0  0  0  0  0  0  0  0  0
  146.7369  137.4904  152.4445 N   0  0  0  0  0  0  0  0  0  0  0  0
  146.4733  138.8213  152.9840 C   0  0  0  0  0  0  0  0  0  0  0  0
  147.7745  139.5582  153.3535 C   0  0  1  0  0  0  0  0  0  0  0  0
  147.5146  140.9996  153.8328 C   0  0  0  0  0  0  0  0  0  0  0  0
  148.8158  141.5652  154.4097 C   0  0  0  0  0  0  0  0  0  0  0  0
  149.6629  140.1445  155.1957 S   0  0  0  0  0  0  0  0  0  0  0  0
  151.0272  140.0429  154.6559 O   0  0  0  0  0  0  0  0  0  0  0  0
  149.4223  140.1717  156.6463 O   0  0  0  0  0  0  0  0  0  0  0  0
  148.6058  138.8520  154.4390 C   0  0  0  0  0  0  0  0  0  0  0  0
  148.6739  132.1496  153.7596 H   0  0  0  0  0  0  0  0  0  0  0  0
  147.8419  131.0332  152.6828 H   0  0  0  0  0  0  0  0  0  0  0  0
  146.9446  131.8887  153.9580 H   0  0  0  0  0  0  0  0  0  0  0  0
  144.4124  130.8240  150.1093 H   0  0  0  0  0  0  0  0  0  0  0  0
  143.2128  132.8919  149.3584 H   0  0  0  0  0  0  0  0  0  0  0  0
  144.0790  135.0986  150.0478 H   0  0  0  0  0  0  0  0  0  0  0  0
  147.3870  135.4754  151.5866 H   0  0  0  0  0  0  0  0  0  0  0  0
  147.7068  137.2334  152.3326 H   0  0  0  0  0  0  0  0  0  0  0  0
  145.9408  139.3859  152.2182 H   0  0  0  0  0  0  0  0  0  0  0  0
  145.8031  138.7720  153.8439 H   0  0  0  0  0  0  0  0  0  0  0  0
  148.3958  139.6268  152.4591 H   0  0  0  0  0  0  0  0  0  0  0  0
  147.1288  141.6296  153.0311 H   0  0  0  0  0  0  0  0  0  0  0  0
  146.7581  140.9856  154.6187 H   0  0  0  0  0  0  0  0  0  0  0  0
  149.4590  141.9444  153.6152 H   0  0  0  0  0  0  0  0  0  0  0  0
  148.6526  142.3599  155.1378 H   0  0  0  0  0  0  0  0  0  0  0  0
  147.9647  138.4470  155.2228 H   0  0  0  0  0  0  0  0  0  0  0  0
  149.2234  138.0442  154.0462 H   0  0  0  0  0  0  0  0  0  0  0  0
  1  2  1  0  0  0  0
  1 21  1  0  0  0  0
  1 22  1  0  0  0  0
  1 23  1  0  0  0  0
  2  3  1  0  0  0  0
  3  8  1  0  0  0  0
  3  4  2  0  0  0  0
  4  5  1  0  0  0  0
  5  6  2  0  0  0  0
  5 24  1  0  0  0  0
  6  7  1  0  0  0  0
  6 25  1  0  0  0  0
  7  8  2  0  0  0  0
  7 26  1  0  0  0  0
  8  9  1  0  0  0  0
  9 10  1  0  0  0  0
  9 27  1  0  0  0  0
 10 11  2  0  0  0  0
 10 12  1  0  0  0  0
 12 13  1  0  0  0  0
 12 28  1  0  0  0  0
 13 14  1  0  0  0  0
 13 29  1  0  0  0  0
 13 30  1  0  0  0  0
 14 20  1  0  0  0  0
 14 15  1  0  0  0  0
 14 31  1  0  0  0  0
 15 16  1  0  0  0  0
 15 32  1  0  0  0  0
 15 33  1  0  0  0  0
 16 17  1  0  0  0  0
 16 34  1  0  0  0  0
 16 35  1  0  0  0  0
 17 18  2  0  0  0  0
 17 19  2  0  0  0  0
 17 20  1  0  0  0  0
 20 36  1  0  0  0  0
 20 37  1  0  0  0  0
M  END
> <s_m_source_file>
AV-unprocessed.smi

> <i_m_source_file_index>
1409

> <i_lp_mmshare_version>
43012

> <i_f3d_flags>
0

> <s_epik_input>
W0NIM11PYzFuW2NIXVtjSF1bY0hdYzFbTkhdQyg9TylbTkhdW0NIMl1bQ0BASF0oW0NIMl0yKVtDSDJdW0NIMl1TMig9Tyk9Tw==

> <s_epik_cmdline>
J2VwaWtfcHl0aG9uJywgJy1waCcsICc3LjAnLCAnLXRuJywgJzgnLCAnLW1hJywgJzIwMCcsICctbWV0YWxfYmluZGluZycsICctaW1hZScsICc8aW5maWxlLm1hZT4nLCAnLW9tYWUnLCAnPG91dGZpbGUubWFlPic=

> <r_lp_tautomer_probability>
1

> <r_epik_Ionization_Penalty>
9.0549e-05

> <r_epik_Ionization_Penalty_Charging>
0

> <r_epik_Ionization_Penalty_Neutral>
9.0549e-05

> <r_epik_State_Penalty>
-0

> <r_epik_Charging_Adjusted_Penalty>
0

> <i_epik_Tot_Q>
0

> <i_epik_Tot_abs_Q>
0

> <r_epik_Metal_State_Penalty>
-0

> <b_epik_Metal_Only>
0

> <s_lp_Force_Field>
OPLS_2005

> <r_lp_Energy>
6.49732

> <b_lp_Chiralities_Consistent>
1

> <s_lp_Variant>
AV-unprocessed.smi:1409-2

> <Gold.Version>
5.8.1

> <Gold.Id.Protein>
6NUR|6NUR_protein|mol2

> <Gold.PLP.Fitness>
40.8651

> <Gold.PLP.PLP>
-33.2493

> <Gold.PLP.part.hbond>
-3.0000

> <Gold.PLP.part.metal>
0.0000

> <Gold.PLP.part.buried>
-3.4633

> <Gold.PLP.part.nonpolar>
-28.3806

> <Gold.PLP.part.repulsive>
1.1524

> <Gold.PLP.ligand.clash>
0.0000

> <Gold.PLP.ligand.torsion>
0.6947

> <Gold.PLP.Chemscore.Hbond>
3.0000

> <Gold.PLP.Chemscore.CHOScore>
0.0000

> <Gold.PLP.Chemscore.Metal>
0.0000

> <Gold.Chemscore.Hbonds>
donor molecule, donor type, donor heavy atom, donor atom, acceptor molecule, acceptor atom, score
      L1  H     9    27       P1  7948  1.00
      L1  H    12    28       P1  7948  1.00
      P1  H  7989  7998       L1    18  1.00

> <Gold.PLP.Chemscore.Internal.Correction>
0.0051

> <Gold.Rescore>
     Score         DG    S(hbond)    S(metal)    S(lipo)     H(rot)  DE(clash)    DE(int)     intcor
     18.50     -19.26       2.95        0.00      68.43       1.59       0.04       0.71       ----

> <Gold.Chemscore.Fitness>
18.5015

> <Gold.Chemscore.DG>
-19.2558

> <Gold.Chemscore.ZeroCoef>
-5.4800

> <Gold.Chemscore.Hbond>
2.9477

> <Gold.Chemscore.Metal>
0.0000

> <Gold.Chemscore.Lipo>
68.4256

> <Gold.Chemscore.Internal_Hbond>
0.0000

> <Gold.Chemscore.DEClash>
0.0411

> <Gold.Chemscore.DEInternal>
0.7133

> <Gold.Chemscore.Rot>
1.5919

> <Gold.Chemscore.Internal.Correction>
   9.000000E+99

> <Gold.Chemscore.Hbonds>
donor molecule, donor type, donor heavy atom, donor atom, acceptor molecule, acceptor atom, score
      L1  H     9    27       P1  7948  0.94
      L1  H    12    28       P1  7948  0.97
      P1  H  7989  7998       L1    18  0.94

> <Gold.Chemscore.Hbond.Weighted>
-9.8454

> <Gold.Chemscore.Metal.Weighted>
-0.0000

> <Gold.Chemscore.Lipo.Weighted>
-8.0058

> <Gold.Chemscore.Internal_Hbond.Weighted>
0.0000

> <Gold.Chemscore.DEClash.Weighted>
0.0411

> <Gold.Chemscore.DEInternal.Weighted>
0.7133

> <Gold.Chemscore.Rot.Weighted>
4.0754

> <Gold.Chemscore.Internal.Correction.Weighted>
   9.000000E+99

> <Gold.Protein.RotatedTorsions>
[ 6907 6896 6895 6894 ] final -175.73 input  -60.11 | X-H torsion
[ 7974 7965 7964 7962 ] final -155.34 input  175.53 | X-H torsion
[ 8008 7997 7996 7995 ] final  127.22 input   59.86 | X-H torsion
[ 10167 10162 10161 10158 ] final  -60.32 input  -65.29 | X-H torsion
[ 10718 10713 10712 10709 ] final -156.23 input   66.30 | X-H torsion
[ 10763 10752 10751 10750 ] final -124.67 input  -60.55 | X-H torsion
[ 11005 11000 10999 10996 ] final  127.12 input  -57.11 | X-H torsion

> <Gold.Protein.ActiveResidues>
 VAL166  LYS551  ARG553  GLY616  TRP617  ASP618  TYR619  PRO620  LYS621  CYS622 
 ASP623  PHE694  ASN695  SER759  ASP760  ASP761  ALA762  ILE779  LEU786  VAL792 
 PHE793  MET794  SER795  GLU796  ALA797  LYS798  CYS799  TRP800  GLU811  SER814 

> <Gold.Protein.RotatedAtoms>
  151.5933  133.3364  159.3031 H   0  0  0  0  0  0  0  0  0  0  0  0  # atno 6907 bound_to 6896
  150.8248  134.7477  159.6815 H   0  0  0  0  0  0  0  0  0  0  0  0  # atno 6908 bound_to 6896
  152.4338  134.5732  159.9978 H   0  0  0  0  0  0  0  0  0  0  0  0  # atno 6909 bound_to 6896
  144.7645  140.4262  143.5952 H   0  0  0  0  0  0  0  0  0  0  0  0  # atno 7974 bound_to 7965
  156.2885  140.2674  156.2238 H   0  0  0  0  0  0  0  0  0  0  0  0  # atno 8008 bound_to 7997
  155.0141  140.0387  157.2429 H   0  0  0  0  0  0  0  0  0  0  0  0  # atno 8009 bound_to 7997
  154.7492  140.2740  155.6312 H   0  0  0  0  0  0  0  0  0  0  0  0  # atno 8010 bound_to 7997
  140.6079  143.2378  151.5778 H   0  0  0  0  0  0  0  0  0  0  0  0  # atno 10167 bound_to 10162
  156.5237  130.8489  151.2691 H   0  0  0  0  0  0  0  0  0  0  0  0  # atno 10718 bound_to 10713
  154.8726  135.4056  154.3143 H   0  0  0  0  0  0  0  0  0  0  0  0  # atno 10763 bound_to 10752
  153.3982  135.7017  153.6451 H   0  0  0  0  0  0  0  0  0  0  0  0  # atno 10764 bound_to 10752
  153.5205  135.3688  155.2600 H   0  0  0  0  0  0  0  0  0  0  0  0  # atno 10765 bound_to 10752
  139.9491  134.9625  156.8807 H   0  0  0  0  0  0  0  0  0  0  0  0  # atno 11005 bound_to 11000
  145.6514  139.1565  143.2859 LP  0  0  0  0  0  0  0  0  0  0  0  0  # atno 17320 bound_to 7965
  146.1739  140.6603  142.9220 LP  0  0  0  0  0  0  0  0  0  0  0  0  # atno 17321 bound_to 7965
  139.5339  144.2838  152.1208 LP  0  0  0  0  0  0  0  0  0  0  0  0  # atno 17342 bound_to 10162
  140.2031  144.4638  150.6422 LP  0  0  0  0  0  0  0  0  0  0  0  0  # atno 17343 bound_to 10162
  157.7433  130.9908  150.2580 LP  0  0  0  0  0  0  0  0  0  0  0  0  # atno 17370 bound_to 10713
  156.3125  130.3774  149.7648 LP  0  0  0  0  0  0  0  0  0  0  0  0  # atno 17371 bound_to 10713
  140.5763  134.0395  155.7448 LP  0  0  0  0  0  0  0  0  0  0  0  0  # atno 17394 bound_to 11000
  141.1149  133.9556  157.2841 LP  0  0  0  0  0  0  0  0  0  0  0  0  # atno 17395 bound_to 11000

$$$$
