AV-unprocessed.smi:994|AV-procd|sdf|4340|dock5
  -GOLD-   22720 2243D 1   1.00000     0.00000
 Structure written by MMmdl.
 38 39  0  0  0  0  0  0  0  0  3 V2000
  149.2178  139.8707  157.7864 O   0  0  0  0  0  0  0  0  0  0  0  0
  150.2160  140.5377  157.5130 C   0  0  0  0  0  0  0  0  0  0  0  0
  150.9042  140.4000  156.3691 N   0  0  0  0  0  0  0  0  0  0  0  0
  150.6209  139.4228  155.3175 C   0  0  1  0  0  0  0  0  0  0  0  0
  150.1397  140.1668  154.0530 C   0  0  0  0  0  0  0  0  0  0  0  0
  148.6768  139.9869  153.7184 C   0  0  0  0  0  0  0  0  0  0  0  0
  147.5923  140.8368  153.8528 C   0  0  0  0  0  0  0  0  0  0  0  0
  146.4739  140.1613  153.3934 N   0  0  0  0  0  0  0  0  0  0  0  0
  146.8853  138.9548  153.0093 C   0  0  0  0  0  0  0  0  0  0  0  0
  148.1962  138.8004  153.1858 N   0  3  0  0  0  0  0  0  0  0  0  0
  151.9102  138.6644  154.9737 C   0  0  0  0  0  0  0  0  0  0  0  0
  152.9324  139.3526  154.7641 O   0  0  0  0  0  0  0  0  0  0  0  0
  151.8573  137.4144  154.9362 O   0  5  0  0  0  0  0  0  0  0  0  0
  150.7261  141.6041  158.4910 C   0  0  0  0  0  0  0  0  0  0  0  0
  150.8534  142.9778  157.7979 C   0  0  0  0  0  0  0  0  0  0  0  0
  151.3874  144.0471  158.7655 C   0  0  0  0  0  0  0  0  0  0  0  0
  152.7289  143.6204  159.3825 C   0  0  0  0  0  0  0  0  0  0  0  0
  152.6127  142.2519  160.0723 C   0  0  0  0  0  0  0  0  0  0  0  0
  152.0791  141.1834  159.1039 C   0  0  0  0  0  0  0  0  0  0  0  0
  145.5284  140.5155  153.3602 H   0  0  0  0  0  0  0  0  0  0  0  0
  151.7231  140.9760  156.2388 H   0  0  0  0  0  0  0  0  0  0  0  0
  149.8572  138.7094  155.6341 H   0  0  0  0  0  0  0  0  0  0  0  0
  150.3351  141.2366  154.1456 H   0  0  0  0  0  0  0  0  0  0  0  0
  150.7093  139.8254  153.1872 H   0  0  0  0  0  0  0  0  0  0  0  0
  147.5152  141.8475  154.2267 H   0  0  0  0  0  0  0  0  0  0  0  0
  146.2351  138.1932  152.6040 H   0  0  0  0  0  0  0  0  0  0  0  0
  150.0013  141.7010  159.3018 H   0  0  0  0  0  0  0  0  0  0  0  0
  151.5227  142.9069  156.9388 H   0  0  0  0  0  0  0  0  0  0  0  0
  149.8846  143.2924  157.4073 H   0  0  0  0  0  0  0  0  0  0  0  0
  151.5050  144.9960  158.2418 H   0  0  0  0  0  0  0  0  0  0  0  0
  150.6584  144.2196  159.5582 H   0  0  0  0  0  0  0  0  0  0  0  0
  153.4905  143.5730  158.6030 H   0  0  0  0  0  0  0  0  0  0  0  0
  153.0651  144.3708  160.0985 H   0  0  0  0  0  0  0  0  0  0  0  0
  153.5849  141.9484  160.4617 H   0  0  0  0  0  0  0  0  0  0  0  0
  151.9457  142.3316  160.9319 H   0  0  0  0  0  0  0  0  0  0  0  0
  151.9729  140.2349  159.6320 H   0  0  0  0  0  0  0  0  0  0  0  0
  152.8143  141.0161  158.3150 H   0  0  0  0  0  0  0  0  0  0  0  0
  148.7398  137.9761  152.9714 H   0  0  0  0  0  0  0  0  0  0  0  0
  1  2  2  0  0  0  0
  2  3  1  0  0  0  0
  2 14  1  0  0  0  0
  3  4  1  0  0  0  0
  3 21  1  0  0  0  0
  4  5  1  0  0  0  0
  4 11  1  0  0  0  0
  4 22  1  0  0  0  0
  5  6  1  0  0  0  0
  5 23  1  0  0  0  0
  5 24  1  0  0  0  0
  6 10  1  0  0  0  0
  6  7  2  0  0  0  0
  7  8  1  0  0  0  0
  7 25  1  0  0  0  0
  8 20  1  0  0  0  0
  8  9  1  0  0  0  0
  9 10  2  0  0  0  0
  9 26  1  0  0  0  0
 10 38  1  0  0  0  0
 11 12  2  0  0  0  0
 11 13  1  0  0  0  0
 14 19  1  0  0  0  0
 14 15  1  0  0  0  0
 14 27  1  0  0  0  0
 15 16  1  0  0  0  0
 15 28  1  0  0  0  0
 15 29  1  0  0  0  0
 16 17  1  0  0  0  0
 16 30  1  0  0  0  0
 16 31  1  0  0  0  0
 17 18  1  0  0  0  0
 17 32  1  0  0  0  0
 17 33  1  0  0  0  0
 18 19  1  0  0  0  0
 18 34  1  0  0  0  0
 18 35  1  0  0  0  0
 19 36  1  0  0  0  0
 19 37  1  0  0  0  0
M  CHG  1  10   1
M  CHG  1  13  -1
M  END
> <s_m_source_file>
AV-unprocessed.smi

> <i_m_source_file_index>
994

> <i_lp_mmshare_version>
43012

> <i_f3d_flags>
0

> <s_epik_input>
W0NIMl0xW0NIMl1bQ0gyXVtDSDJdW0NIMl1bQ0hdMUMoPU8pW05IXVtDQEBIXShDKD1PKVtPSF0pW0NIMl1jMltjSF1bbkhdW2NIXW4y

> <s_epik_cmdline>
J2VwaWtfcHl0aG9uJywgJy1waCcsICc3LjAnLCAnLXRuJywgJzgnLCAnLW1hJywgJzIwMCcsICctbWV0YWxfYmluZGluZycsICctaW1hZScsICc8aW5maWxlLm1hZT4nLCAnLW9tYWUnLCAnPG91dGZpbGUubWFlPic=

> <r_lp_tautomer_probability>
1

> <r_epik_Ionization_Penalty>
0.469853

> <r_epik_Ionization_Penalty_Charging>
5.5863e-05

> <r_epik_Ionization_Penalty_Neutral>
0.469797

> <r_epik_State_Penalty>
0.377582

> <r_epik_Charging_Adjusted_Penalty>
0.377638

> <i_epik_Tot_Q>
0

> <i_epik_Tot_abs_Q>
2

> <r_epik_Metal_State_Penalty>
0.796804

> <b_epik_Metal_Only>
0

> <s_lp_Force_Field>
OPLS_2005

> <r_lp_Energy>
8.41083

> <b_lp_Chiralities_Consistent>
1

> <s_lp_Variant>
AV-unprocessed.smi:994-2

> <Gold.Version>
5.8.1

> <Gold.Id.Protein>
6NUR|6NUR_protein|mol2

> <Gold.PLP.Fitness>
54.6602

> <Gold.PLP.PLP>
-35.0471

> <Gold.PLP.part.hbond>
-5.9427

> <Gold.PLP.part.metal>
0.0000

> <Gold.PLP.part.buried>
2.0944

> <Gold.PLP.part.nonpolar>
-32.9191

> <Gold.PLP.part.repulsive>
0.2652

> <Gold.PLP.ligand.clash>
0.0000

> <Gold.PLP.ligand.torsion>
1.2334

> <Gold.PLP.Chemscore.Hbond>
7.3423

> <Gold.PLP.Chemscore.CHOScore>
0.0000

> <Gold.PLP.Chemscore.Metal>
0.0000

> <Gold.Chemscore.Hbonds>
donor molecule, donor type, donor heavy atom, donor atom, acceptor molecule, acceptor atom, score
      L1  H     8    20       P1 10175  1.87
      L1  H    10    38       P1  7948  1.84
      P1  H  7989  7998       L1    12  0.07
      P1  H  7997  8010       L1    12  1.82
      P1  H 10752 10765       L1    13  1.42

> <Gold.PLP.Chemscore.Internal.Correction>
0.0530

> <Gold.Rescore>
     Score         DG    S(hbond)    S(metal)    S(lipo)     H(rot)  DE(clash)    DE(int)     intcor
     15.61     -19.54       3.26        0.00      86.58       2.72       2.89       1.04       ----

> <Gold.Chemscore.Fitness>
15.6109

> <Gold.Chemscore.DG>
-19.5401

> <Gold.Chemscore.ZeroCoef>
-5.4800

> <Gold.Chemscore.Hbond>
3.2620

> <Gold.Chemscore.Metal>
0.0000

> <Gold.Chemscore.Lipo>
86.5827

> <Gold.Chemscore.Internal_Hbond>
0.0000

> <Gold.Chemscore.DEClash>
2.8927

> <Gold.Chemscore.DEInternal>
1.0365

> <Gold.Chemscore.Rot>
2.7208

> <Gold.Chemscore.Internal.Correction>
   9.000000E+99

> <Gold.Chemscore.Hbonds>
donor molecule, donor type, donor heavy atom, donor atom, acceptor molecule, acceptor atom, score
      L1  H     8    20       P1 10175  0.82
      L1  H    10    38       P1  7948  0.84
      P1  H  7997  8010       L1    12  0.87
      P1  H 10752 10765       L1    13  0.68

> <Gold.Chemscore.Hbond.Weighted>
-10.8951

> <Gold.Chemscore.Metal.Weighted>
-0.0000

> <Gold.Chemscore.Lipo.Weighted>
-10.1302

> <Gold.Chemscore.Internal_Hbond.Weighted>
0.0000

> <Gold.Chemscore.DEClash.Weighted>
2.8927

> <Gold.Chemscore.DEInternal.Weighted>
1.0365

> <Gold.Chemscore.Rot.Weighted>
6.9652

> <Gold.Chemscore.Internal.Correction.Weighted>
   9.000000E+99

> <Gold.Protein.RotatedTorsions>
[ 6907 6896 6895 6894 ] final    9.21 input  -60.11 | X-H torsion
[ 7974 7965 7964 7962 ] final   33.26 input  175.53 | X-H torsion
[ 8008 7997 7996 7995 ] final  107.41 input   59.86 | X-H torsion
[ 10167 10162 10161 10158 ] final  -52.54 input  -65.29 | X-H torsion
[ 10718 10713 10712 10709 ] final  -48.22 input   66.30 | X-H torsion
[ 10763 10752 10751 10750 ] final  173.86 input  -60.55 | X-H torsion
[ 11005 11000 10999 10996 ] final   58.66 input  -57.11 | X-H torsion

> <Gold.Protein.ActiveResidues>
 VAL166  LYS551  ARG553  GLY616  TRP617  ASP618  TYR619  PRO620  LYS621  CYS622 
 ASP623  PHE694  ASN695  SER759  ASP760  ASP761  ALA762  ILE779  LEU786  VAL792 
 PHE793  MET794  SER795  GLU796  ALA797  LYS798  CYS799  TRP800  GLU811  SER814 

> <Gold.Protein.RotatedAtoms>
  151.7185  135.0899  160.0279 H   0  0  0  0  0  0  0  0  0  0  0  0  # atno 6907 bound_to 6896
  152.3617  133.6300  159.6028 H   0  0  0  0  0  0  0  0  0  0  0  0  # atno 6908 bound_to 6896
  150.7609  133.9330  159.3474 H   0  0  0  0  0  0  0  0  0  0  0  0  # atno 6909 bound_to 6896
  146.1432  139.6419  142.9149 H   0  0  0  0  0  0  0  0  0  0  0  0  # atno 7974 bound_to 7965
  156.1822  140.3095  155.9170 H   0  0  0  0  0  0  0  0  0  0  0  0  # atno 8008 bound_to 7997
  155.3360  140.0463  157.3061 H   0  0  0  0  0  0  0  0  0  0  0  0  # atno 8009 bound_to 7997
  154.5355  140.2244  155.8740 H   0  0  0  0  0  0  0  0  0  0  0  0  # atno 8010 bound_to 7997
  140.6532  143.2580  151.4662 H   0  0  0  0  0  0  0  0  0  0  0  0  # atno 10167 bound_to 10162
  156.2009  130.4156  149.9243 H   0  0  0  0  0  0  0  0  0  0  0  0  # atno 10718 bound_to 10713
  154.4459  135.2763  155.1815 H   0  0  0  0  0  0  0  0  0  0  0  0  # atno 10763 bound_to 10752
  154.3662  135.6118  153.5720 H   0  0  0  0  0  0  0  0  0  0  0  0  # atno 10764 bound_to 10752
  152.9844  135.5846  154.4795 H   0  0  0  0  0  0  0  0  0  0  0  0  # atno 10765 bound_to 10752
  140.0361  134.5941  155.9442 H   0  0  0  0  0  0  0  0  0  0  0  0  # atno 11005 bound_to 11000
  145.4998  141.0437  143.2547 LP  0  0  0  0  0  0  0  0  0  0  0  0  # atno 17320 bound_to 7965
  144.7816  139.6514  143.7152 LP  0  0  0  0  0  0  0  0  0  0  0  0  # atno 17321 bound_to 7965
  139.5750  144.1840  152.1890 LP  0  0  0  0  0  0  0  0  0  0  0  0  # atno 17342 bound_to 10162
  140.1147  144.5426  150.6901 LP  0  0  0  0  0  0  0  0  0  0  0  0  # atno 17343 bound_to 10162
  156.6953  130.8912  151.3593 LP  0  0  0  0  0  0  0  0  0  0  0  0  # atno 17370 bound_to 10713
  157.6985  130.9307  150.0714 LP  0  0  0  0  0  0  0  0  0  0  0  0  # atno 17371 bound_to 10713
  141.1858  133.6556  156.5213 LP  0  0  0  0  0  0  0  0  0  0  0  0  # atno 17394 bound_to 11000
  140.4145  134.7242  157.4855 LP  0  0  0  0  0  0  0  0  0  0  0  0  # atno 17395 bound_to 11000

$$$$
