AV-unprocessed.smi:1687|AV-procd|sdf|6768|dock5
  -GOLD-   22720 7523D 1   1.00000     0.00000
 Structure written by MMmdl.
 45 46  0  0  0  0  0  0  0  0  2 V2000
  143.8454  133.0176  151.6762 C   0  0  0  0  0  0  0  0  0  0  0  0
  144.8743  132.3159  150.7726 C   0  0  2  0  0  0  0  0  0  0  0  0
  145.3158  130.9486  151.3272 C   0  0  0  0  0  0  0  0  0  0  0  0
  146.2644  131.0864  152.5317 C   0  0  0  0  0  0  0  0  0  0  0  0
  147.4457  131.9194  152.1839 N   0  3  2  0  0  0  0  0  0  0  0  0
  148.5214  131.8878  153.2183 C   0  0  2  0  0  0  0  0  0  0  0  0
  148.7701  130.4698  153.7786 C   0  0  0  0  0  0  0  0  0  0  0  0
  148.2468  132.9456  154.3122 C   0  0  0  0  0  0  0  0  0  0  0  0
  148.8602  134.2368  154.0119 N   0  0  0  0  0  0  0  0  0  0  0  0
  149.6835  134.9143  154.8261 C   0  0  0  0  0  0  0  0  0  0  0  0
  150.0289  134.5034  155.9345 O   0  0  0  0  0  0  0  0  0  0  0  0
  150.0745  136.0735  154.2682 N   0  0  0  0  0  0  0  0  0  0  0  0
  150.9410  137.0600  154.8099 C   0  0  0  0  0  0  0  0  0  0  0  0
  150.6903  138.3807  154.3743 C   0  0  0  0  0  0  0  0  0  0  0  0
  151.4929  139.4331  154.8558 C   0  0  0  0  0  0  0  0  0  0  0  0
  152.5272  139.1369  155.7613 C   0  0  0  0  0  0  0  0  0  0  0  0
  152.7103  137.7951  156.1431 C   0  0  0  0  0  0  0  0  0  0  0  0
  151.9423  136.7849  155.6828 N   0  0  0  0  0  0  0  0  0  0  0  0
  147.0459  133.2765  151.7198 C   0  0  0  0  0  0  0  0  0  0  0  0
  146.1159  133.1851  150.4966 C   0  0  0  0  0  0  0  0  0  0  0  0
  144.2463  133.2353  152.6657 H   0  0  0  0  0  0  0  0  0  0  0  0
  142.9580  132.3986  151.8101 H   0  0  0  0  0  0  0  0  0  0  0  0
  143.5204  133.9617  151.2378 H   0  0  0  0  0  0  0  0  0  0  0  0
  144.3768  132.1397  149.8179 H   0  0  0  0  0  0  0  0  0  0  0  0
  144.4447  130.3523  151.6012 H   0  0  0  0  0  0  0  0  0  0  0  0
  145.8253  130.3927  150.5388 H   0  0  0  0  0  0  0  0  0  0  0  0
  145.7387  131.5192  153.3831 H   0  0  0  0  0  0  0  0  0  0  0  0
  146.5887  130.0912  152.8374 H   0  0  0  0  0  0  0  0  0  0  0  0
  149.4442  132.2010  152.7275 H   0  0  0  0  0  0  0  0  0  0  0  0
  149.6745  130.4388  154.3863 H   0  0  0  0  0  0  0  0  0  0  0  0
  148.9037  129.7385  152.9821 H   0  0  0  0  0  0  0  0  0  0  0  0
  147.9465  130.1338  154.4094 H   0  0  0  0  0  0  0  0  0  0  0  0
  147.1720  133.1088  154.3985 H   0  0  0  0  0  0  0  0  0  0  0  0
  148.5744  132.5937  155.2910 H   0  0  0  0  0  0  0  0  0  0  0  0
  148.6321  134.6507  153.1197 H   0  0  0  0  0  0  0  0  0  0  0  0
  149.7109  136.2750  153.3486 H   0  0  0  0  0  0  0  0  0  0  0  0
  149.8908  138.5911  153.6786 H   0  0  0  0  0  0  0  0  0  0  0  0
  151.3168  140.4495  154.5358 H   0  0  0  0  0  0  0  0  0  0  0  0
  153.1631  139.9170  156.1530 H   0  0  0  0  0  0  0  0  0  0  0  0
  153.4931  137.5253  156.8364 H   0  0  0  0  0  0  0  0  0  0  0  0
  146.5464  133.8183  152.5235 H   0  0  0  0  0  0  0  0  0  0  0  0
  147.9256  133.8596  151.4497 H   0  0  0  0  0  0  0  0  0  0  0  0
  146.6725  132.7588  149.6606 H   0  0  0  0  0  0  0  0  0  0  0  0
  145.8146  134.1842  150.1794 H   0  0  0  0  0  0  0  0  0  0  0  0
  147.8518  131.4654  151.3785 H   0  0  0  0  0  0  0  0  0  0  0  0
  1  2  1  0  0  0  0
  1 21  1  0  0  0  0
  1 22  1  0  0  0  0
  1 23  1  0  0  0  0
  2 20  1  0  0  0  0
  2  3  1  0  0  0  0
  2 24  1  0  0  0  0
  3  4  1  0  0  0  0
  3 25  1  0  0  0  0
  3 26  1  0  0  0  0
  4  5  1  0  0  0  0
  4 27  1  0  0  0  0
  4 28  1  0  0  0  0
  5  6  1  0  0  0  0
  5 19  1  0  0  0  0
  5 45  1  0  0  0  0
  6  7  1  0  0  0  0
  6  8  1  0  0  0  0
  6 29  1  0  0  0  0
  7 30  1  0  0  0  0
  7 31  1  0  0  0  0
  7 32  1  0  0  0  0
  8  9  1  0  0  0  0
  8 33  1  0  0  0  0
  8 34  1  0  0  0  0
  9 10  1  0  0  0  0
  9 35  1  0  0  0  0
 10 11  2  0  0  0  0
 10 12  1  0  0  0  0
 12 13  1  0  0  0  0
 12 36  1  0  0  0  0
 13 18  1  0  0  0  0
 13 14  2  0  0  0  0
 14 15  1  0  0  0  0
 14 37  1  0  0  0  0
 15 16  2  0  0  0  0
 15 38  1  0  0  0  0
 16 17  1  0  0  0  0
 16 39  1  0  0  0  0
 17 18  2  0  0  0  0
 17 40  1  0  0  0  0
 19 20  1  0  0  0  0
 19 41  1  0  0  0  0
 19 42  1  0  0  0  0
 20 43  1  0  0  0  0
 20 44  1  0  0  0  0
M  CHG  1   5   1
M  END
> <s_m_source_file>
AV-unprocessed.smi

> <i_m_source_file_index>
1687

> <i_lp_mmshare_version>
43012

> <i_f3d_flags>
0

> <s_epik_input>
W0NIM11bQ0hdMVtDSDJdW0NIMl1OKFtDSDJdW0NIMl0xKVtDQEhdKFtDSDNdKVtDSDJdW05IXUMoPU8pW05IXWMyW2NIXVtjSF1bY0hdW2NIXW4y

> <s_epik_cmdline>
J2VwaWtfcHl0aG9uJywgJy1waCcsICc3LjAnLCAnLXRuJywgJzgnLCAnLW1hJywgJzIwMCcsICctbWV0YWxfYmluZGluZycsICctaW1hZScsICc8aW5maWxlLm1hZT4nLCAnLW9tYWUnLCAnPG91dGZpbGUubWFlPic=

> <r_epik_Ionization_Penalty>
0.00142891

> <r_epik_Ionization_Penalty_Charging>
0.00139388

> <r_epik_Ionization_Penalty_Neutral>
3.50347e-05

> <r_epik_State_Penalty>
0.000929204

> <r_epik_Charging_Adjusted_Penalty>
0.00232308

> <i_epik_Tot_Q>
1

> <i_epik_Tot_abs_Q>
1

> <r_epik_Metal_State_Penalty>
-0

> <b_epik_Metal_Only>
0

> <s_lp_Force_Field>
OPLS_2005

> <r_lp_Energy>
23.5172

> <b_lp_Chiralities_Consistent>
1

> <s_lp_Variant>
AV-unprocessed.smi:1687-3

> <Gold.Version>
5.8.1

> <Gold.Id.Protein>
6NUR|6NUR_protein|mol2

> <Gold.PLP.Fitness>
48.9130

> <Gold.PLP.PLP>
-38.8970

> <Gold.PLP.part.hbond>
-5.0000

> <Gold.PLP.part.metal>
0.0000

> <Gold.PLP.part.buried>
-1.0201

> <Gold.PLP.part.nonpolar>
-33.0660

> <Gold.PLP.part.repulsive>
0.1259

> <Gold.PLP.ligand.clash>
0.0000

> <Gold.PLP.ligand.torsion>
0.9464

> <Gold.PLP.Chemscore.Hbond>
3.9280

> <Gold.PLP.Chemscore.CHOScore>
0.0000

> <Gold.PLP.Chemscore.Metal>
0.0000

> <Gold.Chemscore.Hbonds>
donor molecule, donor type, donor heavy atom, donor atom, acceptor molecule, acceptor atom, score
      L1  H     5    45       P1 10747  1.00
      L1  H     9    35       P1  7948  0.91
      L1  H    12    36       P1  7948  0.95
      P1  H 10752 10765       L1    18  1.00

> <Gold.PLP.Chemscore.Internal.Correction>
0.1247

> <Gold.Rescore>
     Score         DG    S(hbond)    S(metal)    S(lipo)     H(rot)  DE(clash)    DE(int)     intcor
     19.12     -21.98       2.98        0.00      88.55       1.50       0.21       2.65       ----

> <Gold.Chemscore.Fitness>
19.1177

> <Gold.Chemscore.DG>
-21.9792

> <Gold.Chemscore.ZeroCoef>
-5.4800

> <Gold.Chemscore.Hbond>
2.9844

> <Gold.Chemscore.Metal>
0.0000

> <Gold.Chemscore.Lipo>
88.5474

> <Gold.Chemscore.Internal_Hbond>
0.0000

> <Gold.Chemscore.DEClash>
0.2116

> <Gold.Chemscore.DEInternal>
2.6499

> <Gold.Chemscore.Rot>
1.4956

> <Gold.Chemscore.Internal.Correction>
   9.000000E+99

> <Gold.Chemscore.Hbonds>
donor molecule, donor type, donor heavy atom, donor atom, acceptor molecule, acceptor atom, score
      L1  H     5    45       P1 10747  1.00
      L1  H     9    35       P1  7948  0.26
      L1  H    12    36       P1  7948  0.21
      P1  H 10752 10765       L1    18  0.21

> <Gold.Chemscore.Hbond.Weighted>
-9.9680

> <Gold.Chemscore.Metal.Weighted>
-0.0000

> <Gold.Chemscore.Lipo.Weighted>
-10.3600

> <Gold.Chemscore.Internal_Hbond.Weighted>
0.0000

> <Gold.Chemscore.DEClash.Weighted>
0.2116

> <Gold.Chemscore.DEInternal.Weighted>
2.6499

> <Gold.Chemscore.Rot.Weighted>
3.8289

> <Gold.Chemscore.Internal.Correction.Weighted>
   9.000000E+99

> <Gold.Protein.RotatedTorsions>
[ 6907 6896 6895 6894 ] final  139.20 input  -60.11 | X-H torsion
[ 7974 7965 7964 7962 ] final   43.46 input  175.53 | X-H torsion
[ 8008 7997 7996 7995 ] final  141.42 input   59.86 | X-H torsion
[ 10167 10162 10161 10158 ] final  -34.60 input  -65.29 | X-H torsion
[ 10718 10713 10712 10709 ] final -179.74 input   66.30 | X-H torsion
[ 10763 10752 10751 10750 ] final -176.26 input  -60.55 | X-H torsion
[ 11005 11000 10999 10996 ] final  129.25 input  -57.11 | X-H torsion

> <Gold.Protein.ActiveResidues>
 VAL166  LYS551  ARG553  GLY616  TRP617  ASP618  TYR619  PRO620  LYS621  CYS622 
 ASP623  PHE694  ASN695  SER759  ASP760  ASP761  ALA762  ILE779  LEU786  VAL792 
 PHE793  MET794  SER795  GLU796  ALA797  LYS798  CYS799  TRP800  GLU811  SER814 

> <Gold.Protein.RotatedAtoms>
  152.2577  133.5270  159.5362 H   0  0  0  0  0  0  0  0  0  0  0  0  # atno 6907 bound_to 6896
  150.7114  134.0873  159.3928 H   0  0  0  0  0  0  0  0  0  0  0  0  # atno 6908 bound_to 6896
  151.8791  135.0460  160.0538 H   0  0  0  0  0  0  0  0  0  0  0  0  # atno 6909 bound_to 6896
  146.0653  139.5184  142.9632 H   0  0  0  0  0  0  0  0  0  0  0  0  # atno 7974 bound_to 7965
  156.2966  140.2315  156.4562 H   0  0  0  0  0  0  0  0  0  0  0  0  # atno 8008 bound_to 7997
  154.8059  140.0446  157.1327 H   0  0  0  0  0  0  0  0  0  0  0  0  # atno 8009 bound_to 7997
  154.9480  140.3038  155.5092 H   0  0  0  0  0  0  0  0  0  0  0  0  # atno 8010 bound_to 7997
  140.7182  143.3536  151.2104 H   0  0  0  0  0  0  0  0  0  0  0  0  # atno 10167 bound_to 10162
  156.8636  130.9760  151.3081 H   0  0  0  0  0  0  0  0  0  0  0  0  # atno 10718 bound_to 10713
  154.5745  135.2831  155.0794 H   0  0  0  0  0  0  0  0  0  0  0  0  # atno 10763 bound_to 10752
  154.2154  135.6400  153.5132 H   0  0  0  0  0  0  0  0  0  0  0  0  # atno 10764 bound_to 10752
  153.0068  135.5501  154.6379 H   0  0  0  0  0  0  0  0  0  0  0  0  # atno 10765 bound_to 10752
  139.9605  134.9603  156.9121 H   0  0  0  0  0  0  0  0  0  0  0  0  # atno 11005 bound_to 11000
  145.6488  141.0268  143.1772 LP  0  0  0  0  0  0  0  0  0  0  0  0  # atno 17320 bound_to 7965
  144.7199  139.8067  143.7385 LP  0  0  0  0  0  0  0  0  0  0  0  0  # atno 17321 bound_to 7965
  139.7073  143.9435  152.2932 LP  0  0  0  0  0  0  0  0  0  0  0  0  # atno 17342 bound_to 10162
  139.9148  144.6835  150.8524 LP  0  0  0  0  0  0  0  0  0  0  0  0  # atno 17343 bound_to 10162
  157.6236  130.8674  149.9151 LP  0  0  0  0  0  0  0  0  0  0  0  0  # atno 17370 bound_to 10713
  156.0763  130.3678  150.0670 LP  0  0  0  0  0  0  0  0  0  0  0  0  # atno 17371 bound_to 10713
  140.5511  134.0626  155.7369 LP  0  0  0  0  0  0  0  0  0  0  0  0  # atno 17394 bound_to 11000
  141.1282  133.9348  157.2592 LP  0  0  0  0  0  0  0  0  0  0  0  0  # atno 17395 bound_to 11000

$$$$
