AV-unprocessed.smi:463|AV-procd|sdf|2634|dock3
  -GOLD-   2262023 43D 1   1.00000     0.00000
 Structure written by MMmdl.
 42 44  0  0  0  0  0  0  0  0  1 V2000
  153.3924  142.7680  162.6710 C   0  0  0  0  0  0  0  0  0  0  0  0
  152.7256  143.1191  161.3571 C   0  0  0  0  0  0  0  0  0  0  0  0
  152.0653  144.3543  161.2047 C   0  0  0  0  0  0  0  0  0  0  0  0
  151.4423  144.6721  159.9836 C   0  0  0  0  0  0  0  0  0  0  0  0
  151.4759  143.7586  158.9121 C   0  0  0  0  0  0  0  0  0  0  0  0
  152.1383  142.5132  159.0535 C   0  0  0  0  0  0  0  0  0  0  0  0
  152.2226  141.5626  158.0602 O   0  0  0  0  0  0  0  0  0  0  0  0
  151.1732  141.4871  157.1045 C   0  0  0  0  0  0  0  0  0  0  0  0
  151.7247  140.9237  155.7878 C   0  0  0  0  0  0  0  0  0  0  0  0
  150.7356  140.1161  155.0880 N   0  0  0  0  0  0  0  0  0  0  0  0
  150.8401  138.8388  154.6376 C   0  0  0  0  0  0  0  0  0  0  0  0
  152.0775  138.0072  154.8173 C   0  0  0  0  0  0  0  0  0  0  0  0
  151.8039  136.6379  155.4594 C   0  0  0  0  0  0  0  0  0  0  0  0
  153.0101  135.9772  155.7800 O   0  0  0  0  0  0  0  0  0  0  0  0
  149.7606  138.3529  154.0223 N   0  0  0  0  0  0  0  0  0  0  0  0
  148.8778  139.4137  154.0695 C   0  0  0  0  0  0  0  0  0  0  0  0
  147.5570  139.5327  153.5803 C   0  0  0  0  0  0  0  0  0  0  0  0
  146.8403  140.7360  153.7462 C   0  0  0  0  0  0  0  0  0  0  0  0
  147.4325  141.8349  154.4018 C   0  0  0  0  0  0  0  0  0  0  0  0
  148.7468  141.7367  154.8975 C   0  0  0  0  0  0  0  0  0  0  0  0
  149.4576  140.5332  154.7299 C   0  0  0  0  0  0  0  0  0  0  0  0
  152.7578  142.2071  160.2825 C   0  0  0  0  0  0  0  0  0  0  0  0
  153.7079  143.6668  163.2016 H   0  0  0  0  0  0  0  0  0  0  0  0
  154.2733  142.1474  162.5046 H   0  0  0  0  0  0  0  0  0  0  0  0
  152.7000  142.2179  163.3082 H   0  0  0  0  0  0  0  0  0  0  0  0
  152.0337  145.0600  162.0217 H   0  0  0  0  0  0  0  0  0  0  0  0
  150.9361  145.6191  159.8680 H   0  0  0  0  0  0  0  0  0  0  0  0
  150.9862  144.0373  157.9917 H   0  0  0  0  0  0  0  0  0  0  0  0
  150.3748  140.8415  157.4730 H   0  0  0  0  0  0  0  0  0  0  0  0
  150.7515  142.4776  156.9258 H   0  0  0  0  0  0  0  0  0  0  0  0
  152.0716  141.7290  155.1421 H   0  0  0  0  0  0  0  0  0  0  0  0
  152.5977  140.3020  155.9876 H   0  0  0  0  0  0  0  0  0  0  0  0
  152.5078  137.8459  153.8283 H   0  0  0  0  0  0  0  0  0  0  0  0
  152.8380  138.5526  155.3749 H   0  0  0  0  0  0  0  0  0  0  0  0
  151.1853  136.7387  156.3517 H   0  0  0  0  0  0  0  0  0  0  0  0
  151.2565  136.0069  154.7588 H   0  0  0  0  0  0  0  0  0  0  0  0
  152.8497  135.3944  156.5065 H   0  0  0  0  0  0  0  0  0  0  0  0
  147.0954  138.6973  153.0751 H   0  0  0  0  0  0  0  0  0  0  0  0
  145.8318  140.8165  153.3676 H   0  0  0  0  0  0  0  0  0  0  0  0
  146.8774  142.7534  154.5238 H   0  0  0  0  0  0  0  0  0  0  0  0
  149.2038  142.5766  155.3992 H   0  0  0  0  0  0  0  0  0  0  0  0
  153.2626  141.2591  160.3988 H   0  0  0  0  0  0  0  0  0  0  0  0
  1  2  1  0  0  0  0
  1 23  1  0  0  0  0
  1 24  1  0  0  0  0
  1 25  1  0  0  0  0
  2 22  1  0  0  0  0
  2  3  2  0  0  0  0
  3  4  1  0  0  0  0
  3 26  1  0  0  0  0
  4  5  2  0  0  0  0
  4 27  1  0  0  0  0
  5  6  1  0  0  0  0
  5 28  1  0  0  0  0
  6  7  1  0  0  0  0
  6 22  2  0  0  0  0
  7  8  1  0  0  0  0
  8  9  1  0  0  0  0
  8 29  1  0  0  0  0
  8 30  1  0  0  0  0
  9 10  1  0  0  0  0
  9 31  1  0  0  0  0
  9 32  1  0  0  0  0
 10 21  1  0  0  0  0
 10 11  1  0  0  0  0
 11 12  1  0  0  0  0
 11 15  2  0  0  0  0
 12 13  1  0  0  0  0
 12 33  1  0  0  0  0
 12 34  1  0  0  0  0
 13 14  1  0  0  0  0
 13 35  1  0  0  0  0
 13 36  1  0  0  0  0
 14 37  1  0  0  0  0
 15 16  1  0  0  0  0
 16 21  2  0  0  0  0
 16 17  1  0  0  0  0
 17 18  2  0  0  0  0
 17 38  1  0  0  0  0
 18 19  1  0  0  0  0
 18 39  1  0  0  0  0
 19 20  2  0  0  0  0
 19 40  1  0  0  0  0
 20 21  1  0  0  0  0
 20 41  1  0  0  0  0
 22 42  1  0  0  0  0
M  END
> <s_m_source_file>
AV-unprocessed.smi

> <i_m_source_file_index>
463

> <i_lp_mmshare_version>
43012

> <i_f3d_flags>
0

> <s_epik_input>
W0NIM11jMVtjSF1bY0hdW2NIXWMoW2NIXTEpT1tDSDJdW0NIMl1uKGMobjIpW0NIMl1bQ0gyXVtPSF0pYyhjMjMpW2NIXVtjSF1bY0hdW2NIXTM=

> <s_epik_cmdline>
J2VwaWtfcHl0aG9uJywgJy1waCcsICc3LjAnLCAnLXRuJywgJzgnLCAnLW1hJywgJzIwMCcsICctbWV0YWxfYmluZGluZycsICctaW1hZScsICc8aW5maWxlLm1hZT4nLCAnLW9tYWUnLCAnPG91dGZpbGUubWFlPic=

> <r_lp_tautomer_probability>
1

> <r_epik_Ionization_Penalty>
0.206757

> <r_epik_Ionization_Penalty_Charging>
0

> <r_epik_Ionization_Penalty_Neutral>
0.206757

> <r_epik_State_Penalty>
0.196743

> <r_epik_Charging_Adjusted_Penalty>
0.196743

> <i_epik_Tot_Q>
0

> <i_epik_Tot_abs_Q>
0

> <r_epik_Metal_State_Penalty>
0.000233299

> <b_epik_Metal_Only>
0

> <s_lp_Force_Field>
OPLS_2005

> <r_lp_Energy>
15.5684

> <b_lp_Chiralities_Consistent>
1

> <s_lp_Variant>
AV-unprocessed.smi:463-1

> <Gold.Version>
5.8.1

> <Gold.Id.Protein>
6NUR|6NUR_protein|mol2

> <Gold.PLP.Fitness>
55.8021

> <Gold.PLP.PLP>
-54.4219

> <Gold.PLP.part.hbond>
-1.0000

> <Gold.PLP.part.metal>
0.0000

> <Gold.PLP.part.buried>
-4.1900

> <Gold.PLP.part.nonpolar>
-49.1116

> <Gold.PLP.part.repulsive>
0.2952

> <Gold.PLP.ligand.clash>
0.0000

> <Gold.PLP.ligand.torsion>
0.8635

> <Gold.PLP.Chemscore.Hbond>
1.0000

> <Gold.PLP.Chemscore.CHOScore>
0.0000

> <Gold.PLP.Chemscore.Metal>
0.0000

> <Gold.PLP.Chemscore.Internal.Correction>
0.1073

> <Gold.Rescore>
     Score         DG    S(hbond)    S(metal)    S(lipo)     H(rot)  DE(clash)    DE(int)     intcor
     17.83     -18.68       0.72        0.00     142.11       2.28       0.06       0.80       ----

> <Gold.Chemscore.Fitness>
17.8252

> <Gold.Chemscore.DG>
-18.6798

> <Gold.Chemscore.ZeroCoef>
-5.4800

> <Gold.Chemscore.Hbond>
0.7232

> <Gold.Chemscore.Metal>
0.0000

> <Gold.Chemscore.Lipo>
142.1071

> <Gold.Chemscore.Internal_Hbond>
0.0000

> <Gold.Chemscore.DEClash>
0.0562

> <Gold.Chemscore.DEInternal>
0.7984

> <Gold.Chemscore.Rot>
2.2821

> <Gold.Chemscore.Internal.Correction>
   9.000000E+99

> <Gold.Chemscore.Hbond.Weighted>
-2.4154

> <Gold.Chemscore.Metal.Weighted>
-0.0000

> <Gold.Chemscore.Lipo.Weighted>
-16.6265

> <Gold.Chemscore.Internal_Hbond.Weighted>
0.0000

> <Gold.Chemscore.DEClash.Weighted>
0.0562

> <Gold.Chemscore.DEInternal.Weighted>
0.7984

> <Gold.Chemscore.Rot.Weighted>
5.8421

> <Gold.Chemscore.Internal.Correction.Weighted>
   9.000000E+99

> <Gold.Protein.RotatedTorsions>
[ 6907 6896 6895 6894 ] final -124.07 input  -60.11 | X-H torsion
[ 7974 7965 7964 7962 ] final  110.21 input  175.53 | X-H torsion
[ 8008 7997 7996 7995 ] final  -22.09 input   59.86 | X-H torsion
[ 10167 10162 10161 10158 ] final  -41.95 input  -65.29 | X-H torsion
[ 10718 10713 10712 10709 ] final    3.58 input   66.30 | X-H torsion
[ 10763 10752 10751 10750 ] final -122.00 input  -60.55 | X-H torsion
[ 11005 11000 10999 10996 ] final   54.03 input  -57.11 | X-H torsion

> <Gold.Protein.ActiveResidues>
 VAL166  LYS551  ARG553  GLY616  TRP617  ASP618  TYR619  PRO620  LYS621  CYS622 
 ASP623  PHE694  ASN695  SER759  ASP760  ASP761  ALA762  ILE779  LEU786  VAL792 
 PHE793  MET794  SER795  GLU796  ALA797  LYS798  CYS799  TRP800  GLU811  SER814 

> <Gold.Protein.RotatedAtoms>
  150.8732  133.7475  159.2954 H   0  0  0  0  0  0  0  0  0  0  0  0  # atno 6907 bound_to 6896
  151.5080  135.1062  159.9856 H   0  0  0  0  0  0  0  0  0  0  0  0  # atno 6908 bound_to 6896
  152.4710  133.7984  159.6995 H   0  0  0  0  0  0  0  0  0  0  0  0  # atno 6909 bound_to 6896
  145.2579  139.2714  143.4032 H   0  0  0  0  0  0  0  0  0  0  0  0  # atno 7974 bound_to 7965
  154.4665  140.2017  156.0104 H   0  0  0  0  0  0  0  0  0  0  0  0  # atno 8008 bound_to 7997
  156.0936  140.3254  155.7819 H   0  0  0  0  0  0  0  0  0  0  0  0  # atno 8009 bound_to 7997
  155.4915  140.0546  157.2943 H   0  0  0  0  0  0  0  0  0  0  0  0  # atno 8010 bound_to 7997
  140.6986  143.3065  151.3139 H   0  0  0  0  0  0  0  0  0  0  0  0  # atno 10167 bound_to 10162
  156.8798  130.5650  149.5653 H   0  0  0  0  0  0  0  0  0  0  0  0  # atno 10718 bound_to 10713
  154.8680  135.4148  154.2711 H   0  0  0  0  0  0  0  0  0  0  0  0  # atno 10763 bound_to 10752
  153.3621  135.7004  153.6709 H   0  0  0  0  0  0  0  0  0  0  0  0  # atno 10764 bound_to 10752
  153.5606  135.3611  155.2770 H   0  0  0  0  0  0  0  0  0  0  0  0  # atno 10765 bound_to 10752
  140.0719  134.5458  155.9037 H   0  0  0  0  0  0  0  0  0  0  0  0  # atno 11005 bound_to 11000
  146.3284  140.2988  142.8619 LP  0  0  0  0  0  0  0  0  0  0  0  0  # atno 17320 bound_to 7965
  144.9444  140.8113  143.5610 LP  0  0  0  0  0  0  0  0  0  0  0  0  # atno 17321 bound_to 7965
  139.6473  144.0427  152.2600 LP  0  0  0  0  0  0  0  0  0  0  0  0  # atno 17342 bound_to 10162
  139.9952  144.6333  150.7778 LP  0  0  0  0  0  0  0  0  0  0  0  0  # atno 17343 bound_to 10162
  156.0683  130.5721  150.9332 LP  0  0  0  0  0  0  0  0  0  0  0  0  # atno 17370 bound_to 10713
  157.6147  131.0934  150.8732 LP  0  0  0  0  0  0  0  0  0  0  0  0  # atno 17371 bound_to 10713
  141.2015  133.6619  156.5954 LP  0  0  0  0  0  0  0  0  0  0  0  0  # atno 17394 bound_to 11000
  140.3614  134.7684  157.4536 LP  0  0  0  0  0  0  0  0  0  0  0  0  # atno 17395 bound_to 11000

$$$$
