AV-unprocessed.smi:3112|AV-procd|sdf|11843|dock6
  -GOLD-   2272017223D 1   1.00000     0.00000
 Structure written by MMmdl.
 37 37  0  0  0  0  0  0  0  0  2 V2000
  146.6501  140.6085  154.4729 C   0  0  0  0  0  0  0  0  0  0  0  0
  148.0964  140.3239  154.0449 C   0  0  0  0  0  0  0  0  0  0  0  0
  149.1019  141.3783  154.5419 C   0  0  1  0  0  0  0  0  0  0  0  0
  148.6308  142.6634  154.1851 O   0  0  0  0  0  0  0  0  0  0  0  0
  149.2725  141.3345  156.0693 C   0  0  0  0  0  0  0  0  0  0  0  0
  150.3118  142.2847  156.5185 N   0  3  0  0  0  0  0  0  0  0  0  0
  150.9238  141.9726  157.8295 C   0  0  1  0  0  0  0  0  0  0  0  0
  151.5670  140.5759  157.7517 C   0  0  0  0  0  0  0  0  0  0  0  0
  151.9275  143.0843  158.2383 C   0  0  1  0  0  0  0  0  0  0  0  0
  151.3553  144.5050  158.0803 C   0  0  0  0  0  0  0  0  0  0  0  0
  152.4166  142.9001  159.5991 N   0  0  0  0  0  0  0  0  0  0  0  0
  152.2568  143.7256  160.6947 C   0  0  0  0  0  0  0  0  0  0  0  0
  152.8845  143.1298  161.7506 C   0  0  0  0  0  0  0  0  0  0  0  0
  153.4047  141.9263  161.1985 C   0  0  0  0  0  0  0  0  0  0  0  0
  153.1214  141.7910  159.9131 N   0  0  0  0  0  0  0  0  0  0  0  0
  145.9739  139.8517  154.0748 H   0  0  0  0  0  0  0  0  0  0  0  0
  146.3140  141.5792  154.1071 H   0  0  0  0  0  0  0  0  0  0  0  0
  146.5460  140.6037  155.5581 H   0  0  0  0  0  0  0  0  0  0  0  0
  148.3922  139.3328  154.3914 H   0  0  0  0  0  0  0  0  0  0  0  0
  148.1275  140.2847  152.9554 H   0  0  0  0  0  0  0  0  0  0  0  0
  150.0669  141.2106  154.0617 H   0  0  0  0  0  0  0  0  0  0  0  0
  148.6127  143.2039  154.9609 H   0  0  0  0  0  0  0  0  0  0  0  0
  148.3237  141.5501  156.5627 H   0  0  0  0  0  0  0  0  0  0  0  0
  149.5711  140.3325  156.3804 H   0  0  0  0  0  0  0  0  0  0  0  0
  151.0428  142.2966  155.8219 H   0  0  0  0  0  0  0  0  0  0  0  0
  150.1391  141.9177  158.5863 H   0  0  0  0  0  0  0  0  0  0  0  0
  151.9472  140.2478  158.7194 H   0  0  0  0  0  0  0  0  0  0  0  0
  152.3979  140.5613  157.0457 H   0  0  0  0  0  0  0  0  0  0  0  0
  150.8415  139.8298  157.4256 H   0  0  0  0  0  0  0  0  0  0  0  0
  152.7911  143.0107  157.5739 H   0  0  0  0  0  0  0  0  0  0  0  0
  151.1186  144.7279  157.0400 H   0  0  0  0  0  0  0  0  0  0  0  0
  152.0750  145.2544  158.4116 H   0  0  0  0  0  0  0  0  0  0  0  0
  150.4449  144.6375  158.6655 H   0  0  0  0  0  0  0  0  0  0  0  0
  151.7161  144.6585  160.6327 H   0  0  0  0  0  0  0  0  0  0  0  0
  152.9609  143.4972  162.7633 H   0  0  0  0  0  0  0  0  0  0  0  0
  153.9749  141.1520  161.6901 H   0  0  0  0  0  0  0  0  0  0  0  0
  149.9034  143.2076  156.5676 H   0  0  0  0  0  0  0  0  0  0  0  0
  1  2  1  0  0  0  0
  1 16  1  0  0  0  0
  1 17  1  0  0  0  0
  1 18  1  0  0  0  0
  2  3  1  0  0  0  0
  2 19  1  0  0  0  0
  2 20  1  0  0  0  0
  3  4  1  0  0  0  0
  3  5  1  0  0  0  0
  3 21  1  0  0  0  0
  4 22  1  0  0  0  0
  5  6  1  0  0  0  0
  5 23  1  0  0  0  0
  5 24  1  0  0  0  0
  6  7  1  0  0  0  0
  6 25  1  0  0  0  0
  6 37  1  0  0  0  0
  7  8  1  0  0  0  0
  7  9  1  0  0  0  0
  7 26  1  0  0  0  0
  8 27  1  0  0  0  0
  8 28  1  0  0  0  0
  8 29  1  0  0  0  0
  9 10  1  0  0  0  0
  9 11  1  0  0  0  0
  9 30  1  0  0  0  0
 10 31  1  0  0  0  0
 10 32  1  0  0  0  0
 10 33  1  0  0  0  0
 11 15  1  0  0  0  0
 11 12  1  0  0  0  0
 12 13  2  0  0  0  0
 12 34  1  0  0  0  0
 13 14  1  0  0  0  0
 13 35  1  0  0  0  0
 14 15  2  0  0  0  0
 14 36  1  0  0  0  0
M  CHG  1   6   1
M  END
> <s_m_source_file>
AV-unprocessed.smi

> <i_m_source_file_index>
3112

> <i_lp_mmshare_version>
43012

> <i_f3d_flags>
0

> <s_epik_input>
W0NIM11bQ0gyXVtDQEhdKFtPSF0pW0NIMl1bTkhdW0NASF0oW0NIM10pW0NASF0oW0NIM10pbjFbY0hdW2NIXVtjSF1uMQ==

> <s_epik_cmdline>
J2VwaWtfcHl0aG9uJywgJy1waCcsICc3LjAnLCAnLXRuJywgJzgnLCAnLW1hJywgJzIwMCcsICctbWV0YWxfYmluZGluZycsICctaW1hZScsICc8aW5maWxlLm1hZT4nLCAnLW9tYWUnLCAnPG91dGZpbGUubWFlPic=

> <r_lp_tautomer_probability>
1

> <r_epik_Ionization_Penalty>
0.0154842

> <r_epik_Ionization_Penalty_Charging>
0.0154724

> <r_epik_Ionization_Penalty_Neutral>
1.17979e-05

> <r_epik_State_Penalty>
0.0121607

> <r_epik_Charging_Adjusted_Penalty>
0.0276331

> <i_epik_Tot_Q>
1

> <i_epik_Tot_abs_Q>
1

> <r_epik_Metal_State_Penalty>
0.0121863

> <b_epik_Metal_Only>
0

> <s_lp_Force_Field>
OPLS_2005

> <r_lp_Energy>
13.9739

> <b_lp_Chiralities_Consistent>
1

> <s_lp_Variant>
AV-unprocessed.smi:3112-8

> <Gold.Version>
5.8.1

> <Gold.Id.Protein>
6NUR|6NUR_protein|mol2

> <Gold.PLP.Fitness>
47.2687

> <Gold.PLP.PLP>
-38.7718

> <Gold.PLP.part.hbond>
-3.7678

> <Gold.PLP.part.metal>
0.0000

> <Gold.PLP.part.buried>
-3.6393

> <Gold.PLP.part.nonpolar>
-30.6765

> <Gold.PLP.part.repulsive>
0.0701

> <Gold.PLP.ligand.clash>
0.0000

> <Gold.PLP.ligand.torsion>
0.3367

> <Gold.PLP.Chemscore.Hbond>
3.0156

> <Gold.PLP.Chemscore.CHOScore>
0.0000

> <Gold.PLP.Chemscore.Metal>
0.0000

> <Gold.Chemscore.Hbonds>
donor molecule, donor type, donor heavy atom, donor atom, acceptor molecule, acceptor atom, score
      L1  H     4    22       P1  8028  0.94
      L1  H     6    37       P1  8028  1.97
      P1  H  8011  8017       L1     4  0.01

> <Gold.PLP.Chemscore.Internal.Correction>
0.1234

> <Gold.Rescore>
     Score         DG    S(hbond)    S(metal)    S(lipo)     H(rot)  DE(clash)    DE(int)     intcor
     16.33     -17.08       1.93        0.00      96.74       2.41       0.04       0.71       ----

> <Gold.Chemscore.Fitness>
16.3329

> <Gold.Chemscore.DG>
-17.0796

> <Gold.Chemscore.ZeroCoef>
-5.4800

> <Gold.Chemscore.Hbond>
1.9303

> <Gold.Chemscore.Metal>
0.0000

> <Gold.Chemscore.Lipo>
96.7434

> <Gold.Chemscore.Internal_Hbond>
0.0000

> <Gold.Chemscore.DEClash>
0.0397

> <Gold.Chemscore.DEInternal>
0.7069

> <Gold.Chemscore.Rot>
2.4089

> <Gold.Chemscore.Internal.Correction>
   9.000000E+99

> <Gold.Chemscore.Hbonds>
donor molecule, donor type, donor heavy atom, donor atom, acceptor molecule, acceptor atom, score
      L1  H     4    22       P1  8028  0.91
      L1  H     6    37       P1  8028  0.87

> <Gold.Chemscore.Hbond.Weighted>
-6.4473

> <Gold.Chemscore.Metal.Weighted>
-0.0000

> <Gold.Chemscore.Lipo.Weighted>
-11.3190

> <Gold.Chemscore.Internal_Hbond.Weighted>
0.0000

> <Gold.Chemscore.DEClash.Weighted>
0.0397

> <Gold.Chemscore.DEInternal.Weighted>
0.7069

> <Gold.Chemscore.Rot.Weighted>
6.1667

> <Gold.Chemscore.Internal.Correction.Weighted>
   9.000000E+99

> <Gold.Protein.RotatedTorsions>
[ 6907 6896 6895 6894 ] final   91.38 input  -60.11 | X-H torsion
[ 7974 7965 7964 7962 ] final   54.48 input  175.53 | X-H torsion
[ 8008 7997 7996 7995 ] final -153.24 input   59.86 | X-H torsion
[ 10167 10162 10161 10158 ] final   65.99 input  -65.29 | X-H torsion
[ 10718 10713 10712 10709 ] final -127.41 input   66.30 | X-H torsion
[ 10763 10752 10751 10750 ] final -142.76 input  -60.55 | X-H torsion
[ 11005 11000 10999 10996 ] final   19.12 input  -57.11 | X-H torsion

> <Gold.Protein.ActiveResidues>
 VAL166  LYS551  ARG553  GLY616  TRP617  ASP618  TYR619  PRO620  LYS621  CYS622 
 ASP623  PHE694  ASN695  SER759  ASP760  ASP761  ALA762  ILE779  LEU786  VAL792 
 PHE793  MET794  SER795  GLU796  ALA797  LYS798  CYS799  TRP800  GLU811  SER814 

> <Gold.Protein.RotatedAtoms>
  152.5449  134.1666  159.8579 H   0  0  0  0  0  0  0  0  0  0  0  0  # atno 6907 bound_to 6896
  151.1680  133.4795  159.2601 H   0  0  0  0  0  0  0  0  0  0  0  0  # atno 6908 bound_to 6896
  151.1304  135.0138  159.8635 H   0  0  0  0  0  0  0  0  0  0  0  0  # atno 6909 bound_to 6896
  145.9604  139.4054  143.0251 H   0  0  0  0  0  0  0  0  0  0  0  0  # atno 7974 bound_to 7965
  155.6678  140.0730  157.2531 H   0  0  0  0  0  0  0  0  0  0  0  0  # atno 8008 bound_to 7997
  154.4129  140.1704  156.1897 H   0  0  0  0  0  0  0  0  0  0  0  0  # atno 8009 bound_to 7997
  155.9643  140.3367  155.6521 H   0  0  0  0  0  0  0  0  0  0  0  0  # atno 8010 bound_to 7997
  140.1053  144.4867  150.7011 H   0  0  0  0  0  0  0  0  0  0  0  0  # atno 10167 bound_to 10162
  156.1854  130.6760  151.0358 H   0  0  0  0  0  0  0  0  0  0  0  0  # atno 10718 bound_to 10713
  154.8496  135.3487  154.6080 H   0  0  0  0  0  0  0  0  0  0  0  0  # atno 10763 bound_to 10752
  153.6688  135.6986  153.5158 H   0  0  0  0  0  0  0  0  0  0  0  0  # atno 10764 bound_to 10752
  153.2759  135.4278  155.0989 H   0  0  0  0  0  0  0  0  0  0  0  0  # atno 10765 bound_to 10752
  140.4172  134.1556  155.7670 H   0  0  0  0  0  0  0  0  0  0  0  0  # atno 11005 bound_to 11000
  145.8048  140.9754  143.0980 LP  0  0  0  0  0  0  0  0  0  0  0  0  # atno 17320 bound_to 7965
  144.6814  139.9846  143.7484 LP  0  0  0  0  0  0  0  0  0  0  0  0  # atno 17321 bound_to 7965
  140.6955  143.2401  151.5012 LP  0  0  0  0  0  0  0  0  0  0  0  0  # atno 17342 bound_to 10162
  139.5649  144.2067  152.1749 LP  0  0  0  0  0  0  0  0  0  0  0  0  # atno 17343 bound_to 10162
  157.6895  131.0814  150.7147 LP  0  0  0  0  0  0  0  0  0  0  0  0  # atno 17370 bound_to 10713
  156.7204  130.4679  149.5524 LP  0  0  0  0  0  0  0  0  0  0  0  0  # atno 17371 bound_to 10713
  141.1798  133.8437  157.1297 LP  0  0  0  0  0  0  0  0  0  0  0  0  # atno 17394 bound_to 11000
  140.0226  134.9939  157.0621 LP  0  0  0  0  0  0  0  0  0  0  0  0  # atno 17395 bound_to 11000

$$$$
