#       Name:                AV-unprocessed.smi:14
#       Creating user name   scv26
#       Creation time:       Thu Mar 26 15:20:35 2020


#       File generated by GOLD software.
#

@<TRIPOS>MOLECULE
AV-unprocessed.smi:14
    67    70     1
SMALL
NO_CHARGES


@<TRIPOS>ATOM
      1 ****        -4.4092  -5.6445   0.1115 N.1            1 S1                 0.0000
      2 ****        -3.8590  -4.6483  -0.0973 C.1            1 S1                 0.0000
      3 ****        -3.1604  -3.3821  -0.3620 C.3            1 S1                 0.0000
      4 ****        -3.5859  -2.2686   0.6076 C.3            1 S1                 0.0000
      5 ****        -2.9397  -0.9856   0.3215 N.pl3          1 S1                 0.0000
      6 ****        -3.6872   0.2250   0.6691 C.3            1 S1                 0.0000
      7 ****        -3.7974   0.4810   2.1871 C.3            1 S1                 0.0000
      8 ****        -2.5318   0.9924   2.8517 C.3            1 S1                 0.0000
      9 ****        -3.0682   1.6305   4.1295 C.3            1 S1                 0.0000
     10 ****        -4.3917   2.0622   3.8282 O.3            1 S1                 0.0000
     11 ****        -4.7652   1.6128   2.5304 C.3            1 S1                 0.0000
     12 ****        -1.5852  -0.9010   0.4229 C.ar           1 S1                 0.0000
     13 ****        -0.9169  -1.7750   1.2234 N.ar           1 S1                 0.0000
     14 ****         0.4077  -1.6876   1.3674 C.ar           1 S1                 0.0000
     15 ****         1.2500  -0.8168   0.8111 N.ar           1 S1                 0.0000
     16 ****         0.5938   0.0549  -0.0057 C.ar           1 S1                 0.0000
     17 ****        -0.8089   0.0850  -0.2529 C.ar           1 S1                 0.0000
     18 ****        -1.1058   1.1137  -1.1391 N.2            1 S1                 0.0000
     19 ****         0.0482   1.6698  -1.3849 C.2            1 S1                 0.0000
     20 ****         1.1275   1.0863  -0.7604 N.pl3          1 S1                 0.0000
     21 ****         2.5191   1.5074  -0.8559 C.3            1 S1                 0.0000
     22 ****         3.3365   0.8594  -2.0188 C.3            1 S1                 0.0000
     23 ****         2.6159   1.1552  -3.3645 C.3            1 S1                 0.0000
     24 ****         3.3300   0.7045  -4.4986 O.3            1 S1                 0.0000
     25 ****         4.7616   1.4720  -2.0315 C.3            1 S1                 0.0000
     26 ****         5.6249   0.9943  -0.8490 C.3            1 S1                 0.0000
     27 ****         5.6887  -0.4263  -0.8371 O.3            1 S1                 0.0000
     28 ****         4.4162  -1.0349  -0.6566 C.3            1 S1                 0.0000
     29 ****         3.4890  -0.6726  -1.8318 C.3            1 S1                 0.0000
     30 ****        -2.0912  -3.5816  -0.3018 H              1 S1                 0.0000
     31 ****        -3.3775  -3.0918  -1.3903 H              1 S1                 0.0000
     32 ****        -4.6671  -2.1418   0.5438 H              1 S1                 0.0000
     33 ****        -3.3784  -2.5660   1.6364 H              1 S1                 0.0000
     34 ****        -3.2778   1.1026   0.1724 H              1 S1                 0.0000
     35 ****        -4.6918   0.1130   0.2598 H              1 S1                 0.0000
     36 ****        -4.1320  -0.4222   2.6996 H              1 S1                 0.0000
     37 ****        -1.8025   0.2090   3.0565 H              1 S1                 0.0000
     38 ****        -2.0529   1.7485   2.2274 H              1 S1                 0.0000
     39 ****        -3.1197   0.8926   4.9310 H              1 S1                 0.0000
     40 ****        -2.4468   2.4589   4.4707 H              1 S1                 0.0000
     41 ****        -4.6499   2.4440   1.8329 H              1 S1                 0.0000
     42 ****        -5.8076   1.2943   2.5054 H              1 S1                 0.0000
     43 ****         0.8565  -2.4171   2.0253 H              1 S1                 0.0000
     44 ****         0.1461   2.5228  -2.0407 H              1 S1                 0.0000
     45 ****         2.5213   2.5923  -0.9708 H              1 S1                 0.0000
     46 ****         2.9835   1.3219   0.1114 H              1 S1                 0.0000
     47 ****         1.6375   0.6761  -3.3950 H              1 S1                 0.0000
     48 ****         2.4487   2.2269  -3.4773 H              1 S1                 0.0000
     49 ****         3.4418  -0.2316  -4.4311 H              1 S1                 0.0000
     50 ****         5.2862   1.1941  -2.9459 H              1 S1                 0.0000
     51 ****         4.7090   2.5613  -2.0382 H              1 S1                 0.0000
     52 ****         6.6374   1.3849  -0.9510 H              1 S1                 0.0000
     53 ****         5.2469   1.3639   0.1044 H              1 S1                 0.0000
     54 ****         4.5520  -2.1155  -0.6129 H              1 S1                 0.0000
     55 ****         3.9921  -0.7372   0.3021 H              1 S1                 0.0000
     56 ****         2.5179  -1.1512  -1.7096 H              1 S1                 0.0000
     57 ****         3.9198  -1.1135  -2.7310 H              1 S1                 0.0000
     58 ****        -4.8847  -6.5055   0.2920 LP             1 S1                 0.0000
     59 ****        -4.4289   3.0611   3.8565 LP             1 S1                 0.0000
     60 ****        -5.0250   1.6857   4.5043 LP             1 S1                 0.0000
     61 ****        -1.4221  -2.4890   1.7081 LP             1 S1                 0.0000
     62 ****         2.2369  -0.8047   0.9724 LP             1 S1                 0.0000
     63 ****        -2.0006   1.3694  -1.5050 LP             1 S1                 0.0000
     64 ****         4.2250   1.1493  -4.5321 LP             1 S1                 0.0000
     65 ****         2.8175   0.9238  -5.3288 LP             1 S1                 0.0000
     66 ****         6.2885  -0.7127  -0.0899 LP             1 S1                 0.0000
     67 ****         6.0701  -0.7361  -1.7080 LP             1 S1                 0.0000
@<TRIPOS>BOND
    1    1    2 3     
    2    2    3 1     
    3    3    4 1     
    4    3   30 1     
    5    3   31 1     
    6    4    5 1     
    7    4   32 1     
    8    4   33 1     
    9    5    6 1     
   10    5   12 1     
   11    6    7 1     
   12    6   34 1     
   13    6   35 1     
   14    7   11 1     
   15    7    8 1     
   16    7   36 1     
   17    8    9 1     
   18    8   37 1     
   19    8   38 1     
   20    9   10 1     
   21    9   39 1     
   22    9   40 1     
   23   10   11 1     
   24   11   41 1     
   25   11   42 1     
   26   12   17 ar    
   27   12   13 ar    
   28   13   14 ar    
   29   14   15 ar    
   30   14   43 1     
   31   15   16 ar    
   32   16   20 1     
   33   16   17 ar    
   34   17   18 1     
   35   18   19 2     
   36   19   20 1     
   37   19   44 1     
   38   20   21 1     
   39   21   22 1     
   40   21   45 1     
   41   21   46 1     
   42   22   29 1     
   43   22   23 1     
   44   22   25 1     
   45   23   24 1     
   46   23   47 1     
   47   23   48 1     
   48   24   49 1     
   49   25   26 1     
   50   25   50 1     
   51   25   51 1     
   52   26   27 1     
   53   26   52 1     
   54   26   53 1     
   55   27   28 1     
   56   28   29 1     
   57   28   54 1     
   58   28   55 1     
   59   29   56 1     
   60   29   57 1     
   61    1   58 1     
   62   10   59 1     
   63   10   60 1     
   64   13   61 1     
   65   15   62 1     
   66   18   63 1     
   67   24   64 1     
   68   24   65 1     
   69   27   66 1     
   70   27   67 1     
@<TRIPOS>SUBSTRUCTURE
      1 S1             1
@<TRIPOS>SET
LONE_PAIRS      STATIC     ATOMS    <user>   **** ""
10 58 59 60 61 62 63 64 65 66 67
DONOR_HYDROGENS      STATIC     ATOMS    <user>   **** ""
1 49
ATOM$BLUE        STATIC     ATOMS    COLORGROUP SYSTEM
10 58 59 60 61 62 63 64 65 66 67
ATOM$RED        STATIC     ATOMS    COLORGROUP SYSTEM
1 49
