AV-unprocessed.smi:658|AV-procd|sdf|3235|dock10
  -GOLD-   22720 0183D 1   1.00000     0.00000
 Structure written by MMmdl.
 37 37  0  0  0  0  0  0  0  0  3 V2000
  144.1728  136.6130  151.7965 C   0  0  0  0  0  0  0  0  0  0  0  0
  145.5650  135.9563  151.7912 C   0  0  1  0  0  0  0  0  0  0  0  0
  146.4780  136.7599  152.6336 N   0  3  0  0  0  0  0  0  0  0  0  0
  146.5023  138.2033  152.3219 C   0  0  0  0  0  0  0  0  0  0  0  0
  147.1994  138.9944  153.4341 C   0  0  0  0  0  0  0  0  0  0  0  0
  146.9259  140.5047  153.3441 C   0  0  0  0  0  0  0  0  0  0  0  0
  148.1530  141.4823  154.3121 S   0  0  0  0  0  0  0  0  0  0  0  0
  149.5257  141.0471  153.5847 N   0  5  0  0  0  0  0  0  0  0  0  0
  147.8239  142.8986  154.0889 O   0  0  0  0  0  0  0  0  0  0  0  0
  148.0742  140.9684  155.6873 O   0  0  0  0  0  0  0  0  0  0  0  0
  145.5457  134.4815  152.2751 C   0  0  2  0  0  0  0  0  0  0  0  0
  146.9494  133.9481  152.6212 C   0  0  0  0  0  0  0  0  0  0  0  0
  144.9018  133.5991  151.3104 N   0  0  0  0  0  0  0  0  0  0  0  0
  145.3439  133.2347  150.0548 C   0  0  0  0  0  0  0  0  0  0  0  0
  144.4118  132.3909  149.5223 C   0  0  0  0  0  0  0  0  0  0  0  0
  143.4185  132.3004  150.5368 C   0  0  0  0  0  0  0  0  0  0  0  0
  143.7134  133.0244  151.6042 N   0  0  0  0  0  0  0  0  0  0  0  0
  143.4875  136.1171  151.1088 H   0  0  0  0  0  0  0  0  0  0  0  0
  144.2318  137.6570  151.4874 H   0  0  0  0  0  0  0  0  0  0  0  0
  143.7255  136.5847  152.7907 H   0  0  0  0  0  0  0  0  0  0  0  0
  145.9237  135.9759  150.7603 H   0  0  0  0  0  0  0  0  0  0  0  0
  146.2093  136.6488  153.6007 H   0  0  0  0  0  0  0  0  0  0  0  0
  147.0094  138.3727  151.3709 H   0  0  0  0  0  0  0  0  0  0  0  0
  145.4759  138.5537  152.2058 H   0  0  0  0  0  0  0  0  0  0  0  0
  146.8470  138.6274  154.3986 H   0  0  0  0  0  0  0  0  0  0  0  0
  148.2722  138.8001  153.4074 H   0  0  0  0  0  0  0  0  0  0  0  0
  146.9969  140.8404  152.3099 H   0  0  0  0  0  0  0  0  0  0  0  0
  145.9277  140.7590  153.7017 H   0  0  0  0  0  0  0  0  0  0  0  0
  149.3051  140.3221  152.8916 H   0  0  0  0  0  0  0  0  0  0  0  0
  144.9456  134.4362  153.1856 H   0  0  0  0  0  0  0  0  0  0  0  0
  147.3989  134.5044  153.4438 H   0  0  0  0  0  0  0  0  0  0  0  0
  147.6253  134.0155  151.7680 H   0  0  0  0  0  0  0  0  0  0  0  0
  146.9051  132.9020  152.9268 H   0  0  0  0  0  0  0  0  0  0  0  0
  146.2754  133.5999  149.6481 H   0  0  0  0  0  0  0  0  0  0  0  0
  144.4348  131.9119  148.5547 H   0  0  0  0  0  0  0  0  0  0  0  0
  142.4989  131.7342  150.5296 H   0  0  0  0  0  0  0  0  0  0  0  0
  147.4139  136.3974  152.5195 H   0  0  0  0  0  0  0  0  0  0  0  0
  1  2  1  0  0  0  0
  1 18  1  0  0  0  0
  1 19  1  0  0  0  0
  1 20  1  0  0  0  0
  2  3  1  0  0  0  0
  2 11  1  0  0  0  0
  2 21  1  0  0  0  0
  3  4  1  0  0  0  0
  3 22  1  0  0  0  0
  3 37  1  0  0  0  0
  4  5  1  0  0  0  0
  4 23  1  0  0  0  0
  4 24  1  0  0  0  0
  5  6  1  0  0  0  0
  5 25  1  0  0  0  0
  5 26  1  0  0  0  0
  6  7  1  0  0  0  0
  6 27  1  0  0  0  0
  6 28  1  0  0  0  0
  7  8  1  0  0  0  0
  7  9  2  0  0  0  0
  7 10  2  0  0  0  0
  8 29  1  0  0  0  0
 11 12  1  0  0  0  0
 11 13  1  0  0  0  0
 11 30  1  0  0  0  0
 12 31  1  0  0  0  0
 12 32  1  0  0  0  0
 12 33  1  0  0  0  0
 13 17  1  0  0  0  0
 13 14  1  0  0  0  0
 14 15  2  0  0  0  0
 14 34  1  0  0  0  0
 15 16  1  0  0  0  0
 15 35  1  0  0  0  0
 16 17  2  0  0  0  0
 16 36  1  0  0  0  0
M  CHG  1   3   1
M  CHG  1   8  -1
M  END
> <s_m_source_file>
AV-unprocessed.smi

> <i_m_source_file_index>
658

> <i_lp_mmshare_version>
43012

> <i_f3d_flags>
0

> <s_epik_input>
bjFbY0hdW2NIXVtjSF1uMVtDQEBIXShbQ0gzXSlbQ0BIXShbQ0gzXSlbTkhdW0NIMl1bQ0gyXVtDSDJdUyg9TykoPU8pW05IMl0=

> <s_epik_cmdline>
J2VwaWtfcHl0aG9uJywgJy1waCcsICc3LjAnLCAnLXRuJywgJzgnLCAnLW1hJywgJzIwMCcsICctbWV0YWxfYmluZGluZycsICctaW1hZScsICc8aW5maWxlLm1hZT4nLCAnLW9tYWUnLCAnPG91dGZpbGUubWFlPic=

> <r_lp_tautomer_probability>
1

> <r_epik_Ionization_Penalty>
4.63642

> <r_epik_Ionization_Penalty_Charging>
4.63641

> <r_epik_Ionization_Penalty_Neutral>
1.08396e-05

> <r_epik_State_Penalty>
4.63466

> <r_epik_Charging_Adjusted_Penalty>
9.27106

> <i_epik_Tot_Q>
0

> <i_epik_Tot_abs_Q>
2

> <r_epik_Metal_State_Penalty>
0.890424

> <b_epik_Metal_Only>
1

> <s_lp_Force_Field>
OPLS_2005

> <r_lp_Energy>
-2.21025

> <b_lp_Chiralities_Consistent>
1

> <s_lp_Variant>
AV-unprocessed.smi:658-6

> <Gold.Version>
5.8.1

> <Gold.Id.Protein>
6NUR|6NUR_protein|mol2

> <Gold.PLP.Fitness>
45.8678

> <Gold.PLP.PLP>
-27.6147

> <Gold.PLP.part.hbond>
-5.9291

> <Gold.PLP.part.metal>
0.0000

> <Gold.PLP.part.buried>
1.7143

> <Gold.PLP.part.nonpolar>
-26.0598

> <Gold.PLP.part.repulsive>
3.9906

> <Gold.PLP.ligand.clash>
0.0000

> <Gold.PLP.ligand.torsion>
0.4743

> <Gold.PLP.Chemscore.Hbond>
4.7823

> <Gold.PLP.Chemscore.CHOScore>
1.5747

> <Gold.PLP.Chemscore.Metal>
0.0000

> <Gold.Chemscore.Hbonds>
donor molecule, donor type, donor heavy atom, donor atom, acceptor molecule, acceptor atom, score
      L1  H     3    37       P1  7948  2.00
      L1  H     8    29       P1  7957  0.74
      P1  H  7989  7998       L1     8  0.20
      P1  H  8011  8017       L1     8  0.75
      P1  H  8022  8030       L1     9  0.77
      L1  C    14    34       P1  7921  0.31
      L1  C    16    36       P1 10952  1.00

> <Gold.PLP.Chemscore.Internal.Correction>
0.1307

> <Gold.Rescore>
     Score         DG    S(hbond)    S(metal)    S(lipo)     H(rot)  DE(clash)    DE(int)     intcor
     11.74     -14.86       2.73        0.00      68.73       3.04       2.58       0.54       ----

> <Gold.Chemscore.Fitness>
11.7351

> <Gold.Chemscore.DG>
-14.8591

> <Gold.Chemscore.ZeroCoef>
-5.4800

> <Gold.Chemscore.Hbond>
2.7312

> <Gold.Chemscore.Metal>
0.0000

> <Gold.Chemscore.Lipo>
68.7335

> <Gold.Chemscore.Internal_Hbond>
0.0000

> <Gold.Chemscore.DEClash>
2.5811

> <Gold.Chemscore.DEInternal>
0.5429

> <Gold.Chemscore.Rot>
3.0409

> <Gold.Chemscore.Internal.Correction>
   9.000000E+99

> <Gold.Chemscore.Hbonds>
donor molecule, donor type, donor heavy atom, donor atom, acceptor molecule, acceptor atom, score
      L1  H     3    37       P1  7948  0.99
      L1  H     8    29       P1  7957  0.74
      P1  H  7989  7998       L1     8  0.04
      P1  H  8011  8017       L1     8  0.04
      P1  H  8022  8030       L1     9  0.74

> <Gold.Chemscore.Hbond.Weighted>
-9.1221

> <Gold.Chemscore.Metal.Weighted>
-0.0000

> <Gold.Chemscore.Lipo.Weighted>
-8.0418

> <Gold.Chemscore.Internal_Hbond.Weighted>
0.0000

> <Gold.Chemscore.DEClash.Weighted>
2.5811

> <Gold.Chemscore.DEInternal.Weighted>
0.5429

> <Gold.Chemscore.Rot.Weighted>
7.7848

> <Gold.Chemscore.Internal.Correction.Weighted>
   9.000000E+99

> <Gold.Protein.RotatedTorsions>
[ 6907 6896 6895 6894 ] final  -46.12 input  -60.11 | X-H torsion
[ 7974 7965 7964 7962 ] final  150.52 input  175.53 | X-H torsion
[ 8008 7997 7996 7995 ] final   51.92 input   59.86 | X-H torsion
[ 10167 10162 10161 10158 ] final   25.93 input  -65.29 | X-H torsion
[ 10718 10713 10712 10709 ] final  -72.16 input   66.30 | X-H torsion
[ 10763 10752 10751 10750 ] final   49.46 input  -60.55 | X-H torsion
[ 11005 11000 10999 10996 ] final  -93.24 input  -57.11 | X-H torsion

> <Gold.Protein.ActiveResidues>
 VAL166  LYS551  ARG553  GLY616  TRP617  ASP618  TYR619  PRO620  LYS621  CYS622 
 ASP623  PHE694  ASN695  SER759  ASP760  ASP761  ALA762  ILE779  LEU786  VAL792 
 PHE793  MET794  SER795  GLU796  ALA797  LYS798  CYS799  TRP800  GLU811  SER814 

> <Gold.Protein.RotatedAtoms>
  150.9147  134.8564  159.7448 H   0  0  0  0  0  0  0  0  0  0  0  0  # atno 6907 bound_to 6896
  152.4962  134.4307  159.9521 H   0  0  0  0  0  0  0  0  0  0  0  0  # atno 6908 bound_to 6896
  151.4347  133.3621  159.2808 H   0  0  0  0  0  0  0  0  0  0  0  0  # atno 6909 bound_to 6896
  144.8358  139.6419  143.6038 H   0  0  0  0  0  0  0  0  0  0  0  0  # atno 7974 bound_to 7965
  155.4433  140.3455  155.4292 H   0  0  0  0  0  0  0  0  0  0  0  0  # atno 8008 bound_to 7997
  156.1265  140.1502  156.9158 H   0  0  0  0  0  0  0  0  0  0  0  0  # atno 8009 bound_to 7997
  154.4862  140.0854  156.7471 H   0  0  0  0  0  0  0  0  0  0  0  0  # atno 8010 bound_to 7997
  140.5065  144.0230  150.6354 H   0  0  0  0  0  0  0  0  0  0  0  0  # atno 10167 bound_to 10162
  156.0332  130.4366  150.2551 H   0  0  0  0  0  0  0  0  0  0  0  0  # atno 10718 bound_to 10713
  152.9787  135.5911  154.4093 H   0  0  0  0  0  0  0  0  0  0  0  0  # atno 10763 bound_to 10752
  154.3730  135.2767  155.2257 H   0  0  0  0  0  0  0  0  0  0  0  0  # atno 10764 bound_to 10752
  154.4204  135.6060  153.6061 H   0  0  0  0  0  0  0  0  0  0  0  0  # atno 10765 bound_to 10752
  141.1502  133.7874  157.0132 H   0  0  0  0  0  0  0  0  0  0  0  0  # atno 11005 bound_to 11000
  146.2657  139.6514  142.9331 LP  0  0  0  0  0  0  0  0  0  0  0  0  # atno 17320 bound_to 7965
  145.4798  141.0437  143.2652 LP  0  0  0  0  0  0  0  0  0  0  0  0  # atno 17321 bound_to 7965
  140.3541  143.2946  152.0455 LP  0  0  0  0  0  0  0  0  0  0  0  0  # atno 17342 bound_to 10162
  139.4885  144.6352  151.6990 LP  0  0  0  0  0  0  0  0  0  0  0  0  # atno 17343 bound_to 10162
  157.0652  131.0101  151.3209 LP  0  0  0  0  0  0  0  0  0  0  0  0  # atno 17370 bound_to 10713
  157.5040  130.7897  149.7635 LP  0  0  0  0  0  0  0  0  0  0  0  0  # atno 17371 bound_to 10713
  140.0864  134.9618  157.1706 LP  0  0  0  0  0  0  0  0  0  0  0  0  # atno 17394 bound_to 11000
  140.3506  134.2603  155.7199 LP  0  0  0  0  0  0  0  0  0  0  0  0  # atno 17395 bound_to 11000

$$$$
