AV-unprocessed.smi:2462|AV-procd|sdf|9717|dock3
  -GOLD-   2272013353D 1   1.00000     0.00000
 Structure written by MMmdl.
 40 41  0  0  0  0  0  0  0  0  1 V2000
  152.1884  138.0147  154.2138 C   0  0  0  0  0  0  0  0  0  0  0  0
  151.7166  138.9385  155.3224 C   0  0  0  0  0  0  0  0  0  0  0  0
  151.1238  140.1316  154.9028 N   0  0  0  0  0  0  0  0  0  0  0  0
  150.7155  140.9906  155.7783 C   0  0  0  0  0  0  0  0  0  0  0  0
  150.8607  140.7721  157.1596 N   0  0  0  0  0  0  0  0  0  0  0  0
  150.3623  141.8518  158.0396 C   0  0  0  0  0  0  0  0  0  0  0  0
  151.2724  143.1186  158.1304 C   0  0  1  0  0  0  0  0  0  0  0  0
  151.0761  143.8524  156.9358 O   0  0  0  0  0  0  0  0  0  0  0  0
  150.7950  144.0724  159.2527 C   0  0  0  0  0  0  0  0  0  0  0  0
  151.1929  143.5936  160.6604 C   0  0  0  0  0  0  0  0  0  0  0  0
  152.7116  143.3704  160.7728 C   0  0  1  0  0  0  0  0  0  0  0  0
  153.1068  142.8924  162.1771 C   0  0  0  0  0  0  0  0  0  0  0  0
  153.1873  142.3869  159.6890 C   0  0  0  0  0  0  0  0  0  0  0  0
  152.7930  142.8574  158.2781 C   0  0  0  0  0  0  0  0  0  0  0  0
  151.3624  139.5999  157.6514 C   0  0  0  0  0  0  0  0  0  0  0  0
  151.4063  139.3634  158.8596 O   0  0  0  0  0  0  0  0  0  0  0  0
  151.8469  138.6422  156.6438 C   0  0  0  0  0  0  0  0  0  0  0  0
  152.4806  137.3562  157.1602 C   0  0  0  0  0  0  0  0  0  0  0  0
  151.6748  137.0547  154.2721 H   0  0  0  0  0  0  0  0  0  0  0  0
  153.2621  137.8424  154.2915 H   0  0  0  0  0  0  0  0  0  0  0  0
  151.9895  138.4410  153.2296 H   0  0  0  0  0  0  0  0  0  0  0  0
  150.2345  141.9297  155.5005 H   0  0  0  0  0  0  0  0  0  0  0  0
  149.3564  142.1405  157.7271 H   0  0  0  0  0  0  0  0  0  0  0  0
  150.2058  141.4580  159.0431 H   0  0  0  0  0  0  0  0  0  0  0  0
  150.2047  143.6764  156.6154 H   0  0  0  0  0  0  0  0  0  0  0  0
  151.2284  145.0627  159.1021 H   0  0  0  0  0  0  0  0  0  0  0  0
  149.7136  144.2082  159.2002 H   0  0  0  0  0  0  0  0  0  0  0  0
  150.8738  144.3334  161.3953 H   0  0  0  0  0  0  0  0  0  0  0  0
  150.6631  142.6744  160.9101 H   0  0  0  0  0  0  0  0  0  0  0  0
  153.2067  144.3271  160.6000 H   0  0  0  0  0  0  0  0  0  0  0  0
  152.6423  141.9350  162.4156 H   0  0  0  0  0  0  0  0  0  0  0  0
  152.7988  143.6107  162.9373 H   0  0  0  0  0  0  0  0  0  0  0  0
  154.1869  142.7677  162.2599 H   0  0  0  0  0  0  0  0  0  0  0  0
  154.2705  142.2736  159.7413 H   0  0  0  0  0  0  0  0  0  0  0  0
  152.7714  141.4016  159.8866 H   0  0  0  0  0  0  0  0  0  0  0  0
  153.1480  142.1467  157.5317 H   0  0  0  0  0  0  0  0  0  0  0  0
  153.3344  143.7828  158.0750 H   0  0  0  0  0  0  0  0  0  0  0  0
  153.3413  137.5875  157.7886 H   0  0  0  0  0  0  0  0  0  0  0  0
  152.8238  136.6964  156.3651 H   0  0  0  0  0  0  0  0  0  0  0  0
  151.7626  136.7980  157.7618 H   0  0  0  0  0  0  0  0  0  0  0  0
  1  2  1  0  0  0  0
  1 19  1  0  0  0  0
  1 20  1  0  0  0  0
  1 21  1  0  0  0  0
  2 17  2  0  0  0  0
  2  3  1  0  0  0  0
  3  4  2  0  0  0  0
  4  5  1  0  0  0  0
  4 22  1  0  0  0  0
  5  6  1  0  0  0  0
  5 15  1  0  0  0  0
  6  7  1  0  0  0  0
  6 23  1  0  0  0  0
  6 24  1  0  0  0  0
  7 14  1  0  0  0  0
  7  8  1  0  0  0  0
  7  9  1  0  0  0  0
  8 25  1  0  0  0  0
  9 10  1  0  0  0  0
  9 26  1  0  0  0  0
  9 27  1  0  0  0  0
 10 11  1  0  0  0  0
 10 28  1  0  0  0  0
 10 29  1  0  0  0  0
 11 12  1  0  0  0  0
 11 13  1  0  0  0  0
 11 30  1  0  0  0  0
 12 31  1  0  0  0  0
 12 32  1  0  0  0  0
 12 33  1  0  0  0  0
 13 14  1  0  0  0  0
 13 34  1  0  0  0  0
 13 35  1  0  0  0  0
 14 36  1  0  0  0  0
 14 37  1  0  0  0  0
 15 16  2  0  0  0  0
 15 17  1  0  0  0  0
 17 18  1  0  0  0  0
 18 38  1  0  0  0  0
 18 39  1  0  0  0  0
 18 40  1  0  0  0  0
M  END
> <s_m_source_file>
AV-unprocessed.smi

> <i_m_source_file_index>
2462

> <i_lp_mmshare_version>
43012

> <i_f3d_flags>
0

> <s_epik_input>
W0NIM11jMW5bY0hdbihjKD1PKWMxW0NIM10pW0NIMl1bQ0BAXTIoW09IXSlbQ0gyXVtDSDJdW0NAQEhdKFtDSDNdKVtDSDJdW0NIMl0y

> <s_epik_cmdline>
J2VwaWtfcHl0aG9uJywgJy1waCcsICc3LjAnLCAnLXRuJywgJzgnLCAnLW1hJywgJzIwMCcsICctbWV0YWxfYmluZGluZycsICctaW1hZScsICc8aW5maWxlLm1hZT4nLCAnLW9tYWUnLCAnPG91dGZpbGUubWFlPic=

> <r_lp_tautomer_probability>
1

> <r_epik_Ionization_Penalty>
0.000179745

> <r_epik_Ionization_Penalty_Charging>
2.35483e-07

> <r_epik_Ionization_Penalty_Neutral>
0.00017951

> <r_epik_State_Penalty>
-0

> <r_epik_Charging_Adjusted_Penalty>
2.35483e-07

> <i_epik_Tot_Q>
0

> <i_epik_Tot_abs_Q>
0

> <r_epik_Metal_State_Penalty>
-0

> <b_epik_Metal_Only>
0

> <s_lp_Force_Field>
OPLS_2005

> <r_lp_Energy>
24.5365

> <b_lp_Chiralities_Consistent>
1

> <s_lp_Variant>
AV-unprocessed.smi:2462-1

> <Gold.Version>
5.8.1

> <Gold.Id.Protein>
6NUR|6NUR_protein|mol2

> <Gold.PLP.Fitness>
47.0692

> <Gold.PLP.PLP>
-39.1007

> <Gold.PLP.part.hbond>
-2.3980

> <Gold.PLP.part.metal>
0.0000

> <Gold.PLP.part.buried>
-4.6808

> <Gold.PLP.part.nonpolar>
-31.5549

> <Gold.PLP.part.repulsive>
0.0738

> <Gold.PLP.ligand.clash>
0.0000

> <Gold.PLP.ligand.torsion>
0.3267

> <Gold.PLP.Chemscore.Hbond>
1.8480

> <Gold.PLP.Chemscore.CHOScore>
1.0000

> <Gold.PLP.Chemscore.Metal>
0.0000

> <Gold.Chemscore.Hbonds>
donor molecule, donor type, donor heavy atom, donor atom, acceptor molecule, acceptor atom, score
      L1  H     8    25       P1  8028  0.66
      P1  H  7989  7998       L1     3  1.00

> <Gold.PLP.Chemscore.Internal.Correction>
0.0780

> <Gold.Rescore>
     Score         DG    S(hbond)    S(metal)    S(lipo)     H(rot)  DE(clash)    DE(int)     intcor
     19.48     -19.99       1.84        0.00     108.11       1.68       0.13       0.39       ----

> <Gold.Chemscore.Fitness>
19.4822

> <Gold.Chemscore.DG>
-19.9949

> <Gold.Chemscore.ZeroCoef>
-5.4800

> <Gold.Chemscore.Hbond>
1.8432

> <Gold.Chemscore.Metal>
0.0000

> <Gold.Chemscore.Lipo>
108.1071

> <Gold.Chemscore.Internal_Hbond>
0.0000

> <Gold.Chemscore.DEClash>
0.1255

> <Gold.Chemscore.DEInternal>
0.3872

> <Gold.Chemscore.Rot>
1.6758

> <Gold.Chemscore.Internal.Correction>
   9.000000E+99

> <Gold.Chemscore.Hbonds>
donor molecule, donor type, donor heavy atom, donor atom, acceptor molecule, acceptor atom, score
      L1  H     8    25       P1  8028  0.66
      P1  H  7989  7998       L1     3  0.80

> <Gold.Chemscore.Hbond.Weighted>
-6.1563

> <Gold.Chemscore.Metal.Weighted>
-0.0000

> <Gold.Chemscore.Lipo.Weighted>
-12.6485

> <Gold.Chemscore.Internal_Hbond.Weighted>
0.0000

> <Gold.Chemscore.DEClash.Weighted>
0.1255

> <Gold.Chemscore.DEInternal.Weighted>
0.3872

> <Gold.Chemscore.Rot.Weighted>
4.2899

> <Gold.Chemscore.Internal.Correction.Weighted>
   9.000000E+99

> <Gold.Protein.RotatedTorsions>
[ 6907 6896 6895 6894 ] final  -50.28 input  -60.11 | X-H torsion
[ 7974 7965 7964 7962 ] final  -96.83 input  175.53 | X-H torsion
[ 8008 7997 7996 7995 ] final  -64.47 input   59.86 | X-H torsion
[ 10167 10162 10161 10158 ] final  100.64 input  -65.29 | X-H torsion
[ 10718 10713 10712 10709 ] final   35.89 input   66.30 | X-H torsion
[ 10763 10752 10751 10750 ] final  170.71 input  -60.55 | X-H torsion
[ 11005 11000 10999 10996 ] final  151.62 input  -57.11 | X-H torsion

> <Gold.Protein.ActiveResidues>
 VAL166  LYS551  ARG553  GLY616  TRP617  ASP618  TYR619  PRO620  LYS621  CYS622 
 ASP623  PHE694  ASN695  SER759  ASP760  ASP761  ALA762  ILE779  LEU786  VAL792 
 PHE793  MET794  SER795  GLU796  ALA797  LYS798  CYS799  TRP800  GLU811  SER814 

> <Gold.Protein.RotatedAtoms>
  150.8722  134.8098  159.7163 H   0  0  0  0  0  0  0  0  0  0  0  0  # atno 6907 bound_to 6896
  152.4722  134.4928  159.9710 H   0  0  0  0  0  0  0  0  0  0  0  0  # atno 6908 bound_to 6896
  151.5015  133.3465  159.2905 H   0  0  0  0  0  0  0  0  0  0  0  0  # atno 6909 bound_to 6896
  145.3417  140.9461  143.2604 H   0  0  0  0  0  0  0  0  0  0  0  0  # atno 7974 bound_to 7965
  154.4614  140.0953  156.6902 H   0  0  0  0  0  0  0  0  0  0  0  0  # atno 8008 bound_to 7997
  155.4984  140.3473  155.4348 H   0  0  0  0  0  0  0  0  0  0  0  0  # atno 8009 bound_to 7997
  156.0876  140.1389  156.9622 H   0  0  0  0  0  0  0  0  0  0  0  0  # atno 8010 bound_to 7997
  139.7509  144.6984  151.0434 H   0  0  0  0  0  0  0  0  0  0  0  0  # atno 10167 bound_to 10162
  157.3282  130.7483  149.6829 H   0  0  0  0  0  0  0  0  0  0  0  0  # atno 10718 bound_to 10713
  154.4015  135.2755  155.2093 H   0  0  0  0  0  0  0  0  0  0  0  0  # atno 10763 bound_to 10752
  154.4117  135.6021  153.5960 H   0  0  0  0  0  0  0  0  0  0  0  0  # atno 10764 bound_to 10752
  152.9831  135.5951  154.4284 H   0  0  0  0  0  0  0  0  0  0  0  0  # atno 10765 bound_to 10752
  140.1235  134.8848  157.2105 H   0  0  0  0  0  0  0  0  0  0  0  0  # atno 11005 bound_to 11000
  144.8785  139.4937  143.6734 LP  0  0  0  0  0  0  0  0  0  0  0  0  # atno 17320 bound_to 7965
  146.3005  139.7410  142.9095 LP  0  0  0  0  0  0  0  0  0  0  0  0  # atno 17321 bound_to 7965
  140.7797  143.4810  151.0018 LP  0  0  0  0  0  0  0  0  0  0  0  0  # atno 17342 bound_to 10162
  139.8498  143.7453  152.3178 LP  0  0  0  0  0  0  0  0  0  0  0  0  # atno 17343 bound_to 10162
  155.9693  130.4203  150.4416 LP  0  0  0  0  0  0  0  0  0  0  0  0  # atno 17370 bound_to 10713
  157.2444  131.0532  151.2417 LP  0  0  0  0  0  0  0  0  0  0  0  0  # atno 17371 bound_to 10713
  140.2934  134.3214  155.7309 LP  0  0  0  0  0  0  0  0  0  0  0  0  # atno 17394 bound_to 11000
  141.2156  133.7548  156.9537 LP  0  0  0  0  0  0  0  0  0  0  0  0  # atno 17395 bound_to 11000

$$$$
