AV-unprocessed.smi:2496|AV-procd|sdf|9826|dock4
  -GOLD-   2272013453D 1   1.00000     0.00000
 Structure written by MMmdl.
 40 40  0  0  0  0  0  0  0  0  1 V2000
  151.3464  139.3173  156.2442 C   0  0  0  0  0  0  0  0  0  0  0  0
  150.3281  139.9812  155.3618 C   0  0  0  0  0  0  0  0  0  0  0  0
  150.3984  139.8076  154.0513 N   0  0  0  0  0  0  0  0  0  0  0  0
  149.3585  140.5130  153.5768 N   0  0  0  0  0  0  0  0  0  0  0  0
  148.6268  141.1302  154.5636 C   0  0  0  0  0  0  0  0  0  0  0  0
  147.4233  141.9537  154.2425 C   0  0  0  0  0  0  0  0  0  0  0  0
  149.2318  140.8106  155.7530 C   0  0  0  0  0  0  0  0  0  0  0  0
  148.8518  141.2010  157.1676 C   0  0  1  0  0  0  0  0  0  0  0  0
  148.2960  140.0057  157.9644 C   0  0  0  0  0  0  0  0  0  0  0  0
  150.0504  141.8796  157.8512 C   0  0  0  0  0  0  0  0  0  0  0  0
  151.0070  141.2181  158.2564 O   0  0  0  0  0  0  0  0  0  0  0  0
  149.9812  143.2161  157.9628 N   0  0  0  0  0  0  0  0  0  0  0  0
  151.0323  144.0914  158.4757 C   0  0  2  0  0  0  0  0  0  0  0  0
  152.0537  144.3477  157.3524 C   0  0  0  0  0  0  0  0  0  0  0  0
  151.6586  143.4698  159.7522 C   0  0  0  0  0  0  0  0  0  0  0  0
  151.8962  144.5192  160.8575 C   0  0  0  0  0  0  0  0  0  0  0  0
  152.9746  142.7286  159.4563 C   0  0  0  0  0  0  0  0  0  0  0  0
  149.1594  140.5626  152.5877 H   0  0  0  0  0  0  0  0  0  0  0  0
  150.8625  138.6765  156.9813 H   0  0  0  0  0  0  0  0  0  0  0  0
  151.9354  140.0590  156.7842 H   0  0  0  0  0  0  0  0  0  0  0  0
  152.0382  138.6979  155.6720 H   0  0  0  0  0  0  0  0  0  0  0  0
  146.6327  141.7937  154.9753 H   0  0  0  0  0  0  0  0  0  0  0  0
  147.0218  141.6987  153.2615 H   0  0  0  0  0  0  0  0  0  0  0  0
  147.6720  143.0148  154.2390 H   0  0  0  0  0  0  0  0  0  0  0  0
  148.0605  141.9511  157.1433 H   0  0  0  0  0  0  0  0  0  0  0  0
  149.0301  139.2072  158.0711 H   0  0  0  0  0  0  0  0  0  0  0  0
  147.4203  139.5850  157.4696 H   0  0  0  0  0  0  0  0  0  0  0  0
  147.9888  140.3073  158.9663 H   0  0  0  0  0  0  0  0  0  0  0  0
  149.1535  143.6700  157.6046 H   0  0  0  0  0  0  0  0  0  0  0  0
  150.5900  145.0491  158.7567 H   0  0  0  0  0  0  0  0  0  0  0  0
  152.7938  145.0932  157.6413 H   0  0  0  0  0  0  0  0  0  0  0  0
  151.5623  144.7243  156.4545 H   0  0  0  0  0  0  0  0  0  0  0  0
  152.5841  143.4343  157.0811 H   0  0  0  0  0  0  0  0  0  0  0  0
  150.9555  142.7373  160.1517 H   0  0  0  0  0  0  0  0  0  0  0  0
  152.5495  145.3192  160.5077 H   0  0  0  0  0  0  0  0  0  0  0  0
  152.3639  144.0687  161.7332 H   0  0  0  0  0  0  0  0  0  0  0  0
  150.9655  144.9744  161.1972 H   0  0  0  0  0  0  0  0  0  0  0  0
  153.7080  143.3915  158.9966 H   0  0  0  0  0  0  0  0  0  0  0  0
  152.8220  141.8814  158.7884 H   0  0  0  0  0  0  0  0  0  0  0  0
  153.4152  142.3319  160.3714 H   0  0  0  0  0  0  0  0  0  0  0  0
  1  2  1  0  0  0  0
  1 19  1  0  0  0  0
  1 20  1  0  0  0  0
  1 21  1  0  0  0  0
  2  7  1  0  0  0  0
  2  3  2  0  0  0  0
  3  4  1  0  0  0  0
  4 18  1  0  0  0  0
  4  5  1  0  0  0  0
  5  6  1  0  0  0  0
  5  7  2  0  0  0  0
  6 22  1  0  0  0  0
  6 23  1  0  0  0  0
  6 24  1  0  0  0  0
  7  8  1  0  0  0  0
  8  9  1  0  0  0  0
  8 10  1  0  0  0  0
  8 25  1  0  0  0  0
  9 26  1  0  0  0  0
  9 27  1  0  0  0  0
  9 28  1  0  0  0  0
 10 11  2  0  0  0  0
 10 12  1  0  0  0  0
 12 13  1  0  0  0  0
 12 29  1  0  0  0  0
 13 14  1  0  0  0  0
 13 15  1  0  0  0  0
 13 30  1  0  0  0  0
 14 31  1  0  0  0  0
 14 32  1  0  0  0  0
 14 33  1  0  0  0  0
 15 16  1  0  0  0  0
 15 17  1  0  0  0  0
 15 34  1  0  0  0  0
 16 35  1  0  0  0  0
 16 36  1  0  0  0  0
 16 37  1  0  0  0  0
 17 38  1  0  0  0  0
 17 39  1  0  0  0  0
 17 40  1  0  0  0  0
M  END
> <s_m_source_file>
AV-unprocessed.smi

> <i_m_source_file_index>
2496

> <i_lp_mmshare_version>
43012

> <i_f3d_flags>
0

> <s_epik_input>
W0NIM11jMW5bbkhdYyhbQ0gzXSljMVtDQEhdKFtDSDNdKUMoPU8pW05IXVtDQEhdKFtDSDNdKVtDSF0oW0NIM10pW0NIM10=

> <s_epik_cmdline>
J2VwaWtfcHl0aG9uJywgJy1waCcsICc3LjAnLCAnLXRuJywgJzgnLCAnLW1hJywgJzIwMCcsICctbWV0YWxfYmluZGluZycsICctaW1hZScsICc8aW5maWxlLm1hZT4nLCAnLW9tYWUnLCAnPG91dGZpbGUubWFlPic=

> <r_lp_tautomer_probability>
1

> <r_epik_Ionization_Penalty>
0.000456212

> <r_epik_Ionization_Penalty_Charging>
0

> <r_epik_Ionization_Penalty_Neutral>
0.000456212

> <r_epik_State_Penalty>
-0

> <r_epik_Charging_Adjusted_Penalty>
0

> <i_epik_Tot_Q>
0

> <i_epik_Tot_abs_Q>
0

> <r_epik_Metal_State_Penalty>
-0

> <b_epik_Metal_Only>
0

> <s_lp_Force_Field>
OPLS_2005

> <r_lp_Energy>
1.41326

> <b_lp_Chiralities_Consistent>
1

> <s_lp_Variant>
AV-unprocessed.smi:2496-2

> <Gold.Version>
5.8.1

> <Gold.Id.Protein>
6NUR|6NUR_protein|mol2

> <Gold.PLP.Fitness>
36.3210

> <Gold.PLP.PLP>
-33.5833

> <Gold.PLP.part.hbond>
-2.7679

> <Gold.PLP.part.metal>
0.0000

> <Gold.PLP.part.buried>
-5.6699

> <Gold.PLP.part.nonpolar>
-28.7970

> <Gold.PLP.part.repulsive>
2.9192

> <Gold.PLP.ligand.clash>
0.0000

> <Gold.PLP.ligand.torsion>
1.7885

> <Gold.PLP.Chemscore.Hbond>
2.0679

> <Gold.PLP.Chemscore.CHOScore>
0.0000

> <Gold.PLP.Chemscore.Metal>
0.0000

> <Gold.Chemscore.Hbonds>
donor molecule, donor type, donor heavy atom, donor atom, acceptor molecule, acceptor atom, score
      L1  H     4    18       P1  7957  0.90
      L1  H    12    29       P1  8028  0.31
      P1  H  7989  7998       L1     3  0.80

> <Gold.PLP.Chemscore.Internal.Correction>
0.1108

> <Gold.Rescore>
     Score         DG    S(hbond)    S(metal)    S(lipo)     H(rot)  DE(clash)    DE(int)     intcor
      9.97     -16.57       1.14        0.00      94.23       1.47       0.80       5.80       ----

> <Gold.Chemscore.Fitness>
9.9742

> <Gold.Chemscore.DG>
-16.5738

> <Gold.Chemscore.ZeroCoef>
-5.4800

> <Gold.Chemscore.Hbond>
1.1444

> <Gold.Chemscore.Metal>
0.0000

> <Gold.Chemscore.Lipo>
94.2304

> <Gold.Chemscore.Internal_Hbond>
0.0000

> <Gold.Chemscore.DEClash>
0.7959

> <Gold.Chemscore.DEInternal>
5.8037

> <Gold.Chemscore.Rot>
1.4662

> <Gold.Chemscore.Internal.Correction>
   9.000000E+99

> <Gold.Chemscore.Hbonds>
donor molecule, donor type, donor heavy atom, donor atom, acceptor molecule, acceptor atom, score
      L1  H     4    18       P1  7957  0.86
      L1  H    12    29       P1  8028  0.07
      P1  H  7989  7998       L1     3  0.07

> <Gold.Chemscore.Hbond.Weighted>
-3.8223

> <Gold.Chemscore.Metal.Weighted>
-0.0000

> <Gold.Chemscore.Lipo.Weighted>
-11.0250

> <Gold.Chemscore.Internal_Hbond.Weighted>
0.0000

> <Gold.Chemscore.DEClash.Weighted>
0.7959

> <Gold.Chemscore.DEInternal.Weighted>
5.8037

> <Gold.Chemscore.Rot.Weighted>
3.7534

> <Gold.Chemscore.Internal.Correction.Weighted>
   9.000000E+99

> <Gold.Protein.RotatedTorsions>
[ 6907 6896 6895 6894 ] final  128.39 input  -60.11 | X-H torsion
[ 7974 7965 7964 7962 ] final  129.57 input  175.53 | X-H torsion
[ 8008 7997 7996 7995 ] final -105.95 input   59.86 | X-H torsion
[ 10167 10162 10161 10158 ] final  126.45 input  -65.29 | X-H torsion
[ 10718 10713 10712 10709 ] final -158.65 input   66.30 | X-H torsion
[ 10763 10752 10751 10750 ] final -176.33 input  -60.55 | X-H torsion
[ 11005 11000 10999 10996 ] final -155.29 input  -57.11 | X-H torsion

> <Gold.Protein.ActiveResidues>
 VAL166  LYS551  ARG553  GLY616  TRP617  ASP618  TYR619  PRO620  LYS621  CYS622 
 ASP623  PHE694  ASN695  SER759  ASP760  ASP761  ALA762  ILE779  LEU786  VAL792 
 PHE793  MET794  SER795  GLU796  ALA797  LYS798  CYS799  TRP800  GLU811  SER814 

> <Gold.Protein.RotatedAtoms>
  152.3724  133.6436  159.6097 H   0  0  0  0  0  0  0  0  0  0  0  0  # atno 6907 bound_to 6896
  150.7678  133.9248  159.3418 H   0  0  0  0  0  0  0  0  0  0  0  0  # atno 6908 bound_to 6896
  151.7069  135.0921  160.0312 H   0  0  0  0  0  0  0  0  0  0  0  0  # atno 6909 bound_to 6896
  145.0273  139.4078  143.5167 H   0  0  0  0  0  0  0  0  0  0  0  0  # atno 7974 bound_to 7965
  154.9074  140.0411  157.1927 H   0  0  0  0  0  0  0  0  0  0  0  0  # atno 8008 bound_to 7997
  154.8383  140.2910  155.5655 H   0  0  0  0  0  0  0  0  0  0  0  0  # atno 8009 bound_to 7997
  156.2991  140.2487  156.3320 H   0  0  0  0  0  0  0  0  0  0  0  0  # atno 8010 bound_to 7997
  139.5630  144.6894  151.3988 H   0  0  0  0  0  0  0  0  0  0  0  0  # atno 10167 bound_to 10162
  156.5570  130.8630  151.2798 H   0  0  0  0  0  0  0  0  0  0  0  0  # atno 10718 bound_to 10713
  154.5737  135.2830  155.0802 H   0  0  0  0  0  0  0  0  0  0  0  0  # atno 10763 bound_to 10752
  154.2165  135.6398  153.5135 H   0  0  0  0  0  0  0  0  0  0  0  0  # atno 10764 bound_to 10752
  153.0065  135.5504  154.6368 H   0  0  0  0  0  0  0  0  0  0  0  0  # atno 10765 bound_to 10752
  140.6881  134.4071  157.5221 H   0  0  0  0  0  0  0  0  0  0  0  0  # atno 11005 bound_to 11000
  146.3494  139.9803  142.8696 LP  0  0  0  0  0  0  0  0  0  0  0  0  # atno 17320 bound_to 7965
  145.1817  140.9770  143.4262 LP  0  0  0  0  0  0  0  0  0  0  0  0  # atno 17321 bound_to 7965
  140.6912  143.7857  150.7258 LP  0  0  0  0  0  0  0  0  0  0  0  0  # atno 17342 bound_to 10162
  140.1340  143.4500  152.2236 LP  0  0  0  0  0  0  0  0  0  0  0  0  # atno 17343 bound_to 10162
  157.7376  130.9799  150.2203 LP  0  0  0  0  0  0  0  0  0  0  0  0  # atno 17370 bound_to 10713
  156.2833  130.3736  149.7914 LP  0  0  0  0  0  0  0  0  0  0  0  0  # atno 17371 bound_to 10713
  139.8931  134.8738  156.2237 LP  0  0  0  0  0  0  0  0  0  0  0  0  # atno 17394 bound_to 11000
  141.0263  133.7013  156.1354 LP  0  0  0  0  0  0  0  0  0  0  0  0  # atno 17395 bound_to 11000

$$$$
