AV-unprocessed.smi:287|AV-procd|sdf|2189|dock2
  -GOLD-   2262021573D 1   1.00000     0.00000
 Structure written by MMmdl.
 55 58  0  0  0  0  0  0  0  0  1 V2000
  147.6959  137.0058  163.7115 C   0  0  0  0  0  0  0  0  0  0  0  0
  147.7186  136.3159  162.3909 C   0  0  0  0  0  0  0  0  0  0  0  0
  147.1264  135.1870  161.9051 C   0  0  0  0  0  0  0  0  0  0  0  0
  147.5481  135.0326  160.5507 C   0  0  0  0  0  0  0  0  0  0  0  0
  147.1440  133.9025  159.6129 C   0  0  1  0  0  0  0  0  0  0  0  0
  148.3211  132.9300  159.4312 C   0  0  0  0  0  0  0  0  0  0  0  0
  146.0837  133.1171  160.1228 O   0  0  0  0  0  0  0  0  0  0  0  0
  146.6666  134.4219  158.2367 C   0  0  0  0  0  0  0  0  0  0  0  0
  147.7632  134.6295  157.2960 N   0  0  0  0  0  0  0  0  0  0  0  0
  147.6017  134.3300  155.9904 C   0  0  0  0  0  0  0  0  0  0  0  0
  148.5434  133.6236  155.3140 N   0  0  0  0  0  0  0  0  0  0  0  0
  148.3614  133.3423  154.0216 C   0  0  0  0  0  0  0  0  0  0  0  0
  147.3343  133.6684  153.2347 N   0  0  0  0  0  0  0  0  0  0  0  0
  146.3809  134.3799  153.9048 C   0  0  0  0  0  0  0  0  0  0  0  0
  146.4451  134.7435  155.2804 C   0  0  0  0  0  0  0  0  0  0  0  0
  145.3094  135.4557  155.6355 N   0  0  0  0  0  0  0  0  0  0  0  0
  144.6143  135.5055  154.5325 C   0  0  0  0  0  0  0  0  0  0  0  0
  145.1850  134.8992  153.4338 N   0  0  0  0  0  0  0  0  0  0  0  0
  144.5683  134.8043  152.0642 C   0  0  2  0  0  0  0  0  0  0  0  0
  143.9413  133.5669  151.9493 O   0  0  0  0  0  0  0  0  0  0  0  0
  144.7966  132.6639  151.2684 C   0  0  1  0  0  0  0  0  0  0  0  0
  143.9841  131.5070  150.6601 C   0  0  0  0  0  0  0  0  0  0  0  0
  143.1373  131.9445  149.6168 O   0  0  0  0  0  0  0  0  0  0  0  0
  145.6134  133.5271  150.2915 C   0  0  2  0  0  0  0  0  0  0  0  0
  146.9367  133.0381  150.2033 O   0  0  0  0  0  0  0  0  0  0  0  0
  145.5904  134.9273  150.9162 C   0  0  1  0  0  0  0  0  0  0  0  0
  145.1635  135.8773  149.9604 O   0  0  0  0  0  0  0  0  0  0  0  0
  148.3656  136.1118  160.3134 C   0  0  0  0  0  0  0  0  0  0  0  0
  149.1342  136.5910  159.1262 C   0  0  0  0  0  0  0  0  0  0  0  0
  148.4768  136.8920  161.4247 O   0  0  0  0  0  0  0  0  0  0  0  0
  143.8237  135.6016  152.0623 H   0  0  0  0  0  0  0  0  0  0  0  0
  145.4531  132.2400  152.0282 H   0  0  0  0  0  0  0  0  0  0  0  0
  145.1678  133.5393  149.2964 H   0  0  0  0  0  0  0  0  0  0  0  0
  146.5600  135.2484  151.2969 H   0  0  0  0  0  0  0  0  0  0  0  0
  147.1282  136.4291  164.4420 H   0  0  0  0  0  0  0  0  0  0  0  0
  147.2354  137.9901  163.6254 H   0  0  0  0  0  0  0  0  0  0  0  0
  148.7071  137.1360  164.0973 H   0  0  0  0  0  0  0  0  0  0  0  0
  146.4694  134.5357  162.4625 H   0  0  0  0  0  0  0  0  0  0  0  0
  149.1888  133.4352  159.0051 H   0  0  0  0  0  0  0  0  0  0  0  0
  148.0619  132.1078  158.7631 H   0  0  0  0  0  0  0  0  0  0  0  0
  148.6296  132.4975  160.3840 H   0  0  0  0  0  0  0  0  0  0  0  0
  146.1046  132.2738  159.6969 H   0  0  0  0  0  0  0  0  0  0  0  0
  146.0049  133.6738  157.7974 H   0  0  0  0  0  0  0  0  0  0  0  0
  146.0776  135.3342  158.3439 H   0  0  0  0  0  0  0  0  0  0  0  0
  148.6543  134.8748  157.7044 H   0  0  0  0  0  0  0  0  0  0  0  0
  149.1523  132.7778  153.5499 H   0  0  0  0  0  0  0  0  0  0  0  0
  143.6521  135.9953  154.4900 H   0  0  0  0  0  0  0  0  0  0  0  0
  144.6626  130.7587  150.2504 H   0  0  0  0  0  0  0  0  0  0  0  0
  143.3893  131.0122  151.4280 H   0  0  0  0  0  0  0  0  0  0  0  0
  142.2453  131.7301  149.8439 H   0  0  0  0  0  0  0  0  0  0  0  0
  147.4900  133.7335  149.8799 H   0  0  0  0  0  0  0  0  0  0  0  0
  145.5225  135.6371  149.1195 H   0  0  0  0  0  0  0  0  0  0  0  0
  148.4845  136.6809  158.2553 H   0  0  0  0  0  0  0  0  0  0  0  0
  149.9377  135.8962  158.8808 H   0  0  0  0  0  0  0  0  0  0  0  0
  149.5806  137.5683  159.3125 H   0  0  0  0  0  0  0  0  0  0  0  0
  1  2  1  0  0  0  0
  1 35  1  0  0  0  0
  1 36  1  0  0  0  0
  1 37  1  0  0  0  0
  2 30  1  0  0  0  0
  2  3  2  0  0  0  0
  3  4  1  0  0  0  0
  3 38  1  0  0  0  0
  4  5  1  0  0  0  0
  4 28  2  0  0  0  0
  5  6  1  0  0  0  0
  5  7  1  0  0  0  0
  5  8  1  0  0  0  0
  6 39  1  0  0  0  0
  6 40  1  0  0  0  0
  6 41  1  0  0  0  0
  7 42  1  0  0  0  0
  8  9  1  0  0  0  0
  8 43  1  0  0  0  0
  8 44  1  0  0  0  0
  9 10  1  0  0  0  0
  9 45  1  0  0  0  0
 10 15  1  0  0  0  0
 10 11  2  0  0  0  0
 11 12  1  0  0  0  0
 12 13  2  0  0  0  0
 12 46  1  0  0  0  0
 13 14  1  0  0  0  0
 14 18  1  0  0  0  0
 14 15  2  0  0  0  0
 15 16  1  0  0  0  0
 16 17  2  0  0  0  0
 17 18  1  0  0  0  0
 17 47  1  0  0  0  0
 18 19  1  0  0  0  0
 19 31  1  0  0  0  0
 19 26  1  0  0  0  0
 19 20  1  0  0  0  0
 20 21  1  0  0  0  0
 21 32  1  0  0  0  0
 21 22  1  0  0  0  0
 21 24  1  0  0  0  0
 22 23  1  0  0  0  0
 22 48  1  0  0  0  0
 22 49  1  0  0  0  0
 23 50  1  0  0  0  0
 24 33  1  0  0  0  0
 24 25  1  0  0  0  0
 24 26  1  0  0  0  0
 25 51  1  0  0  0  0
 26 34  1  0  0  0  0
 26 27  1  0  0  0  0
 27 52  1  0  0  0  0
 28 29  1  0  0  0  0
 28 30  1  0  0  0  0
 29 53  1  0  0  0  0
 29 54  1  0  0  0  0
 29 55  1  0  0  0  0
M  END
> <s_m_source_file>
AV-unprocessed.smi

> <i_m_source_file_index>
287

> <i_lp_mmshare_version>
43012

> <i_f3d_flags>
0

> <s_epik_input>
W0NIM11jMVtjSF1jKGMobzEpW0NIM10pW0NAQF0oW0NIM10pKFtPSF0pW0NIMl1bTkhdYyhuW2NIXW4yKWMoYzIzKW5bY0hdbjNbQ0BASF00T1tDQEhdKFtDSDJdW09IXSlbQ0BASF0oW09IXSlbQ0BIXTRbT0hd

> <s_epik_cmdline>
J2VwaWtfcHl0aG9uJywgJy1waCcsICc3LjAnLCAnLXRuJywgJzgnLCAnLW1hJywgJzIwMCcsICctbWV0YWxfYmluZGluZycsICctaW1hZScsICc8aW5maWxlLm1hZT4nLCAnLW9tYWUnLCAnPG91dGZpbGUubWFlPic=

> <r_lp_tautomer_probability>
1

> <r_epik_Ionization_Penalty>
0.000992612

> <r_epik_Ionization_Penalty_Charging>
0

> <r_epik_Ionization_Penalty_Neutral>
0.000992612

> <r_epik_State_Penalty>
-0

> <r_epik_Charging_Adjusted_Penalty>
0

> <i_epik_Tot_Q>
0

> <i_epik_Tot_abs_Q>
0

> <r_epik_Metal_State_Penalty>
-0

> <b_epik_Metal_Only>
0

> <s_epik_Chemistry_Notes>
This compound contains an acetal/aminal-like group ( X-CH(R)-Y where X, Y are N, S, or O) that may be acid/base labile, releasing an aldehyde.

> <s_lp_Force_Field>
OPLS_2005

> <r_lp_Energy>
40.6201

> <b_lp_Chiralities_Consistent>
1

> <s_lp_Variant>
AV-unprocessed.smi:287-13

> <Gold.Version>
5.8.1

> <Gold.Id.Protein>
6NUR|6NUR_protein|mol2

> <Gold.PLP.Fitness>
45.4395

> <Gold.PLP.PLP>
-40.2925

> <Gold.PLP.part.hbond>
-7.7316

> <Gold.PLP.part.metal>
0.0000

> <Gold.PLP.part.buried>
-4.8121

> <Gold.PLP.part.nonpolar>
-28.7025

> <Gold.PLP.part.repulsive>
0.3328

> <Gold.PLP.ligand.clash>
0.0000

> <Gold.PLP.ligand.torsion>
2.0861

> <Gold.PLP.Chemscore.Hbond>
3.0520

> <Gold.PLP.Chemscore.CHOScore>
0.0000

> <Gold.PLP.Chemscore.Metal>
0.0000

> <Gold.Chemscore.Hbonds>
donor molecule, donor type, donor heavy atom, donor atom, acceptor molecule, acceptor atom, score
      L1  H    23    50       P1 10952  0.86
      L1  H    27    52       P1  7921  1.00
      P1  H  6931  6943       L1    30  1.00
      P1  H 10785 10796       L1    23  0.17

> <Gold.PLP.Chemscore.Internal.Correction>
0.1632

> <Gold.Rescore>
     Score         DG    S(hbond)    S(metal)    S(lipo)     H(rot)  DE(clash)    DE(int)     intcor
      8.00     -11.75       2.89        0.00      86.23       5.27       0.68       3.07       ----

> <Gold.Chemscore.Fitness>
8.0041

> <Gold.Chemscore.DG>
-11.7541

> <Gold.Chemscore.ZeroCoef>
-5.4800

> <Gold.Chemscore.Hbond>
2.8949

> <Gold.Chemscore.Metal>
0.0000

> <Gold.Chemscore.Lipo>
86.2321

> <Gold.Chemscore.Internal_Hbond>
0.0000

> <Gold.Chemscore.DEClash>
0.6784

> <Gold.Chemscore.DEInternal>
3.0716

> <Gold.Chemscore.Rot>
5.2672

> <Gold.Chemscore.Internal.Correction>
   9.000000E+99

> <Gold.Chemscore.Hbonds>
donor molecule, donor type, donor heavy atom, donor atom, acceptor molecule, acceptor atom, score
      L1  H    23    50       P1 10952  0.80
      L1  H    27    52       P1  7921  1.00
      P1  H  6931  6943       L1    30  0.74

> <Gold.Chemscore.Hbond.Weighted>
-9.6689

> <Gold.Chemscore.Metal.Weighted>
-0.0000

> <Gold.Chemscore.Lipo.Weighted>
-10.0892

> <Gold.Chemscore.Internal_Hbond.Weighted>
0.0000

> <Gold.Chemscore.DEClash.Weighted>
0.6784

> <Gold.Chemscore.DEInternal.Weighted>
3.0716

> <Gold.Chemscore.Rot.Weighted>
13.4839

> <Gold.Chemscore.Internal.Correction.Weighted>
   9.000000E+99

> <Gold.Protein.RotatedTorsions>
[ 6907 6896 6895 6894 ] final -138.64 input  -60.11 | X-H torsion
[ 7974 7965 7964 7962 ] final   78.12 input  175.53 | X-H torsion
[ 8008 7997 7996 7995 ] final  130.83 input   59.86 | X-H torsion
[ 10167 10162 10161 10158 ] final  -99.22 input  -65.29 | X-H torsion
[ 10718 10713 10712 10709 ] final  -51.92 input   66.30 | X-H torsion
[ 10763 10752 10751 10750 ] final  102.46 input  -60.55 | X-H torsion
[ 11005 11000 10999 10996 ] final  -17.45 input  -57.11 | X-H torsion

> <Gold.Protein.ActiveResidues>
 VAL166  LYS551  ARG553  GLY616  TRP617  ASP618  TYR619  PRO620  LYS621  CYS622 
 ASP623  PHE694  ASN695  SER759  ASP760  ASP761  ALA762  ILE779  LEU786  VAL792 
 PHE793  MET794  SER795  GLU796  ALA797  LYS798  CYS799  TRP800  GLU811  SER814 

> <Gold.Protein.RotatedAtoms>
  151.0376  133.5735  159.2654 H   0  0  0  0  0  0  0  0  0  0  0  0  # atno 6907 bound_to 6896
  151.2793  135.0708  159.9173 H   0  0  0  0  0  0  0  0  0  0  0  0  # atno 6908 bound_to 6896
  152.5357  134.0093  159.7985 H   0  0  0  0  0  0  0  0  0  0  0  0  # atno 6909 bound_to 6896
  145.6812  139.2524  143.1813 H   0  0  0  0  0  0  0  0  0  0  0  0  # atno 7974 bound_to 7965
  156.2961  140.2586  156.2826 H   0  0  0  0  0  0  0  0  0  0  0  0  # atno 8008 bound_to 7997
  154.9587  140.0393  157.2198 H   0  0  0  0  0  0  0  0  0  0  0  0  # atno 8009 bound_to 7997
  154.7967  140.2821  155.5956 H   0  0  0  0  0  0  0  0  0  0  0  0  # atno 8010 bound_to 7997
  140.2647  143.3384  152.0592 H   0  0  0  0  0  0  0  0  0  0  0  0  # atno 10167 bound_to 10162
  156.1667  130.4149  149.9709 H   0  0  0  0  0  0  0  0  0  0  0  0  # atno 10718 bound_to 10713
  153.3399  135.4010  155.1563 H   0  0  0  0  0  0  0  0  0  0  0  0  # atno 10763 bound_to 10752
  154.8641  135.3631  154.5359 H   0  0  0  0  0  0  0  0  0  0  0  0  # atno 10764 bound_to 10752
  153.5804  135.7076  153.5525 H   0  0  0  0  0  0  0  0  0  0  0  0  # atno 10765 bound_to 10752
  140.8170  133.8097  155.9620 H   0  0  0  0  0  0  0  0  0  0  0  0  # atno 11005 bound_to 11000
  146.0963  140.7597  142.9571 LP  0  0  0  0  0  0  0  0  0  0  0  0  # atno 17320 bound_to 7965
  144.7025  140.3716  143.7144 LP  0  0  0  0  0  0  0  0  0  0  0  0  # atno 17321 bound_to 7965
  139.5006  144.6696  151.6275 LP  0  0  0  0  0  0  0  0  0  0  0  0  # atno 17342 bound_to 10162
  140.5938  143.9733  150.6341 LP  0  0  0  0  0  0  0  0  0  0  0  0  # atno 17343 bound_to 10162
  156.7522  130.9119  151.3638 LP  0  0  0  0  0  0  0  0  0  0  0  0  # atno 17370 bound_to 10713
  157.6773  130.9106  150.0181 LP  0  0  0  0  0  0  0  0  0  0  0  0  # atno 17371 bound_to 10713
  140.9139  134.2226  157.4969 LP  0  0  0  0  0  0  0  0  0  0  0  0  # atno 17394 bound_to 11000
  139.8710  134.9762  156.4913 LP  0  0  0  0  0  0  0  0  0  0  0  0  # atno 17395 bound_to 11000

$$$$
