AV-unprocessed.smi:1483|AV-procd|sdf|5992|dock1
  -GOLD-   22720 6 83D 1   1.00000     0.00000
 Structure written by MMmdl.
 50 51  0  0  0  0  0  0  0  0  3 V2000
  151.3706  143.1139  157.5770 C   0  0  0  0  0  0  0  0  0  0  0  0
  150.9005  141.9854  156.6839 C   0  0  0  0  0  0  0  0  0  0  0  0
  151.4136  140.6751  156.7926 C   0  0  0  0  0  0  0  0  0  0  0  0
  150.9276  139.6712  155.9293 C   0  0  0  0  0  0  0  0  0  0  0  0
  149.9382  139.9964  154.9749 C   0  0  0  0  0  0  0  0  0  0  0  0
  149.3950  138.9389  154.0303 C   0  0  0  0  0  0  0  0  0  0  0  0
  147.9486  138.6004  154.3912 C   0  0  0  0  0  0  0  0  0  0  0  0
  147.3626  139.2598  155.2487 O   0  0  0  0  0  0  0  0  0  0  0  0
  147.3888  137.5810  153.7205 N   0  0  0  0  0  0  0  0  0  0  0  0
  146.0152  137.1016  153.8763 C   0  0  2  0  0  0  0  0  0  0  0  0
  145.9904  135.5884  154.1523 C   0  0  0  0  0  0  0  0  0  0  0  0
  146.3810  134.7657  152.9112 C   0  0  0  0  0  0  0  0  0  0  0  0
  145.5199  135.1050  151.7472 N   0  3  2  0  0  0  0  0  0  0  0  0
  145.7702  134.2453  150.5611 C   0  0  0  0  0  0  0  0  0  0  0  0
  145.2025  132.8179  150.7177 C   0  0  0  0  0  0  0  0  0  0  0  0
  145.5021  131.9781  149.4668 C   0  0  0  0  0  0  0  0  0  0  0  0
  143.6917  132.8299  151.0061 C   0  0  0  0  0  0  0  0  0  0  0  0
  145.5923  136.5521  151.4184 C   0  0  0  0  0  0  0  0  0  0  0  0
  145.1839  137.4208  152.6221 C   0  0  0  0  0  0  0  0  0  0  0  0
  149.4611  141.3242  154.9142 C   0  0  0  0  0  0  0  0  0  0  0  0
  149.9531  142.2572  155.7583 N   0  3  0  0  0  0  0  0  0  0  0  0
  152.3071  142.8562  158.0727 H   0  0  0  0  0  0  0  0  0  0  0  0
  150.6243  143.3246  158.3434 H   0  0  0  0  0  0  0  0  0  0  0  0
  151.5346  144.0224  156.9963 H   0  0  0  0  0  0  0  0  0  0  0  0
  152.1693  140.4402  157.5283 H   0  0  0  0  0  0  0  0  0  0  0  0
  151.3123  138.6643  156.0006 H   0  0  0  0  0  0  0  0  0  0  0  0
  149.4543  139.2863  152.9977 H   0  0  0  0  0  0  0  0  0  0  0  0
  150.0092  138.0397  154.0952 H   0  0  0  0  0  0  0  0  0  0  0  0
  147.9598  137.1032  153.0386 H   0  0  0  0  0  0  0  0  0  0  0  0
  145.5461  137.6045  154.7236 H   0  0  0  0  0  0  0  0  0  0  0  0
  146.6488  135.3451  154.9872 H   0  0  0  0  0  0  0  0  0  0  0  0
  144.9863  135.3000  154.4661 H   0  0  0  0  0  0  0  0  0  0  0  0
  147.4272  134.9410  152.6558 H   0  0  0  0  0  0  0  0  0  0  0  0
  146.2930  133.7073  153.1526 H   0  0  0  0  0  0  0  0  0  0  0  0
  145.3129  134.6962  149.6789 H   0  0  0  0  0  0  0  0  0  0  0  0
  146.8425  134.2140  150.3613 H   0  0  0  0  0  0  0  0  0  0  0  0
  145.6984  132.3233  151.5523 H   0  0  0  0  0  0  0  0  0  0  0  0
  145.0258  132.3997  148.5811 H   0  0  0  0  0  0  0  0  0  0  0  0
  145.1404  130.9560  149.5834 H   0  0  0  0  0  0  0  0  0  0  0  0
  146.5739  131.9249  149.2736 H   0  0  0  0  0  0  0  0  0  0  0  0
  143.1387  133.3238  150.2063 H   0  0  0  0  0  0  0  0  0  0  0  0
  143.4658  133.3494  151.9374 H   0  0  0  0  0  0  0  0  0  0  0  0
  143.3030  131.8154  151.1006 H   0  0  0  0  0  0  0  0  0  0  0  0
  146.6028  136.8031  151.0916 H   0  0  0  0  0  0  0  0  0  0  0  0
  144.9267  136.7729  150.5830 H   0  0  0  0  0  0  0  0  0  0  0  0
  144.1290  137.2491  152.8412 H   0  0  0  0  0  0  0  0  0  0  0  0
  145.2711  138.4784  152.3688 H   0  0  0  0  0  0  0  0  0  0  0  0
  148.7093  141.6667  154.2178 H   0  0  0  0  0  0  0  0  0  0  0  0
  144.5647  134.9295  152.0256 H   0  0  0  0  0  0  0  0  0  0  0  0
  149.5935  143.2100  155.6942 H   0  0  0  0  0  0  0  0  0  0  0  0
  1  2  1  0  0  0  0
  1 22  1  0  0  0  0
  1 23  1  0  0  0  0
  1 24  1  0  0  0  0
  2 21  1  0  0  0  0
  2  3  2  0  0  0  0
  3  4  1  0  0  0  0
  3 25  1  0  0  0  0
  4  5  2  0  0  0  0
  4 26  1  0  0  0  0
  5  6  1  0  0  0  0
  5 20  1  0  0  0  0
  6  7  1  0  0  0  0
  6 27  1  0  0  0  0
  6 28  1  0  0  0  0
  7  8  2  0  0  0  0
  7  9  1  0  0  0  0
  9 10  1  0  0  0  0
  9 29  1  0  0  0  0
 10 19  1  0  0  0  0
 10 11  1  0  0  0  0
 10 30  1  0  0  0  0
 11 12  1  0  0  0  0
 11 31  1  0  0  0  0
 11 32  1  0  0  0  0
 12 13  1  0  0  0  0
 12 33  1  0  0  0  0
 12 34  1  0  0  0  0
 13 14  1  0  0  0  0
 13 18  1  0  0  0  0
 13 49  1  0  0  0  0
 14 15  1  0  0  0  0
 14 35  1  0  0  0  0
 14 36  1  0  0  0  0
 15 16  1  0  0  0  0
 15 17  1  0  0  0  0
 15 37  1  0  0  0  0
 16 38  1  0  0  0  0
 16 39  1  0  0  0  0
 16 40  1  0  0  0  0
 17 41  1  0  0  0  0
 17 42  1  0  0  0  0
 17 43  1  0  0  0  0
 18 19  1  0  0  0  0
 18 44  1  0  0  0  0
 18 45  1  0  0  0  0
 19 46  1  0  0  0  0
 19 47  1  0  0  0  0
 20 21  2  0  0  0  0
 20 48  1  0  0  0  0
 21 50  1  0  0  0  0
M  CHG  1  13   1
M  CHG  1  21   1
M  END
> <s_m_source_file>
AV-unprocessed.smi

> <i_m_source_file_index>
1483

> <i_lp_mmshare_version>
43012

> <i_f3d_flags>
0

> <s_epik_input>
W0NIM11jMVtjSF1bY0hdYyhbY0hdbjEpW0NIMl1DKD1PKVtOSF1bQ0hdMltDSDJdW0NIMl1OKFtDSDJdW0NIMl0yKVtDSDJdW0NIXShbQ0gzXSlbQ0gzXQ==

> <s_epik_cmdline>
J2VwaWtfcHl0aG9uJywgJy1waCcsICc3LjAnLCAnLXRuJywgJzgnLCAnLW1hJywgJzIwMCcsICctbWV0YWxfYmluZGluZycsICctaW1hZScsICc8aW5maWxlLm1hZT4nLCAnLW9tYWUnLCAnPG91dGZpbGUubWFlPic=

> <r_epik_Ionization_Penalty>
2.20554

> <r_epik_Ionization_Penalty_Charging>
2.20554

> <r_epik_Ionization_Penalty_Neutral>
2.83835e-07

> <r_epik_State_Penalty>
2.34446

> <r_epik_Charging_Adjusted_Penalty>
4.55

> <i_epik_Tot_Q>
2

> <i_epik_Tot_abs_Q>
2

> <r_epik_Metal_State_Penalty>
2.35906

> <b_epik_Metal_Only>
0

> <s_lp_Force_Field>
OPLS_2005

> <r_lp_Energy>
28.5447

> <b_lp_Chiralities_Consistent>
1

> <s_lp_Variant>
AV-unprocessed.smi:1483-4

> <Gold.Version>
5.8.1

> <Gold.Id.Protein>
6NUR|6NUR_protein|mol2

> <Gold.PLP.Fitness>
44.8859

> <Gold.PLP.PLP>
-36.5026

> <Gold.PLP.part.hbond>
-2.0000

> <Gold.PLP.part.metal>
0.0000

> <Gold.PLP.part.buried>
-3.1126

> <Gold.PLP.part.nonpolar>
-32.3603

> <Gold.PLP.part.repulsive>
0.1910

> <Gold.PLP.ligand.clash>
0.0000

> <Gold.PLP.ligand.torsion>
0.3599

> <Gold.PLP.Chemscore.Hbond>
3.0000

> <Gold.PLP.Chemscore.CHOScore>
0.0000

> <Gold.PLP.Chemscore.Metal>
0.0000

> <Gold.Chemscore.Hbonds>
donor molecule, donor type, donor heavy atom, donor atom, acceptor molecule, acceptor atom, score
      L1  H     9    29       P1  7948  1.00
      L1  H    21    50       P1  8028  2.00

> <Gold.PLP.Chemscore.Internal.Correction>
0.1031

> <Gold.Rescore>
     Score         DG    S(hbond)    S(metal)    S(lipo)     H(rot)  DE(clash)    DE(int)     intcor
     18.77     -20.15       2.00        0.00     102.27       1.55       0.18       1.20       ----

> <Gold.Chemscore.Fitness>
18.7685

> <Gold.Chemscore.DG>
-20.1497

> <Gold.Chemscore.ZeroCoef>
-5.4800

> <Gold.Chemscore.Hbond>
1.9991

> <Gold.Chemscore.Metal>
0.0000

> <Gold.Chemscore.Lipo>
102.2717

> <Gold.Chemscore.Internal_Hbond>
0.0000

> <Gold.Chemscore.DEClash>
0.1798

> <Gold.Chemscore.DEInternal>
1.2014

> <Gold.Chemscore.Rot>
1.5520

> <Gold.Chemscore.Internal.Correction>
   9.000000E+99

> <Gold.Chemscore.Hbonds>
donor molecule, donor type, donor heavy atom, donor atom, acceptor molecule, acceptor atom, score
      L1  H     9    29       P1  7948  1.00
      L1  H    21    50       P1  8028  1.00

> <Gold.Chemscore.Hbond.Weighted>
-6.6769

> <Gold.Chemscore.Metal.Weighted>
-0.0000

> <Gold.Chemscore.Lipo.Weighted>
-11.9658

> <Gold.Chemscore.Internal_Hbond.Weighted>
0.0000

> <Gold.Chemscore.DEClash.Weighted>
0.1798

> <Gold.Chemscore.DEInternal.Weighted>
1.2014

> <Gold.Chemscore.Rot.Weighted>
3.9730

> <Gold.Chemscore.Internal.Correction.Weighted>
   9.000000E+99

> <Gold.Protein.RotatedTorsions>
[ 6907 6896 6895 6894 ] final -137.46 input  -60.11 | X-H torsion
[ 7974 7965 7964 7962 ] final  102.06 input  175.53 | X-H torsion
[ 8008 7997 7996 7995 ] final   -5.70 input   59.86 | X-H torsion
[ 10167 10162 10161 10158 ] final  164.03 input  -65.29 | X-H torsion
[ 10718 10713 10712 10709 ] final  154.66 input   66.30 | X-H torsion
[ 10763 10752 10751 10750 ] final  173.78 input  -60.55 | X-H torsion
[ 11005 11000 10999 10996 ] final  -52.94 input  -57.11 | X-H torsion

> <Gold.Protein.ActiveResidues>
 VAL166  LYS551  ARG553  GLY616  TRP617  ASP618  TYR619  PRO620  LYS621  CYS622 
 ASP623  PHE694  ASN695  SER759  ASP760  ASP761  ALA762  ILE779  LEU786  VAL792 
 PHE793  MET794  SER795  GLU796  ALA797  LYS798  CYS799  TRP800  GLU811  SER814 

> <Gold.Protein.RotatedAtoms>
  151.0228  133.5861  159.2669 H   0  0  0  0  0  0  0  0  0  0  0  0  # atno 6907 bound_to 6896
  151.2972  135.0757  159.9235 H   0  0  0  0  0  0  0  0  0  0  0  0  # atno 6908 bound_to 6896
  152.5327  133.9916  159.7907 H   0  0  0  0  0  0  0  0  0  0  0  0  # atno 6909 bound_to 6896
  145.3641  139.2412  143.3491 H   0  0  0  0  0  0  0  0  0  0  0  0  # atno 7974 bound_to 7965
  154.6012  140.2451  155.7790 H   0  0  0  0  0  0  0  0  0  0  0  0  # atno 8008 bound_to 7997
  156.2312  140.2966  156.0145 H   0  0  0  0  0  0  0  0  0  0  0  0  # atno 8009 bound_to 7997
  155.2208  140.0400  157.2938 H   0  0  0  0  0  0  0  0  0  0  0  0  # atno 8010 bound_to 7997
  139.4882  144.4277  151.9109 H   0  0  0  0  0  0  0  0  0  0  0  0  # atno 10167 bound_to 10162
  157.2286  131.0734  151.1867 H   0  0  0  0  0  0  0  0  0  0  0  0  # atno 10718 bound_to 10713
  154.4448  135.2763  155.1822 H   0  0  0  0  0  0  0  0  0  0  0  0  # atno 10763 bound_to 10752
  154.3673  135.6116  153.5725 H   0  0  0  0  0  0  0  0  0  0  0  0  # atno 10764 bound_to 10752
  152.9843  135.5849  154.4782 H   0  0  0  0  0  0  0  0  0  0  0  0  # atno 10765 bound_to 10752
  141.0950  133.6626  156.4099 H   0  0  0  0  0  0  0  0  0  0  0  0  # atno 11005 bound_to 11000
  146.2914  140.4280  142.8738 LP  0  0  0  0  0  0  0  0  0  0  0  0  # atno 17320 bound_to 7965
  144.8625  140.7159  143.6098 LP  0  0  0  0  0  0  0  0  0  0  0  0  # atno 17321 bound_to 7965
  140.3723  144.2839  150.5918 LP  0  0  0  0  0  0  0  0  0  0  0  0  # atno 17342 bound_to 10162
  140.5307  143.2244  151.8242 LP  0  0  0  0  0  0  0  0  0  0  0  0  # atno 17343 bound_to 10162
  157.3501  130.7078  149.6435 LP  0  0  0  0  0  0  0  0  0  0  0  0  # atno 17370 bound_to 10713
  155.9677  130.4255  150.4656 LP  0  0  0  0  0  0  0  0  0  0  0  0  # atno 17371 bound_to 10713
  140.5160  134.6349  157.5301 LP  0  0  0  0  0  0  0  0  0  0  0  0  # atno 17394 bound_to 11000
  139.9785  134.7176  155.9904 LP  0  0  0  0  0  0  0  0  0  0  0  0  # atno 17395 bound_to 11000

$$$$
