AV-unprocessed.smi:1763|AV-procd|sdf|7129|dock4
  -GOLD-   22720 8363D 1   1.00000     0.00000
 Structure written by MMmdl.
 43 44  0  0  0  0  0  0  0  0  2 V2000
  142.0869  138.0445  154.8519 C   0  0  0  0  0  0  0  0  0  0  0  0
  142.8209  139.3008  154.8636 N   0  0  0  0  0  0  0  0  0  0  0  0
  143.3016  139.8821  155.9714 C   0  0  0  0  0  0  0  0  0  0  0  0
  143.1615  139.4062  157.0987 O   0  0  0  0  0  0  0  0  0  0  0  0
  144.0363  141.2119  155.7739 C   0  0  0  0  0  0  0  0  0  0  0  0
  145.2525  141.0855  154.9301 N   0  3  2  0  0  0  0  0  0  0  0  0
  146.3208  140.2950  155.5932 C   0  0  0  0  0  0  0  0  0  0  0  0
  147.5143  140.0621  154.6482 C   0  0  0  0  0  0  0  0  0  0  0  0
  148.0772  141.3813  154.0920 C   0  0  2  0  0  0  0  0  0  0  0  0
  148.7754  142.1209  155.1436 N   0  0  0  0  0  0  0  0  0  0  0  0
  149.8402  141.6771  155.8282 C   0  0  0  0  0  0  0  0  0  0  0  0
  150.3653  140.5820  155.6273 O   0  0  0  0  0  0  0  0  0  0  0  0
  150.2411  142.5785  156.7421 N   0  0  0  0  0  0  0  0  0  0  0  0
  151.3284  142.4820  157.6510 C   0  0  0  0  0  0  0  0  0  0  0  0
  151.8388  143.7185  158.1067 C   0  0  0  0  0  0  0  0  0  0  0  0
  152.9173  143.7313  159.0124 C   0  0  0  0  0  0  0  0  0  0  0  0
  153.4593  142.5057  159.4383 C   0  0  0  0  0  0  0  0  0  0  0  0
  152.8933  141.3199  158.9350 C   0  0  0  0  0  0  0  0  0  0  0  0
  151.8595  141.3052  158.0673 N   0  0  0  0  0  0  0  0  0  0  0  0
  146.9342  142.2053  153.4655 C   0  0  0  0  0  0  0  0  0  0  0  0
  145.7609  142.3954  154.4423 C   0  0  0  0  0  0  0  0  0  0  0  0
  141.7833  137.8007  153.8337 H   0  0  0  0  0  0  0  0  0  0  0  0
  141.1891  138.1122  155.4677 H   0  0  0  0  0  0  0  0  0  0  0  0
  142.7063  137.2292  155.2273 H   0  0  0  0  0  0  0  0  0  0  0  0
  142.9696  139.7555  153.9740 H   0  0  0  0  0  0  0  0  0  0  0  0
  143.3650  141.9627  155.3532 H   0  0  0  0  0  0  0  0  0  0  0  0
  144.3141  141.5630  156.7687 H   0  0  0  0  0  0  0  0  0  0  0  0
  146.6456  140.8090  156.4992 H   0  0  0  0  0  0  0  0  0  0  0  0
  145.9223  139.3289  155.9052 H   0  0  0  0  0  0  0  0  0  0  0  0
  148.2970  139.5031  155.1627 H   0  0  0  0  0  0  0  0  0  0  0  0
  147.1911  139.4338  153.8170 H   0  0  0  0  0  0  0  0  0  0  0  0
  148.8047  141.1393  153.3151 H   0  0  0  0  0  0  0  0  0  0  0  0
  148.4073  143.0301  155.3828 H   0  0  0  0  0  0  0  0  0  0  0  0
  149.7054  143.4318  156.7978 H   0  0  0  0  0  0  0  0  0  0  0  0
  151.4108  144.6516  157.7698 H   0  0  0  0  0  0  0  0  0  0  0  0
  153.3206  144.6658  159.3735 H   0  0  0  0  0  0  0  0  0  0  0  0
  154.2866  142.4749  160.1318 H   0  0  0  0  0  0  0  0  0  0  0  0
  153.2803  140.3578  159.2363 H   0  0  0  0  0  0  0  0  0  0  0  0
  147.2974  143.1754  153.1244 H   0  0  0  0  0  0  0  0  0  0  0  0
  146.5728  141.6922  152.5734 H   0  0  0  0  0  0  0  0  0  0  0  0
  144.9645  142.9425  153.9372 H   0  0  0  0  0  0  0  0  0  0  0  0
  146.0710  143.0077  155.2904 H   0  0  0  0  0  0  0  0  0  0  0  0
  144.9732  140.5573  154.1151 H   0  0  0  0  0  0  0  0  0  0  0  0
  1  2  1  0  0  0  0
  1 22  1  0  0  0  0
  1 23  1  0  0  0  0
  1 24  1  0  0  0  0
  2  3  1  0  0  0  0
  2 25  1  0  0  0  0
  3  4  2  0  0  0  0
  3  5  1  0  0  0  0
  5  6  1  0  0  0  0
  5 26  1  0  0  0  0
  5 27  1  0  0  0  0
  6 21  1  0  0  0  0
  6  7  1  0  0  0  0
  6 43  1  0  0  0  0
  7  8  1  0  0  0  0
  7 28  1  0  0  0  0
  7 29  1  0  0  0  0
  8  9  1  0  0  0  0
  8 30  1  0  0  0  0
  8 31  1  0  0  0  0
  9 10  1  0  0  0  0
  9 20  1  0  0  0  0
  9 32  1  0  0  0  0
 10 11  1  0  0  0  0
 10 33  1  0  0  0  0
 11 12  2  0  0  0  0
 11 13  1  0  0  0  0
 13 14  1  0  0  0  0
 13 34  1  0  0  0  0
 14 19  1  0  0  0  0
 14 15  2  0  0  0  0
 15 16  1  0  0  0  0
 15 35  1  0  0  0  0
 16 17  2  0  0  0  0
 16 36  1  0  0  0  0
 17 18  1  0  0  0  0
 17 37  1  0  0  0  0
 18 19  2  0  0  0  0
 18 38  1  0  0  0  0
 20 21  1  0  0  0  0
 20 39  1  0  0  0  0
 20 40  1  0  0  0  0
 21 41  1  0  0  0  0
 21 42  1  0  0  0  0
M  CHG  1   6   1
M  END
> <s_m_source_file>
AV-unprocessed.smi

> <i_m_source_file_index>
1763

> <i_lp_mmshare_version>
43012

> <i_f3d_flags>
0

> <s_epik_input>
W0NIM11bTkhdQyg9TylbQ0gyXU4xW0NIMl1bQ0gyXVtDSF0oW0NIMl1bQ0gyXTEpW05IXUMoPU8pW05IXWMyW2NIXVtjSF1bY0hdW2NIXW4y

> <s_epik_cmdline>
J2VwaWtfcHl0aG9uJywgJy1waCcsICc3LjAnLCAnLXRuJywgJzgnLCAnLW1hJywgJzIwMCcsICctbWV0YWxfYmluZGluZycsICctaW1hZScsICc8aW5maWxlLm1hZT4nLCAnLW9tYWUnLCAnPG91dGZpbGUubWFlPic=

> <r_epik_Ionization_Penalty>
0.838902

> <r_epik_Ionization_Penalty_Charging>
0.838844

> <r_epik_Ionization_Penalty_Neutral>
5.81242e-05

> <r_epik_State_Penalty>
0.8734

> <r_epik_Charging_Adjusted_Penalty>
1.71224

> <i_epik_Tot_Q>
1

> <i_epik_Tot_abs_Q>
1

> <r_epik_Metal_State_Penalty>
0.877921

> <b_epik_Metal_Only>
0

> <s_lp_Force_Field>
OPLS_2005

> <r_lp_Energy>
15.7472

> <b_lp_Chiralities_Consistent>
1

> <s_lp_Variant>
AV-unprocessed.smi:1763-3

> <Gold.Version>
5.8.1

> <Gold.Id.Protein>
6NUR|6NUR_protein|mol2

> <Gold.PLP.Fitness>
48.5665

> <Gold.PLP.PLP>
-34.2693

> <Gold.PLP.part.hbond>
-4.0000

> <Gold.PLP.part.metal>
0.0000

> <Gold.PLP.part.buried>
-6.3387

> <Gold.PLP.part.nonpolar>
-24.8626

> <Gold.PLP.part.repulsive>
0.2950

> <Gold.PLP.ligand.clash>
0.0000

> <Gold.PLP.ligand.torsion>
0.1988

> <Gold.PLP.Chemscore.Hbond>
4.8880

> <Gold.PLP.Chemscore.CHOScore>
0.0000

> <Gold.PLP.Chemscore.Metal>
0.0000

> <Gold.Chemscore.Hbonds>
donor molecule, donor type, donor heavy atom, donor atom, acceptor molecule, acceptor atom, score
      L1  H     2    25       P1 10175  1.00
      L1  H     6    43       P1 10175  1.57
      L1  H    10    33       P1  8028  0.88
      L1  H    13    34       P1  8028  0.82

> <Gold.PLP.Chemscore.Internal.Correction>
0.0308

> <Gold.Rescore>
     Score         DG    S(hbond)    S(metal)    S(lipo)     H(rot)  DE(clash)    DE(int)     intcor
     20.14     -23.01       3.79        0.00      79.49       1.73       1.52       1.35       ----

> <Gold.Chemscore.Fitness>
20.1424

> <Gold.Chemscore.DG>
-23.0107

> <Gold.Chemscore.ZeroCoef>
-5.4800

> <Gold.Chemscore.Hbond>
3.7885

> <Gold.Chemscore.Metal>
0.0000

> <Gold.Chemscore.Lipo>
79.4946

> <Gold.Chemscore.Internal_Hbond>
0.0000

> <Gold.Chemscore.DEClash>
1.5163

> <Gold.Chemscore.DEInternal>
1.3519

> <Gold.Chemscore.Rot>
1.7280

> <Gold.Chemscore.Internal.Correction>
   9.000000E+99

> <Gold.Chemscore.Hbonds>
donor molecule, donor type, donor heavy atom, donor atom, acceptor molecule, acceptor atom, score
      L1  H     2    25       P1 10175  1.00
      L1  H     6    43       P1 10175  0.75
      L1  H    10    33       P1  8028  0.86
      L1  H    13    34       P1  8028  0.81
      P1  H  7989  7998       L1    12  0.01

> <Gold.Chemscore.Hbond.Weighted>
-12.6535

> <Gold.Chemscore.Metal.Weighted>
-0.0000

> <Gold.Chemscore.Lipo.Weighted>
-9.3009

> <Gold.Chemscore.Internal_Hbond.Weighted>
0.0000

> <Gold.Chemscore.DEClash.Weighted>
1.5163

> <Gold.Chemscore.DEInternal.Weighted>
1.3519

> <Gold.Chemscore.Rot.Weighted>
4.4237

> <Gold.Chemscore.Internal.Correction.Weighted>
   9.000000E+99

> <Gold.Protein.RotatedTorsions>
[ 6907 6896 6895 6894 ] final -150.92 input  -60.11 | X-H torsion
[ 7974 7965 7964 7962 ] final -104.60 input  175.53 | X-H torsion
[ 8008 7997 7996 7995 ] final -169.03 input   59.86 | X-H torsion
[ 10167 10162 10161 10158 ] final   97.05 input  -65.29 | X-H torsion
[ 10718 10713 10712 10709 ] final    1.64 input   66.30 | X-H torsion
[ 10763 10752 10751 10750 ] final  -37.42 input  -60.55 | X-H torsion
[ 11005 11000 10999 10996 ] final  156.74 input  -57.11 | X-H torsion

> <Gold.Protein.ActiveResidues>
 VAL166  LYS551  ARG553  GLY616  TRP617  ASP618  TYR619  PRO620  LYS621  CYS622 
 ASP623  PHE694  ASN695  SER759  ASP760  ASP761  ALA762  ILE779  LEU786  VAL792 
 PHE793  MET794  SER795  GLU796  ALA797  LYS798  CYS799  TRP800  GLU811  SER814 

> <Gold.Protein.RotatedAtoms>
  151.2056  133.4585  159.2596 H   0  0  0  0  0  0  0  0  0  0  0  0  # atno 6907 bound_to 6896
  151.1027  134.9981  159.8466 H   0  0  0  0  0  0  0  0  0  0  0  0  # atno 6908 bound_to 6896
  152.5444  134.1981  159.8754 H   0  0  0  0  0  0  0  0  0  0  0  0  # atno 6909 bound_to 6896
  145.2411  140.9205  143.3149 H   0  0  0  0  0  0  0  0  0  0  0  0  # atno 7974 bound_to 7965
  155.8995  140.1038  157.1360 H   0  0  0  0  0  0  0  0  0  0  0  0  # atno 8008 bound_to 7997
  154.4024  140.1295  156.4482 H   0  0  0  0  0  0  0  0  0  0  0  0  # atno 8009 bound_to 7997
  155.7440  140.3466  155.5120 H   0  0  0  0  0  0  0  0  0  0  0  0  # atno 8010 bound_to 7997
  139.7837  144.6879  150.9987 H   0  0  0  0  0  0  0  0  0  0  0  0  # atno 10167 bound_to 10162
  156.8512  130.5554  149.5669 H   0  0  0  0  0  0  0  0  0  0  0  0  # atno 10718 bound_to 10713
  153.8960  135.6807  153.4758 H   0  0  0  0  0  0  0  0  0  0  0  0  # atno 10763 bound_to 10752
  153.1155  135.4763  154.9105 H   0  0  0  0  0  0  0  0  0  0  0  0  # atno 10764 bound_to 10752
  154.7599  135.3208  154.8352 H   0  0  0  0  0  0  0  0  0  0  0  0  # atno 10765 bound_to 10752
  140.1703  134.8547  157.2683 H   0  0  0  0  0  0  0  0  0  0  0  0  # atno 11005 bound_to 11000
  144.9588  139.4002  143.6366 LP  0  0  0  0  0  0  0  0  0  0  0  0  # atno 17320 bound_to 7965
  146.3328  139.8632  142.8853 LP  0  0  0  0  0  0  0  0  0  0  0  0  # atno 17321 bound_to 7965
  140.7819  143.4455  151.0488 LP  0  0  0  0  0  0  0  0  0  0  0  0  # atno 17342 bound_to 10162
  139.8135  143.7918  152.3173 LP  0  0  0  0  0  0  0  0  0  0  0  0  # atno 17343 bound_to 10162
  156.0827  130.5833  150.9592 LP  0  0  0  0  0  0  0  0  0  0  0  0  # atno 17370 bound_to 10713
  157.6302  131.0922  150.8456 LP  0  0  0  0  0  0  0  0  0  0  0  0  # atno 17371 bound_to 10713
  140.2385  134.3824  155.7491 LP  0  0  0  0  0  0  0  0  0  0  0  0  # atno 17394 bound_to 11000
  141.2217  133.7252  156.8751 LP  0  0  0  0  0  0  0  0  0  0  0  0  # atno 17395 bound_to 11000

$$$$
