AV-unprocessed.smi:3259|AV-procd|sdf|12472|dock8
  -GOLD-   2272018373D 1   1.00000     0.00000
 Structure written by MMmdl.
 39 40  0  0  0  0  0  0  0  0  1 V2000
  148.1126  140.9499  154.1791 C   0  0  0  0  0  0  0  0  0  0  0  0
  149.4898  140.7603  154.4765 O   0  0  0  0  0  0  0  0  0  0  0  0
  149.7866  139.9509  155.6158 C   0  0  1  0  0  0  0  0  0  0  0  0
  149.3529  138.4995  155.3568 C   0  0  0  0  0  0  0  0  0  0  0  0
  151.2112  140.1926  156.1472 C   0  0  0  0  0  0  0  0  0  0  0  0
  150.5955  140.1940  157.5447 C   0  0  1  0  0  0  0  0  0  0  0  0
  151.2281  141.1617  158.4321 N   0  0  0  0  0  0  0  0  0  0  0  0
  152.3778  140.9531  159.0910 C   0  0  0  0  0  0  0  0  0  0  0  0
  153.0620  139.9391  158.9559 O   0  0  0  0  0  0  0  0  0  0  0  0
  152.8160  142.0521  160.0604 C   0  0  0  0  0  0  0  0  0  0  0  0
  152.6243  143.3711  159.4813 N   0  0  0  0  0  0  0  0  0  0  0  0
  152.9152  144.6010  160.0347 C   0  0  0  0  0  0  0  0  0  0  0  0
  152.5800  145.5514  159.1138 C   0  0  0  0  0  0  0  0  0  0  0  0
  152.0844  144.7964  158.0144 C   0  0  0  0  0  0  0  0  0  0  0  0
  152.1123  143.4923  158.2367 N   0  0  0  0  0  0  0  0  0  0  0  0
  149.2704  140.6776  156.9004 C   0  0  0  0  0  0  0  0  0  0  0  0
  149.0702  142.2034  156.7850 C   0  0  0  0  0  0  0  0  0  0  0  0
  147.9848  140.1338  157.5312 C   0  0  0  0  0  0  0  0  0  0  0  0
  148.0240  141.4952  153.2397 H   0  0  0  0  0  0  0  0  0  0  0  0
  147.6087  141.5401  154.9439 H   0  0  0  0  0  0  0  0  0  0  0  0
  147.5853  140.0030  154.0613 H   0  0  0  0  0  0  0  0  0  0  0  0
  149.4421  137.8831  156.2511 H   0  0  0  0  0  0  0  0  0  0  0  0
  149.9667  138.0214  154.5942 H   0  0  0  0  0  0  0  0  0  0  0  0
  148.3149  138.4486  155.0277 H   0  0  0  0  0  0  0  0  0  0  0  0
  151.9125  139.3782  155.9632 H   0  0  0  0  0  0  0  0  0  0  0  0
  151.6321  141.1557  155.8526 H   0  0  0  0  0  0  0  0  0  0  0  0
  150.5286  139.1867  157.9619 H   0  0  0  0  0  0  0  0  0  0  0  0
  150.7321  142.0254  158.5973 H   0  0  0  0  0  0  0  0  0  0  0  0
  152.2526  141.9825  160.9922 H   0  0  0  0  0  0  0  0  0  0  0  0
  153.8698  141.9238  160.3108 H   0  0  0  0  0  0  0  0  0  0  0  0
  153.3355  144.6955  161.0252 H   0  0  0  0  0  0  0  0  0  0  0  0
  152.6753  146.6227  159.2107 H   0  0  0  0  0  0  0  0  0  0  0  0
  151.7085  145.1548  157.0673 H   0  0  0  0  0  0  0  0  0  0  0  0
  148.8982  142.6633  157.7590 H   0  0  0  0  0  0  0  0  0  0  0  0
  148.2106  142.4466  156.1596 H   0  0  0  0  0  0  0  0  0  0  0  0
  149.9342  142.7034  156.3468 H   0  0  0  0  0  0  0  0  0  0  0  0
  147.7427  140.6531  158.4588 H   0  0  0  0  0  0  0  0  0  0  0  0
  148.0671  139.0759  157.7795 H   0  0  0  0  0  0  0  0  0  0  0  0
  147.1330  140.2455  156.8597 H   0  0  0  0  0  0  0  0  0  0  0  0
  1  2  1  0  0  0  0
  1 19  1  0  0  0  0
  1 20  1  0  0  0  0
  1 21  1  0  0  0  0
  2  3  1  0  0  0  0
  3 16  1  0  0  0  0
  3  4  1  0  0  0  0
  3  5  1  0  0  0  0
  4 22  1  0  0  0  0
  4 23  1  0  0  0  0
  4 24  1  0  0  0  0
  5  6  1  0  0  0  0
  5 25  1  0  0  0  0
  5 26  1  0  0  0  0
  6  7  1  0  0  0  0
  6 16  1  0  0  0  0
  6 27  1  0  0  0  0
  7  8  1  0  0  0  0
  7 28  1  0  0  0  0
  8  9  2  0  0  0  0
  8 10  1  0  0  0  0
 10 11  1  0  0  0  0
 10 29  1  0  0  0  0
 10 30  1  0  0  0  0
 11 15  1  0  0  0  0
 11 12  1  0  0  0  0
 12 13  2  0  0  0  0
 12 31  1  0  0  0  0
 13 14  1  0  0  0  0
 13 32  1  0  0  0  0
 14 15  2  0  0  0  0
 14 33  1  0  0  0  0
 16 17  1  0  0  0  0
 16 18  1  0  0  0  0
 17 34  1  0  0  0  0
 17 35  1  0  0  0  0
 17 36  1  0  0  0  0
 18 37  1  0  0  0  0
 18 38  1  0  0  0  0
 18 39  1  0  0  0  0
M  END
> <s_m_source_file>
AV-unprocessed.smi

> <i_m_source_file_index>
3259

> <i_lp_mmshare_version>
43012

> <i_f3d_flags>
0

> <s_epik_input>
W0NIM11PW0NAQF0xKFtDSDNdKVtDSDJdW0NASF0oQzEoW0NIM10pW0NIM10pW05IXUMoPU8pW0NIMl1uMltjSF1bY0hdW2NIXW4y

> <s_epik_cmdline>
J2VwaWtfcHl0aG9uJywgJy1waCcsICc3LjAnLCAnLXRuJywgJzgnLCAnLW1hJywgJzIwMCcsICctbWV0YWxfYmluZGluZycsICctaW1hZScsICc8aW5maWxlLm1hZT4nLCAnLW9tYWUnLCAnPG91dGZpbGUubWFlPic=

> <r_lp_tautomer_probability>
1

> <r_epik_Ionization_Penalty>
1.78399e-05

> <r_epik_Ionization_Penalty_Charging>
0

> <r_epik_Ionization_Penalty_Neutral>
1.78399e-05

> <r_epik_State_Penalty>
-0

> <r_epik_Charging_Adjusted_Penalty>
0

> <i_epik_Tot_Q>
0

> <i_epik_Tot_abs_Q>
0

> <r_epik_Metal_State_Penalty>
-0

> <b_epik_Metal_Only>
0

> <s_lp_Force_Field>
OPLS_2005

> <r_lp_Energy>
22.2184

> <b_lp_Chiralities_Consistent>
1

> <s_lp_Variant>
AV-unprocessed.smi:3259-1

> <Gold.Version>
5.8.1

> <Gold.Id.Protein>
6NUR|6NUR_protein|mol2

> <Gold.PLP.Fitness>
44.8964

> <Gold.PLP.PLP>
-36.7303

> <Gold.PLP.part.hbond>
-2.0000

> <Gold.PLP.part.metal>
0.0000

> <Gold.PLP.part.buried>
-3.9718

> <Gold.PLP.part.nonpolar>
-31.9804

> <Gold.PLP.part.repulsive>
0.2771

> <Gold.PLP.ligand.clash>
0.0000

> <Gold.PLP.ligand.torsion>
0.4974

> <Gold.PLP.Chemscore.Hbond>
1.9520

> <Gold.PLP.Chemscore.CHOScore>
0.9758

> <Gold.PLP.Chemscore.Metal>
0.0000

> <Gold.Chemscore.Hbonds>
donor molecule, donor type, donor heavy atom, donor atom, acceptor molecule, acceptor atom, score
      P1  H  7989  7998       L1     2  0.15

> <Gold.PLP.Chemscore.Internal.Correction>
0.3776

> <Gold.Rescore>
     Score         DG    S(hbond)    S(metal)    S(lipo)     H(rot)  DE(clash)    DE(int)     intcor
     14.56     -17.24       1.75        0.00      85.44       1.60       0.85       1.83       ----

> <Gold.Chemscore.Fitness>
14.5592

> <Gold.Chemscore.DG>
-17.2407

> <Gold.Chemscore.ZeroCoef>
-5.4800

> <Gold.Chemscore.Hbond>
1.7517

> <Gold.Chemscore.Metal>
0.0000

> <Gold.Chemscore.Lipo>
85.4365

> <Gold.Chemscore.Internal_Hbond>
0.0000

> <Gold.Chemscore.DEClash>
0.8532

> <Gold.Chemscore.DEInternal>
1.8283

> <Gold.Chemscore.Rot>
1.5962

> <Gold.Chemscore.Internal.Correction>
   9.000000E+99

> <Gold.Chemscore.Hbonds>
donor molecule, donor type, donor heavy atom, donor atom, acceptor molecule, acceptor atom, score
      P1  H  7989  7998       L1     2  0.05
      P1  H  7997  8009       L1     9  0.04

> <Gold.Chemscore.Hbond.Weighted>
-5.8508

> <Gold.Chemscore.Metal.Weighted>
-0.0000

> <Gold.Chemscore.Lipo.Weighted>
-9.9961

> <Gold.Chemscore.Internal_Hbond.Weighted>
0.0000

> <Gold.Chemscore.DEClash.Weighted>
0.8532

> <Gold.Chemscore.DEInternal.Weighted>
1.8283

> <Gold.Chemscore.Rot.Weighted>
4.0862

> <Gold.Chemscore.Internal.Correction.Weighted>
   9.000000E+99

> <Gold.Protein.RotatedTorsions>
[ 6907 6896 6895 6894 ] final -135.60 input  -60.11 | X-H torsion
[ 7974 7965 7964 7962 ] final   12.38 input  175.53 | X-H torsion
[ 8008 7997 7996 7995 ] final  143.72 input   59.86 | X-H torsion
[ 10167 10162 10161 10158 ] final  128.79 input  -65.29 | X-H torsion
[ 10718 10713 10712 10709 ] final   85.45 input   66.30 | X-H torsion
[ 10763 10752 10751 10750 ] final  -50.96 input  -60.55 | X-H torsion
[ 11005 11000 10999 10996 ] final  -78.27 input  -57.11 | X-H torsion

> <Gold.Protein.ActiveResidues>
 VAL166  LYS551  ARG553  GLY616  TRP617  ASP618  TYR619  PRO620  LYS621  CYS622 
 ASP623  PHE694  ASN695  SER759  ASP760  ASP761  ALA762  ILE779  LEU786  VAL792 
 PHE793  MET794  SER795  GLU796  ALA797  LYS798  CYS799  TRP800  GLU811  SER814 

> <Gold.Protein.RotatedAtoms>
  150.9998  133.6067  159.2696 H   0  0  0  0  0  0  0  0  0  0  0  0  # atno 6907 bound_to 6896
  151.3257  135.0828  159.9331 H   0  0  0  0  0  0  0  0  0  0  0  0  # atno 6908 bound_to 6896
  152.5270  133.9637  159.7783 H   0  0  0  0  0  0  0  0  0  0  0  0  # atno 6909 bound_to 6896
  146.2352  139.9345  142.8491 H   0  0  0  0  0  0  0  0  0  0  0  0  # atno 7974 bound_to 7965
  156.2924  140.2255  156.4937 H   0  0  0  0  0  0  0  0  0  0  0  0  # atno 8008 bound_to 7997
  154.7749  140.0464  157.1102 H   0  0  0  0  0  0  0  0  0  0  0  0  # atno 8009 bound_to 7997
  154.9829  140.3080  155.4942 H   0  0  0  0  0  0  0  0  0  0  0  0  # atno 8010 bound_to 7997
  139.5509  144.6812  151.4326 H   0  0  0  0  0  0  0  0  0  0  0  0  # atno 10167 bound_to 10162
  157.6915  131.0175  150.2824 H   0  0  0  0  0  0  0  0  0  0  0  0  # atno 10718 bound_to 10713
  154.1189  135.6538  153.4899 H   0  0  0  0  0  0  0  0  0  0  0  0  # atno 10763 bound_to 10752
  153.0232  135.5265  154.7117 H   0  0  0  0  0  0  0  0  0  0  0  0  # atno 10764 bound_to 10752
  154.6319  135.2977  155.0177 H   0  0  0  0  0  0  0  0  0  0  0  0  # atno 10765 bound_to 10752
  141.1664  133.7056  156.7946 H   0  0  0  0  0  0  0  0  0  0  0  0  # atno 11005 bound_to 11000
  145.2012  140.9855  143.4155 LP  0  0  0  0  0  0  0  0  0  0  0  0  # atno 17320 bound_to 7965
  144.9772  139.3820  143.6280 LP  0  0  0  0  0  0  0  0  0  0  0  0  # atno 17321 bound_to 7965
  140.6771  143.8164  150.7073 LP  0  0  0  0  0  0  0  0  0  0  0  0  # atno 17342 bound_to 10162
  140.1606  143.4278  152.2069 LP  0  0  0  0  0  0  0  0  0  0  0  0  # atno 17343 bound_to 10162
  156.3368  130.3809  149.7443 LP  0  0  0  0  0  0  0  0  0  0  0  0  # atno 17370 bound_to 10713
  156.4965  130.8109  151.3115 LP  0  0  0  0  0  0  0  0  0  0  0  0  # atno 17371 bound_to 10713
  140.2300  134.8693  157.3467 LP  0  0  0  0  0  0  0  0  0  0  0  0  # atno 17394 bound_to 11000
  140.1901  134.4383  155.7721 LP  0  0  0  0  0  0  0  0  0  0  0  0  # atno 17395 bound_to 11000

$$$$
