AV-unprocessed.smi:2061|AV-procd|sdf|8392|dock3
  -GOLD-   2272011 73D 1   1.00000     0.00000
 Structure written by MMmdl.
 45 46  0  0  0  0  0  0  0  0  3 V2000
  152.9172  140.9277  159.5749 C   0  0  0  0  0  0  0  0  0  0  0  0
  152.6183  139.8609  158.5775 C   0  0  0  0  0  0  0  0  0  0  0  0
  151.4649  139.4640  157.9615 C   0  0  0  0  0  0  0  0  0  0  0  0
  151.8957  138.3969  157.1293 C   0  0  0  0  0  0  0  0  0  0  0  0
  150.9703  137.6906  156.3166 N   0  0  0  0  0  0  0  0  0  0  0  0
  151.1594  137.1729  155.0899 C   0  0  0  0  0  0  0  0  0  0  0  0
  152.2079  137.3974  154.4733 O   0  0  0  0  0  0  0  0  0  0  0  0
  150.1065  136.4138  154.6771 N   0  5  0  0  0  0  0  0  0  0  0  0
  149.1870  135.6953  155.5669 C   0  0  0  0  0  0  0  0  0  0  0  0
  148.1542  134.8475  154.7718 C   0  0  2  0  0  0  0  0  0  0  0  0
  148.7661  133.6445  154.0114 C   0  0  0  0  0  0  0  0  0  0  0  0
  147.2656  135.7196  153.9391 N   0  3  1  0  0  0  0  0  0  0  0  0
  146.1894  135.0438  153.1685 C   0  0  0  0  0  0  0  0  0  0  0  0
  145.5716  136.0330  152.1677 C   0  0  1  0  0  0  0  0  0  0  0  0
  144.4196  135.4057  151.3756 C   0  0  0  0  0  0  0  0  0  0  0  0
  145.0597  137.1571  152.8808 O   0  0  0  0  0  0  0  0  0  0  0  0
  146.0227  137.8578  153.6701 C   0  0  2  0  0  0  0  0  0  0  0  0
  147.0069  138.6611  152.8010 C   0  0  0  0  0  0  0  0  0  0  0  0
  146.7193  136.8969  154.6551 C   0  0  0  0  0  0  0  0  0  0  0  0
  153.1946  138.1575  157.2361 N   0  0  0  0  0  0  0  0  0  0  0  0
  153.6645  139.0965  158.1616 O   0  0  0  0  0  0  0  0  0  0  0  0
  152.2811  140.8235  160.4539 H   0  0  0  0  0  0  0  0  0  0  0  0
  152.7437  141.9150  159.1466 H   0  0  0  0  0  0  0  0  0  0  0  0
  153.9560  140.8802  159.9029 H   0  0  0  0  0  0  0  0  0  0  0  0
  150.4737  139.8734  158.0858 H   0  0  0  0  0  0  0  0  0  0  0  0
  150.0675  137.5169  156.7328 H   0  0  0  0  0  0  0  0  0  0  0  0
  149.7354  135.0345  156.2383 H   0  0  0  0  0  0  0  0  0  0  0  0
  148.6442  136.3749  156.2256 H   0  0  0  0  0  0  0  0  0  0  0  0
  147.5261  134.3981  155.5422 H   0  0  0  0  0  0  0  0  0  0  0  0
  149.2929  132.9676  154.6863 H   0  0  0  0  0  0  0  0  0  0  0  0
  149.4760  133.9454  153.2391 H   0  0  0  0  0  0  0  0  0  0  0  0
  147.9859  133.0550  153.5293 H   0  0  0  0  0  0  0  0  0  0  0  0
  146.5894  134.1883  152.6245 H   0  0  0  0  0  0  0  0  0  0  0  0
  145.4211  134.6668  153.8449 H   0  0  0  0  0  0  0  0  0  0  0  0
  146.3310  136.3574  151.4556 H   0  0  0  0  0  0  0  0  0  0  0  0
  144.7628  134.5438  150.8024 H   0  0  0  0  0  0  0  0  0  0  0  0
  143.9946  136.1228  150.6730 H   0  0  0  0  0  0  0  0  0  0  0  0
  143.6195  135.0723  152.0373 H   0  0  0  0  0  0  0  0  0  0  0  0
  145.4598  138.5831  154.2582 H   0  0  0  0  0  0  0  0  0  0  0  0
  147.6446  139.2921  153.4202 H   0  0  0  0  0  0  0  0  0  0  0  0
  146.4723  139.3123  152.1093 H   0  0  0  0  0  0  0  0  0  0  0  0
  147.6629  138.0185  152.2148 H   0  0  0  0  0  0  0  0  0  0  0  0
  146.0113  136.5550  155.4116 H   0  0  0  0  0  0  0  0  0  0  0  0
  147.5155  137.4268  155.1801 H   0  0  0  0  0  0  0  0  0  0  0  0
  147.8917  136.1005  153.2425 H   0  0  0  0  0  0  0  0  0  0  0  0
  1  2  1  0  0  0  0
  1 22  1  0  0  0  0
  1 23  1  0  0  0  0
  1 24  1  0  0  0  0
  2 21  1  0  0  0  0
  2  3  2  0  0  0  0
  3  4  1  0  0  0  0
  3 25  1  0  0  0  0
  4  5  1  0  0  0  0
  4 20  2  0  0  0  0
  5  6  1  0  0  0  0
  5 26  1  0  0  0  0
  6  7  2  0  0  0  0
  6  8  1  0  0  0  0
  8  9  1  0  0  0  0
  9 10  1  0  0  0  0
  9 27  1  0  0  0  0
  9 28  1  0  0  0  0
 10 11  1  0  0  0  0
 10 12  1  0  0  0  0
 10 29  1  0  0  0  0
 11 30  1  0  0  0  0
 11 31  1  0  0  0  0
 11 32  1  0  0  0  0
 12 19  1  0  0  0  0
 12 13  1  0  0  0  0
 12 45  1  0  0  0  0
 13 14  1  0  0  0  0
 13 33  1  0  0  0  0
 13 34  1  0  0  0  0
 14 15  1  0  0  0  0
 14 16  1  0  0  0  0
 14 35  1  0  0  0  0
 15 36  1  0  0  0  0
 15 37  1  0  0  0  0
 15 38  1  0  0  0  0
 16 17  1  0  0  0  0
 17 18  1  0  0  0  0
 17 19  1  0  0  0  0
 17 39  1  0  0  0  0
 18 40  1  0  0  0  0
 18 41  1  0  0  0  0
 18 42  1  0  0  0  0
 19 43  1  0  0  0  0
 19 44  1  0  0  0  0
 20 21  1  0  0  0  0
M  CHG  1   8  -1
M  CHG  1  12   1
M  END
> <s_m_source_file>
AV-unprocessed.smi

> <i_m_source_file_index>
2061

> <i_lp_mmshare_version>
43012

> <i_f3d_flags>
0

> <s_epik_input>
W0NIM11jMVtjSF1jKG5vMSlbTkhdQyg9TylbTkhdW0NIMl1bQ0BIXShbQ0gzXSlOMltDSDJdW0NAQEhdKFtDSDNdKU9bQ0BASF0oW0NIM10pW0NIMl0y

> <s_epik_cmdline>
J2VwaWtfcHl0aG9uJywgJy1waCcsICc3LjAnLCAnLXRuJywgJzgnLCAnLW1hJywgJzIwMCcsICctbWV0YWxfYmluZGluZycsICctaW1hZScsICc8aW5maWxlLm1hZT4nLCAnLW9tYWUnLCAnPG91dGZpbGUubWFlPic=

> <r_epik_Ionization_Penalty>
6.8073

> <r_epik_Ionization_Penalty_Charging>
6.80729

> <r_epik_Ionization_Penalty_Neutral>
5.65391e-06

> <r_epik_State_Penalty>
7.47323

> <r_epik_Charging_Adjusted_Penalty>
14.2805

> <i_epik_Tot_Q>
0

> <i_epik_Tot_abs_Q>
2

> <r_epik_Metal_State_Penalty>
3.40035

> <b_epik_Metal_Only>
1

> <s_lp_Force_Field>
OPLS_2005

> <r_lp_Energy>
16.7719

> <b_lp_Chiralities_Consistent>
1

> <s_lp_Variant>
AV-unprocessed.smi:2061-33

> <Gold.Version>
5.8.1

> <Gold.Id.Protein>
6NUR|6NUR_protein|mol2

> <Gold.PLP.Fitness>
35.0430

> <Gold.PLP.PLP>
-24.5740

> <Gold.PLP.part.hbond>
-3.5733

> <Gold.PLP.part.metal>
0.0000

> <Gold.PLP.part.buried>
-3.8455

> <Gold.PLP.part.nonpolar>
-19.0282

> <Gold.PLP.part.repulsive>
1.0466

> <Gold.PLP.ligand.clash>
0.0000

> <Gold.PLP.ligand.torsion>
0.5149

> <Gold.PLP.Chemscore.Hbond>
3.7520

> <Gold.PLP.Chemscore.CHOScore>
0.0000

> <Gold.PLP.Chemscore.Metal>
0.0000

> <Gold.Chemscore.Hbonds>
donor molecule, donor type, donor heavy atom, donor atom, acceptor molecule, acceptor atom, score
      L1  H    12    45       P1  7948  2.00
      P1  H  7997  8010       L1    21  1.00
      P1  H 10752 10763       L1     7  0.78

> <Gold.PLP.Chemscore.Internal.Correction>
0.2428

> <Gold.Rescore>
     Score         DG    S(hbond)    S(metal)    S(lipo)     H(rot)  DE(clash)    DE(int)     intcor
     14.57     -15.48       2.39        0.00      51.28       1.56       0.21       0.70       ----

> <Gold.Chemscore.Fitness>
14.5658

> <Gold.Chemscore.DG>
-15.4796

> <Gold.Chemscore.ZeroCoef>
-5.4800

> <Gold.Chemscore.Hbond>
2.3896

> <Gold.Chemscore.Metal>
0.0000

> <Gold.Chemscore.Lipo>
51.2758

> <Gold.Chemscore.Internal_Hbond>
0.0000

> <Gold.Chemscore.DEClash>
0.2121

> <Gold.Chemscore.DEInternal>
0.7016

> <Gold.Chemscore.Rot>
1.5550

> <Gold.Chemscore.Internal.Correction>
   9.000000E+99

> <Gold.Chemscore.Hbonds>
donor molecule, donor type, donor heavy atom, donor atom, acceptor molecule, acceptor atom, score
      L1  H    12    45       P1  7948  1.00
      P1  H  7997  8010       L1    21  0.39
      P1  H 10752 10763       L1     7  0.35

> <Gold.Chemscore.Hbond.Weighted>
-7.9812

> <Gold.Chemscore.Metal.Weighted>
-0.0000

> <Gold.Chemscore.Lipo.Weighted>
-5.9993

> <Gold.Chemscore.Internal_Hbond.Weighted>
0.0000

> <Gold.Chemscore.DEClash.Weighted>
0.2121

> <Gold.Chemscore.DEInternal.Weighted>
0.7016

> <Gold.Chemscore.Rot.Weighted>
3.9809

> <Gold.Chemscore.Internal.Correction.Weighted>
   9.000000E+99

> <Gold.Protein.RotatedTorsions>
[ 6907 6896 6895 6894 ] final -163.17 input  -60.11 | X-H torsion
[ 7974 7965 7964 7962 ] final   34.55 input  175.53 | X-H torsion
[ 8008 7997 7996 7995 ] final    8.13 input   59.86 | X-H torsion
[ 10167 10162 10161 10158 ] final   -5.31 input  -65.29 | X-H torsion
[ 10718 10713 10712 10709 ] final  -10.73 input   66.30 | X-H torsion
[ 10763 10752 10751 10750 ] final   37.56 input  -60.55 | X-H torsion
[ 11005 11000 10999 10996 ] final  161.72 input  -57.11 | X-H torsion

> <Gold.Protein.ActiveResidues>
 VAL166  LYS551  ARG553  GLY616  TRP617  ASP618  TYR619  PRO620  LYS621  CYS622 
 ASP623  PHE694  ASN695  SER759  ASP760  ASP761  ALA762  ILE779  LEU786  VAL792 
 PHE793  MET794  SER795  GLU796  ALA797  LYS798  CYS799  TRP800  GLU811  SER814 

> <Gold.Protein.RotatedAtoms>
  151.3918  133.3786  159.2721 H   0  0  0  0  0  0  0  0  0  0  0  0  # atno 6907 bound_to 6896
  150.9499  134.8901  159.7676 H   0  0  0  0  0  0  0  0  0  0  0  0  # atno 6908 bound_to 6896
  152.5107  134.3873  159.9424 H   0  0  0  0  0  0  0  0  0  0  0  0  # atno 6909 bound_to 6896
  146.1345  139.6254  142.9205 H   0  0  0  0  0  0  0  0  0  0  0  0  # atno 7974 bound_to 7965
  154.7628  140.2787  155.6200 H   0  0  0  0  0  0  0  0  0  0  0  0  # atno 8008 bound_to 7997
  156.2919  140.2656  156.2338 H   0  0  0  0  0  0  0  0  0  0  0  0  # atno 8009 bound_to 7997
  154.9996  140.0373  157.2344 H   0  0  0  0  0  0  0  0  0  0  0  0  # atno 8010 bound_to 7997
  140.6959  143.6323  150.8512 H   0  0  0  0  0  0  0  0  0  0  0  0  # atno 10167 bound_to 10162
  156.6692  130.5004  149.6005 H   0  0  0  0  0  0  0  0  0  0  0  0  # atno 10718 bound_to 10713
  153.0033  135.6274  154.2164 H   0  0  0  0  0  0  0  0  0  0  0  0  # atno 10763 bound_to 10752
  154.1908  135.2809  155.3024 H   0  0  0  0  0  0  0  0  0  0  0  0  # atno 10764 bound_to 10752
  154.5761  135.5661  153.7200 H   0  0  0  0  0  0  0  0  0  0  0  0  # atno 10765 bound_to 10752
  140.2186  134.8213  157.3197 H   0  0  0  0  0  0  0  0  0  0  0  0  # atno 11005 bound_to 11000
  145.5187  141.0433  143.2447 LP  0  0  0  0  0  0  0  0  0  0  0  0  # atno 17320 bound_to 7965
  144.7725  139.6703  143.7189 LP  0  0  0  0  0  0  0  0  0  0  0  0  # atno 17321 bound_to 7965
  140.0040  143.5713  152.2864 LP  0  0  0  0  0  0  0  0  0  0  0  0  # atno 17342 bound_to 10162
  139.6413  144.7655  151.2333 LP  0  0  0  0  0  0  0  0  0  0  0  0  # atno 17343 bound_to 10162
  156.1951  130.6584  151.1105 LP  0  0  0  0  0  0  0  0  0  0  0  0  # atno 17370 bound_to 10713
  157.7083  131.0746  150.6591 LP  0  0  0  0  0  0  0  0  0  0  0  0  # atno 17371 bound_to 10713
  140.1873  134.4415  155.7736 LP  0  0  0  0  0  0  0  0  0  0  0  0  # atno 17394 bound_to 11000
  141.2224  133.7011  156.7969 LP  0  0  0  0  0  0  0  0  0  0  0  0  # atno 17395 bound_to 11000

$$$$
