#       Name:                AV-unprocessed.smi:2395
#       Creating user name   scv26
#       Creation time:       Fri Mar 27 13:12:09 2020


#       File generated by GOLD software.
#

@<TRIPOS>MOLECULE
AV-unprocessed.smi:2395
    44    45     1
SMALL
NO_CHARGES


@<TRIPOS>ATOM
      1 ****        -3.5761   2.5576  -1.6320 C.3            1 S1                 0.0000
      2 ****        -2.4115   1.6189  -1.4976 C.2            1 S1                 0.0000
      3 ****        -1.1826   2.1065  -1.5143 N.2            1 S1                 0.0000
      4 ****        -0.3811   1.0314  -1.3658 N.pl3          1 S1                 0.0000
      5 ****         1.0624   1.2227  -1.3354 C.3            1 S1                 0.0000
      6 ****         1.6418   1.1362   0.0818 C.2            1 S1                 0.0000
      7 ****         0.9308   1.3196   1.0711 O.2            1 S1                 0.0000
      8 ****         2.9494   0.8484   0.1620 N.am           1 S1                 0.0000
      9 ****         3.6967   0.6925   1.4029 C.3            1 S1                 0.0000
     10 ****         3.4774  -0.6272   2.1178 C.3            1 S1                 0.0000
     11 ****         4.4654  -1.1080   3.1543 C.3            1 S1                 0.0000
     12 ****         4.3525  -1.8242   1.8294 C.3            1 S1                 0.0000
     13 ****        -1.1098  -0.1404  -1.2624 C.2            1 S1                 0.0000
     14 ****        -0.4598  -1.4755  -1.0845 C.3            1 S1                 0.0000
     15 ****        -2.4328   0.2016  -1.3483 C.2            1 S1                 0.0000
     16 ****        -3.6424  -0.6932  -1.2909 C.3            1 S1                 0.0000
     17 ****        -4.0758  -0.9569   0.1570 C.3            1 S1                 0.0000
     18 ****        -5.2144  -1.7904   0.1745 O.3            1 S1                 0.0000
     19 ****        -4.4034   2.2493  -0.9924 H              1 S1                 0.0000
     20 ****        -3.9407   2.5802  -2.6589 H              1 S1                 0.0000
     21 ****        -3.3063   3.5763  -1.3511 H              1 S1                 0.0000
     22 ****         1.5246   0.4694  -1.9747 H              1 S1                 0.0000
     23 ****         1.3089   2.1962  -1.7620 H              1 S1                 0.0000
     24 ****         3.4611   0.7172  -0.6986 H              1 S1                 0.0000
     25 ****         4.7571   0.8044   1.1749 H              1 S1                 0.0000
     26 ****         3.4453   1.5056   2.0858 H              1 S1                 0.0000
     27 ****         2.4326  -0.8396   2.3378 H              1 S1                 0.0000
     28 ****         5.3564  -0.5068   3.3242 H              1 S1                 0.0000
     29 ****         4.0664  -1.6094   4.0337 H              1 S1                 0.0000
     30 ****         3.8778  -2.8033   1.8252 H              1 S1                 0.0000
     31 ****         5.1670  -1.6979   1.1187 H              1 S1                 0.0000
     32 ****        -1.2014  -2.2707  -1.0112 H              1 S1                 0.0000
     33 ****         0.1388  -1.4971  -0.1738 H              1 S1                 0.0000
     34 ****         0.1941  -1.7049  -1.9258 H              1 S1                 0.0000
     35 ****        -4.4735  -0.2481  -1.8393 H              1 S1                 0.0000
     36 ****        -3.4417  -1.6432  -1.7876 H              1 S1                 0.0000
     37 ****        -3.2742  -1.4388   0.7178 H              1 S1                 0.0000
     38 ****        -4.3132  -0.0210   0.6638 H              1 S1                 0.0000
     39 ****        -5.4640  -1.9382   1.0739 H              1 S1                 0.0000
     40 ****        -0.9076   3.0627  -1.6149 LP             1 S1                 0.0000
     41 ****        -0.0405   1.5287   0.9570 LP             1 S1                 0.0000
     42 ****         1.3249   1.2595   1.9882 LP             1 S1                 0.0000
     43 ****        -5.0003  -2.6632  -0.2639 LP             1 S1                 0.0000
     44 ****        -5.9649  -1.3466  -0.3153 LP             1 S1                 0.0000
@<TRIPOS>BOND
    1    1    2 1     
    2    1   19 1     
    3    1   20 1     
    4    1   21 1     
    5    2   15 1     
    6    2    3 2     
    7    3    4 1     
    8    4    5 1     
    9    4   13 1     
   10    5    6 1     
   11    5   22 1     
   12    5   23 1     
   13    6    7 2     
   14    6    8 am    
   15    8    9 1     
   16    8   24 1     
   17    9   10 1     
   18    9   25 1     
   19    9   26 1     
   20   10   12 1     
   21   10   11 1     
   22   10   27 1     
   23   11   12 1     
   24   11   28 1     
   25   11   29 1     
   26   12   30 1     
   27   12   31 1     
   28   13   14 1     
   29   13   15 2     
   30   14   32 1     
   31   14   33 1     
   32   14   34 1     
   33   15   16 1     
   34   16   17 1     
   35   16   35 1     
   36   16   36 1     
   37   17   18 1     
   38   17   37 1     
   39   17   38 1     
   40   18   39 1     
   41    3   40 1     
   42    7   41 1     
   43    7   42 1     
   44   18   43 1     
   45   18   44 1     
@<TRIPOS>SUBSTRUCTURE
      1 S1             1
@<TRIPOS>SET
LONE_PAIRS      STATIC     ATOMS    <user>   **** ""
5 40 41 42 43 44
DONOR_HYDROGENS      STATIC     ATOMS    <user>   **** ""
2 24 39
ATOM$BLUE        STATIC     ATOMS    COLORGROUP SYSTEM
5 40 41 42 43 44
ATOM$RED        STATIC     ATOMS    COLORGROUP SYSTEM
2 24 39
