#       Name:                AV-unprocessed.smi:2313
#       Creating user name   scv26
#       Creation time:       Fri Mar 27 12:49:01 2020


#       File generated by GOLD software.
#

@<TRIPOS>MOLECULE
AV-unprocessed.smi:2313
    43    44     1
SMALL
NO_CHARGES


@<TRIPOS>ATOM
      1 ****        -3.2382   3.5828  -2.7103 C.3            1 S1                 0.0000
      2 ****        -2.6208   2.7301  -1.6176 C.2            1 S1                 0.0000
      3 ****        -2.2266   3.3339  -0.3617 C.2            1 S1                 0.0000
      4 ****        -1.6798   2.5667   0.5931 C.2            1 S1                 0.0000
      5 ****        -1.4776   1.1871   0.4131 N.am           1 S1                 0.0000
      6 ****        -0.8607   0.4449   1.5253 C.3            1 S1                 0.0000
      7 ****         0.6198   0.1324   1.2725 C.2            1 S1                 0.0000
      8 ****         1.3455   0.9686   0.7349 O.2            1 S1                 0.0000
      9 ****         1.0395  -1.0813   1.6683 N.am           1 S1                 0.0000
     10 ****         2.3695  -1.6833   1.5104 C.3            1 S1                 0.0000
     11 ****         2.4820  -2.7586   2.6035 C.3            1 S1                 0.0000
     12 ****         3.4477  -0.7005   1.7360 C.1            1 S1                 0.0000
     13 ****         4.2947   0.0679   1.9143 N.1            1 S1                 0.0000
     14 ****         2.6219  -2.3438   0.1524 C.3            1 S1                 0.0000
     15 ****         2.1902  -1.7551  -1.1737 C.3            1 S1                 0.0000
     16 ****         1.5170  -3.0014  -0.6444 C.3            1 S1                 0.0000
     17 ****        -1.8266   0.5494  -0.7452 C.2            1 S1                 0.0000
     18 ****        -1.6477  -0.6609  -0.8964 O.2            1 S1                 0.0000
     19 ****        -2.4222   1.4010  -1.7869 C.2            1 S1                 0.0000
     20 ****        -2.7793   0.7355  -2.9981 C.1            1 S1                 0.0000
     21 ****        -3.0729   0.2137  -3.9888 N.1            1 S1                 0.0000
     22 ****        -3.3245   4.6237  -2.3973 H              1 S1                 0.0000
     23 ****        -4.2364   3.2211  -2.9585 H              1 S1                 0.0000
     24 ****        -2.6251   3.5504  -3.6113 H              1 S1                 0.0000
     25 ****        -2.3644   4.3918  -0.1926 H              1 S1                 0.0000
     26 ****        -1.3585   2.9604   1.5465 H              1 S1                 0.0000
     27 ****        -0.9331   1.0056   2.4580 H              1 S1                 0.0000
     28 ****        -1.4136  -0.4799   1.7021 H              1 S1                 0.0000
     29 ****         0.3483  -1.6739   2.1047 H              1 S1                 0.0000
     30 ****         3.4584  -3.2441   2.5832 H              1 S1                 0.0000
     31 ****         1.7264  -3.5352   2.4777 H              1 S1                 0.0000
     32 ****         2.3536  -2.3294   3.5982 H              1 S1                 0.0000
     33 ****         3.5821  -2.8558   0.1171 H              1 S1                 0.0000
     34 ****         1.6001  -0.8434  -1.1868 H              1 S1                 0.0000
     35 ****         2.8690  -1.8732  -2.0156 H              1 S1                 0.0000
     36 ****         1.7475  -3.9446  -1.1355 H              1 S1                 0.0000
     37 ****         0.4930  -2.9021  -0.2901 H              1 S1                 0.0000
     38 ****         0.9705   1.8544   0.4617 LP             1 S1                 0.0000
     39 ****         2.3102   0.7622   0.5713 LP             1 S1                 0.0000
     40 ****         5.0265   0.7318   2.0683 LP             1 S1                 0.0000
     41 ****        -1.2380  -1.2014  -0.1616 LP             1 S1                 0.0000
     42 ****        -1.9122  -1.1022  -1.7539 LP             1 S1                 0.0000
     43 ****        -3.3265  -0.2371  -4.8447 LP             1 S1                 0.0000
@<TRIPOS>BOND
    1    1    2 1     
    2    1   22 1     
    3    1   23 1     
    4    1   24 1     
    5    2   19 2     
    6    2    3 1     
    7    3    4 2     
    8    3   25 1     
    9    4    5 1     
   10    4   26 1     
   11    5    6 1     
   12    5   17 am    
   13    6    7 1     
   14    6   27 1     
   15    6   28 1     
   16    7    8 2     
   17    7    9 am    
   18    9   10 1     
   19    9   29 1     
   20   10   11 1     
   21   10   12 1     
   22   10   14 1     
   23   11   30 1     
   24   11   31 1     
   25   11   32 1     
   26   12   13 3     
   27   14   16 1     
   28   14   15 1     
   29   14   33 1     
   30   15   16 1     
   31   15   34 1     
   32   15   35 1     
   33   16   36 1     
   34   16   37 1     
   35   17   18 2     
   36   17   19 1     
   37   19   20 1     
   38   20   21 3     
   39    8   38 1     
   40    8   39 1     
   41   13   40 1     
   42   18   41 1     
   43   18   42 1     
   44   21   43 1     
@<TRIPOS>SUBSTRUCTURE
      1 S1             1
@<TRIPOS>SET
LONE_PAIRS      STATIC     ATOMS    <user>   **** ""
6 38 39 40 41 42 43
DONOR_HYDROGENS      STATIC     ATOMS    <user>   **** ""
1 29
ATOM$BLUE        STATIC     ATOMS    COLORGROUP SYSTEM
6 38 39 40 41 42 43
ATOM$RED        STATIC     ATOMS    COLORGROUP SYSTEM
1 29
