AV-unprocessed.smi:3039|AV-procd|sdf|11591|dock7
  -GOLD-   2272016563D 1   1.00000     0.00000
 Structure written by MMmdl.
 38 39  0  0  0  0  0  0  0  0  1 V2000
  152.6977  140.1535  157.4154 O   0  0  0  0  0  0  0  0  0  0  0  0
  151.8565  141.0173  157.1683 C   0  0  0  0  0  0  0  0  0  0  0  0
  150.9321  140.8551  155.9620 C   0  0  0  0  0  0  0  0  0  0  0  0
  151.1834  139.5308  155.2937 C   0  0  0  0  0  0  0  0  0  0  0  0
  150.2321  138.6084  154.7757 C   0  0  0  0  0  0  0  0  0  0  0  0
  151.0040  137.5921  154.2912 C   0  0  0  0  0  0  0  0  0  0  0  0
  152.3198  137.8603  154.4857 O   0  0  0  0  0  0  0  0  0  0  0  0
  152.4249  139.1011  155.1243 N   0  0  0  0  0  0  0  0  0  0  0  0
  151.6846  142.1288  157.9054 N   0  0  0  0  0  0  0  0  0  0  0  0
  152.4383  142.5364  159.0957 C   0  0  2  0  0  0  0  0  0  0  0  0
  152.8571  141.2902  159.9153 C   0  0  0  0  0  0  0  0  0  0  0  0
  154.0165  141.5576  160.8890 C   0  0  0  0  0  0  0  0  0  0  0  0
  153.5999  142.0686  162.2773 C   0  0  0  0  0  0  0  0  0  0  0  0
  152.4433  143.0804  162.3038 C   0  0  0  0  0  0  0  0  0  0  0  0
  152.4552  144.1170  161.1681 C   0  0  0  0  0  0  0  0  0  0  0  0
  151.7026  143.6525  159.8987 C   0  0  1  0  0  0  0  0  0  0  0  0
  151.3292  144.8718  159.0211 C   0  0  0  0  0  0  0  0  0  0  0  0
  150.3639  144.5364  158.0449 O   0  0  0  0  0  0  0  0  0  0  0  0
  149.8957  140.9203  156.2949 H   0  0  0  0  0  0  0  0  0  0  0  0
  151.0846  141.6810  155.2651 H   0  0  0  0  0  0  0  0  0  0  0  0
  149.1546  138.6805  154.7657 H   0  0  0  0  0  0  0  0  0  0  0  0
  150.7776  136.6560  153.8026 H   0  0  0  0  0  0  0  0  0  0  0  0
  150.9617  142.7674  157.6057 H   0  0  0  0  0  0  0  0  0  0  0  0
  153.3542  142.9713  158.6948 H   0  0  0  0  0  0  0  0  0  0  0  0
  152.0082  140.8536  160.4426 H   0  0  0  0  0  0  0  0  0  0  0  0
  153.1950  140.5240  159.2156 H   0  0  0  0  0  0  0  0  0  0  0  0
  154.5807  140.6348  161.0292 H   0  0  0  0  0  0  0  0  0  0  0  0
  154.7210  142.2562  160.4360 H   0  0  0  0  0  0  0  0  0  0  0  0
  153.3235  141.2202  162.9044 H   0  0  0  0  0  0  0  0  0  0  0  0
  154.4757  142.5116  162.7531 H   0  0  0  0  0  0  0  0  0  0  0  0
  151.4903  142.5499  162.3062 H   0  0  0  0  0  0  0  0  0  0  0  0
  152.4802  143.6027  163.2604 H   0  0  0  0  0  0  0  0  0  0  0  0
  151.9591  145.0106  161.5485 H   0  0  0  0  0  0  0  0  0  0  0  0
  153.4737  144.4279  160.9329 H   0  0  0  0  0  0  0  0  0  0  0  0
  150.7526  143.2416  160.2406 H   0  0  0  0  0  0  0  0  0  0  0  0
  150.9463  145.6934  159.6265 H   0  0  0  0  0  0  0  0  0  0  0  0
  152.2136  145.2588  158.5141 H   0  0  0  0  0  0  0  0  0  0  0  0
  149.6831  145.1917  158.0581 H   0  0  0  0  0  0  0  0  0  0  0  0
  1  2  2  0  0  0  0
  2  3  1  0  0  0  0
  2  9  1  0  0  0  0
  3  4  1  0  0  0  0
  3 19  1  0  0  0  0
  3 20  1  0  0  0  0
  4  8  2  0  0  0  0
  4  5  1  0  0  0  0
  5  6  2  0  0  0  0
  5 21  1  0  0  0  0
  6  7  1  0  0  0  0
  6 22  1  0  0  0  0
  7  8  1  0  0  0  0
  9 10  1  0  0  0  0
  9 23  1  0  0  0  0
 10 16  1  0  0  0  0
 10 11  1  0  0  0  0
 10 24  1  0  0  0  0
 11 12  1  0  0  0  0
 11 25  1  0  0  0  0
 11 26  1  0  0  0  0
 12 13  1  0  0  0  0
 12 27  1  0  0  0  0
 12 28  1  0  0  0  0
 13 14  1  0  0  0  0
 13 29  1  0  0  0  0
 13 30  1  0  0  0  0
 14 15  1  0  0  0  0
 14 31  1  0  0  0  0
 14 32  1  0  0  0  0
 15 16  1  0  0  0  0
 15 33  1  0  0  0  0
 15 34  1  0  0  0  0
 16 17  1  0  0  0  0
 16 35  1  0  0  0  0
 17 18  1  0  0  0  0
 17 36  1  0  0  0  0
 17 37  1  0  0  0  0
 18 38  1  0  0  0  0
M  END
> <s_m_source_file>
AV-unprocessed.smi

> <i_m_source_file_index>
3039

> <i_lp_mmshare_version>
43012

> <i_f3d_flags>
0

> <s_epik_input>
bjFvW2NIXVtjSF1jMVtDSDJdQyg9TylbTkhdW0NAQEhdMltDSDJdW0NIMl1bQ0gyXVtDSDJdW0NIMl1bQ0BIXTJbQ0gyXVtPSF0=

> <s_epik_cmdline>
J2VwaWtfcHl0aG9uJywgJy1waCcsICc3LjAnLCAnLXRuJywgJzgnLCAnLW1hJywgJzIwMCcsICctbWV0YWxfYmluZGluZycsICctaW1hZScsICc8aW5maWxlLm1hZT4nLCAnLW9tYWUnLCAnPG91dGZpbGUubWFlPic=

> <r_lp_tautomer_probability>
1

> <r_epik_Ionization_Penalty>
3.05817e-07

> <r_epik_Ionization_Penalty_Charging>
0

> <r_epik_Ionization_Penalty_Neutral>
3.05817e-07

> <r_epik_State_Penalty>
-0

> <r_epik_Charging_Adjusted_Penalty>
0

> <i_epik_Tot_Q>
0

> <i_epik_Tot_abs_Q>
0

> <r_epik_Metal_State_Penalty>
-0

> <b_epik_Metal_Only>
0

> <s_lp_Force_Field>
OPLS_2005

> <r_lp_Energy>
18.2522

> <b_lp_Chiralities_Consistent>
1

> <s_lp_Variant>
AV-unprocessed.smi:3039-1

> <Gold.Version>
5.8.1

> <Gold.Id.Protein>
6NUR|6NUR_protein|mol2

> <Gold.PLP.Fitness>
51.5846

> <Gold.PLP.PLP>
-43.6429

> <Gold.PLP.part.hbond>
-3.9187

> <Gold.PLP.part.metal>
0.0000

> <Gold.PLP.part.buried>
-2.9475

> <Gold.PLP.part.nonpolar>
-36.3844

> <Gold.PLP.part.repulsive>
0.1578

> <Gold.PLP.ligand.clash>
0.0000

> <Gold.PLP.ligand.torsion>
0.6076

> <Gold.PLP.Chemscore.Hbond>
2.0388

> <Gold.PLP.Chemscore.CHOScore>
0.9826

> <Gold.PLP.Chemscore.Metal>
0.0000

> <Gold.Chemscore.Hbonds>
donor molecule, donor type, donor heavy atom, donor atom, acceptor molecule, acceptor atom, score
      L1  H    18    38       P1  8029  0.84
      P1  H  7997  8009       L1     1  1.00
      P1  H 10752 10765       L1     7  0.20
      L1  C     6    22       P1  7948  0.21
      L1  C     6    22       P1  7949  0.77

> <Gold.PLP.Chemscore.Internal.Correction>
0.0926

> <Gold.Rescore>
     Score         DG    S(hbond)    S(metal)    S(lipo)     H(rot)  DE(clash)    DE(int)     intcor
     14.09     -19.51       2.00        0.00     112.41       2.26       0.15       5.27       ----

> <Gold.Chemscore.Fitness>
14.0907

> <Gold.Chemscore.DG>
-19.5111

> <Gold.Chemscore.ZeroCoef>
-5.4800

> <Gold.Chemscore.Hbond>
1.9965

> <Gold.Chemscore.Metal>
0.0000

> <Gold.Chemscore.Lipo>
112.4125

> <Gold.Chemscore.Internal_Hbond>
0.0000

> <Gold.Chemscore.DEClash>
0.1461

> <Gold.Chemscore.DEInternal>
5.2742

> <Gold.Chemscore.Rot>
2.2616

> <Gold.Chemscore.Internal.Correction>
   9.000000E+99

> <Gold.Chemscore.Hbonds>
donor molecule, donor type, donor heavy atom, donor atom, acceptor molecule, acceptor atom, score
      L1  H    18    38       P1  8029  0.17
      P1  H  7997  8009       L1     1  0.97
      P1  H 10752 10765       L1     7  0.02

> <Gold.Chemscore.Hbond.Weighted>
-6.6684

> <Gold.Chemscore.Metal.Weighted>
-0.0000

> <Gold.Chemscore.Lipo.Weighted>
-13.1523

> <Gold.Chemscore.Internal_Hbond.Weighted>
0.0000

> <Gold.Chemscore.DEClash.Weighted>
0.1461

> <Gold.Chemscore.DEInternal.Weighted>
5.2742

> <Gold.Chemscore.Rot.Weighted>
5.7896

> <Gold.Chemscore.Internal.Correction.Weighted>
   9.000000E+99

> <Gold.Protein.RotatedTorsions>
[ 6907 6896 6895 6894 ] final  -23.81 input  -60.11 | X-H torsion
[ 7974 7965 7964 7962 ] final  -76.45 input  175.53 | X-H torsion
[ 8008 7997 7996 7995 ] final  175.54 input   59.86 | X-H torsion
[ 10167 10162 10161 10158 ] final  155.77 input  -65.29 | X-H torsion
[ 10718 10713 10712 10709 ] final   96.45 input   66.30 | X-H torsion
[ 10763 10752 10751 10750 ] final  158.90 input  -60.55 | X-H torsion
[ 11005 11000 10999 10996 ] final   28.12 input  -57.11 | X-H torsion

> <Gold.Protein.ActiveResidues>
 VAL166  LYS551  ARG553  GLY616  TRP617  ASP618  TYR619  PRO620  LYS621  CYS622 
 ASP623  PHE694  ASN695  SER759  ASP760  ASP761  ALA762  ILE779  LEU786  VAL792 
 PHE793  MET794  SER795  GLU796  ALA797  LYS798  CYS799  TRP800  GLU811  SER814 

> <Gold.Protein.RotatedAtoms>
  151.1985  135.0433  159.8862 H   0  0  0  0  0  0  0  0  0  0  0  0  # atno 6907 bound_to 6896
  152.5434  134.0876  159.8273 H   0  0  0  0  0  0  0  0  0  0  0  0  # atno 6908 bound_to 6896
  151.1014  133.5193  159.2642 H   0  0  0  0  0  0  0  0  0  0  0  0  # atno 6909 bound_to 6896
  145.6127  140.9383  143.1181 H   0  0  0  0  0  0  0  0  0  0  0  0  # atno 7974 bound_to 7965
  156.0859  140.1406  156.9653 H   0  0  0  0  0  0  0  0  0  0  0  0  # atno 8008 bound_to 7997
  154.4612  140.0942  156.6947 H   0  0  0  0  0  0  0  0  0  0  0  0  # atno 8009 bound_to 7997
  155.4999  140.3450  155.4371 H   0  0  0  0  0  0  0  0  0  0  0  0  # atno 8010 bound_to 7997
  139.4821  144.5068  151.8085 H   0  0  0  0  0  0  0  0  0  0  0  0  # atno 10167 bound_to 10162
  157.6926  131.0578  150.4494 H   0  0  0  0  0  0  0  0  0  0  0  0  # atno 10718 bound_to 10713
  154.2233  135.2781  155.2917 H   0  0  0  0  0  0  0  0  0  0  0  0  # atno 10763 bound_to 10752
  154.5684  135.5626  153.7075 H   0  0  0  0  0  0  0  0  0  0  0  0  # atno 10764 bound_to 10752
  153.0037  135.6315  154.2373 H   0  0  0  0  0  0  0  0  0  0  0  0  # atno 10765 bound_to 10752
  140.3189  134.2565  155.7720 H   0  0  0  0  0  0  0  0  0  0  0  0  # atno 11005 bound_to 11000
  144.7263  139.7864  143.7363 LP  0  0  0  0  0  0  0  0  0  0  0  0  # atno 17320 bound_to 7965
  146.1492  139.4570  143.0059 LP  0  0  0  0  0  0  0  0  0  0  0  0  # atno 17321 bound_to 7965
  140.4567  144.1779  150.5902 LP  0  0  0  0  0  0  0  0  0  0  0  0  # atno 17342 bound_to 10162
  140.4528  143.2480  151.9325 LP  0  0  0  0  0  0  0  0  0  0  0  0  # atno 17343 bound_to 10162
  156.4846  130.4081  149.6441 LP  0  0  0  0  0  0  0  0  0  0  0  0  # atno 17370 bound_to 10713
  156.3474  130.7414  151.2369 LP  0  0  0  0  0  0  0  0  0  0  0  0  # atno 17371 bound_to 10713
  141.2091  133.7758  157.0017 LP  0  0  0  0  0  0  0  0  0  0  0  0  # atno 17394 bound_to 11000
  140.0959  134.9565  157.1848 LP  0  0  0  0  0  0  0  0  0  0  0  0  # atno 17395 bound_to 11000

$$$$
