AV-unprocessed.smi:1584|AV-procd|sdf|6365|dock8
  -GOLD-   22720 6593D 1   1.00000     0.00000
 Structure written by MMmdl.
 39 40  0  0  0  0  0  0  0  0  1 V2000
  152.9218  145.3706  157.7206 C   0  0  0  0  0  0  0  0  0  0  0  0
  151.7077  144.7348  158.4148 C   0  0  2  0  0  0  0  0  0  0  0  0
  151.8874  144.6946  159.9447 C   0  0  0  0  0  0  0  0  0  0  0  0
  152.4819  143.4499  160.3992 N   0  0  0  0  0  0  0  0  0  0  0  0
  152.3274  142.8197  161.6163 C   0  0  0  0  0  0  0  0  0  0  0  0
  153.0868  141.6853  161.5854 C   0  0  0  0  0  0  0  0  0  0  0  0
  153.6748  141.7074  160.2899 C   0  0  0  0  0  0  0  0  0  0  0  0
  153.3099  142.7641  159.5818 N   0  0  0  0  0  0  0  0  0  0  0  0
  151.4943  143.3827  157.9029 N   0  0  0  0  0  0  0  0  0  0  0  0
  150.5108  142.5512  158.2792 C   0  0  0  0  0  0  0  0  0  0  0  0
  149.6412  142.8573  159.0958 O   0  0  0  0  0  0  0  0  0  0  0  0
  150.5122  141.1601  157.6315 C   0  0  2  0  0  0  0  0  0  0  0  0
  151.7396  140.3551  158.0748 C   0  0  0  0  0  0  0  0  0  0  0  0
  151.6841  138.9443  157.4749 C   0  0  0  0  0  0  0  0  0  0  0  0
  151.3832  138.9282  156.0362 N   0  0  0  0  0  0  0  0  0  0  0  0
  151.7096  137.6756  155.3521 C   0  0  0  0  0  0  0  0  0  0  0  0
  150.7879  139.9436  155.3643 C   0  0  0  0  0  0  0  0  0  0  0  0
  150.4976  139.8644  154.1702 O   0  0  0  0  0  0  0  0  0  0  0  0
  150.4886  141.2646  156.0933 C   0  0  0  0  0  0  0  0  0  0  0  0
  153.0882  146.3873  158.0776 H   0  0  0  0  0  0  0  0  0  0  0  0
  152.7767  145.4231  156.6409 H   0  0  0  0  0  0  0  0  0  0  0  0
  153.8312  144.7990  157.9079 H   0  0  0  0  0  0  0  0  0  0  0  0
  150.8328  145.3494  158.1933 H   0  0  0  0  0  0  0  0  0  0  0  0
  152.5116  145.5239  160.2809 H   0  0  0  0  0  0  0  0  0  0  0  0
  150.9227  144.8109  160.4409 H   0  0  0  0  0  0  0  0  0  0  0  0
  151.7003  143.2286  162.3949 H   0  0  0  0  0  0  0  0  0  0  0  0
  153.2050  140.9516  162.3690 H   0  0  0  0  0  0  0  0  0  0  0  0
  154.3508  140.9918  159.8455 H   0  0  0  0  0  0  0  0  0  0  0  0
  152.1604  143.0457  157.2229 H   0  0  0  0  0  0  0  0  0  0  0  0
  149.6164  140.6263  157.9552 H   0  0  0  0  0  0  0  0  0  0  0  0
  152.6549  140.8520  157.7480 H   0  0  0  0  0  0  0  0  0  0  0  0
  151.7909  140.2916  159.1627 H   0  0  0  0  0  0  0  0  0  0  0  0
  152.6328  138.4404  157.6654 H   0  0  0  0  0  0  0  0  0  0  0  0
  150.9143  138.3628  157.9842 H   0  0  0  0  0  0  0  0  0  0  0  0
  150.8435  137.2840  154.8161 H   0  0  0  0  0  0  0  0  0  0  0  0
  152.0342  136.9002  156.0472 H   0  0  0  0  0  0  0  0  0  0  0  0
  152.5140  137.8352  154.6328 H   0  0  0  0  0  0  0  0  0  0  0  0
  149.5163  141.6344  155.7649 H   0  0  0  0  0  0  0  0  0  0  0  0
  151.2261  141.9908  155.7485 H   0  0  0  0  0  0  0  0  0  0  0  0
  1  2  1  0  0  0  0
  1 20  1  0  0  0  0
  1 21  1  0  0  0  0
  1 22  1  0  0  0  0
  2  3  1  0  0  0  0
  2  9  1  0  0  0  0
  2 23  1  0  0  0  0
  3  4  1  0  0  0  0
  3 24  1  0  0  0  0
  3 25  1  0  0  0  0
  4  8  1  0  0  0  0
  4  5  1  0  0  0  0
  5  6  2  0  0  0  0
  5 26  1  0  0  0  0
  6  7  1  0  0  0  0
  6 27  1  0  0  0  0
  7  8  2  0  0  0  0
  7 28  1  0  0  0  0
  9 10  1  0  0  0  0
  9 29  1  0  0  0  0
 10 11  2  0  0  0  0
 10 12  1  0  0  0  0
 12 19  1  0  0  0  0
 12 13  1  0  0  0  0
 12 30  1  0  0  0  0
 13 14  1  0  0  0  0
 13 31  1  0  0  0  0
 13 32  1  0  0  0  0
 14 15  1  0  0  0  0
 14 33  1  0  0  0  0
 14 34  1  0  0  0  0
 15 16  1  0  0  0  0
 15 17  1  0  0  0  0
 16 35  1  0  0  0  0
 16 36  1  0  0  0  0
 16 37  1  0  0  0  0
 17 18  2  0  0  0  0
 17 19  1  0  0  0  0
 19 38  1  0  0  0  0
 19 39  1  0  0  0  0
M  END
> <s_m_source_file>
AV-unprocessed.smi

> <i_m_source_file_index>
1584

> <i_lp_mmshare_version>
43012

> <i_f3d_flags>
0

> <s_epik_input>
bjFbY0hdW2NIXVtjSF1uMVtDSDJdW0NAQEhdKFtDSDNdKVtOSF1DKD1PKVtDQEBIXTJbQ0gyXVtDSDJdTihbQ0gzXSlDKD1PKVtDSDJdMg==

> <s_epik_cmdline>
J2VwaWtfcHl0aG9uJywgJy1waCcsICc3LjAnLCAnLXRuJywgJzgnLCAnLW1hJywgJzIwMCcsICctbWV0YWxfYmluZGluZycsICctaW1hZScsICc8aW5maWxlLm1hZT4nLCAnLW9tYWUnLCAnPG91dGZpbGUubWFlPic=

> <r_lp_tautomer_probability>
1

> <r_epik_Ionization_Penalty>
0.000299422

> <r_epik_Ionization_Penalty_Charging>
0

> <r_epik_Ionization_Penalty_Neutral>
0.000299422

> <r_epik_State_Penalty>
-0

> <r_epik_Charging_Adjusted_Penalty>
0

> <i_epik_Tot_Q>
0

> <i_epik_Tot_abs_Q>
0

> <r_epik_Metal_State_Penalty>
-0

> <b_epik_Metal_Only>
0

> <s_lp_Force_Field>
OPLS_2005

> <r_lp_Energy>
13.4891

> <b_lp_Chiralities_Consistent>
1

> <s_lp_Variant>
AV-unprocessed.smi:1584-1

> <Gold.Version>
5.8.1

> <Gold.Id.Protein>
6NUR|6NUR_protein|mol2

> <Gold.PLP.Fitness>
44.3313

> <Gold.PLP.PLP>
-42.9640

> <Gold.PLP.part.hbond>
-2.0000

> <Gold.PLP.part.metal>
0.0000

> <Gold.PLP.part.buried>
-7.0856

> <Gold.PLP.part.nonpolar>
-34.7430

> <Gold.PLP.part.repulsive>
0.2406

> <Gold.PLP.ligand.clash>
0.0000

> <Gold.PLP.ligand.torsion>
0.8264

> <Gold.PLP.Chemscore.Hbond>
1.0000

> <Gold.PLP.Chemscore.CHOScore>
0.0000

> <Gold.PLP.Chemscore.Metal>
0.0000

> <Gold.Chemscore.Hbonds>
donor molecule, donor type, donor heavy atom, donor atom, acceptor molecule, acceptor atom, score
      P1  H  7989  7998       L1    18  1.00

> <Gold.PLP.Chemscore.Internal.Correction>
0.0202

> <Gold.Rescore>
     Score         DG    S(hbond)    S(metal)    S(lipo)     H(rot)  DE(clash)    DE(int)     intcor
     13.30     -16.41       0.91        0.00     104.14       1.67       2.15       0.96       ----

> <Gold.Chemscore.Fitness>
13.3002

> <Gold.Chemscore.DG>
-16.4120

> <Gold.Chemscore.ZeroCoef>
-5.4800

> <Gold.Chemscore.Hbond>
0.9078

> <Gold.Chemscore.Metal>
0.0000

> <Gold.Chemscore.Lipo>
104.1352

> <Gold.Chemscore.Internal_Hbond>
0.0000

> <Gold.Chemscore.DEClash>
2.1522

> <Gold.Chemscore.DEInternal>
0.9596

> <Gold.Chemscore.Rot>
1.6734

> <Gold.Chemscore.Internal.Correction>
   9.000000E+99

> <Gold.Chemscore.Hbonds>
donor molecule, donor type, donor heavy atom, donor atom, acceptor molecule, acceptor atom, score
      P1  H  7989  7998       L1    18  0.34

> <Gold.Chemscore.Hbond.Weighted>
-3.0322

> <Gold.Chemscore.Metal.Weighted>
-0.0000

> <Gold.Chemscore.Lipo.Weighted>
-12.1838

> <Gold.Chemscore.Internal_Hbond.Weighted>
0.0000

> <Gold.Chemscore.DEClash.Weighted>
2.1522

> <Gold.Chemscore.DEInternal.Weighted>
0.9596

> <Gold.Chemscore.Rot.Weighted>
4.2840

> <Gold.Chemscore.Internal.Correction.Weighted>
   9.000000E+99

> <Gold.Protein.RotatedTorsions>
[ 6907 6896 6895 6894 ] final  105.04 input  -60.11 | X-H torsion
[ 7974 7965 7964 7962 ] final   84.63 input  175.53 | X-H torsion
[ 8008 7997 7996 7995 ] final   54.68 input   59.86 | X-H torsion
[ 10167 10162 10161 10158 ] final  154.20 input  -65.29 | X-H torsion
[ 10718 10713 10712 10709 ] final  153.73 input   66.30 | X-H torsion
[ 10763 10752 10751 10750 ] final  -33.00 input  -60.55 | X-H torsion
[ 11005 11000 10999 10996 ] final  -17.16 input  -57.11 | X-H torsion

> <Gold.Protein.ActiveResidues>
 VAL166  LYS551  ARG553  GLY616  TRP617  ASP618  TYR619  PRO620  LYS621  CYS622 
 ASP623  PHE694  ASN695  SER759  ASP760  ASP761  ALA762  ILE779  LEU786  VAL792 
 PHE793  MET794  SER795  GLU796  ALA797  LYS798  CYS799  TRP800  GLU811  SER814 

> <Gold.Protein.RotatedAtoms>
  152.5244  133.9587  159.7706 H   0  0  0  0  0  0  0  0  0  0  0  0  # atno 6907 bound_to 6896
  150.9882  133.6168  159.2719 H   0  0  0  0  0  0  0  0  0  0  0  0  # atno 6908 bound_to 6896
  151.3321  135.0850  159.9395 H   0  0  0  0  0  0  0  0  0  0  0  0  # atno 6909 bound_to 6896
  145.5961  139.2345  143.2272 H   0  0  0  0  0  0  0  0  0  0  0  0  # atno 7974 bound_to 7965
  155.4886  140.3471  155.4351 H   0  0  0  0  0  0  0  0  0  0  0  0  # atno 8008 bound_to 7997
  156.0992  140.1431  156.9519 H   0  0  0  0  0  0  0  0  0  0  0  0  # atno 8009 bound_to 7997
  154.4683  140.0910  156.7055 H   0  0  0  0  0  0  0  0  0  0  0  0  # atno 8010 bound_to 7997
  139.4824  144.5207  151.7880 H   0  0  0  0  0  0  0  0  0  0  0  0  # atno 10167 bound_to 10162
  157.2409  131.0759  151.1793 H   0  0  0  0  0  0  0  0  0  0  0  0  # atno 10718 bound_to 10713
  153.8230  135.6872  153.4824 H   0  0  0  0  0  0  0  0  0  0  0  0  # atno 10763 bound_to 10752
  153.1558  135.4600  154.9700 H   0  0  0  0  0  0  0  0  0  0  0  0  # atno 10764 bound_to 10752
  154.7919  135.3305  154.7700 H   0  0  0  0  0  0  0  0  0  0  0  0  # atno 10765 bound_to 10752
  140.8140  133.8119  155.9592 H   0  0  0  0  0  0  0  0  0  0  0  0  # atno 11005 bound_to 11000
  146.1611  140.6787  142.9277 LP  0  0  0  0  0  0  0  0  0  0  0  0  # atno 17320 bound_to 7965
  144.7330  140.4727  143.6924 LP  0  0  0  0  0  0  0  0  0  0  0  0  # atno 17321 bound_to 7965
  140.4721  144.1572  150.5919 LP  0  0  0  0  0  0  0  0  0  0  0  0  # atno 17342 bound_to 10162
  140.4371  143.2542  151.9521 LP  0  0  0  0  0  0  0  0  0  0  0  0  # atno 17343 bound_to 10162
  157.3379  130.7018  149.6364 LP  0  0  0  0  0  0  0  0  0  0  0  0  # atno 17370 bound_to 10713
  155.9670  130.4288  150.4806 LP  0  0  0  0  0  0  0  0  0  0  0  0  # atno 17371 bound_to 10713
  140.9168  134.2191  157.4951 LP  0  0  0  0  0  0  0  0  0  0  0  0  # atno 17394 bound_to 11000
  139.8712  134.9775  156.4960 LP  0  0  0  0  0  0  0  0  0  0  0  0  # atno 17395 bound_to 11000

$$$$
