AV-unprocessed.smi:712|AV-procd|sdf|3469|dock3
  -GOLD-   22720 0463D 1   1.00000     0.00000
 Structure written by MMmdl.
 51 52  0  0  0  0  0  0  0  0  2 V2000
  150.7828  142.8093  157.4065 C   0  0  0  0  0  0  0  0  0  0  0  0
  150.8066  141.5440  156.5743 C   0  0  0  0  0  0  0  0  0  0  0  0
  149.6944  141.2064  155.7103 C   0  0  0  0  0  0  0  0  0  0  0  0
  149.7456  140.0750  154.9899 C   0  0  0  0  0  0  0  0  0  0  0  0
  150.8494  139.2054  155.0500 N   0  0  0  0  0  0  0  0  0  0  0  0
  150.7934  137.9818  154.2333 C   0  0  0  0  0  0  0  0  0  0  0  0
  150.4103  136.7602  155.0759 C   0  0  0  0  0  0  0  0  0  0  0  0
  150.6642  136.7333  156.2801 O   0  0  0  0  0  0  0  0  0  0  0  0
  149.8205  135.7488  154.4218 N   0  0  0  0  0  0  0  0  0  0  0  0
  149.5118  134.4401  154.9878 C   0  0  0  0  0  0  0  0  0  0  0  0
  148.3318  133.7730  154.2535 C   0  0  1  0  0  0  0  0  0  0  0  0
  148.7254  133.1420  152.8945 C   0  0  0  0  0  0  0  0  0  0  0  0
  147.5902  132.4178  152.2687 N   0  3  2  0  0  0  0  0  0  0  0  0
  146.5993  133.2938  151.5868 C   0  0  0  0  0  0  0  0  0  0  0  0
  145.4788  132.4934  150.8871 C   0  0  0  0  0  0  0  0  0  0  0  0
  145.9581  131.9641  149.5275 C   0  0  0  0  0  0  0  0  0  0  0  0
  144.1980  133.3269  150.7186 C   0  0  0  0  0  0  0  0  0  0  0  0
  146.9892  131.4601  153.2283 C   0  0  0  0  0  0  0  0  0  0  0  0
  146.6407  132.1488  154.5591 C   0  0  0  0  0  0  0  0  0  0  0  0
  147.8109  132.7521  155.0977 O   0  0  0  0  0  0  0  0  0  0  0  0
  151.9307  139.4654  155.8469 C   0  0  0  0  0  0  0  0  0  0  0  0
  152.8963  138.7032  155.9122 O   0  0  0  0  0  0  0  0  0  0  0  0
  151.8642  140.7048  156.6290 C   0  0  0  0  0  0  0  0  0  0  0  0
  149.9968  143.4854  157.0692 H   0  0  0  0  0  0  0  0  0  0  0  0
  151.7355  143.3351  157.3341 H   0  0  0  0  0  0  0  0  0  0  0  0
  150.6011  142.5682  158.4543 H   0  0  0  0  0  0  0  0  0  0  0  0
  148.8306  141.8518  155.6462 H   0  0  0  0  0  0  0  0  0  0  0  0
  148.9468  139.7631  154.3328 H   0  0  0  0  0  0  0  0  0  0  0  0
  150.0669  138.0812  153.4258 H   0  0  0  0  0  0  0  0  0  0  0  0
  151.7536  137.8195  153.7395 H   0  0  0  0  0  0  0  0  0  0  0  0
  149.6364  135.8703  153.4362 H   0  0  0  0  0  0  0  0  0  0  0  0
  150.3883  133.7898  154.9905 H   0  0  0  0  0  0  0  0  0  0  0  0
  149.2450  134.5974  156.0332 H   0  0  0  0  0  0  0  0  0  0  0  0
  147.5576  134.5281  154.1090 H   0  0  0  0  0  0  0  0  0  0  0  0
  149.1084  133.8948  152.2087 H   0  0  0  0  0  0  0  0  0  0  0  0
  149.5374  132.4302  153.0488 H   0  0  0  0  0  0  0  0  0  0  0  0
  146.1356  133.9600  152.3157 H   0  0  0  0  0  0  0  0  0  0  0  0
  147.1062  133.9423  150.8722 H   0  0  0  0  0  0  0  0  0  0  0  0
  145.2275  131.6227  151.4907 H   0  0  0  0  0  0  0  0  0  0  0  0
  146.2290  132.7798  148.8564 H   0  0  0  0  0  0  0  0  0  0  0  0
  145.1818  131.3746  149.0388 H   0  0  0  0  0  0  0  0  0  0  0  0
  146.8317  131.3215  149.6414 H   0  0  0  0  0  0  0  0  0  0  0  0
  144.3790  134.2164  150.1143 H   0  0  0  0  0  0  0  0  0  0  0  0
  143.8038  133.6522  151.6815 H   0  0  0  0  0  0  0  0  0  0  0  0
  143.4154  132.7468  150.2285 H   0  0  0  0  0  0  0  0  0  0  0  0
  146.1118  130.9776  152.7965 H   0  0  0  0  0  0  0  0  0  0  0  0
  147.7126  130.6653  153.4151 H   0  0  0  0  0  0  0  0  0  0  0  0
  145.8544  132.8936  154.4265 H   0  0  0  0  0  0  0  0  0  0  0  0
  146.2639  131.4155  155.2720 H   0  0  0  0  0  0  0  0  0  0  0  0
  152.6957  140.9496  157.2739 H   0  0  0  0  0  0  0  0  0  0  0  0
  147.9828  131.8511  151.5304 H   0  0  0  0  0  0  0  0  0  0  0  0
  1  2  1  0  0  0  0
  1 24  1  0  0  0  0
  1 25  1  0  0  0  0
  1 26  1  0  0  0  0
  2 23  2  0  0  0  0
  2  3  1  0  0  0  0
  3  4  2  0  0  0  0
  3 27  1  0  0  0  0
  4  5  1  0  0  0  0
  4 28  1  0  0  0  0
  5  6  1  0  0  0  0
  5 21  1  0  0  0  0
  6  7  1  0  0  0  0
  6 29  1  0  0  0  0
  6 30  1  0  0  0  0
  7  8  2  0  0  0  0
  7  9  1  0  0  0  0
  9 10  1  0  0  0  0
  9 31  1  0  0  0  0
 10 11  1  0  0  0  0
 10 32  1  0  0  0  0
 10 33  1  0  0  0  0
 11 20  1  0  0  0  0
 11 12  1  0  0  0  0
 11 34  1  0  0  0  0
 12 13  1  0  0  0  0
 12 35  1  0  0  0  0
 12 36  1  0  0  0  0
 13 14  1  0  0  0  0
 13 18  1  0  0  0  0
 13 51  1  0  0  0  0
 14 15  1  0  0  0  0
 14 37  1  0  0  0  0
 14 38  1  0  0  0  0
 15 16  1  0  0  0  0
 15 17  1  0  0  0  0
 15 39  1  0  0  0  0
 16 40  1  0  0  0  0
 16 41  1  0  0  0  0
 16 42  1  0  0  0  0
 17 43  1  0  0  0  0
 17 44  1  0  0  0  0
 17 45  1  0  0  0  0
 18 19  1  0  0  0  0
 18 46  1  0  0  0  0
 18 47  1  0  0  0  0
 19 20  1  0  0  0  0
 19 48  1  0  0  0  0
 19 49  1  0  0  0  0
 21 22  2  0  0  0  0
 21 23  1  0  0  0  0
 23 50  1  0  0  0  0
M  CHG  1  13   1
M  END
> <s_m_source_file>
AV-unprocessed.smi

> <i_m_source_file_index>
712

> <i_lp_mmshare_version>
43012

> <i_f3d_flags>
0

> <s_epik_input>
W0NIM11jMVtjSF1bY0hdbihjKD1PKVtjSF0xKVtDSDJdQyg9TylbTkhdW0NIMl1bQ0BASF0yW0NIMl1OKFtDSDJdW0NIMl1PMilbQ0gyXVtDSF0oW0NIM10pW0NIM10=

> <s_epik_cmdline>
J2VwaWtfcHl0aG9uJywgJy1waCcsICc3LjAnLCAnLXRuJywgJzgnLCAnLW1hJywgJzIwMCcsICctbWV0YWxfYmluZGluZycsICctaW1hZScsICc8aW5maWxlLm1hZT4nLCAnLW9tYWUnLCAnPG91dGZpbGUubWFlPic=

> <r_lp_tautomer_probability>
1

> <r_epik_Ionization_Penalty>
0.0975935

> <r_epik_Ionization_Penalty_Charging>
0.0975934

> <r_epik_Ionization_Penalty_Neutral>
6.27044e-08

> <r_epik_State_Penalty>
0.0877056

> <r_epik_Charging_Adjusted_Penalty>
0.185299

> <i_epik_Tot_Q>
1

> <i_epik_Tot_abs_Q>
1

> <r_epik_Metal_State_Penalty>
0.0877109

> <b_epik_Metal_Only>
0

> <s_lp_Force_Field>
OPLS_2005

> <r_lp_Energy>
28.3742

> <b_lp_Chiralities_Consistent>
1

> <s_lp_Variant>
AV-unprocessed.smi:712-2

> <Gold.Version>
5.8.1

> <Gold.Id.Protein>
6NUR|6NUR_protein|mol2

> <Gold.PLP.Fitness>
50.4966

> <Gold.PLP.PLP>
-44.2435

> <Gold.PLP.part.hbond>
-3.6008

> <Gold.PLP.part.metal>
0.0000

> <Gold.PLP.part.buried>
-4.3026

> <Gold.PLP.part.nonpolar>
-37.3828

> <Gold.PLP.part.repulsive>
0.0797

> <Gold.PLP.ligand.clash>
0.0000

> <Gold.PLP.ligand.torsion>
1.2090

> <Gold.PLP.Chemscore.Hbond>
2.8500

> <Gold.PLP.Chemscore.CHOScore>
0.0000

> <Gold.PLP.Chemscore.Metal>
0.0000

> <Gold.Chemscore.Hbonds>
donor molecule, donor type, donor heavy atom, donor atom, acceptor molecule, acceptor atom, score
      L1  H     9    31       P1  7948  0.85
      L1  H    13    51       P1 10747  1.00
      P1  H  7997  8010       L1    22  0.80

> <Gold.PLP.Chemscore.Internal.Correction>
0.1210

> <Gold.Rescore>
     Score         DG    S(hbond)    S(metal)    S(lipo)     H(rot)  DE(clash)    DE(int)     intcor
     20.26     -21.55       2.88        0.00      96.46       1.89       0.23       1.06       ----

> <Gold.Chemscore.Fitness>
20.2555

> <Gold.Chemscore.DG>
-21.5474

> <Gold.Chemscore.ZeroCoef>
-5.4800

> <Gold.Chemscore.Hbond>
2.8781

> <Gold.Chemscore.Metal>
0.0000

> <Gold.Chemscore.Lipo>
96.4573

> <Gold.Chemscore.Internal_Hbond>
0.0000

> <Gold.Chemscore.DEClash>
0.2281

> <Gold.Chemscore.DEInternal>
1.0637

> <Gold.Chemscore.Rot>
1.8871

> <Gold.Chemscore.Internal.Correction>
   9.000000E+99

> <Gold.Chemscore.Hbonds>
donor molecule, donor type, donor heavy atom, donor atom, acceptor molecule, acceptor atom, score
      L1  H     9    31       P1  7948  0.15
      L1  H    13    51       P1 10747  1.00
      P1  H  7997  8010       L1    22  0.15

> <Gold.Chemscore.Hbond.Weighted>
-9.6128

> <Gold.Chemscore.Metal.Weighted>
-0.0000

> <Gold.Chemscore.Lipo.Weighted>
-11.2855

> <Gold.Chemscore.Internal_Hbond.Weighted>
0.0000

> <Gold.Chemscore.DEClash.Weighted>
0.2281

> <Gold.Chemscore.DEInternal.Weighted>
1.0637

> <Gold.Chemscore.Rot.Weighted>
4.8309

> <Gold.Chemscore.Internal.Correction.Weighted>
   9.000000E+99

> <Gold.Protein.RotatedTorsions>
[ 6907 6896 6895 6894 ] final -136.03 input  -60.11 | X-H torsion
[ 7974 7965 7964 7962 ] final -149.27 input  175.53 | X-H torsion
[ 8008 7997 7996 7995 ] final   91.17 input   59.86 | X-H torsion
[ 10167 10162 10161 10158 ] final   29.39 input  -65.29 | X-H torsion
[ 10718 10713 10712 10709 ] final  -32.77 input   66.30 | X-H torsion
[ 10763 10752 10751 10750 ] final -123.08 input  -60.55 | X-H torsion
[ 11005 11000 10999 10996 ] final  -16.41 input  -57.11 | X-H torsion

> <Gold.Protein.ActiveResidues>
 VAL166  LYS551  ARG553  GLY616  TRP617  ASP618  TYR619  PRO620  LYS621  CYS622 
 ASP623  PHE694  ASN695  SER759  ASP760  ASP761  ALA762  ILE779  LEU786  VAL792 
 PHE793  MET794  SER795  GLU796  ALA797  LYS798  CYS799  TRP800  GLU811  SER814 

> <Gold.Protein.RotatedAtoms>
  151.0051  133.6018  159.2689 H   0  0  0  0  0  0  0  0  0  0  0  0  # atno 6907 bound_to 6896
  151.3190  135.0813  159.9309 H   0  0  0  0  0  0  0  0  0  0  0  0  # atno 6908 bound_to 6896
  152.5284  133.9702  159.7812 H   0  0  0  0  0  0  0  0  0  0  0  0  # atno 6909 bound_to 6896
  144.7978  140.5087  143.5728 H   0  0  0  0  0  0  0  0  0  0  0  0  # atno 7974 bound_to 7965
  156.0206  140.3341  155.7035 H   0  0  0  0  0  0  0  0  0  0  0  0  # atno 8008 bound_to 7997
  155.6027  140.0657  157.2746 H   0  0  0  0  0  0  0  0  0  0  0  0  # atno 8009 bound_to 7997
  154.4315  140.1807  156.1178 H   0  0  0  0  0  0  0  0  0  0  0  0  # atno 8010 bound_to 7997
  140.4770  144.0675  150.6253 H   0  0  0  0  0  0  0  0  0  0  0  0  # atno 10167 bound_to 10162
  156.3708  130.4339  149.7547 H   0  0  0  0  0  0  0  0  0  0  0  0  # atno 10718 bound_to 10713
  154.8701  135.4110  154.2886 H   0  0  0  0  0  0  0  0  0  0  0  0  # atno 10763 bound_to 10752
  153.3766  135.7010  153.6603 H   0  0  0  0  0  0  0  0  0  0  0  0  # atno 10764 bound_to 10752
  153.5443  135.3642  155.2703 H   0  0  0  0  0  0  0  0  0  0  0  0  # atno 10765 bound_to 10752
  140.8065  133.8173  155.9521 H   0  0  0  0  0  0  0  0  0  0  0  0  # atno 11005 bound_to 11000
  145.5630  139.1480  143.3331 LP  0  0  0  0  0  0  0  0  0  0  0  0  # atno 17320 bound_to 7965
  146.2251  140.5765  142.9000 LP  0  0  0  0  0  0  0  0  0  0  0  0  # atno 17321 bound_to 7965
  140.3906  143.2754  152.0065 LP  0  0  0  0  0  0  0  0  0  0  0  0  # atno 17342 bound_to 10162
  139.4827  144.6080  151.7485 LP  0  0  0  0  0  0  0  0  0  0  0  0  # atno 17343 bound_to 10162
  156.4675  130.7981  151.3000 LP  0  0  0  0  0  0  0  0  0  0  0  0  # atno 17370 bound_to 10713
  157.7483  131.0046  150.3082 LP  0  0  0  0  0  0  0  0  0  0  0  0  # atno 17371 bound_to 10713
  140.9241  134.2104  157.4907 LP  0  0  0  0  0  0  0  0  0  0  0  0  # atno 17394 bound_to 11000
  139.8717  134.9805  156.5078 LP  0  0  0  0  0  0  0  0  0  0  0  0  # atno 17395 bound_to 11000

$$$$
