#       Name:                AV-unprocessed.smi:807
#       Creating user name   scv26
#       Creation time:       Fri Mar 27 01:24:07 2020


#       File generated by GOLD software.
#

@<TRIPOS>MOLECULE
AV-unprocessed.smi:807
    40    42     1
SMALL
NO_CHARGES


@<TRIPOS>ATOM
      1 ****        -2.0032  -2.9416   0.0805 C.3            1 S1                 0.0000
      2 ****        -1.6027  -1.5797   0.3953 N.pl3          1 S1                 0.0000
      3 ****        -2.5652  -0.5943   0.6573 C.ar           1 S1                 0.0000
      4 ****        -3.8803  -0.9128   0.6452 N.ar           1 S1                 0.0000
      5 ****        -4.7626   0.0616   0.9033 C.ar           1 S1                 0.0000
      6 ****        -4.5372   1.3550   1.1828 N.ar           1 S1                 0.0000
      7 ****        -3.2373   1.6807   1.1953 C.ar           1 S1                 0.0000
      8 ****        -2.7158   2.9375   1.4508 N.2            1 S1                 0.0000
      9 ****        -1.4082   2.7159   1.3371 C.2            1 S1                 0.0000
     10 ****        -1.0141   1.4625   1.0382 N.pl3          1 S1                 0.0000
     11 ****         0.3513   0.9996   0.8627 C.3            1 S1                 0.0000
     12 ****         0.7437   0.8777  -0.6245 C.3            1 S1                 0.0000
     13 ****         0.6092   2.1223  -1.2834 O.3            1 S1                 0.0000
     14 ****         2.1223   0.2475  -0.8078 C.ar           1 S1                 0.0000
     15 ****         2.1897  -1.0840  -1.2768 C.ar           1 S1                 0.0000
     16 ****         3.4308  -1.7213  -1.4615 C.ar           1 S1                 0.0000
     17 ****         4.6227  -1.0328  -1.1752 C.ar           1 S1                 0.0000
     18 ****         4.5695   0.2910  -0.7022 C.ar           1 S1                 0.0000
     19 ****         3.3301   0.9360  -0.5146 C.ar           1 S1                 0.0000
     20 ****         3.3457   2.5599   0.0810 Cl             1 S1                 0.0000
     21 ****        -2.1985   0.7371   0.9365 C.ar           1 S1                 0.0000
     22 ****        -1.1212  -3.5594  -0.0873 H              1 S1                 0.0000
     23 ****        -2.6139  -2.9659  -0.8227 H              1 S1                 0.0000
     24 ****        -2.5739  -3.3769   0.9016 H              1 S1                 0.0000
     25 ****        -0.6205  -1.3463   0.4139 H              1 S1                 0.0000
     26 ****        -5.8007  -0.2355   0.8838 H              1 S1                 0.0000
     27 ****        -0.6930   3.5136   1.4756 H              1 S1                 0.0000
     28 ****         1.0182   1.6819   1.3895 H              1 S1                 0.0000
     29 ****         0.4494   0.0345   1.3604 H              1 S1                 0.0000
     30 ****         0.0172   0.2238  -1.1079 H              1 S1                 0.0000
     31 ****         0.7342   1.9862  -2.2102 H              1 S1                 0.0000
     32 ****         1.2836  -1.6289  -1.4987 H              1 S1                 0.0000
     33 ****         3.4678  -2.7387  -1.8222 H              1 S1                 0.0000
     34 ****         5.5766  -1.5196  -1.3159 H              1 S1                 0.0000
     35 ****         5.4875   0.8151  -0.4803 H              1 S1                 0.0000
     36 ****        -4.1838  -1.8455   0.4499 LP             1 S1                 0.0000
     37 ****        -5.2688   2.0121   1.3642 LP             1 S1                 0.0000
     38 ****        -3.1956   3.7884   1.6647 LP             1 S1                 0.0000
     39 ****         1.2975   2.7615  -0.9405 LP             1 S1                 0.0000
     40 ****        -0.3038   2.4949  -1.1173 LP             1 S1                 0.0000
@<TRIPOS>BOND
    1    1    2 1     
    2    1   22 1     
    3    1   23 1     
    4    1   24 1     
    5    2    3 1     
    6    2   25 1     
    7    3   21 ar    
    8    3    4 ar    
    9    4    5 ar    
   10    5    6 ar    
   11    5   26 1     
   12    6    7 ar    
   13    7   21 ar    
   14    7    8 1     
   15    8    9 2     
   16    9   10 1     
   17    9   27 1     
   18   10   11 1     
   19   10   21 1     
   20   11   12 1     
   21   11   28 1     
   22   11   29 1     
   23   12   13 1     
   24   12   14 1     
   25   12   30 1     
   26   13   31 1     
   27   14   19 ar    
   28   14   15 ar    
   29   15   16 ar    
   30   15   32 1     
   31   16   17 ar    
   32   16   33 1     
   33   17   18 ar    
   34   17   34 1     
   35   18   19 ar    
   36   18   35 1     
   37   19   20 1     
   38    4   36 1     
   39    6   37 1     
   40    8   38 1     
   41   13   39 1     
   42   13   40 1     
@<TRIPOS>SUBSTRUCTURE
      1 S1             1
@<TRIPOS>SET
LONE_PAIRS      STATIC     ATOMS    <user>   **** ""
5 36 37 38 39 40
DONOR_HYDROGENS      STATIC     ATOMS    <user>   **** ""
2 25 31
ATOM$BLUE        STATIC     ATOMS    COLORGROUP SYSTEM
5 36 37 38 39 40
ATOM$RED        STATIC     ATOMS    COLORGROUP SYSTEM
2 25 31
