#       Name:                AV-unprocessed.smi:1178
#       Creating user name   scv26
#       Creation time:       Fri Mar 27 03:54:46 2020


#       File generated by GOLD software.
#

@<TRIPOS>MOLECULE
AV-unprocessed.smi:1178
    43    44     1
SMALL
NO_CHARGES


@<TRIPOS>ATOM
      1 ****         0.7498   1.3740   1.4217 O.2            1 S1                 0.0000
      2 ****         0.2068   0.2683   1.4175 C.2            1 S1                 0.0000
      3 ****        -1.3051   0.1377   1.6496 C.3            1 S1                 0.0000
      4 ****        -2.0510   1.3231   1.2032 N.am           1 S1                 0.0000
      5 ****        -2.4242   2.3011   2.1143 C.2            1 S1                 0.0000
      6 ****        -3.0909   3.4275   1.7675 C.2            1 S1                 0.0000
      7 ****        -3.4567   3.6706   0.3762 C.2            1 S1                 0.0000
      8 ****        -4.0581   4.6597  -0.0367 O.2            1 S1                 0.0000
      9 ****        -3.0643   2.6638  -0.5097 N.am           1 S1                 0.0000
     10 ****        -2.3775   1.5006  -0.1590 C.2            1 S1                 0.0000
     11 ****        -2.0774   0.6767  -1.0218 O.2            1 S1                 0.0000
     12 ****         0.8785  -0.8782   1.2321 N.am           1 S1                 0.0000
     13 ****         2.3104  -0.9848   0.9739 C.3            1 S1                 0.0000
     14 ****         2.6682  -0.6107  -0.4799 C.3            1 S1                 0.0000
     15 ****         2.4322  -1.7252  -1.4082 N.am           1 S1                 0.0000
     16 ****         1.2862  -1.8568  -2.1154 C.2            1 S1                 0.0000
     17 ****         0.3361  -1.0765  -2.0672 O.2            1 S1                 0.0000
     18 ****         1.2351  -3.0968  -3.0158 C.3            1 S1                 0.0000
     19 ****         2.8021  -3.9285  -2.7454 S.3            1 S1                 0.0000
     20 ****         3.3210  -2.7130  -1.6096 C.2            1 S1                 0.0000
     21 ****         4.4158  -2.7931  -1.0532 O.2            1 S1                 0.0000
     22 ****        -3.2946   2.7890  -1.4847 H              1 S1                 0.0000
     23 ****        -1.6846  -0.7556   1.1491 H              1 S1                 0.0000
     24 ****        -1.4707  -0.0359   2.7136 H              1 S1                 0.0000
     25 ****        -2.1685   2.1664   3.1556 H              1 S1                 0.0000
     26 ****        -3.3525   4.1542   2.5231 H              1 S1                 0.0000
     27 ****         0.3540  -1.7408   1.2508 H              1 S1                 0.0000
     28 ****         2.8401  -0.3226   1.6606 H              1 S1                 0.0000
     29 ****         2.6451  -1.9943   1.2137 H              1 S1                 0.0000
     30 ****         2.1393   0.2897  -0.7974 H              1 S1                 0.0000
     31 ****         3.7238  -0.3368  -0.5220 H              1 S1                 0.0000
     32 ****         0.4039  -3.7437  -2.7351 H              1 S1                 0.0000
     33 ****         1.1278  -2.8104  -4.0622 H              1 S1                 0.0000
     34 ****         0.2050   2.1980   1.5774 LP             1 S1                 0.0000
     35 ****         1.7354   1.4476   1.2695 LP             1 S1                 0.0000
     36 ****        -4.3364   5.3780   0.6010 LP             1 S1                 0.0000
     37 ****        -4.2692   4.7463  -1.0103 LP             1 S1                 0.0000
     38 ****        -1.5841  -0.1554  -0.7685 LP             1 S1                 0.0000
     39 ****        -2.3268   0.8391  -1.9765 LP             1 S1                 0.0000
     40 ****         0.3780  -0.2738  -1.4722 LP             1 S1                 0.0000
     41 ****        -0.4780  -1.2449  -2.6230 LP             1 S1                 0.0000
     42 ****         4.6967  -2.0909  -0.3989 LP             1 S1                 0.0000
     43 ****         5.0245  -3.5603  -1.2553 LP             1 S1                 0.0000
@<TRIPOS>BOND
    1    1    2 2     
    2    2    3 1     
    3    2   12 am    
    4    3    4 1     
    5    3   23 1     
    6    3   24 1     
    7    4   10 1     
    8    4    5 1     
    9    5    6 2     
   10    5   25 1     
   11    6    7 1     
   12    6   26 1     
   13    7    8 2     
   14    7    9 1     
   15    9   22 1     
   16    9   10 1     
   17   10   11 2     
   18   12   13 1     
   19   12   27 1     
   20   13   14 1     
   21   13   28 1     
   22   13   29 1     
   23   14   15 1     
   24   14   30 1     
   25   14   31 1     
   26   15   20 am    
   27   15   16 am    
   28   16   17 2     
   29   16   18 1     
   30   18   19 1     
   31   18   32 1     
   32   18   33 1     
   33   19   20 1     
   34   20   21 2     
   35    1   34 1     
   36    1   35 1     
   37    8   36 1     
   38    8   37 1     
   39   11   38 1     
   40   11   39 1     
   41   17   40 1     
   42   17   41 1     
   43   21   42 1     
   44   21   43 1     
@<TRIPOS>SUBSTRUCTURE
      1 S1             1
@<TRIPOS>SET
LONE_PAIRS      STATIC     ATOMS    <user>   **** ""
10 34 35 36 37 38 39 40 41 42 43
DONOR_HYDROGENS      STATIC     ATOMS    <user>   **** ""
2 22 27
ATOM$BLUE        STATIC     ATOMS    COLORGROUP SYSTEM
10 34 35 36 37 38 39 40 41 42 43
ATOM$RED        STATIC     ATOMS    COLORGROUP SYSTEM
2 22 27
