AV-unprocessed.smi:1929|AV-procd|sdf|7807|dock1
  -GOLD-   22720 9543D 1   1.00000     0.00000
 Structure written by MMmdl.
 43 44  0  0  0  0  0  0  0  0  4 V2000
  153.4371  142.1223  160.9220 C   0  0  0  0  0  0  0  0  0  0  0  0
  152.3997  141.8489  159.9349 N   0  5  0  0  0  0  0  0  0  0  0  0
  152.6051  141.1020  158.8169 C   0  0  0  0  0  0  0  0  0  0  0  0
  153.5015  140.2992  158.5370 O   0  0  0  0  0  0  0  0  0  0  0  0
  151.5230  141.3734  157.7649 C   0  0  0  0  0  0  0  0  0  0  0  0
  151.1956  140.1255  157.0307 N   0  3  2  0  0  0  0  0  0  0  0  0
  152.0669  139.8936  155.8466 C   0  0  0  0  0  0  0  0  0  0  0  0
  151.7758  138.5282  155.2031 C   0  0  0  0  0  0  0  0  0  0  0  0
  150.2946  138.4005  154.8137 C   0  0  1  0  0  0  0  0  0  0  0  0
  150.0355  137.0636  154.2866 N   0  0  0  0  0  0  0  0  0  0  0  0
  150.4759  135.9194  154.8298 C   0  0  0  0  0  0  0  0  0  0  0  0
  151.1729  135.8730  155.8430 O   0  0  0  0  0  0  0  0  0  0  0  0
  150.0766  134.8539  154.1137 N   0  0  0  0  0  0  0  0  0  0  0  0
  150.3116  133.4766  154.3756 C   0  0  0  0  0  0  0  0  0  0  0  0
  151.1717  133.1502  155.4478 C   0  0  0  0  0  0  0  0  0  0  0  0
  151.4458  131.7968  155.7324 C   0  0  0  0  0  0  0  0  0  0  0  0
  150.8950  130.8251  154.9736 N   0  3  0  0  0  0  0  0  0  0  0  0
  150.0798  131.0880  153.9297 C   0  0  0  0  0  0  0  0  0  0  0  0
  149.7687  132.4225  153.5976 C   0  0  0  0  0  0  0  0  0  0  0  0
  149.4129  138.6849  156.0430 C   0  0  0  0  0  0  0  0  0  0  0  0
  149.7568  140.0459  156.6718 C   0  0  0  0  0  0  0  0  0  0  0  0
  153.0692  142.7503  161.7333 H   0  0  0  0  0  0  0  0  0  0  0  0
  154.2923  142.6445  160.4920 H   0  0  0  0  0  0  0  0  0  0  0  0
  153.8223  141.2130  161.3846 H   0  0  0  0  0  0  0  0  0  0  0  0
  150.6431  141.7297  158.3023 H   0  0  0  0  0  0  0  0  0  0  0  0
  151.7983  142.1668  157.0662 H   0  0  0  0  0  0  0  0  0  0  0  0
  151.9152  140.6925  155.1192 H   0  0  0  0  0  0  0  0  0  0  0  0
  153.1178  139.9276  156.1349 H   0  0  0  0  0  0  0  0  0  0  0  0
  152.4078  138.3948  154.3242 H   0  0  0  0  0  0  0  0  0  0  0  0
  152.0471  137.7358  155.9026 H   0  0  0  0  0  0  0  0  0  0  0  0
  150.0795  139.1425  154.0420 H   0  0  0  0  0  0  0  0  0  0  0  0
  149.4743  137.0077  153.4490 H   0  0  0  0  0  0  0  0  0  0  0  0
  149.5901  135.0545  153.2521 H   0  0  0  0  0  0  0  0  0  0  0  0
  151.6146  133.9274  156.0539 H   0  0  0  0  0  0  0  0  0  0  0  0
  152.0860  131.4650  156.5368 H   0  0  0  0  0  0  0  0  0  0  0  0
  149.7074  130.2295  153.3903 H   0  0  0  0  0  0  0  0  0  0  0  0
  149.1318  132.6111  152.7467 H   0  0  0  0  0  0  0  0  0  0  0  0
  148.3587  138.6677  155.7638 H   0  0  0  0  0  0  0  0  0  0  0  0
  149.5485  137.8987  156.7873 H   0  0  0  0  0  0  0  0  0  0  0  0
  149.1459  140.1909  157.5636 H   0  0  0  0  0  0  0  0  0  0  0  0
  149.5082  140.8539  155.9819 H   0  0  0  0  0  0  0  0  0  0  0  0
  151.3722  139.3717  157.6795 H   0  0  0  0  0  0  0  0  0  0  0  0
  151.1075  129.8519  155.1950 H   0  0  0  0  0  0  0  0  0  0  0  0
  1  2  1  0  0  0  0
  1 22  1  0  0  0  0
  1 23  1  0  0  0  0
  1 24  1  0  0  0  0
  2  3  1  0  0  0  0
  3  4  2  0  0  0  0
  3  5  1  0  0  0  0
  5  6  1  0  0  0  0
  5 25  1  0  0  0  0
  5 26  1  0  0  0  0
  6 21  1  0  0  0  0
  6  7  1  0  0  0  0
  6 42  1  0  0  0  0
  7  8  1  0  0  0  0
  7 27  1  0  0  0  0
  7 28  1  0  0  0  0
  8  9  1  0  0  0  0
  8 29  1  0  0  0  0
  8 30  1  0  0  0  0
  9 10  1  0  0  0  0
  9 20  1  0  0  0  0
  9 31  1  0  0  0  0
 10 11  1  0  0  0  0
 10 32  1  0  0  0  0
 11 12  2  0  0  0  0
 11 13  1  0  0  0  0
 13 14  1  0  0  0  0
 13 33  1  0  0  0  0
 14 19  1  0  0  0  0
 14 15  2  0  0  0  0
 15 16  1  0  0  0  0
 15 34  1  0  0  0  0
 16 17  2  0  0  0  0
 16 35  1  0  0  0  0
 17 18  1  0  0  0  0
 17 43  1  0  0  0  0
 18 19  2  0  0  0  0
 18 36  1  0  0  0  0
 19 37  1  0  0  0  0
 20 21  1  0  0  0  0
 20 38  1  0  0  0  0
 20 39  1  0  0  0  0
 21 40  1  0  0  0  0
 21 41  1  0  0  0  0
M  CHG  1   2  -1
M  CHG  1   6   1
M  CHG  1  17   1
M  END
> <s_m_source_file>
AV-unprocessed.smi

> <i_m_source_file_index>
1929

> <i_lp_mmshare_version>
43012

> <i_f3d_flags>
0

> <s_epik_input>
W0NIM11bTkhdQyg9TylbQ0gyXU4xW0NIMl1bQ0gyXVtDSF0oW0NIMl1bQ0gyXTEpW05IXUMoPU8pW05IXWMyW2NIXVtjSF1uW2NIXVtjSF0y

> <s_epik_cmdline>
J2VwaWtfcHl0aG9uJywgJy1waCcsICc3LjAnLCAnLXRuJywgJzgnLCAnLW1hJywgJzIwMCcsICctbWV0YWxfYmluZGluZycsICctaW1hZScsICc8aW5maWxlLm1hZT4nLCAnLW9tYWUnLCAnPG91dGZpbGUubWFlPic=

> <r_epik_Ionization_Penalty>
7.25133

> <r_epik_Ionization_Penalty_Charging>
7.25131

> <r_epik_Ionization_Penalty_Neutral>
1.84563e-05

> <r_epik_State_Penalty>
8.093

> <r_epik_Charging_Adjusted_Penalty>
15.3443

> <i_epik_Tot_Q>
1

> <i_epik_Tot_abs_Q>
3

> <r_epik_Metal_State_Penalty>
4.12368

> <b_epik_Metal_Only>
1

> <s_lp_Force_Field>
OPLS_2005

> <r_lp_Energy>
21.0398

> <b_lp_Chiralities_Consistent>
1

> <s_lp_Variant>
AV-unprocessed.smi:1929-9

> <Gold.Version>
5.8.1

> <Gold.Id.Protein>
6NUR|6NUR_protein|mol2

> <Gold.PLP.Fitness>
40.3349

> <Gold.PLP.PLP>
-33.7834

> <Gold.PLP.part.hbond>
-3.0307

> <Gold.PLP.part.metal>
0.0000

> <Gold.PLP.part.buried>
-4.8185

> <Gold.PLP.part.nonpolar>
-26.3689

> <Gold.PLP.part.repulsive>
0.1851

> <Gold.PLP.ligand.clash>
0.0000

> <Gold.PLP.ligand.torsion>
1.0206

> <Gold.PLP.Chemscore.Hbond>
2.7680

> <Gold.PLP.Chemscore.CHOScore>
0.0000

> <Gold.PLP.Chemscore.Metal>
0.0000

> <Gold.Chemscore.Hbonds>
donor molecule, donor type, donor heavy atom, donor atom, acceptor molecule, acceptor atom, score
      L1  H    10    32       P1  7948  1.00
      L1  H    13    33       P1  7948  0.30
      P1  H  7997  8009       L1     4  0.88

> <Gold.PLP.Chemscore.Internal.Correction>
0.2886

> <Gold.Rescore>
     Score         DG    S(hbond)    S(metal)    S(lipo)     H(rot)  DE(clash)    DE(int)     intcor
     13.43     -17.05       2.28        0.00      70.15       1.66       0.04       3.58       ----

> <Gold.Chemscore.Fitness>
13.4301

> <Gold.Chemscore.DG>
-17.0502

> <Gold.Chemscore.ZeroCoef>
-5.4800

> <Gold.Chemscore.Hbond>
2.2771

> <Gold.Chemscore.Metal>
0.0000

> <Gold.Chemscore.Lipo>
70.1515

> <Gold.Chemscore.Internal_Hbond>
0.0000

> <Gold.Chemscore.DEClash>
0.0387

> <Gold.Chemscore.DEInternal>
3.5814

> <Gold.Chemscore.Rot>
1.6574

> <Gold.Chemscore.Internal.Correction>
   9.000000E+99

> <Gold.Chemscore.Hbonds>
donor molecule, donor type, donor heavy atom, donor atom, acceptor molecule, acceptor atom, score
      L1  H    10    32       P1  7948  0.85
      P1  H  7997  8009       L1     4  0.86

> <Gold.Chemscore.Hbond.Weighted>
-7.6055

> <Gold.Chemscore.Metal.Weighted>
-0.0000

> <Gold.Chemscore.Lipo.Weighted>
-8.2077

> <Gold.Chemscore.Internal_Hbond.Weighted>
0.0000

> <Gold.Chemscore.DEClash.Weighted>
0.0387

> <Gold.Chemscore.DEInternal.Weighted>
3.5814

> <Gold.Chemscore.Rot.Weighted>
4.2430

> <Gold.Chemscore.Internal.Correction.Weighted>
   9.000000E+99

> <Gold.Protein.RotatedTorsions>
[ 6907 6896 6895 6894 ] final -177.21 input  -60.11 | X-H torsion
[ 7974 7965 7964 7962 ] final  112.79 input  175.53 | X-H torsion
[ 8008 7997 7996 7995 ] final  146.74 input   59.86 | X-H torsion
[ 10167 10162 10161 10158 ] final  -18.07 input  -65.29 | X-H torsion
[ 10718 10713 10712 10709 ] final  138.01 input   66.30 | X-H torsion
[ 10763 10752 10751 10750 ] final  -87.37 input  -60.55 | X-H torsion
[ 11005 11000 10999 10996 ] final  -75.12 input  -57.11 | X-H torsion

> <Gold.Protein.ActiveResidues>
 VAL166  LYS551  ARG553  GLY616  TRP617  ASP618  TYR619  PRO620  LYS621  CYS622 
 ASP623  PHE694  ASN695  SER759  ASP760  ASP761  ALA762  ILE779  LEU786  VAL792 
 PHE793  MET794  SER795  GLU796  ALA797  LYS798  CYS799  TRP800  GLU811  SER814 

> <Gold.Protein.RotatedAtoms>
  151.6174  133.3342  159.3080 H   0  0  0  0  0  0  0  0  0  0  0  0  # atno 6907 bound_to 6896
  150.8124  134.7290  159.6711 H   0  0  0  0  0  0  0  0  0  0  0  0  # atno 6908 bound_to 6896
  152.4221  134.5942  160.0034 H   0  0  0  0  0  0  0  0  0  0  0  0  # atno 6909 bound_to 6896
  145.2251  139.2844  143.4197 H   0  0  0  0  0  0  0  0  0  0  0  0  # atno 7974 bound_to 7965
  156.2846  140.2174  156.5425 H   0  0  0  0  0  0  0  0  0  0  0  0  # atno 8008 bound_to 7997
  154.7358  140.0491  157.0789 H   0  0  0  0  0  0  0  0  0  0  0  0  # atno 8009 bound_to 7997
  155.0294  140.3133  155.4767 H   0  0  0  0  0  0  0  0  0  0  0  0  # atno 8010 bound_to 7997
  140.7254  143.4952  150.9940 H   0  0  0  0  0  0  0  0  0  0  0  0  # atno 10167 bound_to 10162
  157.4299  131.1047  151.0261 H   0  0  0  0  0  0  0  0  0  0  0  0  # atno 10718 bound_to 10713
  154.6329  135.5415  153.7701 H   0  0  0  0  0  0  0  0  0  0  0  0  # atno 10763 bound_to 10752
  153.0293  135.6440  154.1274 H   0  0  0  0  0  0  0  0  0  0  0  0  # atno 10764 bound_to 10752
  154.1203  135.2921  155.3190 H   0  0  0  0  0  0  0  0  0  0  0  0  # atno 10765 bound_to 10752
  141.1642  133.6935  156.7468 H   0  0  0  0  0  0  0  0  0  0  0  0  # atno 11005 bound_to 11000
  146.3366  140.2569  142.8600 LP  0  0  0  0  0  0  0  0  0  0  0  0  # atno 17320 bound_to 7965
  144.9729  140.8385  143.5444 LP  0  0  0  0  0  0  0  0  0  0  0  0  # atno 17321 bound_to 7965
  139.8659  143.7255  152.3170 LP  0  0  0  0  0  0  0  0  0  0  0  0  # atno 17342 bound_to 10162
  139.7486  144.7540  151.0541 LP  0  0  0  0  0  0  0  0  0  0  0  0  # atno 17343 bound_to 10162
  157.1162  130.6042  149.5494 LP  0  0  0  0  0  0  0  0  0  0  0  0  # atno 17370 bound_to 10713
  155.9909  130.4962  150.7279 LP  0  0  0  0  0  0  0  0  0  0  0  0  # atno 17371 bound_to 10713
  140.2633  134.8449  157.3779 LP  0  0  0  0  0  0  0  0  0  0  0  0  # atno 17394 bound_to 11000
  140.1590  134.4752  155.7908 LP  0  0  0  0  0  0  0  0  0  0  0  0  # atno 17395 bound_to 11000

$$$$
