AV-unprocessed.smi:1915|AV-procd|sdf|7761|dock6
  -GOLD-   22720 9503D 1   1.00000     0.00000
 Structure written by MMmdl.
 44 45  0  0  0  0  0  0  0  0  1 V2000
  149.1836  142.7266  158.2805 C   0  0  0  0  0  0  0  0  0  0  0  0
  150.6700  142.3315  158.2437 C   0  0  0  0  0  0  0  0  0  0  0  0
  151.5006  143.2976  159.1017 C   0  0  0  0  0  0  0  0  0  0  0  0
  151.2466  142.2473  156.8125 C   0  0  0  0  0  0  0  0  0  0  0  0
  150.6749  141.1543  156.0258 N   0  0  0  0  0  0  0  0  0  0  0  0
  149.2641  141.1619  155.6726 C   0  0  0  0  0  0  0  0  0  0  0  0
  148.9714  139.7655  155.0823 C   0  0  2  0  0  0  0  0  0  0  0  0
  148.0742  138.9144  155.9938 C   0  0  0  0  0  0  0  0  0  0  0  0
  146.9156  138.6595  155.6634 O   0  0  0  0  0  0  0  0  0  0  0  0
  148.6180  138.4982  157.1471 N   0  0  0  0  0  0  0  0  0  0  0  0
  147.9132  137.7529  158.1858 C   0  0  0  0  0  0  0  0  0  0  0  0
  148.8705  137.0765  159.1885 C   0  0  0  0  0  0  0  0  0  0  0  0
  148.1577  136.4178  160.3577 C   0  0  0  0  0  0  0  0  0  0  0  0
  147.9979  135.0161  160.4079 C   0  0  0  0  0  0  0  0  0  0  0  0
  147.3123  134.4569  161.5030 C   0  0  0  0  0  0  0  0  0  0  0  0
  146.8165  135.3162  162.5022 C   0  0  0  0  0  0  0  0  0  0  0  0
  147.0307  136.7020  162.3613 C   0  0  0  0  0  0  0  0  0  0  0  0
  147.6853  137.2486  161.3140 N   0  0  0  0  0  0  0  0  0  0  0  0
  150.3539  139.1113  154.8928 C   0  0  0  0  0  0  0  0  0  0  0  0
  151.3056  140.0467  155.6184 C   0  0  0  0  0  0  0  0  0  0  0  0
  152.4927  139.7789  155.7973 O   0  0  0  0  0  0  0  0  0  0  0  0
  149.0155  143.6802  157.7790 H   0  0  0  0  0  0  0  0  0  0  0  0
  148.8287  142.8237  159.3067 H   0  0  0  0  0  0  0  0  0  0  0  0
  148.5560  141.9784  157.7973 H   0  0  0  0  0  0  0  0  0  0  0  0
  150.7575  141.3435  158.6973 H   0  0  0  0  0  0  0  0  0  0  0  0
  151.4588  144.3133  158.7073 H   0  0  0  0  0  0  0  0  0  0  0  0
  152.5480  142.9957  159.1339 H   0  0  0  0  0  0  0  0  0  0  0  0
  151.1368  143.3242  160.1292 H   0  0  0  0  0  0  0  0  0  0  0  0
  151.0965  143.1953  156.2927 H   0  0  0  0  0  0  0  0  0  0  0  0
  152.3271  142.1063  156.8614 H   0  0  0  0  0  0  0  0  0  0  0  0
  148.6487  141.3938  156.5437 H   0  0  0  0  0  0  0  0  0  0  0  0
  149.0848  141.9400  154.9295 H   0  0  0  0  0  0  0  0  0  0  0  0
  148.4847  139.8790  154.1119 H   0  0  0  0  0  0  0  0  0  0  0  0
  149.5765  138.7512  157.3391 H   0  0  0  0  0  0  0  0  0  0  0  0
  147.2111  138.4038  158.7088 H   0  0  0  0  0  0  0  0  0  0  0  0
  147.3138  136.9904  157.6879 H   0  0  0  0  0  0  0  0  0  0  0  0
  149.4708  136.3253  158.6739 H   0  0  0  0  0  0  0  0  0  0  0  0
  149.5792  137.8115  159.5719 H   0  0  0  0  0  0  0  0  0  0  0  0
  148.3846  134.3837  159.6223 H   0  0  0  0  0  0  0  0  0  0  0  0
  147.1672  133.3891  161.5739 H   0  0  0  0  0  0  0  0  0  0  0  0
  146.2853  134.9231  163.3563 H   0  0  0  0  0  0  0  0  0  0  0  0
  146.6644  137.3901  163.1086 H   0  0  0  0  0  0  0  0  0  0  0  0
  150.4235  138.1022  155.3025 H   0  0  0  0  0  0  0  0  0  0  0  0
  150.6252  139.0649  153.8379 H   0  0  0  0  0  0  0  0  0  0  0  0
  1  2  1  0  0  0  0
  1 22  1  0  0  0  0
  1 23  1  0  0  0  0
  1 24  1  0  0  0  0
  2  3  1  0  0  0  0
  2  4  1  0  0  0  0
  2 25  1  0  0  0  0
  3 26  1  0  0  0  0
  3 27  1  0  0  0  0
  3 28  1  0  0  0  0
  4  5  1  0  0  0  0
  4 29  1  0  0  0  0
  4 30  1  0  0  0  0
  5 20  1  0  0  0  0
  5  6  1  0  0  0  0
  6  7  1  0  0  0  0
  6 31  1  0  0  0  0
  6 32  1  0  0  0  0
  7  8  1  0  0  0  0
  7 19  1  0  0  0  0
  7 33  1  0  0  0  0
  8  9  2  0  0  0  0
  8 10  1  0  0  0  0
 10 11  1  0  0  0  0
 10 34  1  0  0  0  0
 11 12  1  0  0  0  0
 11 35  1  0  0  0  0
 11 36  1  0  0  0  0
 12 13  1  0  0  0  0
 12 37  1  0  0  0  0
 12 38  1  0  0  0  0
 13 18  1  0  0  0  0
 13 14  2  0  0  0  0
 14 15  1  0  0  0  0
 14 39  1  0  0  0  0
 15 16  2  0  0  0  0
 15 40  1  0  0  0  0
 16 17  1  0  0  0  0
 16 41  1  0  0  0  0
 17 18  2  0  0  0  0
 17 42  1  0  0  0  0
 19 20  1  0  0  0  0
 19 43  1  0  0  0  0
 19 44  1  0  0  0  0
 20 21  2  0  0  0  0
M  END
> <s_m_source_file>
AV-unprocessed.smi

> <i_m_source_file_index>
1915

> <i_lp_mmshare_version>
43012

> <i_f3d_flags>
0

> <s_epik_input>
W0NIM11bQ0hdKFtDSDNdKVtDSDJdTjFbQ0gyXVtDQEhdKFtDSDJdQzE9TylDKD1PKVtOSF1bQ0gyXVtDSDJdYzJbY0hdW2NIXVtjSF1bY0hdbjI=

> <s_epik_cmdline>
J2VwaWtfcHl0aG9uJywgJy1waCcsICc3LjAnLCAnLXRuJywgJzgnLCAnLW1hJywgJzIwMCcsICctbWV0YWxfYmluZGluZycsICctaW1hZScsICc8aW5maWxlLm1hZT4nLCAnLW9tYWUnLCAnPG91dGZpbGUubWFlPic=

> <r_epik_Ionization_Penalty>
0.0252359

> <r_epik_Ionization_Penalty_Charging>
0

> <r_epik_Ionization_Penalty_Neutral>
0.0252359

> <r_epik_State_Penalty>
0.020532

> <r_epik_Charging_Adjusted_Penalty>
0.020532

> <i_epik_Tot_Q>
0

> <i_epik_Tot_abs_Q>
0

> <r_epik_Metal_State_Penalty>
0.0196901

> <b_epik_Metal_Only>
0

> <s_lp_Force_Field>
OPLS_2005

> <r_lp_Energy>
14.5856

> <b_lp_Chiralities_Consistent>
1

> <s_lp_Variant>
AV-unprocessed.smi:1915-2

> <Gold.Version>
5.8.1

> <Gold.Id.Protein>
6NUR|6NUR_protein|mol2

> <Gold.PLP.Fitness>
45.7438

> <Gold.PLP.PLP>
-38.4900

> <Gold.PLP.part.hbond>
-3.0000

> <Gold.PLP.part.metal>
0.0000

> <Gold.PLP.part.buried>
-4.4629

> <Gold.PLP.part.nonpolar>
-30.5132

> <Gold.PLP.part.repulsive>
0.0361

> <Gold.PLP.ligand.clash>
0.0000

> <Gold.PLP.ligand.torsion>
0.6295

> <Gold.PLP.Chemscore.Hbond>
2.7920

> <Gold.PLP.Chemscore.CHOScore>
0.0000

> <Gold.PLP.Chemscore.Metal>
0.0000

> <Gold.Chemscore.Hbonds>
donor molecule, donor type, donor heavy atom, donor atom, acceptor molecule, acceptor atom, score
      P1  H  6931  6943       L1    18  0.94
      P1  H  6934  6947       L1    18  0.82
      P1  H  7997  8010       L1    21  1.00

> <Gold.PLP.Chemscore.Internal.Correction>
0.1369

> <Gold.Rescore>
     Score         DG    S(hbond)    S(metal)    S(lipo)     H(rot)  DE(clash)    DE(int)     intcor
     18.31     -19.24       2.37        0.00      88.28       1.75       0.19       0.74       ----

> <Gold.Chemscore.Fitness>
18.3126

> <Gold.Chemscore.DG>
-19.2421

> <Gold.Chemscore.ZeroCoef>
-5.4800

> <Gold.Chemscore.Hbond>
2.3660

> <Gold.Chemscore.Metal>
0.0000

> <Gold.Chemscore.Lipo>
88.2785

> <Gold.Chemscore.Internal_Hbond>
0.0000

> <Gold.Chemscore.DEClash>
0.1854

> <Gold.Chemscore.DEInternal>
0.7441

> <Gold.Chemscore.Rot>
1.7456

> <Gold.Chemscore.Internal.Correction>
   9.000000E+99

> <Gold.Chemscore.Hbonds>
donor molecule, donor type, donor heavy atom, donor atom, acceptor molecule, acceptor atom, score
      P1  H  6931  6943       L1    18  0.47
      P1  H  6934  6947       L1    18  0.71
      P1  H  7997  8010       L1    21  0.99

> <Gold.Chemscore.Hbond.Weighted>
-7.9023

> <Gold.Chemscore.Metal.Weighted>
-0.0000

> <Gold.Chemscore.Lipo.Weighted>
-10.3286

> <Gold.Chemscore.Internal_Hbond.Weighted>
0.0000

> <Gold.Chemscore.DEClash.Weighted>
0.1854

> <Gold.Chemscore.DEInternal.Weighted>
0.7441

> <Gold.Chemscore.Rot.Weighted>
4.4688

> <Gold.Chemscore.Internal.Correction.Weighted>
   9.000000E+99

> <Gold.Protein.RotatedTorsions>
[ 6907 6896 6895 6894 ] final    5.29 input  -60.11 | X-H torsion
[ 7974 7965 7964 7962 ] final  -88.63 input  175.53 | X-H torsion
[ 8008 7997 7996 7995 ] final   92.77 input   59.86 | X-H torsion
[ 10167 10162 10161 10158 ] final   90.85 input  -65.29 | X-H torsion
[ 10718 10713 10712 10709 ] final   58.44 input   66.30 | X-H torsion
[ 10763 10752 10751 10750 ] final -160.31 input  -60.55 | X-H torsion
[ 11005 11000 10999 10996 ] final   44.43 input  -57.11 | X-H torsion

> <Gold.Protein.ActiveResidues>
 VAL166  LYS551  ARG553  GLY616  TRP617  ASP618  TYR619  PRO620  LYS621  CYS622 
 ASP623  PHE694  ASN695  SER759  ASP760  ASP761  ALA762  ILE779  LEU786  VAL792 
 PHE793  MET794  SER795  GLU796  ALA797  LYS798  CYS799  TRP800  GLU811  SER814 

> <Gold.Protein.RotatedAtoms>
  151.6551  135.0996  160.0168 H   0  0  0  0  0  0  0  0  0  0  0  0  # atno 6907 bound_to 6896
  152.3979  133.6769  159.6300 H   0  0  0  0  0  0  0  0  0  0  0  0  # atno 6908 bound_to 6896
  150.7883  133.8759  159.3313 H   0  0  0  0  0  0  0  0  0  0  0  0  # atno 6909 bound_to 6896
  145.4506  140.9560  143.2024 H   0  0  0  0  0  0  0  0  0  0  0  0  # atno 7974 bound_to 7965
  156.0392  140.3321  155.7225 H   0  0  0  0  0  0  0  0  0  0  0  0  # atno 8008 bound_to 7997
  155.5770  140.0633  157.2810 H   0  0  0  0  0  0  0  0  0  0  0  0  # atno 8009 bound_to 7997
  154.4385  140.1850  156.0926 H   0  0  0  0  0  0  0  0  0  0  0  0  # atno 8010 bound_to 7997
  139.8433  144.6630  150.9257 H   0  0  0  0  0  0  0  0  0  0  0  0  # atno 10167 bound_to 10162
  157.5596  130.8826  149.9090 H   0  0  0  0  0  0  0  0  0  0  0  0  # atno 10718 bound_to 10713
  154.7401  135.3066  154.8743 H   0  0  0  0  0  0  0  0  0  0  0  0  # atno 10763 bound_to 10752
  153.9560  135.6758  153.4748 H   0  0  0  0  0  0  0  0  0  0  0  0  # atno 10764 bound_to 10752
  153.1001  135.4916  154.8775 H   0  0  0  0  0  0  0  0  0  0  0  0  # atno 10765 bound_to 10752
  140.1553  134.4410  155.8354 H   0  0  0  0  0  0  0  0  0  0  0  0  # atno 11005 bound_to 11000
  144.8064  139.6043  143.7049 LP  0  0  0  0  0  0  0  0  0  0  0  0  # atno 17320 bound_to 7965
  146.2506  139.6192  142.9429 LP  0  0  0  0  0  0  0  0  0  0  0  0  # atno 17321 bound_to 7965
  140.7796  143.3893  151.1338 LP  0  0  0  0  0  0  0  0  0  0  0  0  # atno 17342 bound_to 10162
  139.7538  143.8739  152.3083 LP  0  0  0  0  0  0  0  0  0  0  0  0  # atno 17343 bound_to 10162
  156.0650  130.3693  150.0898 LP  0  0  0  0  0  0  0  0  0  0  0  0  # atno 17370 bound_to 10713
  156.9063  130.9637  151.3569 LP  0  0  0  0  0  0  0  0  0  0  0  0  # atno 17371 bound_to 10713
  141.2203  133.6890  156.7495 LP  0  0  0  0  0  0  0  0  0  0  0  0  # atno 17394 bound_to 11000
  140.2555  134.8507  157.3709 LP  0  0  0  0  0  0  0  0  0  0  0  0  # atno 17395 bound_to 11000

$$$$
