AV-unprocessed.smi:1634|AV-procd|sdf|6537|dock9
  -GOLD-   22720 7223D 1   1.00000     0.00000
 Structure written by MMmdl.
 38 38  0  0  0  0  0  0  0  0  1 V2000
  152.2499  144.1790  161.1695 C   0  0  0  0  0  0  0  0  0  0  0  0
  152.4878  142.7412  161.6576 C   0  0  0  0  0  0  0  0  0  0  0  0
  153.2845  142.7364  162.9706 C   0  0  0  0  0  0  0  0  0  0  0  0
  153.1872  141.8904  160.5852 C   0  0  0  0  0  0  0  0  0  0  0  0
  152.2205  141.4335  159.6449 O   0  0  0  0  0  0  0  0  0  0  0  0
  152.6958  140.4971  158.6814 C   0  0  1  0  0  0  0  0  0  0  0  0
  153.2150  139.2687  159.4435 C   0  0  0  0  0  0  0  0  0  0  0  0
  151.5690  140.1163  157.7074 C   0  0  0  0  0  0  0  0  0  0  0  0
  151.1910  138.9466  157.6496 O   0  0  0  0  0  0  0  0  0  0  0  0
  151.0526  141.1395  156.9981 N   0  0  0  0  0  0  0  0  0  0  0  0
  150.0180  141.1471  156.0468 C   0  0  0  0  0  0  0  0  0  0  0  0
  148.8345  141.8020  156.1800 C   0  0  0  0  0  0  0  0  0  0  0  0
  147.8098  141.7618  155.1501 C   0  0  0  0  0  0  0  0  0  0  0  0
  146.4677  142.4525  155.3365 C   0  0  0  0  0  0  0  0  0  0  0  0
  145.4650  141.5732  155.3341 F   0  0  0  0  0  0  0  0  0  0  0  0
  146.4318  143.1248  156.4873 F   0  0  0  0  0  0  0  0  0  0  0  0
  146.2630  143.3182  154.3447 F   0  0  0  0  0  0  0  0  0  0  0  0
  148.0805  141.0173  154.0624 C   0  0  0  0  0  0  0  0  0  0  0  0
  149.2948  140.3433  153.9159 N   0  0  0  0  0  0  0  0  0  0  0  0
  150.2858  140.3542  154.8351 C   0  0  0  0  0  0  0  0  0  0  0  0
  151.3266  139.7296  154.6329 O   0  0  0  0  0  0  0  0  0  0  0  0
  149.4266  139.8144  153.0658 H   0  0  0  0  0  0  0  0  0  0  0  0
  153.1906  144.6805  160.9398 H   0  0  0  0  0  0  0  0  0  0  0  0
  151.7332  144.7702  161.9259 H   0  0  0  0  0  0  0  0  0  0  0  0
  151.6366  144.1948  160.2681 H   0  0  0  0  0  0  0  0  0  0  0  0
  151.5160  142.2899  161.8620 H   0  0  0  0  0  0  0  0  0  0  0  0
  154.2741  143.1740  162.8355 H   0  0  0  0  0  0  0  0  0  0  0  0
  153.4177  141.7215  163.3464 H   0  0  0  0  0  0  0  0  0  0  0  0
  152.7705  143.3077  163.7441 H   0  0  0  0  0  0  0  0  0  0  0  0
  153.9687  142.4778  160.1021 H   0  0  0  0  0  0  0  0  0  0  0  0
  153.6696  141.0288  161.0492 H   0  0  0  0  0  0  0  0  0  0  0  0
  153.5311  140.9360  158.1322 H   0  0  0  0  0  0  0  0  0  0  0  0
  153.5711  138.4990  158.7578 H   0  0  0  0  0  0  0  0  0  0  0  0
  152.4396  138.8272  160.0709 H   0  0  0  0  0  0  0  0  0  0  0  0
  154.0472  139.5409  160.0930 H   0  0  0  0  0  0  0  0  0  0  0  0
  151.4395  142.0511  157.1969 H   0  0  0  0  0  0  0  0  0  0  0  0
  148.6082  142.3742  157.0637 H   0  0  0  0  0  0  0  0  0  0  0  0
  147.4001  140.8780  153.2351 H   0  0  0  0  0  0  0  0  0  0  0  0
  1  2  1  0  0  0  0
  1 23  1  0  0  0  0
  1 24  1  0  0  0  0
  1 25  1  0  0  0  0
  2  3  1  0  0  0  0
  2  4  1  0  0  0  0
  2 26  1  0  0  0  0
  3 27  1  0  0  0  0
  3 28  1  0  0  0  0
  3 29  1  0  0  0  0
  4  5  1  0  0  0  0
  4 30  1  0  0  0  0
  4 31  1  0  0  0  0
  5  6  1  0  0  0  0
  6  7  1  0  0  0  0
  6  8  1  0  0  0  0
  6 32  1  0  0  0  0
  7 33  1  0  0  0  0
  7 34  1  0  0  0  0
  7 35  1  0  0  0  0
  8  9  2  0  0  0  0
  8 10  1  0  0  0  0
 10 11  1  0  0  0  0
 10 36  1  0  0  0  0
 11 20  1  0  0  0  0
 11 12  2  0  0  0  0
 12 13  1  0  0  0  0
 12 37  1  0  0  0  0
 13 14  1  0  0  0  0
 13 18  2  0  0  0  0
 14 15  1  0  0  0  0
 14 16  1  0  0  0  0
 14 17  1  0  0  0  0
 18 19  1  0  0  0  0
 18 38  1  0  0  0  0
 19 22  1  0  0  0  0
 19 20  1  0  0  0  0
 20 21  2  0  0  0  0
M  END
> <s_m_source_file>
AV-unprocessed.smi

> <i_m_source_file_index>
1634

> <i_lp_mmshare_version>
43012

> <i_f3d_flags>
0

> <s_epik_input>
W0NIM11bQ0hdKFtDSDNdKVtDSDJdT1tDQEhdKFtDSDNdKUMoPU8pW05IXWMxW2NIXWMoQyhGKShGKUYpW2NIXVtuSF1jMT1P

> <s_epik_cmdline>
J2VwaWtfcHl0aG9uJywgJy1waCcsICc3LjAnLCAnLXRuJywgJzgnLCAnLW1hJywgJzIwMCcsICctbWV0YWxfYmluZGluZycsICctaW1hZScsICc8aW5maWxlLm1hZT4nLCAnLW9tYWUnLCAnPG91dGZpbGUubWFlPic=

> <r_lp_tautomer_probability>
0.999

> <r_epik_Ionization_Penalty>
0.00884964

> <r_epik_Ionization_Penalty_Charging>
0.00884955

> <r_epik_Ionization_Penalty_Neutral>
9.33956e-08

> <r_epik_State_Penalty>
0.00669049

> <r_epik_Charging_Adjusted_Penalty>
0.01554

> <i_epik_Tot_Q>
0

> <i_epik_Tot_abs_Q>
0

> <r_epik_Metal_State_Penalty>
0.320763

> <b_epik_Metal_Only>
0

> <s_lp_Force_Field>
OPLS_2005

> <r_lp_Energy>
19.8034

> <b_lp_Chiralities_Consistent>
1

> <s_lp_Variant>
AV-unprocessed.smi:1634-2

> <Gold.Version>
5.8.1

> <Gold.Id.Protein>
6NUR|6NUR_protein|mol2

> <Gold.PLP.Fitness>
43.9608

> <Gold.PLP.PLP>
-40.0133

> <Gold.PLP.part.hbond>
-2.0000

> <Gold.PLP.part.metal>
0.0000

> <Gold.PLP.part.buried>
-4.7378

> <Gold.PLP.part.nonpolar>
-32.6328

> <Gold.PLP.part.repulsive>
0.3009

> <Gold.PLP.ligand.clash>
0.0000

> <Gold.PLP.ligand.torsion>
0.8780

> <Gold.PLP.Chemscore.Hbond>
1.8857

> <Gold.PLP.Chemscore.CHOScore>
0.0000

> <Gold.PLP.Chemscore.Metal>
0.0000

> <Gold.Chemscore.Hbonds>
donor molecule, donor type, donor heavy atom, donor atom, acceptor molecule, acceptor atom, score
      L1  H    19    22       P1  7957  0.83
      P1  H  7989  7998       L1    21  0.30

> <Gold.PLP.Chemscore.Internal.Correction>
0.0462

> <Gold.Rescore>
     Score         DG    S(hbond)    S(metal)    S(lipo)     H(rot)  DE(clash)    DE(int)     intcor
     15.08     -16.21       1.73        0.00      81.48       1.79       0.02       1.12       ----

> <Gold.Chemscore.Fitness>
15.0799

> <Gold.Chemscore.DG>
-16.2124

> <Gold.Chemscore.ZeroCoef>
-5.4800

> <Gold.Chemscore.Hbond>
1.7288

> <Gold.Chemscore.Metal>
0.0000

> <Gold.Chemscore.Lipo>
81.4842

> <Gold.Chemscore.Internal_Hbond>
0.0000

> <Gold.Chemscore.DEClash>
0.0174

> <Gold.Chemscore.DEInternal>
1.1152

> <Gold.Chemscore.Rot>
1.7873

> <Gold.Chemscore.Internal.Correction>
   9.000000E+99

> <Gold.Chemscore.Hbonds>
donor molecule, donor type, donor heavy atom, donor atom, acceptor molecule, acceptor atom, score
      L1  H    19    22       P1  7957  0.83

> <Gold.Chemscore.Hbond.Weighted>
-5.7742

> <Gold.Chemscore.Metal.Weighted>
-0.0000

> <Gold.Chemscore.Lipo.Weighted>
-9.5337

> <Gold.Chemscore.Internal_Hbond.Weighted>
0.0000

> <Gold.Chemscore.DEClash.Weighted>
0.0174

> <Gold.Chemscore.DEInternal.Weighted>
1.1152

> <Gold.Chemscore.Rot.Weighted>
4.5755

> <Gold.Chemscore.Internal.Correction.Weighted>
   9.000000E+99

> <Gold.Protein.RotatedTorsions>
[ 6907 6896 6895 6894 ] final  -56.86 input  -60.11 | X-H torsion
[ 7974 7965 7964 7962 ] final -161.77 input  175.53 | X-H torsion
[ 8008 7997 7996 7995 ] final -164.78 input   59.86 | X-H torsion
[ 10167 10162 10161 10158 ] final  -74.63 input  -65.29 | X-H torsion
[ 10718 10713 10712 10709 ] final    5.39 input   66.30 | X-H torsion
[ 10763 10752 10751 10750 ] final  -90.85 input  -60.55 | X-H torsion
[ 11005 11000 10999 10996 ] final  -35.75 input  -57.11 | X-H torsion

> <Gold.Protein.ActiveResidues>
 VAL166  LYS551  ARG553  GLY616  TRP617  ASP618  TYR619  PRO620  LYS621  CYS622 
 ASP623  PHE694  ASN695  SER759  ASP760  ASP761  ALA762  ILE779  LEU786  VAL792 
 PHE793  MET794  SER795  GLU796  ALA797  LYS798  CYS799  TRP800  GLU811  SER814 

> <Gold.Protein.RotatedAtoms>
  150.8133  134.7300  159.6707 H   0  0  0  0  0  0  0  0  0  0  0  0  # atno 6907 bound_to 6896
  152.4252  134.5877  159.9975 H   0  0  0  0  0  0  0  0  0  0  0  0  # atno 6908 bound_to 6896
  151.6081  133.3312  159.3097 H   0  0  0  0  0  0  0  0  0  0  0  0  # atno 6909 bound_to 6896
  144.7379  140.3349  143.6146 H   0  0  0  0  0  0  0  0  0  0  0  0  # atno 7974 bound_to 7965
  155.8405  140.0947  157.1737 H   0  0  0  0  0  0  0  0  0  0  0  0  # atno 8008 bound_to 7997
  154.3982  140.1402  156.3785 H   0  0  0  0  0  0  0  0  0  0  0  0  # atno 8009 bound_to 7997
  155.8069  140.3451  155.5437 H   0  0  0  0  0  0  0  0  0  0  0  0  # atno 8010 bound_to 7997
  140.5011  143.2361  151.7751 H   0  0  0  0  0  0  0  0  0  0  0  0  # atno 10167 bound_to 10162
  156.9067  130.5741  149.5647 H   0  0  0  0  0  0  0  0  0  0  0  0  # atno 10718 bound_to 10713
  154.6700  135.5289  153.8126 H   0  0  0  0  0  0  0  0  0  0  0  0  # atno 10763 bound_to 10752
  153.0495  135.6526  154.0739 H   0  0  0  0  0  0  0  0  0  0  0  0  # atno 10764 bound_to 10752
  154.0639  135.2959  155.3300 H   0  0  0  0  0  0  0  0  0  0  0  0  # atno 10765 bound_to 10752
  140.9821  133.7051  156.1702 H   0  0  0  0  0  0  0  0  0  0  0  0  # atno 11005 bound_to 11000
  145.7434  139.1771  143.2363 LP  0  0  0  0  0  0  0  0  0  0  0  0  # atno 17320 bound_to 7965
  146.1117  140.7420  142.9500 LP  0  0  0  0  0  0  0  0  0  0  0  0  # atno 17321 bound_to 7965
  139.4872  144.4521  151.9641 LP  0  0  0  0  0  0  0  0  0  0  0  0  # atno 17342 bound_to 10162
  140.3610  144.2973  150.5933 LP  0  0  0  0  0  0  0  0  0  0  0  0  # atno 17343 bound_to 10162
  156.0556  130.5618  150.9084 LP  0  0  0  0  0  0  0  0  0  0  0  0  # atno 17370 bound_to 10713
  157.5993  131.0942  150.8987 LP  0  0  0  0  0  0  0  0  0  0  0  0  # atno 17371 bound_to 10713
  140.7171  134.4399  157.5577 LP  0  0  0  0  0  0  0  0  0  0  0  0  # atno 17394 bound_to 11000
  139.8954  134.8682  156.2131 LP  0  0  0  0  0  0  0  0  0  0  0  0  # atno 17395 bound_to 11000

$$$$
