AV-unprocessed.smi:54|AV-procd|sdf|532|dock2
  -GOLD-   2262016413D 1   1.00000     0.00000
 Structure written by MMmdl.
 44 46  0  0  0  0  0  0  0  0  1 V2000
  145.5232  132.4846  160.5135 C   0  0  0  0  0  0  0  0  0  0  0  0
  147.0497  132.3247  160.5916 C   0  0  0  0  0  0  0  0  0  0  0  0
  147.6298  133.0914  161.7916 C   0  0  0  0  0  0  0  0  0  0  0  0
  147.7082  132.7842  159.2859 C   0  0  0  0  0  0  0  0  0  0  0  0
  148.6369  133.5930  159.2724 O   0  0  0  0  0  0  0  0  0  0  0  0
  147.1578  132.2046  158.0735 N   0  0  0  0  0  0  0  0  0  0  0  0
  147.5617  132.4261  156.8010 C   0  0  0  0  0  0  0  0  0  0  0  0
  146.8761  132.0197  155.7419 N   0  0  0  0  0  0  0  0  0  0  0  0
  147.4390  132.3476  154.5401 C   0  0  0  0  0  0  0  0  0  0  0  0
  148.6138  133.0428  154.3442 C   0  0  0  0  0  0  0  0  0  0  0  0
  148.8660  133.1843  152.9844 N   0  0  0  0  0  0  0  0  0  0  0  0
  147.8594  132.5846  152.4121 C   0  0  0  0  0  0  0  0  0  0  0  0
  146.9490  132.0411  153.2885 N   0  0  0  0  0  0  0  0  0  0  0  0
  145.6851  131.2885  153.0015 C   0  0  1  0  0  0  0  0  0  0  0  0
  144.8120  132.1685  152.3578 O   0  0  0  0  0  0  0  0  0  0  0  0
  144.4515  131.6812  151.0653 C   0  0  1  0  0  0  0  0  0  0  0  0
  144.2290  132.8416  150.0793 C   0  0  0  0  0  0  0  0  0  0  0  0
  143.2086  132.5090  149.1627 O   0  0  0  0  0  0  0  0  0  0  0  0
  145.5655  130.6937  150.6886 C   0  0  1  0  0  0  0  0  0  0  0  0
  146.6593  131.3502  150.0684 O   0  0  0  0  0  0  0  0  0  0  0  0
  145.9261  130.1057  152.0453 C   0  0  1  0  0  0  0  0  0  0  0  0
  147.2255  129.5406  152.0820 O   0  0  0  0  0  0  0  0  0  0  0  0
  149.3637  133.4955  155.4800 C   0  0  0  0  0  0  0  0  0  0  0  0
  150.4195  134.1246  155.4943 O   0  0  0  0  0  0  0  0  0  0  0  0
  148.7552  133.1398  156.6907 N   0  0  0  0  0  0  0  0  0  0  0  0
  145.3068  130.9942  153.9810 H   0  0  0  0  0  0  0  0  0  0  0  0
  143.5296  131.1072  151.1771 H   0  0  0  0  0  0  0  0  0  0  0  0
  145.2040  129.9265  150.0029 H   0  0  0  0  0  0  0  0  0  0  0  0
  145.1998  129.3322  152.2988 H   0  0  0  0  0  0  0  0  0  0  0  0
  145.1101  131.9410  159.6628 H   0  0  0  0  0  0  0  0  0  0  0  0
  145.2340  133.5316  160.4121 H   0  0  0  0  0  0  0  0  0  0  0  0
  145.0446  132.0958  161.4127 H   0  0  0  0  0  0  0  0  0  0  0  0
  147.2726  131.2658  160.7304 H   0  0  0  0  0  0  0  0  0  0  0  0
  148.7152  132.9931  161.8393 H   0  0  0  0  0  0  0  0  0  0  0  0
  147.2260  132.7097  162.7297 H   0  0  0  0  0  0  0  0  0  0  0  0
  147.3941  134.1551  161.7402 H   0  0  0  0  0  0  0  0  0  0  0  0
  146.3715  131.5844  158.1983 H   0  0  0  0  0  0  0  0  0  0  0  0
  147.7582  132.5240  151.3386 H   0  0  0  0  0  0  0  0  0  0  0  0
  143.9815  133.7661  150.6015 H   0  0  0  0  0  0  0  0  0  0  0  0
  145.1364  133.0248  149.5028 H   0  0  0  0  0  0  0  0  0  0  0  0
  142.5310  133.1655  149.2166 H   0  0  0  0  0  0  0  0  0  0  0  0
  147.4442  130.8555  150.2489 H   0  0  0  0  0  0  0  0  0  0  0  0
  147.7581  129.9842  151.4392 H   0  0  0  0  0  0  0  0  0  0  0  0
  149.2290  133.4266  157.5345 H   0  0  0  0  0  0  0  0  0  0  0  0
  1  2  1  0  0  0  0
  1 30  1  0  0  0  0
  1 31  1  0  0  0  0
  1 32  1  0  0  0  0
  2  3  1  0  0  0  0
  2  4  1  0  0  0  0
  2 33  1  0  0  0  0
  3 34  1  0  0  0  0
  3 35  1  0  0  0  0
  3 36  1  0  0  0  0
  4  5  2  0  0  0  0
  4  6  1  0  0  0  0
  6 37  1  0  0  0  0
  6  7  1  0  0  0  0
  7 25  1  0  0  0  0
  7  8  2  0  0  0  0
  8  9  1  0  0  0  0
  9 13  1  0  0  0  0
  9 10  2  0  0  0  0
 10 11  1  0  0  0  0
 10 23  1  0  0  0  0
 11 12  2  0  0  0  0
 12 13  1  0  0  0  0
 12 38  1  0  0  0  0
 13 14  1  0  0  0  0
 14 26  1  0  0  0  0
 14 21  1  0  0  0  0
 14 15  1  0  0  0  0
 15 16  1  0  0  0  0
 16 27  1  0  0  0  0
 16 17  1  0  0  0  0
 16 19  1  0  0  0  0
 17 18  1  0  0  0  0
 17 39  1  0  0  0  0
 17 40  1  0  0  0  0
 18 41  1  0  0  0  0
 19 28  1  0  0  0  0
 19 20  1  0  0  0  0
 19 21  1  0  0  0  0
 20 42  1  0  0  0  0
 21 29  1  0  0  0  0
 21 22  1  0  0  0  0
 22 43  1  0  0  0  0
 23 24  2  0  0  0  0
 23 25  1  0  0  0  0
 25 44  1  0  0  0  0
M  END
> <s_m_source_file>
AV-unprocessed.smi

> <i_m_source_file_index>
54

> <i_lp_mmshare_version>
43012

> <i_f3d_flags>
0

> <s_epik_input>
W0NIM11bQ0hdKFtDSDNdKUMoPU8pW05IXWMobjEpW25IXWMoPU8pYyhjMTIpbltjSF1uMltDQEBIXTNPW0NASF0oW0NIMl1bT0hdKVtDQEBIXShbT0hdKVtDQEhdM1tPSF0=

> <s_epik_cmdline>
J2VwaWtfcHl0aG9uJywgJy1waCcsICc3LjAnLCAnLXRuJywgJzgnLCAnLW1hJywgJzIwMCcsICctbWV0YWxfYmluZGluZycsICctaW1hZScsICc8aW5maWxlLm1hZT4nLCAnLW9tYWUnLCAnPG91dGZpbGUubWFlPic=

> <r_lp_tautomer_probability>
0.85571

> <r_epik_Ionization_Penalty>
0.0316551

> <r_epik_Ionization_Penalty_Charging>
0.0316043

> <r_epik_Ionization_Penalty_Neutral>
5.07097e-05

> <r_epik_State_Penalty>
3.15494e-07

> <r_epik_Charging_Adjusted_Penalty>
0.0316047

> <i_epik_Tot_Q>
0

> <i_epik_Tot_abs_Q>
0

> <r_epik_Metal_State_Penalty>
0.421206

> <b_epik_Metal_Only>
0

> <s_epik_Chemistry_Notes>
This compound contains an acetal/aminal-like group ( X-CH(R)-Y where X, Y are N, S, or O) that may be acid/base labile, releasing an aldehyde.

> <s_lp_Force_Field>
OPLS_2005

> <r_lp_Energy>
45.6479

> <b_lp_Chiralities_Consistent>
1

> <s_lp_Variant>
AV-unprocessed.smi:54-4

> <Gold.Version>
5.8.1

> <Gold.Id.Protein>
6NUR|6NUR_protein|mol2

> <Gold.PLP.Fitness>
40.6632

> <Gold.PLP.PLP>
-29.4533

> <Gold.PLP.part.hbond>
-4.4461

> <Gold.PLP.part.metal>
0.0000

> <Gold.PLP.part.buried>
-4.8505

> <Gold.PLP.part.nonpolar>
-22.2811

> <Gold.PLP.part.repulsive>
1.6871

> <Gold.PLP.ligand.clash>
3.0155

> <Gold.PLP.ligand.torsion>
0.6501

> <Gold.PLP.Chemscore.Hbond>
4.3000

> <Gold.PLP.Chemscore.CHOScore>
0.7269

> <Gold.PLP.Chemscore.Metal>
0.0000

> <Gold.Chemscore.Hbonds>
donor molecule, donor type, donor heavy atom, donor atom, acceptor molecule, acceptor atom, score
      L1  H    18    41       P1 10186  1.00
      L1  H    20    42       P1 10747  0.92
      L1  H    22    43       P1 10747  1.00
      P1  H  6896  6908       L1     5  0.84
      P1  H 10785 10796       L1    18  0.06
      L1  C    12    38       P1 10747  0.73

> <Gold.PLP.Chemscore.Internal.Correction>
0.4449

> <Gold.Rescore>
     Score         DG    S(hbond)    S(metal)    S(lipo)     H(rot)  DE(clash)    DE(int)     intcor
     12.17     -14.96       3.89        0.00      58.51       4.05       0.91       1.89       ----

> <Gold.Chemscore.Fitness>
12.1660

> <Gold.Chemscore.DG>
-14.9572

> <Gold.Chemscore.ZeroCoef>
-5.4800

> <Gold.Chemscore.Hbond>
3.8916

> <Gold.Chemscore.Metal>
0.0000

> <Gold.Chemscore.Lipo>
58.5097

> <Gold.Chemscore.Internal_Hbond>
0.0000

> <Gold.Chemscore.DEClash>
0.9051

> <Gold.Chemscore.DEInternal>
1.8862

> <Gold.Chemscore.Rot>
4.0493

> <Gold.Chemscore.Internal.Correction>
   9.000000E+99

> <Gold.Chemscore.Hbonds>
donor molecule, donor type, donor heavy atom, donor atom, acceptor molecule, acceptor atom, score
      L1  H    18    41       P1 10186  0.97
      L1  H    20    42       P1 10747  0.83
      L1  H    22    43       P1 10747  0.99
      P1  H  6896  6908       L1     5  0.78
      P1  H 10785 10796       L1    18  0.09

> <Gold.Chemscore.Hbond.Weighted>
-12.9978

> <Gold.Chemscore.Metal.Weighted>
-0.0000

> <Gold.Chemscore.Lipo.Weighted>
-6.8456

> <Gold.Chemscore.Internal_Hbond.Weighted>
0.0000

> <Gold.Chemscore.DEClash.Weighted>
0.9051

> <Gold.Chemscore.DEInternal.Weighted>
1.8862

> <Gold.Chemscore.Rot.Weighted>
10.3662

> <Gold.Chemscore.Internal.Correction.Weighted>
   9.000000E+99

> <Gold.Protein.RotatedTorsions>
[ 6907 6896 6895 6894 ] final  137.95 input  -60.11 | X-H torsion
[ 7974 7965 7964 7962 ] final -167.51 input  175.53 | X-H torsion
[ 8008 7997 7996 7995 ] final -131.33 input   59.86 | X-H torsion
[ 10167 10162 10161 10158 ] final  -32.04 input  -65.29 | X-H torsion
[ 10718 10713 10712 10709 ] final   71.11 input   66.30 | X-H torsion
[ 10763 10752 10751 10750 ] final  157.53 input  -60.55 | X-H torsion
[ 11005 11000 10999 10996 ] final  -86.19 input  -57.11 | X-H torsion

> <Gold.Protein.ActiveResidues>
 VAL166  LYS551  ARG553  GLY616  TRP617  ASP618  TYR619  PRO620  LYS621  CYS622 
 ASP623  PHE694  ASN695  SER759  ASP760  ASP761  ALA762  ILE779  LEU786  VAL792 
 PHE793  MET794  SER795  GLU796  ALA797  LYS798  CYS799  TRP800  GLU811  SER814 

> <Gold.Protein.RotatedAtoms>
  152.2723  133.5393  159.5446 H   0  0  0  0  0  0  0  0  0  0  0  0  # atno 6907 bound_to 6896
  150.7164  134.0681  159.3863 H   0  0  0  0  0  0  0  0  0  0  0  0  # atno 6908 bound_to 6896
  151.8595  135.0529  160.0518 H   0  0  0  0  0  0  0  0  0  0  0  0  # atno 6909 bound_to 6896
  144.7221  140.2508  143.6279 H   0  0  0  0  0  0  0  0  0  0  0  0  # atno 7974 bound_to 7965
  155.3105  140.0457  157.3034 H   0  0  0  0  0  0  0  0  0  0  0  0  # atno 8008 bound_to 7997
  154.5435  140.2295  155.8568 H   0  0  0  0  0  0  0  0  0  0  0  0  # atno 8009 bound_to 7997
  156.1903  140.3052  155.9325 H   0  0  0  0  0  0  0  0  0  0  0  0  # atno 8010 bound_to 7997
  140.7227  143.3725  151.1751 H   0  0  0  0  0  0  0  0  0  0  0  0  # atno 10167 bound_to 10162
  157.6435  130.9511  150.0743 H   0  0  0  0  0  0  0  0  0  0  0  0  # atno 10718 bound_to 10713
  154.2018  135.2790  155.2988 H   0  0  0  0  0  0  0  0  0  0  0  0  # atno 10763 bound_to 10752
  154.5848  135.5578  153.7224 H   0  0  0  0  0  0  0  0  0  0  0  0  # atno 10764 bound_to 10752
  153.0086  135.6354  154.2156 H   0  0  0  0  0  0  0  0  0  0  0  0  # atno 10765 bound_to 10752
  141.1633  133.7440  156.9125 H   0  0  0  0  0  0  0  0  0  0  0  0  # atno 11005 bound_to 11000
  145.8230  139.2052  143.1927 LP  0  0  0  0  0  0  0  0  0  0  0  0  # atno 17320 bound_to 7965
  146.0497  140.8081  142.9787 LP  0  0  0  0  0  0  0  0  0  0  0  0  # atno 17321 bound_to 7965
  139.7299  143.9089  152.3016 LP  0  0  0  0  0  0  0  0  0  0  0  0  # atno 17342 bound_to 10162
  139.8875  144.6984  150.8808 LP  0  0  0  0  0  0  0  0  0  0  0  0  # atno 17343 bound_to 10162
  156.1738  130.3647  149.9128 LP  0  0  0  0  0  0  0  0  0  0  0  0  # atno 17370 bound_to 10713
  156.7097  130.8965  151.3608 LP  0  0  0  0  0  0  0  0  0  0  0  0  # atno 17371 bound_to 10713
  140.1507  134.9232  157.2589 LP  0  0  0  0  0  0  0  0  0  0  0  0  # atno 17394 bound_to 11000
  140.2726  134.3442  155.7368 LP  0  0  0  0  0  0  0  0  0  0  0  0  # atno 17395 bound_to 11000

$$$$
