AV-unprocessed.smi:1107|AV-procd|sdf|4784|dock3
  -GOLD-   22720 3323D 1   1.00000     0.00000
 Structure written by MMmdl.
 49 50  0  0  0  0  0  0  0  0  2 V2000
  151.5155  142.9758  157.6597 C   0  0  0  0  0  0  0  0  0  0  0  0
  151.0581  141.8171  156.8014 C   0  0  0  0  0  0  0  0  0  0  0  0
  150.0543  142.1496  155.9074 N   0  0  0  0  0  0  0  0  0  0  0  0
  149.5589  141.1508  155.0880 C   0  0  0  0  0  0  0  0  0  0  0  0
  148.4493  141.5992  154.1537 C   0  0  0  0  0  0  0  0  0  0  0  0
  150.0441  139.8847  155.1523 C   0  0  0  0  0  0  0  0  0  0  0  0
  149.5106  138.7431  154.2893 C   0  0  0  0  0  0  0  0  0  0  0  0
  148.0280  138.4427  154.4993 C   0  0  0  0  0  0  0  0  0  0  0  0
  147.4527  138.8443  155.5096 O   0  0  0  0  0  0  0  0  0  0  0  0
  147.4424  137.6880  153.5564 N   0  0  0  0  0  0  0  0  0  0  0  0
  146.1065  137.0988  153.6374 C   0  0  1  0  0  0  0  0  0  0  0  0
  145.1061  138.1473  154.1420 C   0  0  0  0  0  0  0  0  0  0  0  0
  145.6910  136.5160  152.2669 C   0  0  0  0  0  0  0  0  0  0  0  0
  146.1913  135.1353  152.0286 N   0  3  0  0  0  0  0  0  0  0  0  0
  145.5721  134.5083  150.8323 C   0  0  0  0  0  0  0  0  0  0  0  0
  146.2227  133.1512  150.5147 C   0  0  0  0  0  0  0  0  0  0  0  0
  146.1688  132.2107  151.7256 C   0  0  0  0  0  0  0  0  0  0  0  0
  146.7735  132.8990  152.9560 C   0  0  0  0  0  0  0  0  0  0  0  0
  146.0926  134.2515  153.2204 C   0  0  0  0  0  0  0  0  0  0  0  0
  151.1169  139.5896  156.1318 C   0  0  0  0  0  0  0  0  0  0  0  0
  151.5806  138.4566  156.2556 O   0  0  0  0  0  0  0  0  0  0  0  0
  151.5854  140.6386  156.9380 N   0  0  0  0  0  0  0  0  0  0  0  0
  149.6655  143.0785  155.8266 H   0  0  0  0  0  0  0  0  0  0  0  0
  152.3329  142.6768  158.3171 H   0  0  0  0  0  0  0  0  0  0  0  0
  150.6937  143.3350  158.2802 H   0  0  0  0  0  0  0  0  0  0  0  0
  151.8646  143.7985  157.0349 H   0  0  0  0  0  0  0  0  0  0  0  0
  147.5388  141.0300  154.3402 H   0  0  0  0  0  0  0  0  0  0  0  0
  148.7428  141.4528  153.1141 H   0  0  0  0  0  0  0  0  0  0  0  0
  148.2139  142.6559  154.2874 H   0  0  0  0  0  0  0  0  0  0  0  0
  150.0929  137.8353  154.4533 H   0  0  0  0  0  0  0  0  0  0  0  0
  149.6651  138.9821  153.2370 H   0  0  0  0  0  0  0  0  0  0  0  0
  147.9981  137.4363  152.7512 H   0  0  0  0  0  0  0  0  0  0  0  0
  146.1032  136.2849  154.3639 H   0  0  0  0  0  0  0  0  0  0  0  0
  144.1048  137.7241  154.2263 H   0  0  0  0  0  0  0  0  0  0  0  0
  145.0504  139.0029  153.4681 H   0  0  0  0  0  0  0  0  0  0  0  0
  145.3901  138.5179  155.1276 H   0  0  0  0  0  0  0  0  0  0  0  0
  144.6066  136.5447  152.1503 H   0  0  0  0  0  0  0  0  0  0  0  0
  146.0993  137.1637  151.4893 H   0  0  0  0  0  0  0  0  0  0  0  0
  144.5010  134.3839  150.9994 H   0  0  0  0  0  0  0  0  0  0  0  0
  145.6851  135.1661  149.9694 H   0  0  0  0  0  0  0  0  0  0  0  0
  145.7248  132.6891  149.6616 H   0  0  0  0  0  0  0  0  0  0  0  0
  147.2591  133.3052  150.2176 H   0  0  0  0  0  0  0  0  0  0  0  0
  145.1341  131.9328  151.9303 H   0  0  0  0  0  0  0  0  0  0  0  0
  146.7051  131.2862  151.5088 H   0  0  0  0  0  0  0  0  0  0  0  0
  146.6759  132.2544  153.8298 H   0  0  0  0  0  0  0  0  0  0  0  0
  147.8421  133.0524  152.8031 H   0  0  0  0  0  0  0  0  0  0  0  0
  146.5673  134.7179  154.0826 H   0  0  0  0  0  0  0  0  0  0  0  0
  145.0434  134.1025  153.4809 H   0  0  0  0  0  0  0  0  0  0  0  0
  147.1749  135.2278  151.8183 H   0  0  0  0  0  0  0  0  0  0  0  0
  1 24  1  0  0  0  0
  1 25  1  0  0  0  0
  1 26  1  0  0  0  0
  1  2  1  0  0  0  0
  2  3  1  0  0  0  0
  2 22  2  0  0  0  0
  3  4  1  0  0  0  0
  3 23  1  0  0  0  0
  4  6  2  0  0  0  0
  4  5  1  0  0  0  0
  5 27  1  0  0  0  0
  5 28  1  0  0  0  0
  5 29  1  0  0  0  0
  6 20  1  0  0  0  0
  6  7  1  0  0  0  0
  7  8  1  0  0  0  0
  7 30  1  0  0  0  0
  7 31  1  0  0  0  0
  8  9  2  0  0  0  0
  8 10  1  0  0  0  0
 10 11  1  0  0  0  0
 10 32  1  0  0  0  0
 11 12  1  0  0  0  0
 11 13  1  0  0  0  0
 11 33  1  0  0  0  0
 12 34  1  0  0  0  0
 12 35  1  0  0  0  0
 12 36  1  0  0  0  0
 13 14  1  0  0  0  0
 13 37  1  0  0  0  0
 13 38  1  0  0  0  0
 14 19  1  0  0  0  0
 14 15  1  0  0  0  0
 14 49  1  0  0  0  0
 15 16  1  0  0  0  0
 15 39  1  0  0  0  0
 15 40  1  0  0  0  0
 16 17  1  0  0  0  0
 16 41  1  0  0  0  0
 16 42  1  0  0  0  0
 17 18  1  0  0  0  0
 17 43  1  0  0  0  0
 17 44  1  0  0  0  0
 18 19  1  0  0  0  0
 18 45  1  0  0  0  0
 18 46  1  0  0  0  0
 19 47  1  0  0  0  0
 19 48  1  0  0  0  0
 20 21  2  0  0  0  0
 20 22  1  0  0  0  0
M  CHG  1  14   1
M  END
> <s_m_source_file>
AV-unprocessed.smi

> <i_m_source_file_index>
1107

> <i_lp_mmshare_version>
43012

> <i_f3d_flags>
0

> <s_epik_input>
W0NIM11jMW5jKFtDSDNdKWMoYyg9TylbbkhdMSlbQ0gyXUMoPU8pW05IXVtDQEhdKFtDSDNdKVtDSDJdTjJbQ0gyXVtDSDJdW0NIMl1bQ0gyXVtDSDJdMg==

> <s_epik_cmdline>
J2VwaWtfcHl0aG9uJywgJy1waCcsICc3LjAnLCAnLXRuJywgJzgnLCAnLW1hJywgJzIwMCcsICctbWV0YWxfYmluZGluZycsICctaW1hZScsICc8aW5maWxlLm1hZT4nLCAnLW9tYWUnLCAnPG91dGZpbGUubWFlPic=

> <r_lp_tautomer_probability>
0.156392

> <r_epik_Ionization_Penalty>
0.0190033

> <r_epik_Ionization_Penalty_Charging>
0.0189172

> <r_epik_Ionization_Penalty_Neutral>
8.60838e-05

> <r_epik_State_Penalty>
1.15342

> <r_epik_Charging_Adjusted_Penalty>
1.17233

> <i_epik_Tot_Q>
1

> <i_epik_Tot_abs_Q>
1

> <r_epik_Metal_State_Penalty>
1.34593

> <b_epik_Metal_Only>
0

> <s_lp_Force_Field>
OPLS_2005

> <r_lp_Energy>
24.7354

> <b_lp_Chiralities_Consistent>
1

> <s_lp_Variant>
AV-unprocessed.smi:1107-4

> <Gold.Version>
5.8.1

> <Gold.Id.Protein>
6NUR|6NUR_protein|mol2

> <Gold.PLP.Fitness>
46.1194

> <Gold.PLP.PLP>
-35.9444

> <Gold.PLP.part.hbond>
-3.0000

> <Gold.PLP.part.metal>
0.0000

> <Gold.PLP.part.buried>
-3.4511

> <Gold.PLP.part.nonpolar>
-29.8728

> <Gold.PLP.part.repulsive>
0.2225

> <Gold.PLP.ligand.clash>
0.0000

> <Gold.PLP.ligand.torsion>
0.7605

> <Gold.PLP.Chemscore.Hbond>
3.8640

> <Gold.PLP.Chemscore.CHOScore>
0.0000

> <Gold.PLP.Chemscore.Metal>
0.0000

> <Gold.Chemscore.Hbonds>
donor molecule, donor type, donor heavy atom, donor atom, acceptor molecule, acceptor atom, score
      L1  H     3    23       P1  8028  1.00
      L1  H    10    32       P1  7948  1.00
      L1  H    14    49       P1  7948  2.00

> <Gold.PLP.Chemscore.Internal.Correction>
0.1040

> <Gold.Rescore>
     Score         DG    S(hbond)    S(metal)    S(lipo)     H(rot)  DE(clash)    DE(int)     intcor
     16.52     -18.64       2.77        0.00      76.77       1.98       0.05       2.07       ----

> <Gold.Chemscore.Fitness>
16.5195

> <Gold.Chemscore.DG>
-18.6409

> <Gold.Chemscore.ZeroCoef>
-5.4800

> <Gold.Chemscore.Hbond>
2.7715

> <Gold.Chemscore.Metal>
0.0000

> <Gold.Chemscore.Lipo>
76.7740

> <Gold.Chemscore.Internal_Hbond>
0.0000

> <Gold.Chemscore.DEClash>
0.0513

> <Gold.Chemscore.DEInternal>
2.0701

> <Gold.Chemscore.Rot>
1.9837

> <Gold.Chemscore.Internal.Correction>
   9.000000E+99

> <Gold.Chemscore.Hbonds>
donor molecule, donor type, donor heavy atom, donor atom, acceptor molecule, acceptor atom, score
      L1  H     3    23       P1  8028  1.00
      L1  H    10    32       P1  7948  0.95
      L1  H    14    49       P1  7948  0.92

> <Gold.Chemscore.Hbond.Weighted>
-9.2567

> <Gold.Chemscore.Metal.Weighted>
-0.0000

> <Gold.Chemscore.Lipo.Weighted>
-8.9826

> <Gold.Chemscore.Internal_Hbond.Weighted>
0.0000

> <Gold.Chemscore.DEClash.Weighted>
0.0513

> <Gold.Chemscore.DEInternal.Weighted>
2.0701

> <Gold.Chemscore.Rot.Weighted>
5.0783

> <Gold.Chemscore.Internal.Correction.Weighted>
   9.000000E+99

> <Gold.Protein.RotatedTorsions>
[ 6907 6896 6895 6894 ] final  107.39 input  -60.11 | X-H torsion
[ 7974 7965 7964 7962 ] final   77.50 input  175.53 | X-H torsion
[ 8008 7997 7996 7995 ] final  -15.68 input   59.86 | X-H torsion
[ 10167 10162 10161 10158 ] final  174.94 input  -65.29 | X-H torsion
[ 10718 10713 10712 10709 ] final  167.11 input   66.30 | X-H torsion
[ 10763 10752 10751 10750 ] final  171.34 input  -60.55 | X-H torsion
[ 11005 11000 10999 10996 ] final -140.62 input  -57.11 | X-H torsion

> <Gold.Protein.ActiveResidues>
 VAL166  LYS551  ARG553  GLY616  TRP617  ASP618  TYR619  PRO620  LYS621  CYS622 
 ASP623  PHE694  ASN695  SER759  ASP760  ASP761  ALA762  ILE779  LEU786  VAL792 
 PHE793  MET794  SER795  GLU796  ALA797  LYS798  CYS799  TRP800  GLU811  SER814 

> <Gold.Protein.RotatedAtoms>
  152.5156  133.9242  159.7548 H   0  0  0  0  0  0  0  0  0  0  0  0  # atno 6907 bound_to 6896
  150.9606  133.6440  159.2762 H   0  0  0  0  0  0  0  0  0  0  0  0  # atno 6908 bound_to 6896
  151.3687  135.0923  159.9511 H   0  0  0  0  0  0  0  0  0  0  0  0  # atno 6909 bound_to 6896
  145.6893  139.2547  143.1769 H   0  0  0  0  0  0  0  0  0  0  0  0  # atno 7974 bound_to 7965
  154.5111  140.2190  155.9154 H   0  0  0  0  0  0  0  0  0  0  0  0  # atno 8008 bound_to 7997
  156.1553  140.3153  155.8682 H   0  0  0  0  0  0  0  0  0  0  0  0  # atno 8009 bound_to 7997
  155.3858  140.0475  157.3033 H   0  0  0  0  0  0  0  0  0  0  0  0  # atno 8010 bound_to 7997
  139.5159  144.3089  152.0310 H   0  0  0  0  0  0  0  0  0  0  0  0  # atno 10167 bound_to 10162
  157.0562  131.0327  151.2663 H   0  0  0  0  0  0  0  0  0  0  0  0  # atno 10718 bound_to 10713
  154.4105  135.2756  155.2039 H   0  0  0  0  0  0  0  0  0  0  0  0  # atno 10763 bound_to 10752
  154.4027  135.6041  153.5910 H   0  0  0  0  0  0  0  0  0  0  0  0  # atno 10764 bound_to 10752
  152.9831  135.5930  154.4386 H   0  0  0  0  0  0  0  0  0  0  0  0  # atno 10765 bound_to 10752
  140.8405  134.2408  157.4812 H   0  0  0  0  0  0  0  0  0  0  0  0  # atno 11005 bound_to 11000
  146.0896  140.7671  142.9602 LP  0  0  0  0  0  0  0  0  0  0  0  0  # atno 17320 bound_to 7965
  144.7001  140.3616  143.7162 LP  0  0  0  0  0  0  0  0  0  0  0  0  # atno 17321 bound_to 7965
  140.2534  144.4144  150.6213 LP  0  0  0  0  0  0  0  0  0  0  0  0  # atno 17342 bound_to 10162
  140.6208  143.2176  151.6697 LP  0  0  0  0  0  0  0  0  0  0  0  0  # atno 17343 bound_to 10162
  157.4991  130.7869  149.7586 LP  0  0  0  0  0  0  0  0  0  0  0  0  # atno 17370 bound_to 10713
  155.9992  130.3890  150.2672 LP  0  0  0  0  0  0  0  0  0  0  0  0  # atno 17371 bound_to 10713
  139.8703  134.9633  156.4456 LP  0  0  0  0  0  0  0  0  0  0  0  0  # atno 17394 bound_to 11000
  140.8901  133.7855  155.9562 LP  0  0  0  0  0  0  0  0  0  0  0  0  # atno 17395 bound_to 11000

$$$$
