#       Name:                AV-unprocessed.smi:980
#       Creating user name   scv26
#       Creation time:       Fri Mar 27 02:21:57 2020


#       File generated by GOLD software.
#

@<TRIPOS>MOLECULE
AV-unprocessed.smi:980
    47    48     1
SMALL
NO_CHARGES


@<TRIPOS>ATOM
      1 ****        -2.7889   5.7899  -0.3519 C.3            1 S1                 0.0000
      2 ****        -2.2411   4.4408  -0.8646 C.3            1 S1                 0.0000
      3 ****        -3.2765   3.8473  -1.8403 C.3            1 S1                 0.0000
      4 ****        -0.9183   4.7160  -1.6068 C.3            1 S1                 0.0000
      5 ****        -1.9985   3.4780   0.2811 C.2            1 S1                 0.0000
      6 ****        -2.1881   3.6946   1.6273 C.2            1 S1                 0.0000
      7 ****        -1.7589   2.3071   2.5889 S.3            1 S1                 0.0000
      8 ****        -1.3454   1.4519   1.1114 C.2            1 S1                 0.0000
      9 ****        -0.8024   0.0628   1.0950 C.3            1 S1                 0.0000
     10 ****         0.7347   0.0385   1.1022 C.3            1 S1                 0.0000
     11 ****         1.2567  -1.3219   1.1562 N.am           1 S1                 0.0000
     12 ****         1.3288  -2.1648   0.1144 C.2            1 S1                 0.0000
     13 ****         0.9402  -1.8738  -1.0173 O.2            1 S1                 0.0000
     14 ****         1.9388  -3.5453   0.3926 C.3            1 S1                 0.0000
     15 ****         0.8918  -4.6683   0.2137 C.3            1 S1                 0.0000
     16 ****         1.5247  -6.0488   0.2376 C.2            1 S1                 0.0000
     17 ****         2.8432  -6.2605   0.0840 C.2            1 S1                 0.0000
     18 ****         3.8488  -5.1445  -0.1378 C.3            1 S1                 0.0000
     19 ****         3.1686  -3.8104  -0.4996 C.3            1 S1                 0.0000
     20 ****        -1.5117   2.1914   0.0128 N.2            1 S1                 0.0000
     21 ****        -2.9665   6.4846  -1.1737 H              1 S1                 0.0000
     22 ****        -2.0901   6.2722   0.3328 H              1 S1                 0.0000
     23 ****        -3.7361   5.6633   0.1740 H              1 S1                 0.0000
     24 ****        -4.2235   3.6454  -1.3382 H              1 S1                 0.0000
     25 ****        -2.9290   2.9091  -2.2745 H              1 S1                 0.0000
     26 ****        -3.4808   4.5291  -2.6665 H              1 S1                 0.0000
     27 ****        -1.0615   5.4186  -2.4284 H              1 S1                 0.0000
     28 ****        -0.4977   3.8036  -2.0309 H              1 S1                 0.0000
     29 ****        -0.1699   5.1416  -0.9372 H              1 S1                 0.0000
     30 ****        -2.5479   4.5867   2.1176 H              1 S1                 0.0000
     31 ****        -1.1902  -0.4702   1.9638 H              1 S1                 0.0000
     32 ****        -1.1900  -0.4514   0.2145 H              1 S1                 0.0000
     33 ****         1.1294   0.5553   0.2256 H              1 S1                 0.0000
     34 ****         1.1091   0.5757   1.9740 H              1 S1                 0.0000
     35 ****         1.6002  -1.6430   2.0497 H              1 S1                 0.0000
     36 ****         2.2773  -3.5635   1.4305 H              1 S1                 0.0000
     37 ****         0.1514  -4.6123   1.0126 H              1 S1                 0.0000
     38 ****         0.3511  -4.5619  -0.7279 H              1 S1                 0.0000
     39 ****         0.8589  -6.8881   0.3757 H              1 S1                 0.0000
     40 ****         3.2340  -7.2666   0.1262 H              1 S1                 0.0000
     41 ****         4.4355  -5.0328   0.7744 H              1 S1                 0.0000
     42 ****         4.5414  -5.4351  -0.9280 H              1 S1                 0.0000
     43 ****         2.8593  -3.8416  -1.5458 H              1 S1                 0.0000
     44 ****         3.8908  -2.9968  -0.4173 H              1 S1                 0.0000
     45 ****         0.5477  -0.9713  -1.1946 LP             1 S1                 0.0000
     46 ****         1.0171  -2.5401  -1.7591 LP             1 S1                 0.0000
     47 ****        -1.3094   1.8607  -0.9090 LP             1 S1                 0.0000
@<TRIPOS>BOND
    1    1    2 1     
    2    1   21 1     
    3    1   22 1     
    4    1   23 1     
    5    2    3 1     
    6    2    4 1     
    7    2    5 1     
    8    3   24 1     
    9    3   25 1     
   10    3   26 1     
   11    4   27 1     
   12    4   28 1     
   13    4   29 1     
   14    5   20 1     
   15    5    6 2     
   16    6    7 1     
   17    6   30 1     
   18    7    8 1     
   19    8    9 1     
   20    8   20 2     
   21    9   10 1     
   22    9   31 1     
   23    9   32 1     
   24   10   11 1     
   25   10   33 1     
   26   10   34 1     
   27   11   12 am    
   28   11   35 1     
   29   12   13 2     
   30   12   14 1     
   31   14   19 1     
   32   14   15 1     
   33   14   36 1     
   34   15   16 1     
   35   15   37 1     
   36   15   38 1     
   37   16   17 2     
   38   16   39 1     
   39   17   18 1     
   40   17   40 1     
   41   18   19 1     
   42   18   41 1     
   43   18   42 1     
   44   19   43 1     
   45   19   44 1     
   46   13   45 1     
   47   13   46 1     
   48   20   47 1     
@<TRIPOS>SUBSTRUCTURE
      1 S1             1
@<TRIPOS>SET
LONE_PAIRS      STATIC     ATOMS    <user>   **** ""
3 45 46 47
DONOR_HYDROGENS      STATIC     ATOMS    <user>   **** ""
1 35
ATOM$BLUE        STATIC     ATOMS    COLORGROUP SYSTEM
3 45 46 47
ATOM$RED        STATIC     ATOMS    COLORGROUP SYSTEM
1 35
