AV-unprocessed.smi:97|AV-procd|sdf|862|dock1
  -GOLD-   2262017313D 1   1.00000     0.00000
 Structure written by MMmdl.
 46 49  0  0  0  0  0  0  0  0  1 V2000
  151.8615  136.7103  154.6676 O   0  0  0  0  0  0  0  0  0  0  0  0
  151.7375  137.2906  155.7453 C   0  0  0  0  0  0  0  0  0  0  0  0
  152.5785  138.5503  156.0198 C   0  0  0  0  0  0  0  0  0  0  0  0
  151.7872  139.7832  156.2421 N   0  0  0  0  0  0  0  0  0  0  0  0
  150.7543  140.1121  155.3291 C   0  0  0  0  0  0  0  0  0  0  0  0
  150.5055  139.3936  154.3603 O   0  0  0  0  0  0  0  0  0  0  0  0
  150.0172  141.3355  155.6259 C   0  0  0  0  0  0  0  0  0  0  0  0
  149.0356  141.7379  154.8012 F   0  0  0  0  0  0  0  0  0  0  0  0
  150.3040  142.0712  156.7195 C   0  0  0  0  0  0  0  0  0  0  0  0
  151.2958  141.7223  157.6170 N   0  0  0  0  0  0  0  0  0  0  0  0
  151.5780  142.5682  158.8375 C   0  0  1  0  0  0  0  0  0  0  0  0
  152.9701  143.2022  158.7344 C   0  0  0  0  0  0  0  0  0  0  0  0
  152.6489  144.5893  158.2207 C   0  0  0  0  0  0  0  0  0  0  0  0
  151.3075  144.8609  158.8904 C   0  0  0  0  0  0  0  0  0  0  0  0
  150.6393  143.6035  158.8972 O   0  0  0  0  0  0  0  0  0  0  0  0
  152.0759  140.5699  157.3837 C   0  0  0  0  0  0  0  0  0  0  0  0
  152.9813  140.2535  158.1583 O   0  0  0  0  0  0  0  0  0  0  0  0
  150.9178  136.8558  156.7170 N   0  0  0  0  0  0  0  0  0  0  0  0
  150.1613  135.6103  156.6884 C   0  0  0  0  0  0  0  0  0  0  0  0
  149.4030  135.3387  157.9800 C   0  0  0  0  0  0  0  0  0  0  0  0
  148.9107  134.0371  158.2753 C   0  0  0  0  0  0  0  0  0  0  0  0
  148.2091  133.7814  159.4748 C   0  0  0  0  0  0  0  0  0  0  0  0
  148.0221  134.8518  160.3637 C   0  0  0  0  0  0  0  0  0  0  0  0
  148.5025  136.1149  160.0864 C   0  0  0  0  0  0  0  0  0  0  0  0
  149.2020  136.3949  158.9011 C   0  0  0  0  0  0  0  0  0  0  0  0
  148.1876  136.9544  161.1055 O   0  0  0  0  0  0  0  0  0  0  0  0
  147.4876  136.1764  162.0418 C   0  0  0  0  0  0  0  0  0  0  0  0
  147.3910  134.8587  161.5653 O   0  0  0  0  0  0  0  0  0  0  0  0
  153.2175  138.3541  156.8825 H   0  0  0  0  0  0  0  0  0  0  0  0
  153.2834  138.6683  155.1959 H   0  0  0  0  0  0  0  0  0  0  0  0
  149.7289  142.9693  156.8890 H   0  0  0  0  0  0  0  0  0  0  0  0
  151.4531  141.9179  159.7046 H   0  0  0  0  0  0  0  0  0  0  0  0
  153.4023  143.2556  159.7344 H   0  0  0  0  0  0  0  0  0  0  0  0
  153.6405  142.6331  158.0893 H   0  0  0  0  0  0  0  0  0  0  0  0
  153.4101  145.3274  158.4749 H   0  0  0  0  0  0  0  0  0  0  0  0
  152.5353  144.5741  157.1362 H   0  0  0  0  0  0  0  0  0  0  0  0
  151.4557  145.1863  159.9210 H   0  0  0  0  0  0  0  0  0  0  0  0
  150.7237  145.6222  158.3728 H   0  0  0  0  0  0  0  0  0  0  0  0
  150.8674  137.3973  157.5674 H   0  0  0  0  0  0  0  0  0  0  0  0
  149.4384  135.6711  155.8749 H   0  0  0  0  0  0  0  0  0  0  0  0
  150.8196  134.7720  156.4537 H   0  0  0  0  0  0  0  0  0  0  0  0
  149.0686  133.2239  157.5821 H   0  0  0  0  0  0  0  0  0  0  0  0
  147.8317  132.7953  159.7013 H   0  0  0  0  0  0  0  0  0  0  0  0
  149.5706  137.3906  158.7020 H   0  0  0  0  0  0  0  0  0  0  0  0
  148.0201  136.1830  162.9934 H   0  0  0  0  0  0  0  0  0  0  0  0
  146.4873  136.5874  162.1840 H   0  0  0  0  0  0  0  0  0  0  0  0
  1  2  2  0  0  0  0
  2  3  1  0  0  0  0
  2 18  1  0  0  0  0
  3  4  1  0  0  0  0
  3 29  1  0  0  0  0
  3 30  1  0  0  0  0
  4 16  1  0  0  0  0
  4  5  1  0  0  0  0
  5  6  2  0  0  0  0
  5  7  1  0  0  0  0
  7  8  1  0  0  0  0
  7  9  2  0  0  0  0
  9 10  1  0  0  0  0
  9 31  1  0  0  0  0
 10 11  1  0  0  0  0
 10 16  1  0  0  0  0
 11 15  1  0  0  0  0
 11 12  1  0  0  0  0
 11 32  1  0  0  0  0
 12 13  1  0  0  0  0
 12 33  1  0  0  0  0
 12 34  1  0  0  0  0
 13 14  1  0  0  0  0
 13 35  1  0  0  0  0
 13 36  1  0  0  0  0
 14 15  1  0  0  0  0
 14 37  1  0  0  0  0
 14 38  1  0  0  0  0
 16 17  2  0  0  0  0
 18 19  1  0  0  0  0
 18 39  1  0  0  0  0
 19 20  1  0  0  0  0
 19 40  1  0  0  0  0
 19 41  1  0  0  0  0
 20 25  1  0  0  0  0
 20 21  2  0  0  0  0
 21 22  1  0  0  0  0
 21 42  1  0  0  0  0
 22 23  2  0  0  0  0
 22 43  1  0  0  0  0
 23 28  1  0  0  0  0
 23 24  1  0  0  0  0
 24 25  2  0  0  0  0
 24 26  1  0  0  0  0
 25 44  1  0  0  0  0
 26 27  1  0  0  0  0
 27 28  1  0  0  0  0
 27 45  1  0  0  0  0
 27 46  1  0  0  0  0
M  END
> <s_m_source_file>
AV-unprocessed.smi

> <i_m_source_file_index>
97

> <i_lp_mmshare_version>
43012

> <i_f3d_flags>
0

> <s_epik_input>
TzFbQ0gyXU9jKGMxMilbY0hdYyhbY0hdW2NIXTIpW0NIMl1bTkhdQyg9TylbQ0gyXW4zYyg9TyljKEYpW2NIXW4oYzM9TylbQ0BASF00W0NIMl1bQ0gyXVtDSDJdTzQ=

> <s_epik_cmdline>
J2VwaWtfcHl0aG9uJywgJy1waCcsICc3LjAnLCAnLXRuJywgJzgnLCAnLW1hJywgJzIwMCcsICctbWV0YWxfYmluZGluZycsICctaW1hZScsICc8aW5maWxlLm1hZT4nLCAnLW9tYWUnLCAnPG91dGZpbGUubWFlPic=

> <r_lp_tautomer_probability>
1

> <r_epik_Ionization_Penalty>
3.79042e-08

> <r_epik_Ionization_Penalty_Charging>
3.81036e-09

> <r_epik_Ionization_Penalty_Neutral>
3.40938e-08

> <r_epik_State_Penalty>
-0

> <r_epik_Charging_Adjusted_Penalty>
3.81036e-09

> <i_epik_Tot_Q>
0

> <i_epik_Tot_abs_Q>
0

> <r_epik_Metal_State_Penalty>
-0

> <b_epik_Metal_Only>
0

> <s_epik_Chemistry_Notes>
This compound contains an acetal/aminal-like group ( X-CH(R)-Y where X, Y are N, S, or O) that may be acid/base labile, releasing an aldehyde.

> <s_lp_Force_Field>
OPLS_2005

> <r_lp_Energy>
39.492

> <b_lp_Chiralities_Consistent>
1

> <s_lp_Variant>
AV-unprocessed.smi:97-2

> <Gold.Version>
5.8.1

> <Gold.Id.Protein>
6NUR|6NUR_protein|mol2

> <Gold.PLP.Fitness>
62.0877

> <Gold.PLP.PLP>
-48.6749

> <Gold.PLP.part.hbond>
-4.9623

> <Gold.PLP.part.metal>
0.0000

> <Gold.PLP.part.buried>
-3.2602

> <Gold.PLP.part.nonpolar>
-41.4259

> <Gold.PLP.part.repulsive>
0.4818

> <Gold.PLP.ligand.clash>
0.0000

> <Gold.PLP.ligand.torsion>
0.3813

> <Gold.PLP.Chemscore.Hbond>
3.7038

> <Gold.PLP.Chemscore.CHOScore>
1.0000

> <Gold.PLP.Chemscore.Metal>
0.0000

> <Gold.Chemscore.Hbonds>
donor molecule, donor type, donor heavy atom, donor atom, acceptor molecule, acceptor atom, score
      P1  H  6931  6943       L1    26  1.00
      P1  H  6934  6947       L1    26  0.22
      P1  H  7997  8009       L1    17  0.94
      P1  H 10752 10765       L1     1  1.00
      L1  C     9    31       P1  8028  1.00

> <Gold.PLP.Chemscore.Internal.Correction>
0.0638

> <Gold.Rescore>
     Score         DG    S(hbond)    S(metal)    S(lipo)     H(rot)  DE(clash)    DE(int)     intcor
     16.06     -19.10       3.02        0.00      86.59       2.58       0.11       2.93       ----

> <Gold.Chemscore.Fitness>
16.0631

> <Gold.Chemscore.DG>
-19.1037

> <Gold.Chemscore.ZeroCoef>
-5.4800

> <Gold.Chemscore.Hbond>
3.0234

> <Gold.Chemscore.Metal>
0.0000

> <Gold.Chemscore.Lipo>
86.5870

> <Gold.Chemscore.Internal_Hbond>
0.0000

> <Gold.Chemscore.DEClash>
0.1133

> <Gold.Chemscore.DEInternal>
2.9273

> <Gold.Chemscore.Rot>
2.5801

> <Gold.Chemscore.Internal.Correction>
   9.000000E+99

> <Gold.Chemscore.Hbonds>
donor molecule, donor type, donor heavy atom, donor atom, acceptor molecule, acceptor atom, score
      P1  H  6931  6943       L1    26  0.77
      P1  H  6934  6947       L1    26  0.17
      P1  H  7997  8009       L1    17  0.35
      P1  H 10752 10765       L1     1  0.92

> <Gold.Chemscore.Hbond.Weighted>
-10.0981

> <Gold.Chemscore.Metal.Weighted>
-0.0000

> <Gold.Chemscore.Lipo.Weighted>
-10.1307

> <Gold.Chemscore.Internal_Hbond.Weighted>
0.0000

> <Gold.Chemscore.DEClash.Weighted>
0.1133

> <Gold.Chemscore.DEInternal.Weighted>
2.9273

> <Gold.Chemscore.Rot.Weighted>
6.6050

> <Gold.Chemscore.Internal.Correction.Weighted>
   9.000000E+99

> <Gold.Protein.RotatedTorsions>
[ 6907 6896 6895 6894 ] final   58.34 input  -60.11 | X-H torsion
[ 7974 7965 7964 7962 ] final  -33.35 input  175.53 | X-H torsion
[ 8008 7997 7996 7995 ] final  158.52 input   59.86 | X-H torsion
[ 10167 10162 10161 10158 ] final   85.47 input  -65.29 | X-H torsion
[ 10718 10713 10712 10709 ] final  -70.82 input   66.30 | X-H torsion
[ 10763 10752 10751 10750 ] final  156.59 input  -60.55 | X-H torsion
[ 11005 11000 10999 10996 ] final -122.55 input  -57.11 | X-H torsion

> <Gold.Protein.ActiveResidues>
 VAL166  LYS551  ARG553  GLY616  TRP617  ASP618  TYR619  PRO620  LYS621  CYS622 
 ASP623  PHE694  ASN695  SER759  ASP760  ASP761  ALA762  ILE779  LEU786  VAL792 
 PHE793  MET794  SER795  GLU796  ALA797  LYS798  CYS799  TRP800  GLU811  SER814 

> <Gold.Protein.RotatedAtoms>
  152.3815  134.6582  160.0140 H   0  0  0  0  0  0  0  0  0  0  0  0  # atno 6907 bound_to 6896
  151.6844  133.3306  159.3235 H   0  0  0  0  0  0  0  0  0  0  0  0  # atno 6908 bound_to 6896
  150.7751  134.6689  159.6425 H   0  0  0  0  0  0  0  0  0  0  0  0  # atno 6909 bound_to 6896
  146.0918  140.5905  142.8861 H   0  0  0  0  0  0  0  0  0  0  0  0  # atno 7974 bound_to 7965
  156.2297  140.1856  156.7273 H   0  0  0  0  0  0  0  0  0  0  0  0  # atno 8008 bound_to 7997
  154.6001  140.0637  156.9385 H   0  0  0  0  0  0  0  0  0  0  0  0  # atno 8009 bound_to 7997
  155.2188  140.3306  155.4321 H   0  0  0  0  0  0  0  0  0  0  0  0  # atno 8010 bound_to 7997
  139.8974  144.6350  150.8673 H   0  0  0  0  0  0  0  0  0  0  0  0  # atno 10167 bound_to 10162
  156.0390  130.4339  150.2352 H   0  0  0  0  0  0  0  0  0  0  0  0  # atno 10718 bound_to 10713
  154.1868  135.2797  155.3035 H   0  0  0  0  0  0  0  0  0  0  0  0  # atno 10763 bound_to 10752
  154.5960  135.5544  153.7329 H   0  0  0  0  0  0  0  0  0  0  0  0  # atno 10764 bound_to 10752
  153.0123  135.6380  154.2006 H   0  0  0  0  0  0  0  0  0  0  0  0  # atno 10765 bound_to 10752
  140.9986  134.0435  157.3566 H   0  0  0  0  0  0  0  0  0  0  0  0  # atno 11005 bound_to 11000
  144.7365  140.4824  143.6900 LP  0  0  0  0  0  0  0  0  0  0  0  0  # atno 17320 bound_to 7965
  145.6025  139.1505  143.3121 LP  0  0  0  0  0  0  0  0  0  0  0  0  # atno 17321 bound_to 7965
  140.7714  143.3463  151.2105 LP  0  0  0  0  0  0  0  0  0  0  0  0  # atno 17342 bound_to 10162
  139.7055  143.9462  152.2925 LP  0  0  0  0  0  0  0  0  0  0  0  0  # atno 17343 bound_to 10162
  157.0449  131.0046  151.3272 LP  0  0  0  0  0  0  0  0  0  0  0  0  # atno 17370 bound_to 10713
  157.5183  130.7982  149.7780 LP  0  0  0  0  0  0  0  0  0  0  0  0  # atno 17371 bound_to 10713
  139.9027  135.0170  156.7345 LP  0  0  0  0  0  0  0  0  0  0  0  0  # atno 17394 bound_to 11000
  140.6925  133.9377  155.7975 LP  0  0  0  0  0  0  0  0  0  0  0  0  # atno 17395 bound_to 11000

$$$$
