#       Name:                AV-unprocessed.smi:2684
#       Creating user name   scv26
#       Creation time:       Fri Mar 27 14:40:49 2020


#       File generated by GOLD software.
#

@<TRIPOS>MOLECULE
AV-unprocessed.smi:2684
    50    51     1
SMALL
NO_CHARGES


@<TRIPOS>ATOM
      1 ****         0.1372   0.5082   3.4084 C.3            1 S1                 0.0000
      2 ****        -0.7695  -0.1735   2.4248 C.2            1 S1                 0.0000
      3 ****        -1.9399   0.3494   1.8048 C.2            1 S1                 0.0000
      4 ****        -2.5053  -0.5074   0.9697 N.2            1 S1                 0.0000
      5 ****        -1.7180  -1.6024   1.0251 N.pl3          1 S1                 0.0000
      6 ****        -2.0289  -2.7583   0.2031 C.3            1 S1                 0.0000
      7 ****        -1.7695  -2.5271  -1.3039 C.3            1 S1                 0.0000
      8 ****        -2.2350  -3.7394  -2.1215 C.3            1 S1                 0.0000
      9 ****        -0.3343  -2.2776  -1.5739 N.4            1 S1                 1.0000
     10 ****         0.0506  -0.8526  -1.6651 C.3            1 S1                 0.0000
     11 ****         1.5747  -0.6799  -1.7153 C.2            1 S1                 0.0000
     12 ****         2.2524  -1.5102  -2.3180 O.2            1 S1                 0.0000
     13 ****         2.1555   0.3808  -1.1250 N.am           1 S1                 0.0000
     14 ****         3.5764   0.7218  -1.0615 C.3            1 S1                 0.0000
     15 ****         4.3305  -0.1567  -0.0472 C.3            1 S1                 0.0000
     16 ****         5.7852   0.3184   0.0987 C.3            1 S1                 0.0000
     17 ****         5.8139   1.6884   0.4834 O.3            1 S1                 0.0000
     18 ****         5.2242   2.5497  -0.4844 C.3            1 S1                 0.0000
     19 ****         3.7385   2.1969  -0.6661 C.3            1 S1                 0.0000
     20 ****        -0.6692  -1.4324   1.9045 C.2            1 S1                 0.0000
     21 ****        -0.2037   1.5167   3.6427 H              1 S1                 0.0000
     22 ****         1.1537   0.5948   3.0238 H              1 S1                 0.0000
     23 ****         0.1944  -0.0389   4.3496 H              1 S1                 0.0000
     24 ****        -2.3884   1.3238   1.9317 H              1 S1                 0.0000
     25 ****        -1.4458  -3.6071   0.5633 H              1 S1                 0.0000
     26 ****        -3.0769  -3.0129   0.3679 H              1 S1                 0.0000
     27 ****        -2.3502  -1.6680  -1.6450 H              1 S1                 0.0000
     28 ****        -3.2982  -3.9295  -1.9712 H              1 S1                 0.0000
     29 ****        -1.6930  -4.6429  -1.8393 H              1 S1                 0.0000
     30 ****        -2.0798  -3.5773  -3.1887 H              1 S1                 0.0000
     31 ****         0.2117  -2.7226  -0.8502 H              1 S1                 0.0000
     32 ****        -0.3807  -0.4266  -2.5713 H              1 S1                 0.0000
     33 ****        -0.3807  -0.3103  -0.8303 H              1 S1                 0.0000
     34 ****         1.5323   1.0444  -0.6871 H              1 S1                 0.0000
     35 ****         4.0228   0.6046  -2.0482 H              1 S1                 0.0000
     36 ****         3.8370  -0.1089   0.9246 H              1 S1                 0.0000
     37 ****         4.3178  -1.2031  -0.3509 H              1 S1                 0.0000
     38 ****         6.2973  -0.2715   0.8590 H              1 S1                 0.0000
     39 ****         6.3344   0.1800  -0.8342 H              1 S1                 0.0000
     40 ****         5.3255   3.5809  -0.1457 H              1 S1                 0.0000
     41 ****         5.7622   2.4720  -1.4302 H              1 S1                 0.0000
     42 ****         3.2938   2.8432  -1.4237 H              1 S1                 0.0000
     43 ****         3.2066   2.3945   0.2659 H              1 S1                 0.0000
     44 ****         0.0627  -2.2081   2.0763 H              1 S1                 0.0000
     45 ****        -0.0965  -2.7057  -2.4574 H              1 S1                 0.0000
     46 ****        -3.3304  -0.3737   0.4209 LP             1 S1                 0.0000
     47 ****         1.8095  -2.2859  -2.7676 LP             1 S1                 0.0000
     48 ****         3.2466  -1.4098  -2.3586 LP             1 S1                 0.0000
     49 ****         6.7664   1.9624   0.6158 LP             1 S1                 0.0000
     50 ****         5.3156   1.7881   1.3447 LP             1 S1                 0.0000
@<TRIPOS>BOND
    1    1    2 1     
    2    1   21 1     
    3    1   22 1     
    4    1   23 1     
    5    2   20 2     
    6    2    3 1     
    7    3    4 2     
    8    3   24 1     
    9    4    5 1     
   10    5    6 1     
   11    5   20 1     
   12    6    7 1     
   13    6   25 1     
   14    6   26 1     
   15    7    8 1     
   16    7    9 1     
   17    7   27 1     
   18    8   28 1     
   19    8   29 1     
   20    8   30 1     
   21    9   10 1     
   22    9   31 1     
   23    9   45 1     
   24   10   11 1     
   25   10   32 1     
   26   10   33 1     
   27   11   12 2     
   28   11   13 am    
   29   13   14 1     
   30   13   34 1     
   31   14   19 1     
   32   14   15 1     
   33   14   35 1     
   34   15   16 1     
   35   15   36 1     
   36   15   37 1     
   37   16   17 1     
   38   16   38 1     
   39   16   39 1     
   40   17   18 1     
   41   18   19 1     
   42   18   40 1     
   43   18   41 1     
   44   19   42 1     
   45   19   43 1     
   46   20   44 1     
   47    4   46 1     
   48   12   47 1     
   49   12   48 1     
   50   17   49 1     
   51   17   50 1     
@<TRIPOS>SUBSTRUCTURE
      1 S1             1
@<TRIPOS>SET
LONE_PAIRS      STATIC     ATOMS    <user>   **** ""
5 46 47 48 49 50
DONOR_HYDROGENS      STATIC     ATOMS    <user>   **** ""
3 31 45 34
ATOM$BLUE        STATIC     ATOMS    COLORGROUP SYSTEM
5 46 47 48 49 50
ATOM$RED        STATIC     ATOMS    COLORGROUP SYSTEM
3 31 45 34
