#       Name:                AV-unprocessed.smi:1815
#       Creating user name   scv26
#       Creation time:       Fri Mar 27 09:01:19 2020


#       File generated by GOLD software.
#

@<TRIPOS>MOLECULE
AV-unprocessed.smi:1815
    45    46     1
SMALL
NO_CHARGES


@<TRIPOS>ATOM
      1 ****        -2.1641   4.2707  -1.7591 C.3            1 S1                 0.0000
      2 ****        -1.9632   3.2485  -0.6354 C.3            1 S1                 0.0000
      3 ****        -0.5213   2.7109  -0.5933 C.3            1 S1                 0.0000
      4 ****        -0.3525   1.6784   0.4214 N.3            1 S1                 0.0000
      5 ****         1.0323   1.2109   0.4670 C.3            1 S1                 0.0000
      6 ****         1.3759   0.2967   1.6609 C.3            1 S1                 0.0000
      7 ****         1.2389  -1.1200   1.3372 N.am           1 S1                 0.0000
      8 ****         2.1101  -1.8353   0.6118 C.2            1 S1                 0.0000
      9 ****         3.1418  -1.3639   0.1322 O.2            1 S1                 0.0000
     10 ****         1.7038  -3.1105   0.4835 N.am           1 S1                 0.0000
     11 ****         2.3477  -4.1723  -0.2042 C.2            1 S1                 0.0000
     12 ****         3.5073  -4.0530  -0.8614 N.2            1 S1                 0.0000
     13 ****         3.9066  -5.2589  -1.4433 C.2            1 S1                 0.0000
     14 ****         3.0328  -6.2933  -1.2176 C.2            1 S1                 0.0000
     15 ****         1.6653  -5.7912  -0.2595 S.3            1 S1                 0.0000
     16 ****        -1.2982   0.5960   0.1585 C.3            1 S1                 0.0000
     17 ****        -2.7579   1.0854   0.0727 C.3            1 S1                 0.0000
     18 ****        -3.3599   1.4463   1.4415 C.3            1 S1                 0.0000
     19 ****        -2.8658   2.1660  -0.8553 O.3            1 S1                 0.0000
     20 ****        -1.5018   5.1276  -1.6334 H              1 S1                 0.0000
     21 ****        -3.1892   4.6420  -1.7695 H              1 S1                 0.0000
     22 ****        -1.9597   3.8295  -2.7351 H              1 S1                 0.0000
     23 ****        -2.2000   3.7311   0.3133 H              1 S1                 0.0000
     24 ****        -0.2512   2.3125  -1.5728 H              1 S1                 0.0000
     25 ****         0.1623   3.5373  -0.3946 H              1 S1                 0.0000
     26 ****         1.3072   0.7393  -0.4778 H              1 S1                 0.0000
     27 ****         1.6777   2.0863   0.5502 H              1 S1                 0.0000
     28 ****         2.4048   0.4810   1.9745 H              1 S1                 0.0000
     29 ****         0.7532   0.5343   2.5241 H              1 S1                 0.0000
     30 ****         0.4180  -1.5880   1.6919 H              1 S1                 0.0000
     31 ****         0.8325  -3.3511   0.9325 H              1 S1                 0.0000
     32 ****         4.8300  -5.2911  -2.0027 H              1 S1                 0.0000
     33 ****         3.1103  -7.3160  -1.5555 H              1 S1                 0.0000
     34 ****        -1.0341   0.1071  -0.7808 H              1 S1                 0.0000
     35 ****        -1.2274  -0.1675   0.9327 H              1 S1                 0.0000
     36 ****        -3.3596   0.2723  -0.3340 H              1 S1                 0.0000
     37 ****        -3.3742   0.5771   2.0993 H              1 S1                 0.0000
     38 ****        -4.3867   1.7964   1.3342 H              1 S1                 0.0000
     39 ****        -2.7918   2.2271   1.9467 H              1 S1                 0.0000
     40 ****        -0.5495   2.0555   1.3264 LP             1 S1                 0.0000
     41 ****         3.3652  -0.3999   0.2764 LP             1 S1                 0.0000
     42 ****         3.7561  -1.9451  -0.4015 LP             1 S1                 0.0000
     43 ****         4.0268  -3.2011  -0.9282 LP             1 S1                 0.0000
     44 ****        -2.6973   1.8043  -1.7722 LP             1 S1                 0.0000
     45 ****        -3.7977   2.5252  -0.8048 LP             1 S1                 0.0000
@<TRIPOS>BOND
    1    1    2 1     
    2    1   20 1     
    3    1   21 1     
    4    1   22 1     
    5    2   19 1     
    6    2    3 1     
    7    2   23 1     
    8    3    4 1     
    9    3   24 1     
   10    3   25 1     
   11    4    5 1     
   12    4   16 1     
   13    5    6 1     
   14    5   26 1     
   15    5   27 1     
   16    6    7 1     
   17    6   28 1     
   18    6   29 1     
   19    7    8 am    
   20    7   30 1     
   21    8    9 2     
   22    8   10 am    
   23   10   11 1     
   24   10   31 1     
   25   11   15 1     
   26   11   12 2     
   27   12   13 1     
   28   13   14 2     
   29   13   32 1     
   30   14   15 1     
   31   14   33 1     
   32   16   17 1     
   33   16   34 1     
   34   16   35 1     
   35   17   18 1     
   36   17   19 1     
   37   17   36 1     
   38   18   37 1     
   39   18   38 1     
   40   18   39 1     
   41    4   40 1     
   42    9   41 1     
   43    9   42 1     
   44   12   43 1     
   45   19   44 1     
   46   19   45 1     
@<TRIPOS>SUBSTRUCTURE
      1 S1             1
@<TRIPOS>SET
LONE_PAIRS      STATIC     ATOMS    <user>   **** ""
6 40 41 42 43 44 45
DONOR_HYDROGENS      STATIC     ATOMS    <user>   **** ""
2 30 31
ATOM$BLUE        STATIC     ATOMS    COLORGROUP SYSTEM
6 40 41 42 43 44 45
ATOM$RED        STATIC     ATOMS    COLORGROUP SYSTEM
2 30 31
