AV-unprocessed.smi:246|AV-procd|sdf|1884|dock7
  -GOLD-   2262020533D 1   1.00000     0.00000
 Structure written by MMmdl.
 57 60  0  0  0  0  0  0  0  0  1 V2000
  152.8133  142.8751  161.9363 C   0  0  0  0  0  0  0  0  0  0  0  0
  151.9075  143.5588  160.9028 C   0  0  0  0  0  0  0  0  0  0  0  0
  152.5759  143.7578  159.6652 O   0  0  0  0  0  0  0  0  0  0  0  0
  151.7101  143.8697  158.5450 C   0  0  0  0  0  0  0  0  0  0  0  0
  151.6173  142.5073  157.8524 C   0  0  0  0  0  0  0  0  0  0  0  0
  150.2642  142.2684  157.4969 O   0  0  0  0  0  0  0  0  0  0  0  0
  150.1031  141.6473  156.2303 C   0  0  1  0  0  0  0  0  0  0  0  0
  151.1727  140.5942  155.9273 C   0  0  0  0  0  0  0  0  0  0  0  0
  150.4758  139.6336  154.9602 C   0  0  0  0  0  0  0  0  0  0  0  0
  149.0482  139.7781  155.2249 N   0  0  0  0  0  0  0  0  0  0  0  0
  148.1690  138.7636  155.0107 C   0  0  0  0  0  0  0  0  0  0  0  0
  147.9754  137.8601  156.0083 N   0  0  0  0  0  0  0  0  0  0  0  0
  147.1193  136.8465  155.8545 C   0  0  0  0  0  0  0  0  0  0  0  0
  146.3631  136.5478  154.7981 N   0  0  0  0  0  0  0  0  0  0  0  0
  146.5561  137.4410  153.7869 C   0  0  0  0  0  0  0  0  0  0  0  0
  147.4332  138.5647  153.8032 C   0  0  0  0  0  0  0  0  0  0  0  0
  147.3560  139.2282  152.5822 N   0  0  0  0  0  0  0  0  0  0  0  0
  146.4827  138.5465  151.8938 C   0  0  0  0  0  0  0  0  0  0  0  0
  145.9452  137.4617  152.5463 N   0  0  0  0  0  0  0  0  0  0  0  0
  144.9458  136.5436  152.0319 C   0  0  0  0  0  0  0  0  0  0  0  0
  145.5005  135.5900  150.9520 C   0  0  2  0  0  0  0  0  0  0  0  0
  144.8615  135.9180  149.7345 O   0  0  0  0  0  0  0  0  0  0  0  0
  145.2802  134.0897  151.2500 C   0  0  1  0  0  0  0  0  0  0  0  0
  143.8124  133.6540  151.2681 C   0  0  0  0  0  0  0  0  0  0  0  0
  143.8639  132.1722  150.9278 C   0  0  0  0  0  0  0  0  0  0  0  0
  145.2829  131.9632  150.3960 C   0  0  0  0  0  0  0  0  0  0  0  0
  145.7938  133.2736  150.2075 O   0  0  0  0  0  0  0  0  0  0  0  0
  148.8113  140.8303  156.2008 C   0  0  0  0  0  0  0  0  0  0  0  0
  150.0722  142.3905  155.4312 H   0  0  0  0  0  0  0  0  0  0  0  0
  152.3156  142.8153  162.9044 H   0  0  0  0  0  0  0  0  0  0  0  0
  153.7397  143.4330  162.0735 H   0  0  0  0  0  0  0  0  0  0  0  0
  153.0730  141.8593  161.6411 H   0  0  0  0  0  0  0  0  0  0  0  0
  150.9804  143.0016  160.7616 H   0  0  0  0  0  0  0  0  0  0  0  0
  151.6228  144.5405  161.2820 H   0  0  0  0  0  0  0  0  0  0  0  0
  150.7158  144.2100  158.8338 H   0  0  0  0  0  0  0  0  0  0  0  0
  152.1184  144.6035  157.8488 H   0  0  0  0  0  0  0  0  0  0  0  0
  152.2298  142.5163  156.9496 H   0  0  0  0  0  0  0  0  0  0  0  0
  152.0044  141.7234  158.5045 H   0  0  0  0  0  0  0  0  0  0  0  0
  152.0887  141.0175  155.5146 H   0  0  0  0  0  0  0  0  0  0  0  0
  151.4313  140.0608  156.8433 H   0  0  0  0  0  0  0  0  0  0  0  0
  150.6705  139.9180  153.9256 H   0  0  0  0  0  0  0  0  0  0  0  0
  150.8321  138.6131  155.1070 H   0  0  0  0  0  0  0  0  0  0  0  0
  147.0266  136.1800  156.6992 H   0  0  0  0  0  0  0  0  0  0  0  0
  146.1964  138.8257  150.8905 H   0  0  0  0  0  0  0  0  0  0  0  0
  144.5411  135.9721  152.8685 H   0  0  0  0  0  0  0  0  0  0  0  0
  144.1210  137.1327  151.6291 H   0  0  0  0  0  0  0  0  0  0  0  0
  146.5674  135.7743  150.8198 H   0  0  0  0  0  0  0  0  0  0  0  0
  144.8454  136.8588  149.6478 H   0  0  0  0  0  0  0  0  0  0  0  0
  145.7607  133.8126  152.1906 H   0  0  0  0  0  0  0  0  0  0  0  0
  143.3281  133.8503  152.2251 H   0  0  0  0  0  0  0  0  0  0  0  0
  143.2536  134.1838  150.4953 H   0  0  0  0  0  0  0  0  0  0  0  0
  143.6852  131.5505  151.8058 H   0  0  0  0  0  0  0  0  0  0  0  0
  143.1123  131.9211  150.1787 H   0  0  0  0  0  0  0  0  0  0  0  0
  145.8968  131.4416  151.1316 H   0  0  0  0  0  0  0  0  0  0  0  0
  145.3057  131.3934  149.4668 H   0  0  0  0  0  0  0  0  0  0  0  0
  148.6212  140.3774  157.1750 H   0  0  0  0  0  0  0  0  0  0  0  0
  147.9567  141.4519  155.9324 H   0  0  0  0  0  0  0  0  0  0  0  0
  1  2  1  0  0  0  0
  1 30  1  0  0  0  0
  1 31  1  0  0  0  0
  1 32  1  0  0  0  0
  2  3  1  0  0  0  0
  2 33  1  0  0  0  0
  2 34  1  0  0  0  0
  3  4  1  0  0  0  0
  4  5  1  0  0  0  0
  4 35  1  0  0  0  0
  4 36  1  0  0  0  0
  5  6  1  0  0  0  0
  5 37  1  0  0  0  0
  5 38  1  0  0  0  0
  6  7  1  0  0  0  0
  7 29  1  0  0  0  0
  7 28  1  0  0  0  0
  7  8  1  0  0  0  0
  8  9  1  0  0  0  0
  8 39  1  0  0  0  0
  8 40  1  0  0  0  0
  9 10  1  0  0  0  0
  9 41  1  0  0  0  0
  9 42  1  0  0  0  0
 10 11  1  0  0  0  0
 10 28  1  0  0  0  0
 11 16  1  0  0  0  0
 11 12  2  0  0  0  0
 12 13  1  0  0  0  0
 13 14  2  0  0  0  0
 13 43  1  0  0  0  0
 14 15  1  0  0  0  0
 15 19  1  0  0  0  0
 15 16  2  0  0  0  0
 16 17  1  0  0  0  0
 17 18  2  0  0  0  0
 18 19  1  0  0  0  0
 18 44  1  0  0  0  0
 19 20  1  0  0  0  0
 20 21  1  0  0  0  0
 20 45  1  0  0  0  0
 20 46  1  0  0  0  0
 21 22  1  0  0  0  0
 21 23  1  0  0  0  0
 21 47  1  0  0  0  0
 22 48  1  0  0  0  0
 23 27  1  0  0  0  0
 23 24  1  0  0  0  0
 23 49  1  0  0  0  0
 24 25  1  0  0  0  0
 24 50  1  0  0  0  0
 24 51  1  0  0  0  0
 25 26  1  0  0  0  0
 25 52  1  0  0  0  0
 25 53  1  0  0  0  0
 26 27  1  0  0  0  0
 26 54  1  0  0  0  0
 26 55  1  0  0  0  0
 28 56  1  0  0  0  0
 28 57  1  0  0  0  0
M  END
> <s_m_source_file>
AV-unprocessed.smi

> <i_m_source_file_index>
246

> <i_lp_mmshare_version>
43012

> <i_f3d_flags>
0

> <s_epik_input>
W0NIM11bQ0gyXU9bQ0gyXVtDSDJdT1tDQEhdMVtDSDJdW0NIMl1OKFtDSDJdMSljKG5bY0hdbjIpYyhjMjMpbltjSF1uM1tDSDJdW0NASF0oW09IXSlbQ0BASF00W0NIMl1bQ0gyXVtDSDJdTzQ=

> <s_epik_cmdline>
J2VwaWtfcHl0aG9uJywgJy1waCcsICc3LjAnLCAnLXRuJywgJzgnLCAnLW1hJywgJzIwMCcsICctbWV0YWxfYmluZGluZycsICctaW1hZScsICc8aW5maWxlLm1hZT4nLCAnLW9tYWUnLCAnPG91dGZpbGUubWFlPic=

> <r_lp_tautomer_probability>
1

> <r_epik_Ionization_Penalty>
0.0024631

> <r_epik_Ionization_Penalty_Charging>
0

> <r_epik_Ionization_Penalty_Neutral>
0.0024631

> <r_epik_State_Penalty>
0.00162428

> <r_epik_Charging_Adjusted_Penalty>
0.00162428

> <i_epik_Tot_Q>
0

> <i_epik_Tot_abs_Q>
0

> <r_epik_Metal_State_Penalty>
-0

> <b_epik_Metal_Only>
0

> <s_lp_Force_Field>
OPLS_2005

> <r_lp_Energy>
49.6926

> <b_lp_Chiralities_Consistent>
1

> <s_lp_Variant>
AV-unprocessed.smi:246-5

> <Gold.Version>
5.8.1

> <Gold.Id.Protein>
6NUR|6NUR_protein|mol2

> <Gold.PLP.Fitness>
48.4519

> <Gold.PLP.PLP>
-48.9886

> <Gold.PLP.part.hbond>
-2.0000

> <Gold.PLP.part.metal>
0.0000

> <Gold.PLP.part.buried>
-9.4611

> <Gold.PLP.part.nonpolar>
-41.8467

> <Gold.PLP.part.repulsive>
3.6701

> <Gold.PLP.ligand.clash>
0.0000

> <Gold.PLP.ligand.torsion>
3.5010

> <Gold.PLP.Chemscore.Hbond>
1.0000

> <Gold.PLP.Chemscore.CHOScore>
0.9633

> <Gold.PLP.Chemscore.Metal>
0.0000

> <Gold.Chemscore.Hbonds>
donor molecule, donor type, donor heavy atom, donor atom, acceptor molecule, acceptor atom, score
      L1  H    22    48       P1 10171  1.00
      L1  C    18    44       P1 10171  0.91

> <Gold.PLP.Chemscore.Internal.Correction>
0.5754

> <Gold.Rescore>
     Score         DG    S(hbond)    S(metal)    S(lipo)     H(rot)  DE(clash)    DE(int)     intcor
      9.64     -13.36       0.98        0.00     107.28       3.10       0.13       3.59       ----

> <Gold.Chemscore.Fitness>
9.6432

> <Gold.Chemscore.DG>
-13.3641

> <Gold.Chemscore.ZeroCoef>
-5.4800

> <Gold.Chemscore.Hbond>
0.9804

> <Gold.Chemscore.Metal>
0.0000

> <Gold.Chemscore.Lipo>
107.2832

> <Gold.Chemscore.Internal_Hbond>
0.0000

> <Gold.Chemscore.DEClash>
0.1334

> <Gold.Chemscore.DEInternal>
3.5875

> <Gold.Chemscore.Rot>
3.1026

> <Gold.Chemscore.Internal.Correction>
   9.000000E+99

> <Gold.Chemscore.Hbonds>
donor molecule, donor type, donor heavy atom, donor atom, acceptor molecule, acceptor atom, score
      L1  H    22    48       P1 10171  0.93

> <Gold.Chemscore.Hbond.Weighted>
-3.2746

> <Gold.Chemscore.Metal.Weighted>
-0.0000

> <Gold.Chemscore.Lipo.Weighted>
-12.5521

> <Gold.Chemscore.Internal_Hbond.Weighted>
0.0000

> <Gold.Chemscore.DEClash.Weighted>
0.1334

> <Gold.Chemscore.DEInternal.Weighted>
3.5875

> <Gold.Chemscore.Rot.Weighted>
7.9426

> <Gold.Chemscore.Internal.Correction.Weighted>
   9.000000E+99

> <Gold.Protein.RotatedTorsions>
[ 6907 6896 6895 6894 ] final   38.88 input  -60.11 | X-H torsion
[ 7974 7965 7964 7962 ] final   94.61 input  175.53 | X-H torsion
[ 8008 7997 7996 7995 ] final   64.92 input   59.86 | X-H torsion
[ 10167 10162 10161 10158 ] final  -89.43 input  -65.29 | X-H torsion
[ 10718 10713 10712 10709 ] final -171.15 input   66.30 | X-H torsion
[ 10763 10752 10751 10750 ] final  122.39 input  -60.55 | X-H torsion
[ 11005 11000 10999 10996 ] final   20.90 input  -57.11 | X-H torsion

> <Gold.Protein.ActiveResidues>
 VAL166  LYS551  ARG553  GLY616  TRP617  ASP618  TYR619  PRO620  LYS621  CYS622 
 ASP623  PHE694  ASN695  SER759  ASP760  ASP761  ALA762  ILE779  LEU786  VAL792 
 PHE793  MET794  SER795  GLU796  ALA797  LYS798  CYS799  TRP800  GLU811  SER814 

> <Gold.Protein.RotatedAtoms>
  152.1622  134.8902  160.0540 H   0  0  0  0  0  0  0  0  0  0  0  0  # atno 6907 bound_to 6896
  151.9894  133.3780  159.4146 H   0  0  0  0  0  0  0  0  0  0  0  0  # atno 6908 bound_to 6896
  150.6889  134.3876  159.5105 H   0  0  0  0  0  0  0  0  0  0  0  0  # atno 6909 bound_to 6896
  145.4633  139.2285  143.2975 H   0  0  0  0  0  0  0  0  0  0  0  0  # atno 7974 bound_to 7965
  155.6536  140.3497  155.4757 H   0  0  0  0  0  0  0  0  0  0  0  0  # atno 8008 bound_to 7997
  155.9827  140.1178  157.0734 H   0  0  0  0  0  0  0  0  0  0  0  0  # atno 8009 bound_to 7997
  154.4196  140.1135  156.5444 H   0  0  0  0  0  0  0  0  0  0  0  0  # atno 8010 bound_to 7997
  140.3648  143.2823  151.9571 H   0  0  0  0  0  0  0  0  0  0  0  0  # atno 10167 bound_to 10162
  156.7366  130.9326  151.3108 H   0  0  0  0  0  0  0  0  0  0  0  0  # atno 10718 bound_to 10713
  153.6290  135.3399  155.3035 H   0  0  0  0  0  0  0  0  0  0  0  0  # atno 10763 bound_to 10752
  154.8584  135.4291  154.2126 H   0  0  0  0  0  0  0  0  0  0  0  0  # atno 10764 bound_to 10752
  153.3017  135.7025  153.7270 H   0  0  0  0  0  0  0  0  0  0  0  0  # atno 10765 bound_to 10752
  140.3975  134.1753  155.7663 H   0  0  0  0  0  0  0  0  0  0  0  0  # atno 11005 bound_to 11000
  146.2439  140.5404  142.8922 LP  0  0  0  0  0  0  0  0  0  0  0  0  # atno 17320 bound_to 7965
  144.7989  140.6176  143.6491 LP  0  0  0  0  0  0  0  0  0  0  0  0  # atno 17321 bound_to 7965
  139.4810  144.5960  151.7690 LP  0  0  0  0  0  0  0  0  0  0  0  0  # atno 17342 bound_to 10162
  140.5091  144.1052  150.5990 LP  0  0  0  0  0  0  0  0  0  0  0  0  # atno 17343 bound_to 10162
  157.6836  130.9164  150.0329 LP  0  0  0  0  0  0  0  0  0  0  0  0  # atno 17370 bound_to 10713
  156.1492  130.3642  149.9463 LP  0  0  0  0  0  0  0  0  0  0  0  0  # atno 17371 bound_to 10713
  141.1868  133.8293  157.1053 LP  0  0  0  0  0  0  0  0  0  0  0  0  # atno 17394 bound_to 11000
  140.0360  134.9878  157.0872 LP  0  0  0  0  0  0  0  0  0  0  0  0  # atno 17395 bound_to 11000

$$$$
