AV-unprocessed.smi:798|AV-procd|sdf|3778|dock4
  -GOLD-   22720 1213D 1   1.00000     0.00000
 Structure written by MMmdl.
 33 35  0  0  0  0  0  0  0  0  2 V2000
  147.6822  132.9137  154.8357 O   0  0  0  0  0  0  0  0  0  0  0  0
  148.2515  132.2181  153.9915 C   0  0  0  0  0  0  0  0  0  0  0  0
  149.4476  131.6034  154.1339 N   0  5  0  0  0  0  0  0  0  0  0  0
  150.0998  131.6675  155.3062 C   0  0  0  0  0  0  0  0  0  0  0  0
  149.7026  132.4711  156.3060 N   0  0  0  0  0  0  0  0  0  0  0  0
  150.5112  132.3834  157.4311 N   0  0  0  0  0  0  0  0  0  0  0  0
  151.4974  131.5046  157.2531 C   0  0  0  0  0  0  0  0  0  0  0  0
  151.5268  130.7034  155.6967 S   0  0  0  0  0  0  0  0  0  0  0  0
  147.6757  132.0051  152.7996 N   0  0  0  0  0  0  0  0  0  0  0  0
  146.3853  132.5352  152.3545 C   0  0  1  0  0  0  0  0  0  0  0  0
  146.5628  133.3379  151.0474 C   0  0  2  0  0  0  0  0  0  0  0  0
  145.3086  134.1985  150.8107 C   0  0  0  0  0  0  0  0  0  0  0  0
  144.2523  133.1473  150.4193 C   0  0  0  0  0  0  0  0  0  0  0  0
  145.0437  131.8253  150.4800 C   0  0  1  0  0  0  0  0  0  0  0  0
  146.4105  132.2675  149.9737 C   0  0  0  0  0  0  0  0  0  0  0  0
  145.3259  131.4611  151.9588 C   0  0  1  0  0  0  0  0  0  0  0  0
  145.7430  129.9853  152.1558 C   0  0  0  0  0  0  0  0  0  0  0  0
  145.8350  129.6749  153.5306 O   0  0  0  0  0  0  0  0  0  0  0  0
  152.2099  131.3249  158.0444 H   0  0  0  0  0  0  0  0  0  0  0  0
  148.1792  131.4278  152.1423 H   0  0  0  0  0  0  0  0  0  0  0  0
  145.9883  133.1920  153.1308 H   0  0  0  0  0  0  0  0  0  0  0  0
  147.4904  133.9101  151.0002 H   0  0  0  0  0  0  0  0  0  0  0  0
  145.0222  134.7719  151.6930 H   0  0  0  0  0  0  0  0  0  0  0  0
  145.4696  134.9020  149.9930 H   0  0  0  0  0  0  0  0  0  0  0  0
  143.3928  133.1488  151.0908 H   0  0  0  0  0  0  0  0  0  0  0  0
  143.8855  133.3326  149.4089 H   0  0  0  0  0  0  0  0  0  0  0  0
  144.5798  131.0247  149.9032 H   0  0  0  0  0  0  0  0  0  0  0  0
  146.3870  132.6716  148.9601 H   0  0  0  0  0  0  0  0  0  0  0  0
  147.1708  131.4870  150.0265 H   0  0  0  0  0  0  0  0  0  0  0  0
  144.4246  131.6227  152.5522 H   0  0  0  0  0  0  0  0  0  0  0  0
  145.0387  129.3020  151.6812 H   0  0  0  0  0  0  0  0  0  0  0  0
  146.7220  129.8026  151.7129 H   0  0  0  0  0  0  0  0  0  0  0  0
  145.0084  129.3120  153.8094 H   0  0  0  0  0  0  0  0  0  0  0  0
  1  2  2  0  0  0  0
  2  3  1  0  0  0  0
  2  9  1  0  0  0  0
  3  4  1  0  0  0  0
  4  8  1  0  0  0  0
  4  5  2  0  0  0  0
  5  6  1  0  0  0  0
  6  7  2  0  0  0  0
  7  8  1  0  0  0  0
  7 19  1  0  0  0  0
  9 10  1  0  0  0  0
  9 20  1  0  0  0  0
 10 16  1  0  0  0  0
 10 11  1  0  0  0  0
 10 21  1  0  0  0  0
 11 15  1  0  0  0  0
 11 12  1  0  0  0  0
 11 22  1  0  0  0  0
 12 13  1  0  0  0  0
 12 23  1  0  0  0  0
 12 24  1  0  0  0  0
 13 14  1  0  0  0  0
 13 25  1  0  0  0  0
 13 26  1  0  0  0  0
 14 15  1  0  0  0  0
 14 16  1  0  0  0  0
 14 27  1  0  0  0  0
 15 28  1  0  0  0  0
 15 29  1  0  0  0  0
 16 17  1  0  0  0  0
 16 30  1  0  0  0  0
 17 18  1  0  0  0  0
 17 31  1  0  0  0  0
 17 32  1  0  0  0  0
 18 33  1  0  0  0  0
M  CHG  1   3  -1
M  END
> <s_m_source_file>
AV-unprocessed.smi

> <i_m_source_file_index>
798

> <i_lp_mmshare_version>
43012

> <i_f3d_flags>
0

> <s_epik_input>
W0NIMl0xW0NIMl1bQ0BASF0oW0NIMl0yKVtDQEBIXShbQ0gyXVtPSF0pW0NAQEhdKFtDQEhdMTIpW05IXUMoPU8pW05IXWMzbm5bY0hdczM=

> <s_epik_cmdline>
J2VwaWtfcHl0aG9uJywgJy1waCcsICc3LjAnLCAnLXRuJywgJzgnLCAnLW1hJywgJzIwMCcsICctbWV0YWxfYmluZGluZycsICctaW1hZScsICc8aW5maWxlLm1hZT4nLCAnLW9tYWUnLCAnPG91dGZpbGUubWFlPic=

> <r_lp_tautomer_probability>
1

> <r_epik_Ionization_Penalty>
4.53732

> <r_epik_Ionization_Penalty_Charging>
4.48632

> <r_epik_Ionization_Penalty_Neutral>
0.0510007

> <r_epik_State_Penalty>
4.48602

> <r_epik_Charging_Adjusted_Penalty>
8.97234

> <i_epik_Tot_Q>
-1

> <i_epik_Tot_abs_Q>
1

> <r_epik_Metal_State_Penalty>
0.812492

> <b_epik_Metal_Only>
1

> <s_lp_Force_Field>
OPLS_2005

> <r_lp_Energy>
47.4454

> <b_lp_Chiralities_Consistent>
1

> <s_lp_Variant>
AV-unprocessed.smi:798-10

> <Gold.Version>
5.8.1

> <Gold.Id.Protein>
6NUR|6NUR_protein|mol2

> <Gold.PLP.Fitness>
38.6310

> <Gold.PLP.PLP>
-30.7140

> <Gold.PLP.part.hbond>
-2.7121

> <Gold.PLP.part.metal>
0.0000

> <Gold.PLP.part.buried>
-3.5507

> <Gold.PLP.part.nonpolar>
-25.1075

> <Gold.PLP.part.repulsive>
0.0888

> <Gold.PLP.ligand.clash>
0.0000

> <Gold.PLP.ligand.torsion>
0.0646

> <Gold.PLP.Chemscore.Hbond>
2.6738

> <Gold.PLP.Chemscore.CHOScore>
0.0000

> <Gold.PLP.Chemscore.Metal>
0.0000

> <Gold.Chemscore.Hbonds>
donor molecule, donor type, donor heavy atom, donor atom, acceptor molecule, acceptor atom, score
      L1  H     9    20       P1 10747  0.83
      L1  H    18    33       P1 10956  0.98
      P1  H  6896  6908       L1     6  0.62

> <Gold.PLP.Chemscore.Internal.Correction>
0.0248

> <Gold.Rescore>
     Score         DG    S(hbond)    S(metal)    S(lipo)     H(rot)  DE(clash)    DE(int)     intcor
     13.89     -15.77       2.14        0.00      68.76       1.92       0.01       1.86       ----

> <Gold.Chemscore.Fitness>
13.8883

> <Gold.Chemscore.DG>
-15.7651

> <Gold.Chemscore.ZeroCoef>
-5.4800

> <Gold.Chemscore.Hbond>
2.1428

> <Gold.Chemscore.Metal>
0.0000

> <Gold.Chemscore.Lipo>
68.7605

> <Gold.Chemscore.Internal_Hbond>
0.0000

> <Gold.Chemscore.DEClash>
0.0149

> <Gold.Chemscore.DEInternal>
1.8619

> <Gold.Chemscore.Rot>
1.9207

> <Gold.Chemscore.Internal.Correction>
   9.000000E+99

> <Gold.Chemscore.Hbonds>
donor molecule, donor type, donor heavy atom, donor atom, acceptor molecule, acceptor atom, score
      L1  H     9    20       P1 10747  0.82
      L1  H    18    33       P1 10956  0.77
      P1  H  6896  6908       L1     6  0.14

> <Gold.Chemscore.Hbond.Weighted>
-7.1570

> <Gold.Chemscore.Metal.Weighted>
-0.0000

> <Gold.Chemscore.Lipo.Weighted>
-8.0450

> <Gold.Chemscore.Internal_Hbond.Weighted>
0.0000

> <Gold.Chemscore.DEClash.Weighted>
0.0149

> <Gold.Chemscore.DEInternal.Weighted>
1.8619

> <Gold.Chemscore.Rot.Weighted>
4.9169

> <Gold.Chemscore.Internal.Correction.Weighted>
   9.000000E+99

> <Gold.Protein.RotatedTorsions>
[ 6907 6896 6895 6894 ] final   83.98 input  -60.11 | X-H torsion
[ 7974 7965 7964 7962 ] final  128.14 input  175.53 | X-H torsion
[ 8008 7997 7996 7995 ] final  -44.74 input   59.86 | X-H torsion
[ 10167 10162 10161 10158 ] final -144.12 input  -65.29 | X-H torsion
[ 10718 10713 10712 10709 ] final  172.45 input   66.30 | X-H torsion
[ 10763 10752 10751 10750 ] final -114.37 input  -60.55 | X-H torsion
[ 11005 11000 10999 10996 ] final  150.12 input  -57.11 | X-H torsion

> <Gold.Protein.ActiveResidues>
 VAL166  LYS551  ARG553  GLY616  TRP617  ASP618  TYR619  PRO620  LYS621  CYS622 
 ASP623  PHE694  ASN695  SER759  ASP760  ASP761  ALA762  ILE779  LEU786  VAL792 
 PHE793  MET794  SER795  GLU796  ALA797  LYS798  CYS799  TRP800  GLU811  SER814 

> <Gold.Protein.RotatedAtoms>
  152.5341  134.2811  159.9007 H   0  0  0  0  0  0  0  0  0  0  0  0  # atno 6907 bound_to 6896
  151.2765  133.4223  159.2632 H   0  0  0  0  0  0  0  0  0  0  0  0  # atno 6908 bound_to 6896
  151.0321  134.9562  159.8173 H   0  0  0  0  0  0  0  0  0  0  0  0  # atno 6909 bound_to 6896
  145.0428  139.3949  143.5093 H   0  0  0  0  0  0  0  0  0  0  0  0  # atno 7974 bound_to 7965
  154.3998  140.1414  156.3733 H   0  0  0  0  0  0  0  0  0  0  0  0  # atno 8008 bound_to 7997
  155.8072  140.3474  155.5416 H   0  0  0  0  0  0  0  0  0  0  0  0  # atno 8009 bound_to 7997
  155.8423  140.0928  157.1717 H   0  0  0  0  0  0  0  0  0  0  0  0  # atno 8010 bound_to 7997
  139.7929  143.7940  152.2651 H   0  0  0  0  0  0  0  0  0  0  0  0  # atno 10167 bound_to 10162
  156.9788  131.0112  151.2887 H   0  0  0  0  0  0  0  0  0  0  0  0  # atno 10718 bound_to 10713
  154.8437  135.4420  154.1496 H   0  0  0  0  0  0  0  0  0  0  0  0  # atno 10763 bound_to 10752
  153.2660  135.6940  153.7535 H   0  0  0  0  0  0  0  0  0  0  0  0  # atno 10764 bound_to 10752
  153.6794  135.3405  155.3149 H   0  0  0  0  0  0  0  0  0  0  0  0  # atno 10765 bound_to 10752
  140.1103  134.8928  157.1927 H   0  0  0  0  0  0  0  0  0  0  0  0  # atno 11005 bound_to 11000
  146.3511  140.0037  142.8673 LP  0  0  0  0  0  0  0  0  0  0  0  0  # atno 17320 bound_to 7965
  145.1626  140.9680  143.4368 LP  0  0  0  0  0  0  0  0  0  0  0  0  # atno 17321 bound_to 7965
  139.8037  144.7364  150.9790 LP  0  0  0  0  0  0  0  0  0  0  0  0  # atno 17342 bound_to 10162
  140.7820  143.4319  151.0681 LP  0  0  0  0  0  0  0  0  0  0  0  0  # atno 17343 bound_to 10162
  157.5541  130.8201  149.8181 LP  0  0  0  0  0  0  0  0  0  0  0  0  # atno 17370 bound_to 10713
  156.0253  130.3782  150.1842 LP  0  0  0  0  0  0  0  0  0  0  0  0  # atno 17371 bound_to 10713
  140.3100  134.3035  155.7269 LP  0  0  0  0  0  0  0  0  0  0  0  0  # atno 17394 bound_to 11000
  141.2128  133.7644  156.9762 LP  0  0  0  0  0  0  0  0  0  0  0  0  # atno 17395 bound_to 11000

$$$$
