#       Name:                AV-unprocessed.smi:1958
#       Creating user name   scv26
#       Creation time:       Fri Mar 27 10:06:56 2020


#       File generated by GOLD software.
#

@<TRIPOS>MOLECULE
AV-unprocessed.smi:1958
    57    58     1
SMALL
NO_CHARGES


@<TRIPOS>ATOM
      1 ****        -5.4365  -2.5996   2.5637 C.3            1 S1                 0.0000
      2 ****        -5.2298  -1.9712   1.3109 O.3            1 S1                 0.0000
      3 ****        -4.6749  -0.6733   1.4393 C.3            1 S1                 0.0000
      4 ****        -4.4913  -0.0717   0.0380 C.3            1 S1                 0.0000
      5 ****        -3.8804   1.2598   0.1004 N.am           1 S1                 0.0000
      6 ****        -2.5055   1.2581  -0.0659 N.2            1 S1                 0.0000
      7 ****        -1.8449   2.3701  -0.0274 C.2            1 S1                 0.0000
      8 ****        -0.3659   2.4099  -0.1990 C.2            1 S1                 0.0000
      9 ****         0.2659   3.4674  -0.1740 O.2            1 S1                 0.0000
     10 ****         0.2253   1.2164  -0.3794 N.am           1 S1                 0.0000
     11 ****         1.6598   1.0201  -0.5523 C.3            1 S1                 0.0000
     12 ****         2.0615  -0.4776  -0.4856 C.3            1 S1                 0.0000
     13 ****         1.5705  -1.1038   0.8415 C.3            1 S1                 0.0000
     14 ****         3.5349  -0.7067  -0.6586 N.4            1 S1                 1.0000
     15 ****         3.8659  -2.1287  -0.9516 C.3            1 S1                 0.0000
     16 ****         5.3856  -2.3396  -1.0516 C.3            1 S1                 0.0000
     17 ****         5.9151  -1.4931  -2.0602 O.3            1 S1                 0.0000
     18 ****         5.7113  -0.1244  -1.7457 C.3            1 S1                 0.0000
     19 ****         4.2047   0.1746  -1.6560 C.3            1 S1                 0.0000
     20 ****        -2.5273   3.6344   0.1892 C.2            1 S1                 0.0000
     21 ****        -3.8678   3.6192   0.3570 C.2            1 S1                 0.0000
     22 ****        -4.6387   2.3752   0.3243 C.2            1 S1                 0.0000
     23 ****        -5.8576   2.3344   0.4878 O.2            1 S1                 0.0000
     24 ****        -5.8604  -3.5921   2.4108 H              1 S1                 0.0000
     25 ****        -6.1312  -2.0288   3.1812 H              1 S1                 0.0000
     26 ****        -4.4976  -2.7148   3.1069 H              1 S1                 0.0000
     27 ****        -5.3336  -0.0444   2.0404 H              1 S1                 0.0000
     28 ****        -3.7133  -0.7294   1.9523 H              1 S1                 0.0000
     29 ****        -3.8686  -0.7373  -0.5625 H              1 S1                 0.0000
     30 ****        -5.4513  -0.0286  -0.4795 H              1 S1                 0.0000
     31 ****        -0.3601   0.3932  -0.3907 H              1 S1                 0.0000
     32 ****         1.9093   1.4505  -1.5225 H              1 S1                 0.0000
     33 ****         2.2006   1.5865   0.2083 H              1 S1                 0.0000
     34 ****         1.5519  -0.9802  -1.3094 H              1 S1                 0.0000
     35 ****         0.5014  -0.9564   0.9929 H              1 S1                 0.0000
     36 ****         2.0846  -0.6633   1.6963 H              1 S1                 0.0000
     37 ****         1.7238  -2.1805   0.8814 H              1 S1                 0.0000
     38 ****         3.4842  -2.7908  -0.1772 H              1 S1                 0.0000
     39 ****         3.3911  -2.4281  -1.8872 H              1 S1                 0.0000
     40 ****         5.8732  -2.1430  -0.0953 H              1 S1                 0.0000
     41 ****         5.6038  -3.3753  -1.3124 H              1 S1                 0.0000
     42 ****         6.2144   0.1261  -0.8103 H              1 S1                 0.0000
     43 ****         6.1685   0.4868  -2.5241 H              1 S1                 0.0000
     44 ****         3.7375   0.0441  -2.6334 H              1 S1                 0.0000
     45 ****         4.1032   1.2234  -1.3794 H              1 S1                 0.0000
     46 ****        -1.9837   4.5676   0.2184 H              1 S1                 0.0000
     47 ****        -4.3882   4.5516   0.5199 H              1 S1                 0.0000
     48 ****         3.9602  -0.4846   0.2303 H              1 S1                 0.0000
     49 ****        -6.1088  -1.8990   0.8395 LP             1 S1                 0.0000
     50 ****        -4.6062  -2.5344   0.7687 LP             1 S1                 0.0000
     51 ****        -2.0222   0.3956  -0.2161 LP             1 S1                 0.0000
     52 ****        -0.2142   4.3335  -0.0352 LP             1 S1                 0.0000
     53 ****         1.2588   3.4595  -0.2925 LP             1 S1                 0.0000
     54 ****         5.4628  -1.6986  -2.9281 LP             1 S1                 0.0000
     55 ****         6.8965  -1.6646  -2.1470 LP             1 S1                 0.0000
     56 ****        -6.3367   1.4571   0.4598 LP             1 S1                 0.0000
     57 ****        -6.3690   3.1785   0.6486 LP             1 S1                 0.0000
@<TRIPOS>BOND
    1    1    2 1     
    2    1   24 1     
    3    1   25 1     
    4    1   26 1     
    5    2    3 1     
    6    3    4 1     
    7    3   27 1     
    8    3   28 1     
    9    4    5 1     
   10    4   29 1     
   11    4   30 1     
   12    5   22 am    
   13    5    6 1     
   14    6    7 2     
   15    7    8 1     
   16    7   20 1     
   17    8    9 2     
   18    8   10 am    
   19   10   11 1     
   20   10   31 1     
   21   11   12 1     
   22   11   32 1     
   23   11   33 1     
   24   12   13 1     
   25   12   14 1     
   26   12   34 1     
   27   13   35 1     
   28   13   36 1     
   29   13   37 1     
   30   14   19 1     
   31   14   15 1     
   32   14   48 1     
   33   15   16 1     
   34   15   38 1     
   35   15   39 1     
   36   16   17 1     
   37   16   40 1     
   38   16   41 1     
   39   17   18 1     
   40   18   19 1     
   41   18   42 1     
   42   18   43 1     
   43   19   44 1     
   44   19   45 1     
   45   20   21 2     
   46   20   46 1     
   47   21   22 1     
   48   21   47 1     
   49   22   23 2     
   50    2   49 1     
   51    2   50 1     
   52    6   51 1     
   53    9   52 1     
   54    9   53 1     
   55   17   54 1     
   56   17   55 1     
   57   23   56 1     
   58   23   57 1     
@<TRIPOS>SUBSTRUCTURE
      1 S1             1
@<TRIPOS>SET
LONE_PAIRS      STATIC     ATOMS    <user>   **** ""
9 49 50 51 52 53 54 55 56 57
DONOR_HYDROGENS      STATIC     ATOMS    <user>   **** ""
2 31 48
ATOM$BLUE        STATIC     ATOMS    COLORGROUP SYSTEM
9 49 50 51 52 53 54 55 56 57
ATOM$RED        STATIC     ATOMS    COLORGROUP SYSTEM
2 31 48
