AV-unprocessed.smi:3259|AV-procd|sdf|12475|dock10
  -GOLD-   2272018373D 1   1.00000     0.00000
 Structure written by MMmdl.
 39 40  0  0  0  0  0  0  0  0  1 V2000
  147.3956  139.7332  155.3354 C   0  0  0  0  0  0  0  0  0  0  0  0
  148.7341  140.2079  155.4003 O   0  0  0  0  0  0  0  0  0  0  0  0
  149.6560  139.4068  156.1413 C   0  0  2  0  0  0  0  0  0  0  0  0
  149.7258  137.9952  155.5382 C   0  0  0  0  0  0  0  0  0  0  0  0
  149.4477  139.5313  157.6621 C   0  0  0  0  0  0  0  0  0  0  0  0
  150.9676  139.6283  157.7736 C   0  0  2  0  0  0  0  0  0  0  0  0
  151.3965  140.5516  158.8179 N   0  0  0  0  0  0  0  0  0  0  0  0
  152.6669  140.7029  159.2213 C   0  0  0  0  0  0  0  0  0  0  0  0
  153.6094  140.0755  158.7390 O   0  0  0  0  0  0  0  0  0  0  0  0
  152.9144  141.7243  160.3323 C   0  0  0  0  0  0  0  0  0  0  0  0
  152.4716  143.0500  159.9384 N   0  0  0  0  0  0  0  0  0  0  0  0
  152.9047  143.8189  158.8778 C   0  0  0  0  0  0  0  0  0  0  0  0
  152.1936  144.9845  158.9030 C   0  0  0  0  0  0  0  0  0  0  0  0
  151.3398  144.8351  160.0313 C   0  0  0  0  0  0  0  0  0  0  0  0
  151.5089  143.6772  160.6493 N   0  0  0  0  0  0  0  0  0  0  0  0
  150.9818  140.2126  156.3377 C   0  0  0  0  0  0  0  0  0  0  0  0
  152.1732  139.8070  155.4641 C   0  0  0  0  0  0  0  0  0  0  0  0
  150.8700  141.7454  156.2100 C   0  0  0  0  0  0  0  0  0  0  0  0
  146.7799  140.4753  154.8277 H   0  0  0  0  0  0  0  0  0  0  0  0
  146.9697  139.5744  156.3262 H   0  0  0  0  0  0  0  0  0  0  0  0
  147.3187  138.8069  154.7667 H   0  0  0  0  0  0  0  0  0  0  0  0
  150.5180  137.3989  155.9903 H   0  0  0  0  0  0  0  0  0  0  0  0
  149.9164  138.0321  154.4654 H   0  0  0  0  0  0  0  0  0  0  0  0
  148.8006  137.4406  155.6918 H   0  0  0  0  0  0  0  0  0  0  0  0
  148.9260  140.4425  157.9613 H   0  0  0  0  0  0  0  0  0  0  0  0
  149.0161  138.6504  158.1380 H   0  0  0  0  0  0  0  0  0  0  0  0
  151.4320  138.6416  157.8392 H   0  0  0  0  0  0  0  0  0  0  0  0
  150.6815  141.1071  159.2645 H   0  0  0  0  0  0  0  0  0  0  0  0
  152.3919  141.4238  161.2419 H   0  0  0  0  0  0  0  0  0  0  0  0
  153.9780  141.7626  160.5721 H   0  0  0  0  0  0  0  0  0  0  0  0
  153.6722  143.4751  158.2004 H   0  0  0  0  0  0  0  0  0  0  0  0
  152.2713  145.8171  158.2197 H   0  0  0  0  0  0  0  0  0  0  0  0
  150.6074  145.5289  160.4167 H   0  0  0  0  0  0  0  0  0  0  0  0
  153.0746  140.3572  155.7359 H   0  0  0  0  0  0  0  0  0  0  0  0
  151.9765  139.9979  154.4088 H   0  0  0  0  0  0  0  0  0  0  0  0
  152.4133  138.7488  155.5642 H   0  0  0  0  0  0  0  0  0  0  0  0
  151.7799  142.2452  156.5437 H   0  0  0  0  0  0  0  0  0  0  0  0
  150.0483  142.1519  156.7995 H   0  0  0  0  0  0  0  0  0  0  0  0
  150.6991  142.0468  155.1759 H   0  0  0  0  0  0  0  0  0  0  0  0
  1  2  1  0  0  0  0
  1 19  1  0  0  0  0
  1 20  1  0  0  0  0
  1 21  1  0  0  0  0
  2  3  1  0  0  0  0
  3 16  1  0  0  0  0
  3  4  1  0  0  0  0
  3  5  1  0  0  0  0
  4 22  1  0  0  0  0
  4 23  1  0  0  0  0
  4 24  1  0  0  0  0
  5  6  1  0  0  0  0
  5 25  1  0  0  0  0
  5 26  1  0  0  0  0
  6  7  1  0  0  0  0
  6 16  1  0  0  0  0
  6 27  1  0  0  0  0
  7  8  1  0  0  0  0
  7 28  1  0  0  0  0
  8  9  2  0  0  0  0
  8 10  1  0  0  0  0
 10 11  1  0  0  0  0
 10 29  1  0  0  0  0
 10 30  1  0  0  0  0
 11 15  1  0  0  0  0
 11 12  1  0  0  0  0
 12 13  2  0  0  0  0
 12 31  1  0  0  0  0
 13 14  1  0  0  0  0
 13 32  1  0  0  0  0
 14 15  2  0  0  0  0
 14 33  1  0  0  0  0
 16 17  1  0  0  0  0
 16 18  1  0  0  0  0
 17 34  1  0  0  0  0
 17 35  1  0  0  0  0
 17 36  1  0  0  0  0
 18 37  1  0  0  0  0
 18 38  1  0  0  0  0
 18 39  1  0  0  0  0
M  END
> <s_m_source_file>
AV-unprocessed.smi

> <i_m_source_file_index>
3259

> <i_lp_mmshare_version>
43012

> <i_f3d_flags>
0

> <s_epik_input>
W0NIM11PW0NAQF0xKFtDSDNdKVtDSDJdW0NASF0oQzEoW0NIM10pW0NIM10pW05IXUMoPU8pW0NIMl1uMltjSF1bY0hdW2NIXW4y

> <s_epik_cmdline>
J2VwaWtfcHl0aG9uJywgJy1waCcsICc3LjAnLCAnLXRuJywgJzgnLCAnLW1hJywgJzIwMCcsICctbWV0YWxfYmluZGluZycsICctaW1hZScsICc8aW5maWxlLm1hZT4nLCAnLW9tYWUnLCAnPG91dGZpbGUubWFlPic=

> <r_lp_tautomer_probability>
1

> <r_epik_Ionization_Penalty>
1.78399e-05

> <r_epik_Ionization_Penalty_Charging>
0

> <r_epik_Ionization_Penalty_Neutral>
1.78399e-05

> <r_epik_State_Penalty>
-0

> <r_epik_Charging_Adjusted_Penalty>
0

> <i_epik_Tot_Q>
0

> <i_epik_Tot_abs_Q>
0

> <r_epik_Metal_State_Penalty>
-0

> <b_epik_Metal_Only>
0

> <s_lp_Force_Field>
OPLS_2005

> <r_lp_Energy>
24.0627

> <b_lp_Chiralities_Consistent>
1

> <s_lp_Variant>
AV-unprocessed.smi:3259-4

> <Gold.Version>
5.8.1

> <Gold.Id.Protein>
6NUR|6NUR_protein|mol2

> <Gold.PLP.Fitness>
38.5756

> <Gold.PLP.PLP>
-35.8050

> <Gold.PLP.part.hbond>
-1.0298

> <Gold.PLP.part.metal>
0.0000

> <Gold.PLP.part.buried>
-3.8912

> <Gold.PLP.part.nonpolar>
-30.8051

> <Gold.PLP.part.repulsive>
0.3315

> <Gold.PLP.ligand.clash>
0.0000

> <Gold.PLP.ligand.torsion>
0.2998

> <Gold.PLP.Chemscore.Hbond>
1.0000

> <Gold.PLP.Chemscore.CHOScore>
0.0000

> <Gold.PLP.Chemscore.Metal>
0.0000

> <Gold.Chemscore.Hbonds>
donor molecule, donor type, donor heavy atom, donor atom, acceptor molecule, acceptor atom, score
      P1  H  7997  8009       L1     9  1.00

> <Gold.PLP.Chemscore.Internal.Correction>
0.3701

> <Gold.Rescore>
     Score         DG    S(hbond)    S(metal)    S(lipo)     H(rot)  DE(clash)    DE(int)     intcor
     14.71     -15.10       0.97        0.00      89.33       1.60       0.08       0.32       ----

> <Gold.Chemscore.Fitness>
14.7057

> <Gold.Chemscore.DG>
-15.1009

> <Gold.Chemscore.ZeroCoef>
-5.4800

> <Gold.Chemscore.Hbond>
0.9747

> <Gold.Chemscore.Metal>
0.0000

> <Gold.Chemscore.Lipo>
89.3290

> <Gold.Chemscore.Internal_Hbond>
0.0000

> <Gold.Chemscore.DEClash>
0.0753

> <Gold.Chemscore.DEInternal>
0.3199

> <Gold.Chemscore.Rot>
1.5962

> <Gold.Chemscore.Internal.Correction>
   9.000000E+99

> <Gold.Chemscore.Hbonds>
donor molecule, donor type, donor heavy atom, donor atom, acceptor molecule, acceptor atom, score
      P1  H  7997  8009       L1     9  0.95

> <Gold.Chemscore.Hbond.Weighted>
-3.2556

> <Gold.Chemscore.Metal.Weighted>
-0.0000

> <Gold.Chemscore.Lipo.Weighted>
-10.4515

> <Gold.Chemscore.Internal_Hbond.Weighted>
0.0000

> <Gold.Chemscore.DEClash.Weighted>
0.0753

> <Gold.Chemscore.DEInternal.Weighted>
0.3199

> <Gold.Chemscore.Rot.Weighted>
4.0862

> <Gold.Chemscore.Internal.Correction.Weighted>
   9.000000E+99

> <Gold.Protein.RotatedTorsions>
[ 6907 6896 6895 6894 ] final  -13.63 input  -60.11 | X-H torsion
[ 7974 7965 7964 7962 ] final  -76.11 input  175.53 | X-H torsion
[ 8008 7997 7996 7995 ] final  143.37 input   59.86 | X-H torsion
[ 10167 10162 10161 10158 ] final -163.10 input  -65.29 | X-H torsion
[ 10718 10713 10712 10709 ] final  -40.48 input   66.30 | X-H torsion
[ 10763 10752 10751 10750 ] final  178.79 input  -60.55 | X-H torsion
[ 11005 11000 10999 10996 ] final  123.23 input  -57.11 | X-H torsion

> <Gold.Protein.ActiveResidues>
 VAL166  LYS551  ARG553  GLY616  TRP617  ASP618  TYR619  PRO620  LYS621  CYS622 
 ASP623  PHE694  ASN695  SER759  ASP760  ASP761  ALA762  ILE779  LEU786  VAL792 
 PHE793  MET794  SER795  GLU796  ALA797  LYS798  CYS799  TRP800  GLU811  SER814 

> <Gold.Protein.RotatedAtoms>
  151.3519  135.0886  159.9405 H   0  0  0  0  0  0  0  0  0  0  0  0  # atno 6907 bound_to 6896
  152.5185  133.9343  159.7606 H   0  0  0  0  0  0  0  0  0  0  0  0  # atno 6908 bound_to 6896
  150.9721  133.6280  159.2766 H   0  0  0  0  0  0  0  0  0  0  0  0  # atno 6909 bound_to 6896
  145.6171  140.9372  143.1158 H   0  0  0  0  0  0  0  0  0  0  0  0  # atno 7974 bound_to 7965
  156.2931  140.2264  156.4880 H   0  0  0  0  0  0  0  0  0  0  0  0  # atno 8008 bound_to 7997
  154.7796  140.0461  157.1137 H   0  0  0  0  0  0  0  0  0  0  0  0  # atno 8009 bound_to 7997
  154.9775  140.3074  155.4964 H   0  0  0  0  0  0  0  0  0  0  0  0  # atno 8010 bound_to 7997
  139.6344  144.0377  152.2042 H   0  0  0  0  0  0  0  0  0  0  0  0  # atno 10167 bound_to 10162
  156.2809  130.4217  149.8338 H   0  0  0  0  0  0  0  0  0  0  0  0  # atno 10718 bound_to 10713
  154.5122  135.2789  155.1333 H   0  0  0  0  0  0  0  0  0  0  0  0  # atno 10763 bound_to 10752
  154.2923  135.6264  153.5394 H   0  0  0  0  0  0  0  0  0  0  0  0  # atno 10764 bound_to 10752
  152.9921  135.5677  154.5590 H   0  0  0  0  0  0  0  0  0  0  0  0  # atno 10765 bound_to 10752
  139.9303  134.9641  156.8229 H   0  0  0  0  0  0  0  0  0  0  0  0  # atno 11005 bound_to 11000
  144.7246  139.7918  143.7369 LP  0  0  0  0  0  0  0  0  0  0  0  0  # atno 17320 bound_to 7965
  146.1459  139.4529  143.0079 LP  0  0  0  0  0  0  0  0  0  0  0  0  # atno 17321 bound_to 7965
  140.0051  144.6265  150.7696 LP  0  0  0  0  0  0  0  0  0  0  0  0  # atno 17342 bound_to 10162
  140.7457  143.2880  151.3410 LP  0  0  0  0  0  0  0  0  0  0  0  0  # atno 17343 bound_to 10162
  156.5785  130.8455  151.3376 LP  0  0  0  0  0  0  0  0  0  0  0  0  # atno 17370 bound_to 10713
  157.7314  130.9699  150.1878 LP  0  0  0  0  0  0  0  0  0  0  0  0  # atno 17371 bound_to 10713
  140.6220  133.9985  155.7622 LP  0  0  0  0  0  0  0  0  0  0  0  0  # atno 17394 bound_to 11000
  141.0888  133.9949  157.3271 LP  0  0  0  0  0  0  0  0  0  0  0  0  # atno 17395 bound_to 11000

$$$$
