AV-unprocessed.smi:2547|AV-procd|sdf|10004|dock7
  -GOLD-   2272014 53D 1   1.00000     0.00000
 Structure written by MMmdl.
 45 46  0  0  0  0  0  0  0  0  3 V2000
  143.8554  141.2029  155.9349 C   0  0  0  0  0  0  0  0  0  0  0  0
  144.9935  141.2261  154.9911 N   0  3  2  0  0  0  0  0  0  0  0  0
  146.0902  140.3166  155.4060 C   0  0  0  0  0  0  0  0  0  0  0  0
  147.1954  140.2603  154.3365 C   0  0  0  0  0  0  0  0  0  0  0  0
  147.7414  141.6616  153.9942 C   0  0  2  0  0  0  0  0  0  0  0  0
  148.5438  142.2157  155.0849 N   0  0  0  0  0  0  0  0  0  0  0  0
  149.4254  141.5255  155.8235 C   0  0  0  0  0  0  0  0  0  0  0  0
  149.6417  140.3234  155.6724 O   0  0  0  0  0  0  0  0  0  0  0  0
  150.0108  142.3091  156.7459 N   0  0  0  0  0  0  0  0  0  0  0  0
  150.9978  141.9517  157.7031 C   0  0  0  0  0  0  0  0  0  0  0  0
  151.7739  140.7691  157.6444 C   0  0  0  0  0  0  0  0  0  0  0  0
  152.7379  140.5254  158.6413 C   0  0  0  0  0  0  0  0  0  0  0  0
  152.9202  141.4645  159.6753 C   0  0  0  0  0  0  0  0  0  0  0  0
  152.1365  142.6436  159.6972 C   0  0  0  0  0  0  0  0  0  0  0  0
  152.2612  143.6356  160.6942 N   0  0  0  0  0  0  0  0  0  0  0  0
  151.9726  145.0267  160.3699 C   0  0  0  0  0  0  0  0  0  0  0  0
  152.8378  143.2898  161.9888 C   0  0  0  0  0  0  0  0  0  0  0  0
  151.2243  142.8259  158.7097 N   0  3  0  0  0  0  0  0  0  0  0  0
  146.5767  142.6056  153.6449 C   0  0  0  0  0  0  0  0  0  0  0  0
  145.4816  142.6024  154.7277 C   0  0  0  0  0  0  0  0  0  0  0  0
  144.1521  141.5769  156.9156 H   0  0  0  0  0  0  0  0  0  0  0  0
  143.4762  140.1877  156.0562 H   0  0  0  0  0  0  0  0  0  0  0  0
  143.0362  141.8207  155.5655 H   0  0  0  0  0  0  0  0  0  0  0  0
  146.5021  140.6490  156.3602 H   0  0  0  0  0  0  0  0  0  0  0  0
  145.6916  139.3141  155.5663 H   0  0  0  0  0  0  0  0  0  0  0  0
  148.0002  139.6012  154.6643 H   0  0  0  0  0  0  0  0  0  0  0  0
  146.7885  139.8071  153.4316 H   0  0  0  0  0  0  0  0  0  0  0  0
  148.3826  141.5818  153.1141 H   0  0  0  0  0  0  0  0  0  0  0  0
  148.4310  143.1998  155.2793 H   0  0  0  0  0  0  0  0  0  0  0  0
  149.6695  143.2571  156.8059 H   0  0  0  0  0  0  0  0  0  0  0  0
  151.6574  140.0502  156.8477 H   0  0  0  0  0  0  0  0  0  0  0  0
  153.3360  139.6267  158.6103 H   0  0  0  0  0  0  0  0  0  0  0  0
  153.6632  141.2643  160.4329 H   0  0  0  0  0  0  0  0  0  0  0  0
  150.9445  145.1369  160.0236 H   0  0  0  0  0  0  0  0  0  0  0  0
  152.6449  145.3844  159.5894 H   0  0  0  0  0  0  0  0  0  0  0  0
  152.0986  145.6706  161.2404 H   0  0  0  0  0  0  0  0  0  0  0  0
  152.2097  142.5634  162.5055 H   0  0  0  0  0  0  0  0  0  0  0  0
  152.9289  144.1668  162.6299 H   0  0  0  0  0  0  0  0  0  0  0  0
  153.8339  142.8634  161.8650 H   0  0  0  0  0  0  0  0  0  0  0  0
  146.9448  143.6199  153.4857 H   0  0  0  0  0  0  0  0  0  0  0  0
  146.1371  142.2926  152.6968 H   0  0  0  0  0  0  0  0  0  0  0  0
  144.6498  143.2282  154.4024 H   0  0  0  0  0  0  0  0  0  0  0  0
  145.8615  143.0394  155.6526 H   0  0  0  0  0  0  0  0  0  0  0  0
  144.6431  140.8714  154.1126 H   0  0  0  0  0  0  0  0  0  0  0  0
  150.6670  143.6796  158.7333 H   0  0  0  0  0  0  0  0  0  0  0  0
  1  2  1  0  0  0  0
  1 21  1  0  0  0  0
  1 22  1  0  0  0  0
  1 23  1  0  0  0  0
  2 20  1  0  0  0  0
  2  3  1  0  0  0  0
  2 44  1  0  0  0  0
  3  4  1  0  0  0  0
  3 24  1  0  0  0  0
  3 25  1  0  0  0  0
  4  5  1  0  0  0  0
  4 26  1  0  0  0  0
  4 27  1  0  0  0  0
  5  6  1  0  0  0  0
  5 19  1  0  0  0  0
  5 28  1  0  0  0  0
  6  7  1  0  0  0  0
  6 29  1  0  0  0  0
  7  8  2  0  0  0  0
  7  9  1  0  0  0  0
  9 10  1  0  0  0  0
  9 30  1  0  0  0  0
 10 18  1  0  0  0  0
 10 11  2  0  0  0  0
 11 12  1  0  0  0  0
 11 31  1  0  0  0  0
 12 13  2  0  0  0  0
 12 32  1  0  0  0  0
 13 14  1  0  0  0  0
 13 33  1  0  0  0  0
 14 15  1  0  0  0  0
 14 18  2  0  0  0  0
 15 16  1  0  0  0  0
 15 17  1  0  0  0  0
 16 34  1  0  0  0  0
 16 35  1  0  0  0  0
 16 36  1  0  0  0  0
 17 37  1  0  0  0  0
 17 38  1  0  0  0  0
 17 39  1  0  0  0  0
 18 45  1  0  0  0  0
 19 20  1  0  0  0  0
 19 40  1  0  0  0  0
 19 41  1  0  0  0  0
 20 42  1  0  0  0  0
 20 43  1  0  0  0  0
M  CHG  1   2   1
M  CHG  1  18   1
M  END
> <s_m_source_file>
AV-unprocessed.smi

> <i_m_source_file_index>
2547

> <i_lp_mmshare_version>
43012

> <i_f3d_flags>
0

> <s_epik_input>
W0NIM11OMVtDSDJdW0NIMl1bQ0hdKFtDSDJdW0NIMl0xKVtOSF1DKD1PKVtOSF1jMltjSF1bY0hdW2NIXWMobjIpTihbQ0gzXSlbQ0gzXQ==

> <s_epik_cmdline>
J2VwaWtfcHl0aG9uJywgJy1waCcsICc3LjAnLCAnLXRuJywgJzgnLCAnLW1hJywgJzIwMCcsICctbWV0YWxfYmluZGluZycsICctaW1hZScsICc8aW5maWxlLm1hZT4nLCAnLW9tYWUnLCAnPG91dGZpbGUubWFlPic=

> <r_lp_tautomer_probability>
0.999994

> <r_epik_Ionization_Penalty>
2.17028

> <r_epik_Ionization_Penalty_Charging>
2.10368

> <r_epik_Ionization_Penalty_Neutral>
0.0666017

> <r_epik_State_Penalty>
2.2357

> <r_epik_Charging_Adjusted_Penalty>
4.33938

> <i_epik_Tot_Q>
2

> <i_epik_Tot_abs_Q>
2

> <r_epik_Metal_State_Penalty>
2.25749

> <b_epik_Metal_Only>
0

> <s_lp_Force_Field>
OPLS_2005

> <r_lp_Energy>
27.0899

> <b_lp_Chiralities_Consistent>
1

> <s_lp_Variant>
AV-unprocessed.smi:2547-4

> <Gold.Version>
5.8.1

> <Gold.Id.Protein>
6NUR|6NUR_protein|mol2

> <Gold.PLP.Fitness>
51.4831

> <Gold.PLP.PLP>
-41.1747

> <Gold.PLP.part.hbond>
-3.0000

> <Gold.PLP.part.metal>
0.0000

> <Gold.PLP.part.buried>
-7.1627

> <Gold.PLP.part.nonpolar>
-31.1281

> <Gold.PLP.part.repulsive>
0.3200

> <Gold.PLP.ligand.clash>
0.0000

> <Gold.PLP.ligand.torsion>
0.5800

> <Gold.PLP.Chemscore.Hbond>
3.8160

> <Gold.PLP.Chemscore.CHOScore>
0.0000

> <Gold.PLP.Chemscore.Metal>
0.0000

> <Gold.Chemscore.Hbonds>
donor molecule, donor type, donor heavy atom, donor atom, acceptor molecule, acceptor atom, score
      L1  H     2    44       P1 10175  2.00
      L1  H     6    29       P1  8028  1.00
      L1  H     9    30       P1  8028  0.83

> <Gold.PLP.Chemscore.Internal.Correction>
0.0205

> <Gold.Rescore>
     Score         DG    S(hbond)    S(metal)    S(lipo)     H(rot)  DE(clash)    DE(int)     intcor
     17.29     -21.55       2.92        0.00      75.81       1.00       1.21       3.05       ----

> <Gold.Chemscore.Fitness>
17.2934

> <Gold.Chemscore.DG>
-21.5527

> <Gold.Chemscore.ZeroCoef>
-5.4800

> <Gold.Chemscore.Hbond>
2.9229

> <Gold.Chemscore.Metal>
0.0000

> <Gold.Chemscore.Lipo>
75.8149

> <Gold.Chemscore.Internal_Hbond>
0.0000

> <Gold.Chemscore.DEClash>
1.2095

> <Gold.Chemscore.DEInternal>
3.0498

> <Gold.Chemscore.Rot>
1.0000

> <Gold.Chemscore.Internal.Correction>
   9.000000E+99

> <Gold.Chemscore.Hbonds>
donor molecule, donor type, donor heavy atom, donor atom, acceptor molecule, acceptor atom, score
      L1  H     2    44       P1 10175  0.95
      L1  H     6    29       P1  8028  0.98
      L1  H     9    30       P1  8028  0.79

> <Gold.Chemscore.Hbond.Weighted>
-9.7623

> <Gold.Chemscore.Metal.Weighted>
-0.0000

> <Gold.Chemscore.Lipo.Weighted>
-8.8703

> <Gold.Chemscore.Internal_Hbond.Weighted>
0.0000

> <Gold.Chemscore.DEClash.Weighted>
1.2095

> <Gold.Chemscore.DEInternal.Weighted>
3.0498

> <Gold.Chemscore.Rot.Weighted>
2.5600

> <Gold.Chemscore.Internal.Correction.Weighted>
   9.000000E+99

> <Gold.Protein.RotatedTorsions>
[ 6907 6896 6895 6894 ] final   64.74 input  -60.11 | X-H torsion
[ 7974 7965 7964 7962 ] final  172.65 input  175.53 | X-H torsion
[ 8008 7997 7996 7995 ] final  123.89 input   59.86 | X-H torsion
[ 10167 10162 10161 10158 ] final -128.75 input  -65.29 | X-H torsion
[ 10718 10713 10712 10709 ] final -104.66 input   66.30 | X-H torsion
[ 10763 10752 10751 10750 ] final -116.18 input  -60.55 | X-H torsion
[ 11005 11000 10999 10996 ] final  -34.66 input  -57.11 | X-H torsion

> <Gold.Protein.ActiveResidues>
 VAL166  LYS551  ARG553  GLY616  TRP617  ASP618  TYR619  PRO620  LYS621  CYS622 
 ASP623  PHE694  ASN695  SER759  ASP760  ASP761  ALA762  ILE779  LEU786  VAL792 
 PHE793  MET794  SER795  GLU796  ALA797  LYS798  CYS799  TRP800  GLU811  SER814 

> <Gold.Protein.RotatedAtoms>
  152.4355  134.5695  159.9916 H   0  0  0  0  0  0  0  0  0  0  0  0  # atno 6907 bound_to 6896
  151.5807  133.3372  159.3016 H   0  0  0  0  0  0  0  0  0  0  0  0  # atno 6908 bound_to 6896
  150.8253  134.7515  159.6871 H   0  0  0  0  0  0  0  0  0  0  0  0  # atno 6909 bound_to 6896
  144.7263  139.9530  143.6432 H   0  0  0  0  0  0  0  0  0  0  0  0  # atno 7974 bound_to 7965
  156.2782  140.2752  156.1700 H   0  0  0  0  0  0  0  0  0  0  0  0  # atno 8008 bound_to 7997
  155.0664  140.0387  157.2612 H   0  0  0  0  0  0  0  0  0  0  0  0  # atno 8009 bound_to 7997
  154.7075  140.2662  155.6666 H   0  0  0  0  0  0  0  0  0  0  0  0  # atno 8010 bound_to 7997
  139.9470  143.6099  152.2487 H   0  0  0  0  0  0  0  0  0  0  0  0  # atno 10167 bound_to 10162
  156.0314  130.5526  150.7429 H   0  0  0  0  0  0  0  0  0  0  0  0  # atno 10718 bound_to 10713
  154.8509  135.4355  154.1780 H   0  0  0  0  0  0  0  0  0  0  0  0  # atno 10763 bound_to 10752
  153.2877  135.6959  153.7329 H   0  0  0  0  0  0  0  0  0  0  0  0  # atno 10764 bound_to 10752
  153.6508  135.3451  155.3074 H   0  0  0  0  0  0  0  0  0  0  0  0  # atno 10765 bound_to 10752
  140.9734  133.7096  156.1562 H   0  0  0  0  0  0  0  0  0  0  0  0  # atno 11005 bound_to 11000
  146.0697  139.3686  143.0531 LP  0  0  0  0  0  0  0  0  0  0  0  0  # atno 17320 bound_to 7965
  145.7985  140.9782  143.1011 LP  0  0  0  0  0  0  0  0  0  0  0  0  # atno 17321 bound_to 7965
  139.6659  144.7662  151.1875 LP  0  0  0  0  0  0  0  0  0  0  0  0  # atno 17342 bound_to 10162
  140.7594  143.5939  150.8768 LP  0  0  0  0  0  0  0  0  0  0  0  0  # atno 17343 bound_to 10162
  157.4993  131.0917  151.0334 LP  0  0  0  0  0  0  0  0  0  0  0  0  # atno 17370 bound_to 10713
  157.0719  130.5867  149.5404 LP  0  0  0  0  0  0  0  0  0  0  0  0  # atno 17371 bound_to 10713
  140.7295  134.4270  157.5567 LP  0  0  0  0  0  0  0  0  0  0  0  0  # atno 17394 bound_to 11000
  139.8921  134.8763  156.2287 LP  0  0  0  0  0  0  0  0  0  0  0  0  # atno 17395 bound_to 11000

$$$$
