#       Name:                AV-unprocessed.smi:2036
#       Creating user name   scv26
#       Creation time:       Fri Mar 27 10:54:21 2020


#       File generated by GOLD software.
#

@<TRIPOS>MOLECULE
AV-unprocessed.smi:2036
    49    50     1
SMALL
NO_CHARGES


@<TRIPOS>ATOM
      1 ****        -7.8421   1.9220   0.2507 C.3            1 S1                 0.0000
      2 ****        -6.4504   2.0312   0.4912 O.3            1 S1                 0.0000
      3 ****        -5.7788   0.7868   0.3716 C.3            1 S1                 0.0000
      4 ****        -4.2913   0.9826   0.6702 C.2            1 S1                 0.0000
      5 ****        -3.9368   1.8598   1.4571 O.2            1 S1                 0.0000
      6 ****        -3.4560   0.1541   0.0158 N.am           1 S1                 0.0000
      7 ****        -2.0372   0.0781   0.0776 C.ar           1 S1                 0.0000
      8 ****        -1.2469   0.6190   1.1188 C.ar           1 S1                 0.0000
      9 ****         0.1511   0.4577   1.0685 C.ar           1 S1                 0.0000
     10 ****         0.7296  -0.2470  -0.0130 C.ar           1 S1                 0.0000
     11 ****         2.1286  -0.4217  -0.0758 N.3            1 S1                 0.0000
     12 ****         2.7385  -1.0254   1.1057 C.3            1 S1                 0.0000
     13 ****         4.2725  -0.8774   1.0753 C.3            1 S1                 0.0000
     14 ****         4.7573   0.5433   1.4148 C.3            1 S1                 0.0000
     15 ****         4.7907  -1.3413  -0.1735 O.3            1 S1                 0.0000
     16 ****         4.2326  -0.7076  -1.3238 C.3            1 S1                 0.0000
     17 ****         4.8896  -1.3167  -2.5668 C.3            1 S1                 0.0000
     18 ****         2.7058  -0.9011  -1.3286 C.3            1 S1                 0.0000
     19 ****        -0.0308  -0.7685  -1.0066 N.ar           1 S1                 0.0000
     20 ****        -1.3701  -0.6124  -0.9540 C.ar           1 S1                 0.0000
     21 ****        -8.3093   2.9016   0.3521 H              1 S1                 0.0000
     22 ****        -8.3140   1.2482   0.9672 H              1 S1                 0.0000
     23 ****        -8.0409   1.5567  -0.7576 H              1 S1                 0.0000
     24 ****        -6.1883   0.0630   1.0776 H              1 S1                 0.0000
     25 ****        -5.9100   0.3860  -0.6354 H              1 S1                 0.0000
     26 ****        -3.8908  -0.4695  -0.6487 H              1 S1                 0.0000
     27 ****        -1.6771   1.1425   1.9576 H              1 S1                 0.0000
     28 ****         0.7616   0.8818   1.8518 H              1 S1                 0.0000
     29 ****         2.3521  -0.5974   2.0299 H              1 S1                 0.0000
     30 ****         2.4742  -2.0837   1.1194 H              1 S1                 0.0000
     31 ****         4.6834  -1.5393   1.8381 H              1 S1                 0.0000
     32 ****         4.4639   0.8187   2.4280 H              1 S1                 0.0000
     33 ****         4.3415   1.2945   0.7439 H              1 S1                 0.0000
     34 ****         5.8440   0.6069   1.3576 H              1 S1                 0.0000
     35 ****         4.4669   0.3570  -1.3073 H              1 S1                 0.0000
     36 ****         4.5099  -0.8533  -3.4777 H              1 S1                 0.0000
     37 ****         4.6970  -2.3880  -2.6304 H              1 S1                 0.0000
     38 ****         5.9701  -1.1725  -2.5461 H              1 S1                 0.0000
     39 ****         2.4596  -1.9562  -1.4566 H              1 S1                 0.0000
     40 ****         2.2758  -0.3606  -2.1729 H              1 S1                 0.0000
     41 ****        -1.9272  -1.0537  -1.7677 H              1 S1                 0.0000
     42 ****        -6.3115   2.3829   1.4170 LP             1 S1                 0.0000
     43 ****        -6.0598   2.6713  -0.1704 LP             1 S1                 0.0000
     44 ****        -4.6201   2.4414   1.8986 LP             1 S1                 0.0000
     45 ****        -2.9654   1.9911   1.6551 LP             1 S1                 0.0000
     46 ****         2.4060   0.5391  -0.0691 LP             1 S1                 0.0000
     47 ****         4.6102  -2.3226  -0.2402 LP             1 S1                 0.0000
     48 ****         5.7781  -1.1828  -0.1790 LP             1 S1                 0.0000
     49 ****         0.3939  -1.2609  -1.7663 LP             1 S1                 0.0000
@<TRIPOS>BOND
    1    1    2 1     
    2    1   21 1     
    3    1   22 1     
    4    1   23 1     
    5    2    3 1     
    6    3    4 1     
    7    3   24 1     
    8    3   25 1     
    9    4    5 2     
   10    4    6 am    
   11    6    7 1     
   12    6   26 1     
   13    7   20 ar    
   14    7    8 ar    
   15    8    9 ar    
   16    8   27 1     
   17    9   10 ar    
   18    9   28 1     
   19   10   11 1     
   20   10   19 ar    
   21   11   18 1     
   22   11   12 1     
   23   12   13 1     
   24   12   29 1     
   25   12   30 1     
   26   13   14 1     
   27   13   15 1     
   28   13   31 1     
   29   14   32 1     
   30   14   33 1     
   31   14   34 1     
   32   15   16 1     
   33   16   17 1     
   34   16   18 1     
   35   16   35 1     
   36   17   36 1     
   37   17   37 1     
   38   17   38 1     
   39   18   39 1     
   40   18   40 1     
   41   19   20 ar    
   42   20   41 1     
   43    2   42 1     
   44    2   43 1     
   45    5   44 1     
   46    5   45 1     
   47   11   46 1     
   48   15   47 1     
   49   15   48 1     
   50   19   49 1     
@<TRIPOS>SUBSTRUCTURE
      1 S1             1
@<TRIPOS>SET
LONE_PAIRS      STATIC     ATOMS    <user>   **** ""
8 42 43 44 45 46 47 48 49
DONOR_HYDROGENS      STATIC     ATOMS    <user>   **** ""
1 26
ATOM$BLUE        STATIC     ATOMS    COLORGROUP SYSTEM
8 42 43 44 45 46 47 48 49
ATOM$RED        STATIC     ATOMS    COLORGROUP SYSTEM
1 26
