AV-unprocessed.smi:1|AV-procd|sdf|23|dock5
  -GOLD-   2262015133D 1   1.00000     0.00000
 Structure written by MMmdl.
 56 61  0  0  0  0  0  0  0  0  2 V2000
  162.7843  144.3515  159.6285 O   0  0  0  0  0  0  0  0  0  0  0  0
  161.8551  144.2937  160.4367 C   0  0  0  0  0  0  0  0  0  0  0  0
  161.1010  143.2143  160.7643 N   0  5  0  0  0  0  0  0  0  0  0  0
  160.2615  142.6857  159.8618 C   0  0  0  0  0  0  0  0  0  0  0  0
  160.0689  143.2907  158.6618 N   0  0  0  0  0  0  0  0  0  0  0  0
  159.2200  142.7672  157.7693 C   0  0  0  0  0  0  0  0  0  0  0  0
  158.4650  141.6689  157.8711 N   0  0  0  0  0  0  0  0  0  0  0  0
  158.6466  141.0558  159.0776 C   0  0  0  0  0  0  0  0  0  0  0  0
  159.5178  141.5009  160.1132 C   0  0  0  0  0  0  0  0  0  0  0  0
  159.4603  140.6480  161.2061 N   0  0  0  0  0  0  0  0  0  0  0  0
  158.5758  139.7424  160.7945 C   0  0  0  0  0  0  0  0  0  0  0  0
  158.0455  139.9084  159.5669 N   0  0  0  0  0  0  0  0  0  0  0  0
  157.0388  139.0480  158.8861 C   0  0  2  0  0  0  0  0  0  0  0  0
  155.7957  139.6651  158.9589 O   0  0  0  0  0  0  0  0  0  0  0  0
  154.7673  138.6777  158.9935 C   0  0  2  0  0  0  0  0  0  0  0  0
  153.7920  139.0474  160.1176 C   0  0  0  0  0  0  0  0  0  0  0  0
  153.5493  140.4443  160.0839 O   0  0  0  0  0  0  0  0  0  0  0  0
  152.8834  140.9908  159.0489 C   0  0  0  0  0  0  0  0  0  0  0  0
  152.6141  140.3809  158.0121 O   0  0  0  0  0  0  0  0  0  0  0  0
  152.5043  142.4131  159.2909 C   0  0  0  0  0  0  0  0  0  0  0  0
  152.5765  142.9368  160.6029 C   0  0  0  0  0  0  0  0  0  0  0  0
  152.2258  144.2764  160.8613 C   0  0  0  0  0  0  0  0  0  0  0  0
  151.7977  145.1086  159.8106 C   0  0  0  0  0  0  0  0  0  0  0  0
  151.7203  144.5995  158.5013 C   0  0  0  0  0  0  0  0  0  0  0  0
  152.0712  143.2604  158.2409 C   0  0  0  0  0  0  0  0  0  0  0  0
  155.4659  137.3256  159.2121 C   0  0  1  0  0  0  0  0  0  0  0  0
  155.4980  136.5954  157.9969 O   0  0  0  0  0  0  0  0  0  0  0  0
  157.0258  135.9479  157.8002 S   0  0  0  0  0  0  0  0  0  0  0  0
  156.9691  134.5172  158.1362 O   0  0  0  0  0  0  0  0  0  0  0  0
  157.5736  136.4423  156.5277 O   0  0  0  0  0  0  0  0  0  0  0  0
  157.7961  136.7468  159.0485 O   0  0  0  0  0  0  0  0  0  0  0  0
  156.9010  137.7009  159.5891 C   0  0  1  0  0  0  0  0  0  0  0  0
  161.4207  145.5547  161.1342 C   0  0  0  0  0  0  0  0  0  0  0  0
  162.3289  146.6294  161.2683 C   0  0  0  0  0  0  0  0  0  0  0  0
  161.9506  147.8067  161.9429 C   0  0  0  0  0  0  0  0  0  0  0  0
  160.6629  147.9176  162.5001 C   0  0  0  0  0  0  0  0  0  0  0  0
  159.7545  146.8487  162.3849 C   0  0  0  0  0  0  0  0  0  0  0  0
  160.1316  145.6716  161.7094 C   0  0  0  0  0  0  0  0  0  0  0  0
  159.1306  143.3091  156.8396 H   0  0  0  0  0  0  0  0  0  0  0  0
  158.2916  138.9132  161.4256 H   0  0  0  0  0  0  0  0  0  0  0  0
  157.3612  138.9731  157.8465 H   0  0  0  0  0  0  0  0  0  0  0  0
  154.2451  138.6891  158.0357 H   0  0  0  0  0  0  0  0  0  0  0  0
  152.8574  138.4947  160.0108 H   0  0  0  0  0  0  0  0  0  0  0  0
  154.2237  138.7809  161.0832 H   0  0  0  0  0  0  0  0  0  0  0  0
  152.9032  142.3172  161.4258 H   0  0  0  0  0  0  0  0  0  0  0  0
  152.2862  144.6657  161.8669 H   0  0  0  0  0  0  0  0  0  0  0  0
  151.5295  146.1359  160.0087 H   0  0  0  0  0  0  0  0  0  0  0  0
  151.3916  145.2372  157.6938 H   0  0  0  0  0  0  0  0  0  0  0  0
  151.9997  142.9023  157.2243 H   0  0  0  0  0  0  0  0  0  0  0  0
  154.9895  136.7127  159.9783 H   0  0  0  0  0  0  0  0  0  0  0  0
  157.0095  137.8097  160.6686 H   0  0  0  0  0  0  0  0  0  0  0  0
  163.3222  146.5588  160.8489 H   0  0  0  0  0  0  0  0  0  0  0  0
  162.6505  148.6241  162.0340 H   0  0  0  0  0  0  0  0  0  0  0  0
  160.3739  148.8196  163.0186 H   0  0  0  0  0  0  0  0  0  0  0  0
  158.7682  146.9288  162.8174 H   0  0  0  0  0  0  0  0  0  0  0  0
  159.4233  144.8581  161.6419 H   0  0  0  0  0  0  0  0  0  0  0  0
  1  2  2  0  0  0  0
  2  3  1  0  0  0  0
  2 33  1  0  0  0  0
  3  4  1  0  0  0  0
  4  9  1  0  0  0  0
  4  5  2  0  0  0  0
  5  6  1  0  0  0  0
  6  7  2  0  0  0  0
  6 39  1  0  0  0  0
  7  8  1  0  0  0  0
  8 12  1  0  0  0  0
  8  9  2  0  0  0  0
  9 10  1  0  0  0  0
 10 11  2  0  0  0  0
 11 12  1  0  0  0  0
 11 40  1  0  0  0  0
 12 13  1  0  0  0  0
 13 32  1  0  0  0  0
 13 14  1  0  0  0  0
 13 41  1  0  0  0  0
 14 15  1  0  0  0  0
 15 16  1  0  0  0  0
 15 26  1  0  0  0  0
 15 42  1  0  0  0  0
 16 17  1  0  0  0  0
 16 43  1  0  0  0  0
 16 44  1  0  0  0  0
 17 18  1  0  0  0  0
 18 19  2  0  0  0  0
 18 20  1  0  0  0  0
 20 25  1  0  0  0  0
 20 21  2  0  0  0  0
 21 22  1  0  0  0  0
 21 45  1  0  0  0  0
 22 23  2  0  0  0  0
 22 46  1  0  0  0  0
 23 24  1  0  0  0  0
 23 47  1  0  0  0  0
 24 25  2  0  0  0  0
 24 48  1  0  0  0  0
 25 49  1  0  0  0  0
 26 32  1  0  0  0  0
 26 27  1  0  0  0  0
 26 50  1  0  0  0  0
 27 28  1  0  0  0  0
 28 29  2  0  0  0  0
 28 30  2  0  0  0  0
 28 31  1  0  0  0  0
 31 32  1  0  0  0  0
 32 51  1  0  0  0  0
 33 38  1  0  0  0  0
 33 34  2  0  0  0  0
 34 35  1  0  0  0  0
 34 52  1  0  0  0  0
 35 36  2  0  0  0  0
 35 53  1  0  0  0  0
 36 37  1  0  0  0  0
 36 54  1  0  0  0  0
 37 38  2  0  0  0  0
 37 55  1  0  0  0  0
 38 56  1  0  0  0  0
M  CHG  1   3  -1
M  END
> <s_m_source_file>
AV-unprocessed.smi

> <i_m_source_file_index>
1

> <i_lp_mmshare_version>
43012

> <i_f3d_flags>
0

> <s_epik_input>
W2NIXTFbY0hdW2NIXVtjSF1bY0hdYzFDKD1PKVtOSF1jKG5bY0hdbjIpYyhjMjMpbltjSF1uM1tDQEBIXShbQ0BIXShbQ0BIXTQ1KU9TKE81KSg9Tyk9TylPW0NASF00W0NIMl1PQyg9TyljNltjSF1bY0hdW2NIXVtjSF1bY0hdNg==

> <s_epik_cmdline>
J2VwaWtfcHl0aG9uJywgJy1waCcsICc3LjAnLCAnLXRuJywgJzgnLCAnLW1hJywgJzIwMCcsICctbWV0YWxfYmluZGluZycsICctaW1hZScsICc8aW5maWxlLm1hZT4nLCAnLW9tYWUnLCAnPG91dGZpbGUubWFlPic=

> <r_lp_tautomer_probability>
1

> <r_epik_Ionization_Penalty>
4.39121

> <r_epik_Ionization_Penalty_Charging>
3.39398

> <r_epik_Ionization_Penalty_Neutral>
0.997232

> <r_epik_State_Penalty>
3.39839

> <r_epik_Charging_Adjusted_Penalty>
6.79237

> <i_epik_Tot_Q>
-1

> <i_epik_Tot_abs_Q>
1

> <r_epik_Metal_State_Penalty>
0.497663

> <b_epik_Metal_Only>
1

> <s_epik_Chemistry_Notes>
This compound has an ester and may undergo hydrolysis at high or low pH. This compound contains an acetal/aminal-like group ( X-CH(R)-Y where X, Y are N, S, or O) that may be acid/base labile, releasing an aldehyde.

> <s_lp_Force_Field>
OPLS_2005

> <r_lp_Energy>
40.5787

> <b_lp_Chiralities_Consistent>
1

> <s_lp_Variant>
AV-unprocessed.smi:1-23

> <Gold.Version>
5.8.1

> <Gold.Id.Protein>
6NUR|6NUR_protein|mol2

> <Gold.PLP.Fitness>
53.5458

> <Gold.PLP.PLP>
-53.9584

> <Gold.PLP.part.hbond>
-3.1361

> <Gold.PLP.part.metal>
0.0000

> <Gold.PLP.part.buried>
-6.4341

> <Gold.PLP.part.nonpolar>
-44.6485

> <Gold.PLP.part.repulsive>
0.2914

> <Gold.PLP.ligand.clash>
0.0000

> <Gold.PLP.ligand.torsion>
1.6520

> <Gold.PLP.Chemscore.Hbond>
0.7650

> <Gold.PLP.Chemscore.CHOScore>
0.0000

> <Gold.PLP.Chemscore.Metal>
0.0000

> <Gold.Chemscore.Hbonds>
donor molecule, donor type, donor heavy atom, donor atom, acceptor molecule, acceptor atom, score
      P1  H  7997  8008       L1    14  0.72

> <Gold.PLP.Chemscore.Internal.Correction>
0.5964

> <Gold.Rescore>
     Score         DG    S(hbond)    S(metal)    S(lipo)     H(rot)  DE(clash)    DE(int)     intcor
     10.95     -12.78       0.04        0.00     107.41       2.11       0.47       1.36       ----

> <Gold.Chemscore.Fitness>
10.9500

> <Gold.Chemscore.DG>
-12.7830

> <Gold.Chemscore.ZeroCoef>
-5.4800

> <Gold.Chemscore.Hbond>
0.0439

> <Gold.Chemscore.Metal>
0.0000

> <Gold.Chemscore.Lipo>
107.4126

> <Gold.Chemscore.Internal_Hbond>
0.0000

> <Gold.Chemscore.DEClash>
0.4703

> <Gold.Chemscore.DEInternal>
1.3627

> <Gold.Chemscore.Rot>
2.1136

> <Gold.Chemscore.Internal.Correction>
   9.000000E+99

> <Gold.Chemscore.Hbonds>
donor molecule, donor type, donor heavy atom, donor atom, acceptor molecule, acceptor atom, score
      P1  H  7997  8008       L1    14  0.02

> <Gold.Chemscore.Hbond.Weighted>
-0.1465

> <Gold.Chemscore.Metal.Weighted>
-0.0000

> <Gold.Chemscore.Lipo.Weighted>
-12.5673

> <Gold.Chemscore.Internal_Hbond.Weighted>
0.0000

> <Gold.Chemscore.DEClash.Weighted>
0.4703

> <Gold.Chemscore.DEInternal.Weighted>
1.3627

> <Gold.Chemscore.Rot.Weighted>
5.4107

> <Gold.Chemscore.Internal.Correction.Weighted>
   9.000000E+99

> <Gold.Protein.RotatedTorsions>
[ 6907 6896 6895 6894 ] final   27.30 input  -60.11 | X-H torsion
[ 7974 7965 7964 7962 ] final  -76.20 input  175.53 | X-H torsion
[ 8008 7997 7996 7995 ] final -151.85 input   59.86 | X-H torsion
[ 10167 10162 10161 10158 ] final  -78.31 input  -65.29 | X-H torsion
[ 10718 10713 10712 10709 ] final  165.52 input   66.30 | X-H torsion
[ 10763 10752 10751 10750 ] final -136.26 input  -60.55 | X-H torsion
[ 11005 11000 10999 10996 ] final    6.35 input  -57.11 | X-H torsion

> <Gold.Protein.ActiveResidues>
 VAL166  LYS551  ARG553  GLY616  TRP617  ASP618  TYR619  PRO620  LYS621  CYS622 
 ASP623  PHE694  ASN695  SER759  ASP760  ASP761  ALA762  ILE779  LEU786  VAL792 
 PHE793  MET794  SER795  GLU796  ALA797  LYS798  CYS799  TRP800  GLU811  SER814 

> <Gold.Protein.RotatedAtoms>
  152.0003  134.9932  160.0564 H   0  0  0  0  0  0  0  0  0  0  0  0  # atno 6907 bound_to 6896
  152.1525  133.4526  159.4829 H   0  0  0  0  0  0  0  0  0  0  0  0  # atno 6908 bound_to 6896
  150.6877  134.2089  159.4394 H   0  0  0  0  0  0  0  0  0  0  0  0  # atno 6909 bound_to 6896
  145.6159  140.9375  143.1164 H   0  0  0  0  0  0  0  0  0  0  0  0  # atno 7974 bound_to 7965
  155.6459  140.0706  157.2603 H   0  0  0  0  0  0  0  0  0  0  0  0  # atno 8008 bound_to 7997
  154.4173  140.1742  156.1672 H   0  0  0  0  0  0  0  0  0  0  0  0  # atno 8009 bound_to 7997
  155.9817  140.3353  155.6673 H   0  0  0  0  0  0  0  0  0  0  0  0  # atno 8010 bound_to 7997
  140.4693  143.2431  151.8229 H   0  0  0  0  0  0  0  0  0  0  0  0  # atno 10167 bound_to 10162
  157.0789  131.0387  151.2583 H   0  0  0  0  0  0  0  0  0  0  0  0  # atno 10718 bound_to 10713
  154.8687  135.3678  154.5033 H   0  0  0  0  0  0  0  0  0  0  0  0  # atno 10763 bound_to 10752
  153.5672  135.7021  153.5525 H   0  0  0  0  0  0  0  0  0  0  0  0  # atno 10764 bound_to 10752
  153.3574  135.4055  155.1656 H   0  0  0  0  0  0  0  0  0  0  0  0  # atno 10765 bound_to 10752
  140.5605  134.0197  155.7970 H   0  0  0  0  0  0  0  0  0  0  0  0  # atno 11005 bound_to 11000
  144.7250  139.7904  143.7368 LP  0  0  0  0  0  0  0  0  0  0  0  0  # atno 17320 bound_to 7965
  146.1468  139.4540  143.0074 LP  0  0  0  0  0  0  0  0  0  0  0  0  # atno 17321 bound_to 7965
  139.4816  144.4911  151.9184 LP  0  0  0  0  0  0  0  0  0  0  0  0  # atno 17342 bound_to 10162
  140.3996  144.2510  150.5894 LP  0  0  0  0  0  0  0  0  0  0  0  0  # atno 17343 bound_to 10162
  157.4816  130.7768  149.7420 LP  0  0  0  0  0  0  0  0  0  0  0  0  # atno 17370 bound_to 10713
  155.9929  130.3928  150.2922 LP  0  0  0  0  0  0  0  0  0  0  0  0  # atno 17371 bound_to 10713
  141.1117  133.9605  157.2897 LP  0  0  0  0  0  0  0  0  0  0  0  0  # atno 17394 bound_to 11000
  139.9410  135.0191  156.8708 LP  0  0  0  0  0  0  0  0  0  0  0  0  # atno 17395 bound_to 11000

$$$$
