AV-unprocessed.smi:2849|AV-procd|sdf|10957|dock4
  -GOLD-   2272015413D 1   1.00000     0.00000
 Structure written by MMmdl.
 55 58  0  0  0  0  0  0  0  0  2 V2000
  143.2666  132.7968  151.3924 C   0  0  0  0  0  0  0  0  0  0  0  0
  144.2282  133.2672  152.4179 N   0  3  2  0  0  0  0  0  0  0  0  0
  144.0526  134.6788  152.8351 C   0  0  2  0  0  0  0  0  0  0  0  0
  144.4639  135.6582  151.7073 C   0  0  0  0  0  0  0  0  0  0  0  0
  145.8633  135.3928  151.1245 C   0  0  0  0  0  0  0  0  0  0  0  0
  146.1507  133.8925  150.9373 C   0  0  0  0  0  0  0  0  0  0  0  0
  145.6527  133.0028  152.1035 C   0  0  1  0  0  0  0  0  0  0  0  0
  146.4837  133.0991  153.4041 C   0  0  0  0  0  0  0  0  0  0  0  0
  146.2122  134.3471  154.2884 C   0  0  1  0  0  0  0  0  0  0  0  0
  147.2059  135.4032  154.1056 N   0  0  0  0  0  0  0  0  0  0  0  0
  147.6870  136.2016  155.0700 C   0  0  0  0  0  0  0  0  0  0  0  0
  147.3535  136.1152  156.2515 O   0  0  0  0  0  0  0  0  0  0  0  0
  148.5828  137.0730  154.5760 N   0  0  0  0  0  0  0  0  0  0  0  0
  149.2574  138.1269  155.2499 C   0  0  0  0  0  0  0  0  0  0  0  0
  149.2965  138.2795  156.6554 C   0  0  0  0  0  0  0  0  0  0  0  0
  149.9743  139.3854  157.2033 C   0  0  0  0  0  0  0  0  0  0  0  0
  150.5886  140.3188  156.3350 C   0  0  0  0  0  0  0  0  0  0  0  0
  151.2753  141.4390  156.8446 N   0  0  0  0  0  0  0  0  0  0  0  0
  150.8549  142.7974  156.5367 C   0  0  0  0  0  0  0  0  0  0  0  0
  151.7417  143.6845  157.4085 C   0  0  0  0  0  0  0  0  0  0  0  0
  151.9672  142.8282  158.6542 C   0  0  0  0  0  0  0  0  0  0  0  0
  151.9700  141.3895  158.1241 C   0  0  0  0  0  0  0  0  0  0  0  0
  150.5482  140.1712  154.9894 N   0  0  0  0  0  0  0  0  0  0  0  0
  149.8959  139.1109  154.4692 C   0  0  0  0  0  0  0  0  0  0  0  0
  144.7662  134.8978  154.1898 C   0  0  0  0  0  0  0  0  0  0  0  0
  143.3858  133.3176  150.4427 H   0  0  0  0  0  0  0  0  0  0  0  0
  142.2424  132.9487  151.7339 H   0  0  0  0  0  0  0  0  0  0  0  0
  143.3976  131.7298  151.2109 H   0  0  0  0  0  0  0  0  0  0  0  0
  142.9897  134.8394  153.0221 H   0  0  0  0  0  0  0  0  0  0  0  0
  143.7363  135.5855  150.8985 H   0  0  0  0  0  0  0  0  0  0  0  0
  144.4002  136.6877  152.0611 H   0  0  0  0  0  0  0  0  0  0  0  0
  145.9596  135.9031  150.1657 H   0  0  0  0  0  0  0  0  0  0  0  0
  146.6249  135.8467  151.7493 H   0  0  0  0  0  0  0  0  0  0  0  0
  145.6698  133.5636  150.0157 H   0  0  0  0  0  0  0  0  0  0  0  0
  147.2182  133.7388  150.7768 H   0  0  0  0  0  0  0  0  0  0  0  0
  145.7315  131.9674  151.7684 H   0  0  0  0  0  0  0  0  0  0  0  0
  146.2329  132.2236  154.0049 H   0  0  0  0  0  0  0  0  0  0  0  0
  147.5467  132.9916  153.1847 H   0  0  0  0  0  0  0  0  0  0  0  0
  146.3335  134.0273  155.3257 H   0  0  0  0  0  0  0  0  0  0  0  0
  147.5460  135.5462  153.1659 H   0  0  0  0  0  0  0  0  0  0  0  0
  148.8305  136.9558  153.6045 H   0  0  0  0  0  0  0  0  0  0  0  0
  148.8105  137.5848  157.3224 H   0  0  0  0  0  0  0  0  0  0  0  0
  150.0134  139.5008  158.2763 H   0  0  0  0  0  0  0  0  0  0  0  0
  150.9735  143.0257  155.4770 H   0  0  0  0  0  0  0  0  0  0  0  0
  149.8047  142.9236  156.8037 H   0  0  0  0  0  0  0  0  0  0  0  0
  152.6939  143.8633  156.9072 H   0  0  0  0  0  0  0  0  0  0  0  0
  151.2885  144.6513  157.6292 H   0  0  0  0  0  0  0  0  0  0  0  0
  152.8831  143.0846  159.1871 H   0  0  0  0  0  0  0  0  0  0  0  0
  151.1313  142.9619  159.3423 H   0  0  0  0  0  0  0  0  0  0  0  0
  151.4865  140.7147  158.8315 H   0  0  0  0  0  0  0  0  0  0  0  0
  152.9895  141.0403  157.9572 H   0  0  0  0  0  0  0  0  0  0  0  0
  149.8863  139.0467  153.3910 H   0  0  0  0  0  0  0  0  0  0  0  0
  144.7278  135.9493  154.4777 H   0  0  0  0  0  0  0  0  0  0  0  0
  144.1744  134.3786  154.9452 H   0  0  0  0  0  0  0  0  0  0  0  0
  144.0204  132.7119  153.2356 H   0  0  0  0  0  0  0  0  0  0  0  0
  1  2  1  0  0  0  0
  1 26  1  0  0  0  0
  1 27  1  0  0  0  0
  1 28  1  0  0  0  0
  2  7  1  0  0  0  0
  2  3  1  0  0  0  0
  2 55  1  0  0  0  0
  3 25  1  0  0  0  0
  3  4  1  0  0  0  0
  3 29  1  0  0  0  0
  4  5  1  0  0  0  0
  4 30  1  0  0  0  0
  4 31  1  0  0  0  0
  5  6  1  0  0  0  0
  5 32  1  0  0  0  0
  5 33  1  0  0  0  0
  6  7  1  0  0  0  0
  6 34  1  0  0  0  0
  6 35  1  0  0  0  0
  7  8  1  0  0  0  0
  7 36  1  0  0  0  0
  8  9  1  0  0  0  0
  8 37  1  0  0  0  0
  8 38  1  0  0  0  0
  9 10  1  0  0  0  0
  9 25  1  0  0  0  0
  9 39  1  0  0  0  0
 10 11  1  0  0  0  0
 10 40  1  0  0  0  0
 11 12  2  0  0  0  0
 11 13  1  0  0  0  0
 13 14  1  0  0  0  0
 13 41  1  0  0  0  0
 14 24  1  0  0  0  0
 14 15  2  0  0  0  0
 15 16  1  0  0  0  0
 15 42  1  0  0  0  0
 16 17  2  0  0  0  0
 16 43  1  0  0  0  0
 17 18  1  0  0  0  0
 17 23  1  0  0  0  0
 18 22  1  0  0  0  0
 18 19  1  0  0  0  0
 19 20  1  0  0  0  0
 19 44  1  0  0  0  0
 19 45  1  0  0  0  0
 20 21  1  0  0  0  0
 20 46  1  0  0  0  0
 20 47  1  0  0  0  0
 21 22  1  0  0  0  0
 21 48  1  0  0  0  0
 21 49  1  0  0  0  0
 22 50  1  0  0  0  0
 22 51  1  0  0  0  0
 23 24  2  0  0  0  0
 24 52  1  0  0  0  0
 25 53  1  0  0  0  0
 25 54  1  0  0  0  0
M  CHG  1   2   1
M  END
> <s_m_source_file>
AV-unprocessed.smi

> <i_m_source_file_index>
2849

> <i_lp_mmshare_version>
43012

> <i_f3d_flags>
0

> <s_epik_input>
W0NIMl0xW0NIMl1bQ0gyXVtDQEhdKE4oW0NIM10pW0NIXTEyKVtDSDJdW0NASF0oW0NIMl0yKVtOSF1DKD1PKVtOSF1jM1tjSF1bY0hdYyhuW2NIXTMpTjRbQ0gyXVtDSDJdW0NIMl1bQ0gyXTQ=

> <s_epik_cmdline>
J2VwaWtfcHl0aG9uJywgJy1waCcsICc3LjAnLCAnLXRuJywgJzgnLCAnLW1hJywgJzIwMCcsICctbWV0YWxfYmluZGluZycsICctaW1hZScsICc8aW5maWxlLm1hZT4nLCAnLW9tYWUnLCAnPG91dGZpbGUubWFlPic=

> <r_lp_tautomer_probability>
1

> <r_epik_Ionization_Penalty>
0.07954

> <r_epik_Ionization_Penalty_Charging>
0.00089841

> <r_epik_Ionization_Penalty_Neutral>
0.0786416

> <r_epik_State_Penalty>
0.0689917

> <r_epik_Charging_Adjusted_Penalty>
0.0698901

> <i_epik_Tot_Q>
1

> <i_epik_Tot_abs_Q>
1

> <r_epik_Metal_State_Penalty>
0.060891

> <b_epik_Metal_Only>
0

> <s_lp_Force_Field>
OPLS_2005

> <r_lp_Energy>
63.0915

> <b_lp_Chiralities_Consistent>
1

> <s_lp_Variant>
AV-unprocessed.smi:2849-1

> <Gold.Version>
5.8.1

> <Gold.Id.Protein>
6NUR|6NUR_protein|mol2

> <Gold.PLP.Fitness>
47.2426

> <Gold.PLP.PLP>
-34.5848

> <Gold.PLP.part.hbond>
-3.4386

> <Gold.PLP.part.metal>
0.0000

> <Gold.PLP.part.buried>
-4.3908

> <Gold.PLP.part.nonpolar>
-27.4776

> <Gold.PLP.part.repulsive>
0.0726

> <Gold.PLP.ligand.clash>
0.0000

> <Gold.PLP.ligand.torsion>
1.1754

> <Gold.PLP.Chemscore.Hbond>
3.9175

> <Gold.PLP.Chemscore.CHOScore>
1.0000

> <Gold.PLP.Chemscore.Metal>
0.0000

> <Gold.Chemscore.Hbonds>
donor molecule, donor type, donor heavy atom, donor atom, acceptor molecule, acceptor atom, score
      L1  H     2    55       P1 10957  0.88
      L1  H    10    40       P1  7948  1.00
      L1  H    13    41       P1  7948  1.00
      P1  H  7989  7998       L1    23  1.00
      L1  C    24    52       P1  7957  1.00

> <Gold.PLP.Chemscore.Internal.Correction>
0.2561

> <Gold.Rescore>
     Score         DG    S(hbond)    S(metal)    S(lipo)     H(rot)  DE(clash)    DE(int)     intcor
     20.59     -24.36       3.22        0.00      91.31       1.00       1.42       2.35       ----

> <Gold.Chemscore.Fitness>
20.5898

> <Gold.Chemscore.DG>
-24.3640

> <Gold.Chemscore.ZeroCoef>
-5.4800

> <Gold.Chemscore.Hbond>
3.2218

> <Gold.Chemscore.Metal>
0.0000

> <Gold.Chemscore.Lipo>
91.3106

> <Gold.Chemscore.Internal_Hbond>
0.0000

> <Gold.Chemscore.DEClash>
1.4197

> <Gold.Chemscore.DEInternal>
2.3545

> <Gold.Chemscore.Rot>
1.0000

> <Gold.Chemscore.Internal.Correction>
   9.000000E+99

> <Gold.Chemscore.Hbonds>
donor molecule, donor type, donor heavy atom, donor atom, acceptor molecule, acceptor atom, score
      L1  H     2    55       P1 10957  0.16
      L1  H    10    40       P1  7948  0.90
      L1  H    13    41       P1  7948  1.00
      P1  H  7989  7998       L1    23  0.49

> <Gold.Chemscore.Hbond.Weighted>
-10.7606

> <Gold.Chemscore.Metal.Weighted>
-0.0000

> <Gold.Chemscore.Lipo.Weighted>
-10.6833

> <Gold.Chemscore.Internal_Hbond.Weighted>
0.0000

> <Gold.Chemscore.DEClash.Weighted>
1.4197

> <Gold.Chemscore.DEInternal.Weighted>
2.3545

> <Gold.Chemscore.Rot.Weighted>
2.5600

> <Gold.Chemscore.Internal.Correction.Weighted>
   9.000000E+99

> <Gold.Protein.RotatedTorsions>
[ 6907 6896 6895 6894 ] final   54.10 input  -60.11 | X-H torsion
[ 7974 7965 7964 7962 ] final   50.04 input  175.53 | X-H torsion
[ 8008 7997 7996 7995 ] final   84.55 input   59.86 | X-H torsion
[ 10167 10162 10161 10158 ] final   86.41 input  -65.29 | X-H torsion
[ 10718 10713 10712 10709 ] final -104.79 input   66.30 | X-H torsion
[ 10763 10752 10751 10750 ] final   42.75 input  -60.55 | X-H torsion
[ 11005 11000 10999 10996 ] final   -8.72 input  -57.11 | X-H torsion

> <Gold.Protein.ActiveResidues>
 VAL166  LYS551  ARG553  GLY616  TRP617  ASP618  TYR619  PRO620  LYS621  CYS622 
 ASP623  PHE694  ASN695  SER759  ASP760  ASP761  ALA762  ILE779  LEU786  VAL792 
 PHE793  MET794  SER795  GLU796  ALA797  LYS798  CYS799  TRP800  GLU811  SER814 

> <Gold.Protein.RotatedAtoms>
  152.3404  134.7141  160.0264 H   0  0  0  0  0  0  0  0  0  0  0  0  # atno 6907 bound_to 6896
  151.7528  133.3323  159.3404 H   0  0  0  0  0  0  0  0  0  0  0  0  # atno 6908 bound_to 6896
  150.7476  134.6109  159.6130 H   0  0  0  0  0  0  0  0  0  0  0  0  # atno 6909 bound_to 6896
  146.0051  139.4481  142.9991 H   0  0  0  0  0  0  0  0  0  0  0  0  # atno 7974 bound_to 7965
  155.9386  140.3409  155.6308 H   0  0  0  0  0  0  0  0  0  0  0  0  # atno 8008 bound_to 7997
  155.7068  140.0767  157.2406 H   0  0  0  0  0  0  0  0  0  0  0  0  # atno 8009 bound_to 7997
  154.4098  140.1630  156.2240 H   0  0  0  0  0  0  0  0  0  0  0  0  # atno 8010 bound_to 7997
  139.8878  144.6403  150.8772 H   0  0  0  0  0  0  0  0  0  0  0  0  # atno 10167 bound_to 10162
  156.0319  130.5532  150.7447 H   0  0  0  0  0  0  0  0  0  0  0  0  # atno 10718 bound_to 10713
  152.9876  135.6122  154.3001 H   0  0  0  0  0  0  0  0  0  0  0  0  # atno 10763 bound_to 10752
  154.2722  135.2779  155.2735 H   0  0  0  0  0  0  0  0  0  0  0  0  # atno 10764 bound_to 10752
  154.5112  135.5840  153.6663 H   0  0  0  0  0  0  0  0  0  0  0  0  # atno 10765 bound_to 10752
  140.7265  133.8784  155.8860 H   0  0  0  0  0  0  0  0  0  0  0  0  # atno 11005 bound_to 11000
  145.7428  141.0002  143.1292 LP  0  0  0  0  0  0  0  0  0  0  0  0  # atno 17320 bound_to 7965
  144.6933  139.9120  143.7464 LP  0  0  0  0  0  0  0  0  0  0  0  0  # atno 17321 bound_to 7965
  140.7732  143.3534  151.1969 LP  0  0  0  0  0  0  0  0  0  0  0  0  # atno 17342 bound_to 10162
  139.7137  143.9335  152.2958 LP  0  0  0  0  0  0  0  0  0  0  0  0  # atno 17343 bound_to 10162
  157.5007  131.0918  151.0318 LP  0  0  0  0  0  0  0  0  0  0  0  0  # atno 17370 bound_to 10713
  157.0699  130.5860  149.5401 LP  0  0  0  0  0  0  0  0  0  0  0  0  # atno 17371 bound_to 10713
  140.9958  134.1217  157.4365 LP  0  0  0  0  0  0  0  0  0  0  0  0  # atno 17394 bound_to 11000
  139.8836  135.0054  156.6310 LP  0  0  0  0  0  0  0  0  0  0  0  0  # atno 17395 bound_to 11000

$$$$
