AV-unprocessed.smi:822|AV-procd|sdf|3843|dock9
  -GOLD-   22720 1293D 1   1.00000     0.00000
 Structure written by MMmdl.
 38 39  0  0  0  0  0  0  0  0  1 V2000
  151.6650  139.1165  158.5601 O   0  0  0  0  0  0  0  0  0  0  0  0
  151.9500  140.2503  158.1743 C   0  0  0  0  0  0  0  0  0  0  0  0
  152.8072  141.1707  159.0501 C   0  0  0  0  0  0  0  0  0  0  0  0
  152.0961  142.4790  159.4640 C   0  0  0  0  0  0  0  0  0  0  0  0
  152.2222  143.5406  158.3515 C   0  0  0  0  0  0  0  0  0  0  0  0
  151.5186  144.8537  158.7307 C   0  0  0  0  0  0  0  0  0  0  0  0
  152.0525  145.4059  160.0606 C   0  0  0  0  0  0  0  0  0  0  0  0
  151.9254  144.3626  161.1803 C   0  0  0  0  0  0  0  0  0  0  0  0
  152.6257  143.0476  160.8013 C   0  0  0  0  0  0  0  0  0  0  0  0
  151.5421  140.7528  156.9990 N   0  0  0  0  0  0  0  0  0  0  0  0
  150.7224  140.0428  156.0247 C   0  0  0  0  0  0  0  0  0  0  0  0
  150.3855  140.9325  154.8176 C   0  0  0  0  0  0  0  0  0  0  0  0
  149.0229  140.7267  154.3710 N   0  0  0  0  0  0  0  0  0  0  0  0
  148.0366  141.6922  154.2183 C   0  0  0  0  0  0  0  0  0  0  0  0
  146.9116  141.0370  153.7710 C   0  0  0  0  0  0  0  0  0  0  0  0
  147.1817  139.6767  153.6408 N   0  0  0  0  0  0  0  0  0  0  0  0
  148.4508  139.5688  154.0135 C   0  0  0  0  0  0  0  0  0  0  0  0
  153.1391  140.6340  159.9402 H   0  0  0  0  0  0  0  0  0  0  0  0
  153.7089  141.4075  158.4840 H   0  0  0  0  0  0  0  0  0  0  0  0
  151.0330  142.2650  159.5880 H   0  0  0  0  0  0  0  0  0  0  0  0
  153.2757  143.7396  158.1503 H   0  0  0  0  0  0  0  0  0  0  0  0
  151.7991  143.1590  157.4216 H   0  0  0  0  0  0  0  0  0  0  0  0
  151.6584  145.5912  157.9398 H   0  0  0  0  0  0  0  0  0  0  0  0
  150.4439  144.6842  158.8094 H   0  0  0  0  0  0  0  0  0  0  0  0
  153.0985  145.6926  159.9443 H   0  0  0  0  0  0  0  0  0  0  0  0
  151.5110  146.3125  160.3322 H   0  0  0  0  0  0  0  0  0  0  0  0
  152.3500  144.7562  162.1044 H   0  0  0  0  0  0  0  0  0  0  0  0
  150.8712  144.1695  161.3827 H   0  0  0  0  0  0  0  0  0  0  0  0
  152.4834  142.3279  161.6077 H   0  0  0  0  0  0  0  0  0  0  0  0
  153.7005  143.2184  160.7277 H   0  0  0  0  0  0  0  0  0  0  0  0
  151.8235  141.6930  156.7606 H   0  0  0  0  0  0  0  0  0  0  0  0
  151.2761  139.1630  155.6954 H   0  0  0  0  0  0  0  0  0  0  0  0
  149.8100  139.6752  156.4979 H   0  0  0  0  0  0  0  0  0  0  0  0
  150.5131  141.9871  155.0662 H   0  0  0  0  0  0  0  0  0  0  0  0
  151.0579  140.7185  153.9858 H   0  0  0  0  0  0  0  0  0  0  0  0
  148.2121  142.7360  154.4337 H   0  0  0  0  0  0  0  0  0  0  0  0
  145.9365  141.4367  153.5340 H   0  0  0  0  0  0  0  0  0  0  0  0
  148.9766  138.6252  154.0247 H   0  0  0  0  0  0  0  0  0  0  0  0
  1  2  2  0  0  0  0
  2  3  1  0  0  0  0
  2 10  1  0  0  0  0
  3  4  1  0  0  0  0
  3 18  1  0  0  0  0
  3 19  1  0  0  0  0
  4  9  1  0  0  0  0
  4  5  1  0  0  0  0
  4 20  1  0  0  0  0
  5  6  1  0  0  0  0
  5 21  1  0  0  0  0
  5 22  1  0  0  0  0
  6  7  1  0  0  0  0
  6 23  1  0  0  0  0
  6 24  1  0  0  0  0
  7  8  1  0  0  0  0
  7 25  1  0  0  0  0
  7 26  1  0  0  0  0
  8  9  1  0  0  0  0
  8 27  1  0  0  0  0
  8 28  1  0  0  0  0
  9 29  1  0  0  0  0
  9 30  1  0  0  0  0
 10 11  1  0  0  0  0
 10 31  1  0  0  0  0
 11 12  1  0  0  0  0
 11 32  1  0  0  0  0
 11 33  1  0  0  0  0
 12 13  1  0  0  0  0
 12 34  1  0  0  0  0
 12 35  1  0  0  0  0
 13 17  1  0  0  0  0
 13 14  1  0  0  0  0
 14 15  2  0  0  0  0
 14 36  1  0  0  0  0
 15 16  1  0  0  0  0
 15 37  1  0  0  0  0
 16 17  2  0  0  0  0
 17 38  1  0  0  0  0
M  END
> <s_m_source_file>
AV-unprocessed.smi

> <i_m_source_file_index>
822

> <i_lp_mmshare_version>
43012

> <i_f3d_flags>
0

> <s_epik_input>
W0NIMl0xW0NIMl1bQ0gyXVtDSDJdW0NIMl1bQ0hdMVtDSDJdQyg9TylbTkhdW0NIMl1bQ0gyXW4yW2NIXVtjSF1uW2NIXTI=

> <s_epik_cmdline>
J2VwaWtfcHl0aG9uJywgJy1waCcsICc3LjAnLCAnLXRuJywgJzgnLCAnLW1hJywgJzIwMCcsICctbWV0YWxfYmluZGluZycsICctaW1hZScsICc8aW5maWxlLm1hZT4nLCAnLW9tYWUnLCAnPG91dGZpbGUubWFlPic=

> <r_lp_tautomer_probability>
1

> <r_epik_Ionization_Penalty>
0.600603

> <r_epik_Ionization_Penalty_Charging>
0.600603

> <r_epik_Ionization_Penalty_Neutral>
2.18922e-08

> <r_epik_State_Penalty>
0.614954

> <r_epik_Charging_Adjusted_Penalty>
1.21556

> <i_epik_Tot_Q>
0

> <i_epik_Tot_abs_Q>
0

> <r_epik_Metal_State_Penalty>
0.301281

> <b_epik_Metal_Only>
0

> <s_lp_Force_Field>
OPLS_2005

> <r_lp_Energy>
10.0857

> <b_lp_Chiralities_Consistent>
1

> <s_lp_Variant>
AV-unprocessed.smi:822-2

> <Gold.Version>
5.8.1

> <Gold.Id.Protein>
6NUR|6NUR_protein|mol2

> <Gold.PLP.Fitness>
43.0155

> <Gold.PLP.PLP>
-38.4077

> <Gold.PLP.part.hbond>
0.0000

> <Gold.PLP.part.metal>
0.0000

> <Gold.PLP.part.buried>
-2.1979

> <Gold.PLP.part.nonpolar>
-36.6019

> <Gold.PLP.part.repulsive>
0.2819

> <Gold.PLP.ligand.clash>
0.0000

> <Gold.PLP.ligand.torsion>
0.5883

> <Gold.PLP.Chemscore.Hbond>
0.0000

> <Gold.PLP.Chemscore.CHOScore>
1.9227

> <Gold.PLP.Chemscore.Metal>
0.0000

> <Gold.Chemscore.Hbonds>
donor molecule, donor type, donor heavy atom, donor atom, acceptor molecule, acceptor atom, score
      L1  C    14    36       P1  8028  1.00
      L1  C    15    37       P1 10175  0.68

> <Gold.PLP.Chemscore.Internal.Correction>
0.0162

> <Gold.Rescore>
     Score         DG    S(hbond)    S(metal)    S(lipo)     H(rot)  DE(clash)    DE(int)     intcor
     11.52     -13.30       0.00        0.00     109.93       1.97       1.23       0.55       ----

> <Gold.Chemscore.Fitness>
11.5189

> <Gold.Chemscore.DG>
-13.3012

> <Gold.Chemscore.ZeroCoef>
-5.4800

> <Gold.Chemscore.Hbond>
0.0000

> <Gold.Chemscore.Metal>
0.0000

> <Gold.Chemscore.Lipo>
109.9339

> <Gold.Chemscore.Internal_Hbond>
0.0000

> <Gold.Chemscore.DEClash>
1.2276

> <Gold.Chemscore.DEInternal>
0.5547

> <Gold.Chemscore.Rot>
1.9692

> <Gold.Chemscore.Internal.Correction>
   9.000000E+99

> <Gold.Chemscore.Hbond.Weighted>
-0.0000

> <Gold.Chemscore.Metal.Weighted>
-0.0000

> <Gold.Chemscore.Lipo.Weighted>
-12.8623

> <Gold.Chemscore.Internal_Hbond.Weighted>
0.0000

> <Gold.Chemscore.DEClash.Weighted>
1.2276

> <Gold.Chemscore.DEInternal.Weighted>
0.5547

> <Gold.Chemscore.Rot.Weighted>
5.0410

> <Gold.Chemscore.Internal.Correction.Weighted>
   9.000000E+99

> <Gold.Protein.RotatedTorsions>
[ 6907 6896 6895 6894 ] final -106.91 input  -60.11 | X-H torsion
[ 7974 7965 7964 7962 ] final   -0.88 input  175.53 | X-H torsion
[ 8008 7997 7996 7995 ] final  -85.54 input   59.86 | X-H torsion
[ 10167 10162 10161 10158 ] final  -85.99 input  -65.29 | X-H torsion
[ 10718 10713 10712 10709 ] final   41.51 input   66.30 | X-H torsion
[ 10763 10752 10751 10750 ] final  -85.78 input  -60.55 | X-H torsion
[ 11005 11000 10999 10996 ] final   33.92 input  -57.11 | X-H torsion

> <Gold.Protein.ActiveResidues>
 VAL166  LYS551  ARG553  GLY616  TRP617  ASP618  TYR619  PRO620  LYS621  CYS622 
 ASP623  PHE694  ASN695  SER759  ASP760  ASP761  ALA762  ILE779  LEU786  VAL792 
 PHE793  MET794  SER795  GLU796  ALA797  LYS798  CYS799  TRP800  GLU811  SER814 

> <Gold.Protein.RotatedAtoms>
  150.7415  133.9906  159.3605 H   0  0  0  0  0  0  0  0  0  0  0  0  # atno 6907 bound_to 6896
  151.7853  135.0748  160.0389 H   0  0  0  0  0  0  0  0  0  0  0  0  # atno 6908 bound_to 6896
  152.3245  133.5853  159.5803 H   0  0  0  0  0  0  0  0  0  0  0  0  # atno 6909 bound_to 6896
  146.2423  140.1336  142.8337 H   0  0  0  0  0  0  0  0  0  0  0  0  # atno 7974 bound_to 7965
  154.6418  140.0590  156.9855 H   0  0  0  0  0  0  0  0  0  0  0  0  # atno 8008 bound_to 7997
  155.1505  140.3273  155.4414 H   0  0  0  0  0  0  0  0  0  0  0  0  # atno 8009 bound_to 7997
  156.2535  140.1948  156.6616 H   0  0  0  0  0  0  0  0  0  0  0  0  # atno 8010 bound_to 7997
  140.3984  143.2673  151.9174 H   0  0  0  0  0  0  0  0  0  0  0  0  # atno 10167 bound_to 10162
  157.3943  130.7824  149.7295 H   0  0  0  0  0  0  0  0  0  0  0  0  # atno 10718 bound_to 10713
  154.6149  135.5473  153.7513 H   0  0  0  0  0  0  0  0  0  0  0  0  # atno 10763 bound_to 10752
  153.0212  135.6398  154.1524 H   0  0  0  0  0  0  0  0  0  0  0  0  # atno 10764 bound_to 10752
  154.1460  135.2905  155.3128 H   0  0  0  0  0  0  0  0  0  0  0  0  # atno 10765 bound_to 10752
  140.2581  134.3224  155.7867 H   0  0  0  0  0  0  0  0  0  0  0  0  # atno 11005 bound_to 11000
  145.0306  140.8867  143.5112 LP  0  0  0  0  0  0  0  0  0  0  0  0  # atno 17320 bound_to 7965
  145.1399  139.2579  143.5495 LP  0  0  0  0  0  0  0  0  0  0  0  0  # atno 17321 bound_to 7965
  139.4785  144.5658  151.8167 LP  0  0  0  0  0  0  0  0  0  0  0  0  # atno 17342 bound_to 10162
  140.4766  144.1511  150.5926 LP  0  0  0  0  0  0  0  0  0  0  0  0  # atno 17343 bound_to 10162
  155.9806  130.4027  150.3517 LP  0  0  0  0  0  0  0  0  0  0  0  0  # atno 17370 bound_to 10713
  157.1637  131.0351  151.2829 LP  0  0  0  0  0  0  0  0  0  0  0  0  # atno 17371 bound_to 10713
  141.2193  133.7393  156.9144 LP  0  0  0  0  0  0  0  0  0  0  0  0  # atno 17394 bound_to 11000
  140.1491  134.9242  157.2569 LP  0  0  0  0  0  0  0  0  0  0  0  0  # atno 17395 bound_to 11000

$$$$
