AV-unprocessed.smi:781|AV-procd|sdf|3707|dock4
  -GOLD-   22720 1133D 1   1.00000     0.00000
 Structure written by MMmdl.
 38 40  0  0  0  0  0  0  0  0  1 V2000
  143.8362  132.4454  149.9270 C   0  0  0  0  0  0  0  0  0  0  0  0
  144.3048  133.5471  150.8143 C   0  0  0  0  0  0  0  0  0  0  0  0
  145.4895  134.2208  150.9145 C   0  0  0  0  0  0  0  0  0  0  0  0
  145.2462  135.1409  151.9687 C   0  0  0  0  0  0  0  0  0  0  0  0
  146.2528  136.0464  152.3901 N   0  0  0  0  0  0  0  0  0  0  0  0
  146.1561  136.9993  153.3327 C   0  0  0  0  0  0  0  0  0  0  0  0
  145.1482  137.2416  153.9972 O   0  0  0  0  0  0  0  0  0  0  0  0
  147.3102  137.6675  153.4667 N   0  0  0  0  0  0  0  0  0  0  0  0
  147.5439  138.7602  154.4075 C   0  0  2  0  0  0  0  0  0  0  0  0
  146.5118  139.8887  154.1904 C   0  0  1  0  0  0  0  0  0  0  0  0
  146.5229  140.8129  155.4212 C   0  0  0  0  0  0  0  0  0  0  0  0
  147.8584  141.5637  155.2611 C   0  0  0  0  0  0  0  0  0  0  0  0
  148.4454  140.9561  153.9687 C   0  0  2  0  0  0  0  0  0  0  0  0
  147.1825  140.7675  153.1378 C   0  0  0  0  0  0  0  0  0  0  0  0
  148.8925  139.4857  154.1646 C   0  0  1  0  0  0  0  0  0  0  0  0
  149.9486  139.2350  155.2588 C   0  0  0  0  0  0  0  0  0  0  0  0
  151.1157  139.9852  154.9970 O   0  0  0  0  0  0  0  0  0  0  0  0
  144.0240  135.0378  152.4680 N   0  0  0  0  0  0  0  0  0  0  0  0
  143.4145  134.0153  151.7309 O   0  0  0  0  0  0  0  0  0  0  0  0
  144.5099  132.3144  149.0801 H   0  0  0  0  0  0  0  0  0  0  0  0
  142.8416  132.6591  149.5355 H   0  0  0  0  0  0  0  0  0  0  0  0
  143.7907  131.5030  150.4727 H   0  0  0  0  0  0  0  0  0  0  0  0
  146.3840  134.0768  150.3270 H   0  0  0  0  0  0  0  0  0  0  0  0
  147.1427  135.9601  151.9223 H   0  0  0  0  0  0  0  0  0  0  0  0
  148.0874  137.3998  152.8808 H   0  0  0  0  0  0  0  0  0  0  0  0
  147.4675  138.3748  155.4263 H   0  0  0  0  0  0  0  0  0  0  0  0
  145.5134  139.5350  153.9300 H   0  0  0  0  0  0  0  0  0  0  0  0
  145.6854  141.5109  155.3912 H   0  0  0  0  0  0  0  0  0  0  0  0
  146.4632  140.2608  156.3599 H   0  0  0  0  0  0  0  0  0  0  0  0
  147.6744  142.6305  155.1276 H   0  0  0  0  0  0  0  0  0  0  0  0
  148.5104  141.4576  156.1269 H   0  0  0  0  0  0  0  0  0  0  0  0
  149.2051  141.5818  153.4995 H   0  0  0  0  0  0  0  0  0  0  0  0
  147.3576  140.2548  152.1903 H   0  0  0  0  0  0  0  0  0  0  0  0
  146.6461  141.6981  152.9442 H   0  0  0  0  0  0  0  0  0  0  0  0
  149.3169  139.1456  153.2175 H   0  0  0  0  0  0  0  0  0  0  0  0
  149.5740  139.4748  156.2531 H   0  0  0  0  0  0  0  0  0  0  0  0
  150.2201  138.1794  155.2762 H   0  0  0  0  0  0  0  0  0  0  0  0
  151.6019  140.0737  155.8025 H   0  0  0  0  0  0  0  0  0  0  0  0
  1  2  1  0  0  0  0
  1 20  1  0  0  0  0
  1 21  1  0  0  0  0
  1 22  1  0  0  0  0
  2 19  1  0  0  0  0
  2  3  2  0  0  0  0
  3  4  1  0  0  0  0
  3 23  1  0  0  0  0
  4  5  1  0  0  0  0
  4 18  2  0  0  0  0
  5  6  1  0  0  0  0
  5 24  1  0  0  0  0
  6  7  2  0  0  0  0
  6  8  1  0  0  0  0
  8  9  1  0  0  0  0
  8 25  1  0  0  0  0
  9 15  1  0  0  0  0
  9 10  1  0  0  0  0
  9 26  1  0  0  0  0
 10 14  1  0  0  0  0
 10 11  1  0  0  0  0
 10 27  1  0  0  0  0
 11 12  1  0  0  0  0
 11 28  1  0  0  0  0
 11 29  1  0  0  0  0
 12 13  1  0  0  0  0
 12 30  1  0  0  0  0
 12 31  1  0  0  0  0
 13 14  1  0  0  0  0
 13 15  1  0  0  0  0
 13 32  1  0  0  0  0
 14 33  1  0  0  0  0
 14 34  1  0  0  0  0
 15 16  1  0  0  0  0
 15 35  1  0  0  0  0
 16 17  1  0  0  0  0
 16 36  1  0  0  0  0
 16 37  1  0  0  0  0
 17 38  1  0  0  0  0
 18 19  1  0  0  0  0
M  END
> <s_m_source_file>
AV-unprocessed.smi

> <i_m_source_file_index>
781

> <i_lp_mmshare_version>
43012

> <i_f3d_flags>
0

> <s_epik_input>
W0NIM11jMVtjSF1jKG5vMSlbTkhdQyg9TylbTkhdW0NASF0oW0NAQEhdMjMpW0NASF0oW0NIMl1bT0hdKVtDQEBIXShbQ0gyXTMpW0NIMl1bQ0gyXTI=

> <s_epik_cmdline>
J2VwaWtfcHl0aG9uJywgJy1waCcsICc3LjAnLCAnLXRuJywgJzgnLCAnLW1hJywgJzIwMCcsICctbWV0YWxfYmluZGluZycsICctaW1hZScsICc8aW5maWxlLm1hZT4nLCAnLW9tYWUnLCAnPG91dGZpbGUubWFlPic=

> <r_lp_tautomer_probability>
1

> <r_epik_Ionization_Penalty>
2.32222e-05

> <r_epik_Ionization_Penalty_Charging>
0

> <r_epik_Ionization_Penalty_Neutral>
2.32222e-05

> <r_epik_State_Penalty>
-0

> <r_epik_Charging_Adjusted_Penalty>
0

> <i_epik_Tot_Q>
0

> <i_epik_Tot_abs_Q>
0

> <r_epik_Metal_State_Penalty>
-0

> <b_epik_Metal_Only>
0

> <s_lp_Force_Field>
OPLS_2005

> <r_lp_Energy>
47.0606

> <b_lp_Chiralities_Consistent>
1

> <s_lp_Variant>
AV-unprocessed.smi:781-1

> <Gold.Version>
5.8.1

> <Gold.Id.Protein>
6NUR|6NUR_protein|mol2

> <Gold.PLP.Fitness>
36.8839

> <Gold.PLP.PLP>
-28.0243

> <Gold.PLP.part.hbond>
-3.0000

> <Gold.PLP.part.metal>
0.0000

> <Gold.PLP.part.buried>
-4.1660

> <Gold.PLP.part.nonpolar>
-21.8769

> <Gold.PLP.part.repulsive>
0.4304

> <Gold.PLP.ligand.clash>
0.0000

> <Gold.PLP.ligand.torsion>
0.0556

> <Gold.PLP.Chemscore.Hbond>
2.9840

> <Gold.PLP.Chemscore.CHOScore>
0.0000

> <Gold.PLP.Chemscore.Metal>
0.0000

> <Gold.Chemscore.Hbonds>
donor molecule, donor type, donor heavy atom, donor atom, acceptor molecule, acceptor atom, score
      L1  H     5    24       P1  7948  1.00
      L1  H     8    25       P1  7948  1.00
      P1  H  7989  7998       L1    17  1.00

> <Gold.PLP.Chemscore.Internal.Correction>
0.0188

> <Gold.Rescore>
     Score         DG    S(hbond)    S(metal)    S(lipo)     H(rot)  DE(clash)    DE(int)     intcor
     16.56     -17.88       2.90        0.00      63.79       1.86       0.06       1.27       ----

> <Gold.Chemscore.Fitness>
16.5593

> <Gold.Chemscore.DG>
-17.8827

> <Gold.Chemscore.ZeroCoef>
-5.4800

> <Gold.Chemscore.Hbond>
2.9034

> <Gold.Chemscore.Metal>
0.0000

> <Gold.Chemscore.Lipo>
63.7917

> <Gold.Chemscore.Internal_Hbond>
0.0000

> <Gold.Chemscore.DEClash>
0.0580

> <Gold.Chemscore.DEInternal>
1.2655

> <Gold.Chemscore.Rot>
1.8587

> <Gold.Chemscore.Internal.Correction>
   9.000000E+99

> <Gold.Chemscore.Hbonds>
donor molecule, donor type, donor heavy atom, donor atom, acceptor molecule, acceptor atom, score
      L1  H     5    24       P1  7948  0.97
      L1  H     8    25       P1  7948  0.97
      P1  H  7989  7998       L1    17  0.98

> <Gold.Chemscore.Hbond.Weighted>
-9.6974

> <Gold.Chemscore.Metal.Weighted>
-0.0000

> <Gold.Chemscore.Lipo.Weighted>
-7.4636

> <Gold.Chemscore.Internal_Hbond.Weighted>
0.0000

> <Gold.Chemscore.DEClash.Weighted>
0.0580

> <Gold.Chemscore.DEInternal.Weighted>
1.2655

> <Gold.Chemscore.Rot.Weighted>
4.7583

> <Gold.Chemscore.Internal.Correction.Weighted>
   9.000000E+99

> <Gold.Protein.RotatedTorsions>
[ 6907 6896 6895 6894 ] final  -73.26 input  -60.11 | X-H torsion
[ 7974 7965 7964 7962 ] final -102.00 input  175.53 | X-H torsion
[ 8008 7997 7996 7995 ] final -167.09 input   59.86 | X-H torsion
[ 10167 10162 10161 10158 ] final  -73.26 input  -65.29 | X-H torsion
[ 10718 10713 10712 10709 ] final  -29.82 input   66.30 | X-H torsion
[ 10763 10752 10751 10750 ] final  -81.68 input  -60.55 | X-H torsion
[ 11005 11000 10999 10996 ] final  -92.35 input  -57.11 | X-H torsion

> <Gold.Protein.ActiveResidues>
 VAL166  LYS551  ARG553  GLY616  TRP617  ASP618  TYR619  PRO620  LYS621  CYS622 
 ASP623  PHE694  ASN695  SER759  ASP760  ASP761  ALA762  ILE779  LEU786  VAL792 
 PHE793  MET794  SER795  GLU796  ALA797  LYS798  CYS799  TRP800  GLU811  SER814 

> <Gold.Protein.RotatedAtoms>
  150.7137  134.5042  159.5575 H   0  0  0  0  0  0  0  0  0  0  0  0  # atno 6907 bound_to 6896
  152.2632  134.8008  160.0436 H   0  0  0  0  0  0  0  0  0  0  0  0  # atno 6908 bound_to 6896
  151.8714  133.3441  159.3773 H   0  0  0  0  0  0  0  0  0  0  0  0  # atno 6909 bound_to 6896
  145.2744  140.9308  143.2968 H   0  0  0  0  0  0  0  0  0  0  0  0  # atno 7974 bound_to 7965
  155.8729  140.0996  157.1538 H   0  0  0  0  0  0  0  0  0  0  0  0  # atno 8008 bound_to 7997
  154.3998  140.1343  156.4163 H   0  0  0  0  0  0  0  0  0  0  0  0  # atno 8009 bound_to 7997
  155.7731  140.3460  155.5259 H   0  0  0  0  0  0  0  0  0  0  0  0  # atno 8010 bound_to 7997
  140.5124  143.2343  151.7570 H   0  0  0  0  0  0  0  0  0  0  0  0  # atno 10167 bound_to 10162
  156.4076  130.4402  149.7276 H   0  0  0  0  0  0  0  0  0  0  0  0  # atno 10718 bound_to 10713
  154.5665  135.5618  153.7055 H   0  0  0  0  0  0  0  0  0  0  0  0  # atno 10763 bound_to 10752
  153.0034  135.6286  154.2173 H   0  0  0  0  0  0  0  0  0  0  0  0  # atno 10764 bound_to 10752
  154.2112  135.2873  155.2937 H   0  0  0  0  0  0  0  0  0  0  0  0  # atno 10765 bound_to 10752
  141.1524  133.7815  157.0007 H   0  0  0  0  0  0  0  0  0  0  0  0  # atno 11005 bound_to 11000
  144.9307  139.4302  143.6496 LP  0  0  0  0  0  0  0  0  0  0  0  0  # atno 17320 bound_to 7965
  146.3236  139.8217  142.8925 LP  0  0  0  0  0  0  0  0  0  0  0  0  # atno 17321 bound_to 7965
  139.4900  144.4371  151.9807 LP  0  0  0  0  0  0  0  0  0  0  0  0  # atno 17342 bound_to 10162
  140.3464  144.3142  150.5957 LP  0  0  0  0  0  0  0  0  0  0  0  0  # atno 17343 bound_to 10162
  156.4268  130.7795  151.2814 LP  0  0  0  0  0  0  0  0  0  0  0  0  # atno 17370 bound_to 10713
  157.7506  131.0166  150.3552 LP  0  0  0  0  0  0  0  0  0  0  0  0  # atno 17371 bound_to 10713
  140.0942  134.9574  157.1823 LP  0  0  0  0  0  0  0  0  0  0  0  0  # atno 17394 bound_to 11000
  140.3405  134.2709  155.7213 LP  0  0  0  0  0  0  0  0  0  0  0  0  # atno 17395 bound_to 11000

$$$$
