AV-unprocessed.smi:835|AV-procd|sdf|3887|dock10
  -GOLD-   22720 1343D 1   1.00000     0.00000
 Structure written by MMmdl.
 41 43  0  0  0  0  0  0  0  0  2 V2000
  153.5723  142.1569  162.0641 C   0  0  0  0  0  0  0  0  0  0  0  0
  152.8042  142.6555  160.8759 C   0  0  0  0  0  0  0  0  0  0  0  0
  152.1254  141.8884  159.8848 C   0  0  0  0  0  0  0  0  0  0  0  0
  151.6084  142.8510  159.0614 C   0  0  0  0  0  0  0  0  0  0  0  0
  150.8633  142.7014  157.9341 N   0  0  0  0  0  0  0  0  0  0  0  0
  150.7962  141.6437  157.1069 C   0  0  0  0  0  0  0  0  0  0  0  0
  151.4215  140.5914  157.2379 O   0  0  0  0  0  0  0  0  0  0  0  0
  149.9403  141.8684  156.1001 N   0  0  0  0  0  0  0  0  0  0  0  0
  149.6278  140.9069  155.0480 C   0  0  1  0  0  0  0  0  0  0  0  0
  149.3193  139.4965  155.5549 C   0  0  0  0  0  0  0  0  0  0  0  0
  148.3659  138.9111  154.5000 C   0  0  0  0  0  0  0  0  0  0  0  0
  147.9573  140.0311  153.6192 N   0  3  1  0  0  0  0  0  0  0  0  0
  146.5390  139.9922  153.2048 C   0  0  0  0  0  0  0  0  0  0  0  0
  145.9395  138.6068  153.2306 C   0  0  0  0  0  0  0  0  0  0  0  0
  146.3075  139.2494  151.9107 C   0  0  0  0  0  0  0  0  0  0  0  0
  148.3485  141.2764  154.3039 C   0  0  0  0  0  0  0  0  0  0  0  0
  151.9706  144.0896  159.5422 N   0  0  0  0  0  0  0  0  0  0  0  0
  151.6649  145.4066  159.0185 C   0  0  0  0  0  0  0  0  0  0  0  0
  152.7075  143.9639  160.6670 N   0  0  0  0  0  0  0  0  0  0  0  0
  153.6853  141.0730  162.0332 H   0  0  0  0  0  0  0  0  0  0  0  0
  153.0629  142.4110  162.9937 H   0  0  0  0  0  0  0  0  0  0  0  0
  154.5708  142.5932  162.1000 H   0  0  0  0  0  0  0  0  0  0  0  0
  152.0457  140.8144  159.8096 H   0  0  0  0  0  0  0  0  0  0  0  0
  150.2718  143.4863  157.7043 H   0  0  0  0  0  0  0  0  0  0  0  0
  149.4679  142.7602  156.0648 H   0  0  0  0  0  0  0  0  0  0  0  0
  150.4502  140.8630  154.3307 H   0  0  0  0  0  0  0  0  0  0  0  0
  150.2198  138.8953  155.6861 H   0  0  0  0  0  0  0  0  0  0  0  0
  148.8095  139.5433  156.5186 H   0  0  0  0  0  0  0  0  0  0  0  0
  148.8591  138.1475  153.8977 H   0  0  0  0  0  0  0  0  0  0  0  0
  147.5060  138.4458  154.9845 H   0  0  0  0  0  0  0  0  0  0  0  0
  145.9336  140.8602  153.4607 H   0  0  0  0  0  0  0  0  0  0  0  0
  146.5597  137.7828  153.5793 H   0  0  0  0  0  0  0  0  0  0  0  0
  144.8801  138.5226  153.4652 H   0  0  0  0  0  0  0  0  0  0  0  0
  145.4907  139.5882  151.2768 H   0  0  0  0  0  0  0  0  0  0  0  0
  147.1719  138.8515  151.3821 H   0  0  0  0  0  0  0  0  0  0  0  0
  147.5676  141.5710  155.0079 H   0  0  0  0  0  0  0  0  0  0  0  0
  148.4955  142.0928  153.5961 H   0  0  0  0  0  0  0  0  0  0  0  0
  150.5975  145.6016  159.1226 H   0  0  0  0  0  0  0  0  0  0  0  0
  151.9357  145.4545  157.9636 H   0  0  0  0  0  0  0  0  0  0  0  0
  152.2198  146.1741  159.5598 H   0  0  0  0  0  0  0  0  0  0  0  0
  148.5268  139.9673  152.7873 H   0  0  0  0  0  0  0  0  0  0  0  0
  1  2  1  0  0  0  0
  1 20  1  0  0  0  0
  1 21  1  0  0  0  0
  1 22  1  0  0  0  0
  2 19  2  0  0  0  0
  2  3  1  0  0  0  0
  3  4  2  0  0  0  0
  3 23  1  0  0  0  0
  4  5  1  0  0  0  0
  4 17  1  0  0  0  0
  5  6  1  0  0  0  0
  5 24  1  0  0  0  0
  6  7  2  0  0  0  0
  6  8  1  0  0  0  0
  8  9  1  0  0  0  0
  8 25  1  0  0  0  0
  9 16  1  0  0  0  0
  9 10  1  0  0  0  0
  9 26  1  0  0  0  0
 10 11  1  0  0  0  0
 10 27  1  0  0  0  0
 10 28  1  0  0  0  0
 11 12  1  0  0  0  0
 11 29  1  0  0  0  0
 11 30  1  0  0  0  0
 12 13  1  0  0  0  0
 12 16  1  0  0  0  0
 12 41  1  0  0  0  0
 13 15  1  0  0  0  0
 13 14  1  0  0  0  0
 13 31  1  0  0  0  0
 14 15  1  0  0  0  0
 14 32  1  0  0  0  0
 14 33  1  0  0  0  0
 15 34  1  0  0  0  0
 15 35  1  0  0  0  0
 16 36  1  0  0  0  0
 16 37  1  0  0  0  0
 17 18  1  0  0  0  0
 17 19  1  0  0  0  0
 18 38  1  0  0  0  0
 18 39  1  0  0  0  0
 18 40  1  0  0  0  0
M  CHG  1  12   1
M  END
> <s_m_source_file>
AV-unprocessed.smi

> <i_m_source_file_index>
835

> <i_lp_mmshare_version>
43012

> <i_f3d_flags>
0

> <s_epik_input>
W0NIM11jMVtjSF1jKG4objEpW0NIM10pW05IXUMoPU8pW05IXVtDQEBIXTJbQ0gyXVtDSDJdTihbQ0gyXTIpW0NIXTNbQ0gyXVtDSDJdMw==

> <s_epik_cmdline>
J2VwaWtfcHl0aG9uJywgJy1waCcsICc3LjAnLCAnLXRuJywgJzgnLCAnLW1hJywgJzIwMCcsICctbWV0YWxfYmluZGluZycsICctaW1hZScsICc8aW5maWxlLm1hZT4nLCAnLW9tYWUnLCAnPG91dGZpbGUubWFlPic=

> <r_lp_tautomer_probability>
1

> <r_epik_Ionization_Penalty>
0.000700689

> <r_epik_Ionization_Penalty_Charging>
0.000627528

> <r_epik_Ionization_Penalty_Neutral>
7.31611e-05

> <r_epik_State_Penalty>
0.00039643

> <r_epik_Charging_Adjusted_Penalty>
0.00102396

> <i_epik_Tot_Q>
1

> <i_epik_Tot_abs_Q>
1

> <r_epik_Metal_State_Penalty>
-0

> <b_epik_Metal_Only>
0

> <s_lp_Force_Field>
OPLS_2005

> <r_lp_Energy>
38.0069

> <b_lp_Chiralities_Consistent>
1

> <s_lp_Variant>
AV-unprocessed.smi:835-2

> <Gold.Version>
5.8.1

> <Gold.Id.Protein>
6NUR|6NUR_protein|mol2

> <Gold.PLP.Fitness>
47.5693

> <Gold.PLP.PLP>
-42.6925

> <Gold.PLP.part.hbond>
-1.9418

> <Gold.PLP.part.metal>
0.0000

> <Gold.PLP.part.buried>
0.3624

> <Gold.PLP.part.nonpolar>
-40.1811

> <Gold.PLP.part.repulsive>
0.3509

> <Gold.PLP.ligand.clash>
0.0000

> <Gold.PLP.ligand.torsion>
1.1799

> <Gold.PLP.Chemscore.Hbond>
1.9913

> <Gold.PLP.Chemscore.CHOScore>
0.0000

> <Gold.PLP.Chemscore.Metal>
0.0000

> <Gold.Chemscore.Hbonds>
donor molecule, donor type, donor heavy atom, donor atom, acceptor molecule, acceptor atom, score
      L1  H     8    25       P1  8028  0.86
      L1  H    12    41       P1  7957  1.00

> <Gold.PLP.Chemscore.Internal.Correction>
1.2630

> <Gold.Rescore>
     Score         DG    S(hbond)    S(metal)    S(lipo)     H(rot)  DE(clash)    DE(int)     intcor
     17.26     -20.42       1.99        0.00      97.64       1.22       0.51       2.65       ----

> <Gold.Chemscore.Fitness>
17.2601

> <Gold.Chemscore.DG>
-20.4179

> <Gold.Chemscore.ZeroCoef>
-5.4800

> <Gold.Chemscore.Hbond>
1.9868

> <Gold.Chemscore.Metal>
0.0000

> <Gold.Chemscore.Lipo>
97.6444

> <Gold.Chemscore.Internal_Hbond>
0.0000

> <Gold.Chemscore.DEClash>
0.5094

> <Gold.Chemscore.DEInternal>
2.6485

> <Gold.Chemscore.Rot>
1.2196

> <Gold.Chemscore.Internal.Correction>
   9.000000E+99

> <Gold.Chemscore.Hbonds>
donor molecule, donor type, donor heavy atom, donor atom, acceptor molecule, acceptor atom, score
      L1  H     8    25       P1  8028  0.84
      L1  H    12    41       P1  7957  0.99

> <Gold.Chemscore.Hbond.Weighted>
-6.6358

> <Gold.Chemscore.Metal.Weighted>
-0.0000

> <Gold.Chemscore.Lipo.Weighted>
-11.4244

> <Gold.Chemscore.Internal_Hbond.Weighted>
0.0000

> <Gold.Chemscore.DEClash.Weighted>
0.5094

> <Gold.Chemscore.DEInternal.Weighted>
2.6485

> <Gold.Chemscore.Rot.Weighted>
3.1223

> <Gold.Chemscore.Internal.Correction.Weighted>
   9.000000E+99

> <Gold.Protein.RotatedTorsions>
[ 6907 6896 6895 6894 ] final  -98.30 input  -60.11 | X-H torsion
[ 7974 7965 7964 7962 ] final   80.63 input  175.53 | X-H torsion
[ 8008 7997 7996 7995 ] final  173.76 input   59.86 | X-H torsion
[ 10167 10162 10161 10158 ] final   40.95 input  -65.29 | X-H torsion
[ 10718 10713 10712 10709 ] final  164.94 input   66.30 | X-H torsion
[ 10763 10752 10751 10750 ] final -132.19 input  -60.55 | X-H torsion
[ 11005 11000 10999 10996 ] final -138.93 input  -57.11 | X-H torsion

> <Gold.Protein.ActiveResidues>
 VAL166  LYS551  ARG553  GLY616  TRP617  ASP618  TYR619  PRO620  LYS621  CYS622 
 ASP623  PHE694  ASN695  SER759  ASP760  ASP761  ALA762  ILE779  LEU786  VAL792 
 PHE793  MET794  SER795  GLU796  ALA797  LYS798  CYS799  TRP800  GLU811  SER814 

> <Gold.Protein.RotatedAtoms>
  150.7042  134.1216  159.4036 H   0  0  0  0  0  0  0  0  0  0  0  0  # atno 6907 bound_to 6896
  151.9202  135.0299  160.0531 H   0  0  0  0  0  0  0  0  0  0  0  0  # atno 6908 bound_to 6896
  152.2262  133.4987  159.5227 H   0  0  0  0  0  0  0  0  0  0  0  0  # atno 6909 bound_to 6896
  145.6486  139.2442  143.1989 H   0  0  0  0  0  0  0  0  0  0  0  0  # atno 7974 bound_to 7965
  156.1043  140.1452  156.9426 H   0  0  0  0  0  0  0  0  0  0  0  0  # atno 8008 bound_to 7997
  154.4723  140.0906  156.7220 H   0  0  0  0  0  0  0  0  0  0  0  0  # atno 8009 bound_to 7997
  155.4707  140.3441  155.4327 H   0  0  0  0  0  0  0  0  0  0  0  0  # atno 8010 bound_to 7997
  140.3691  144.2129  150.6134 H   0  0  0  0  0  0  0  0  0  0  0  0  # atno 10167 bound_to 10162
  157.0872  131.0408  151.2551 H   0  0  0  0  0  0  0  0  0  0  0  0  # atno 10718 bound_to 10713
  154.8745  135.3806  154.4368 H   0  0  0  0  0  0  0  0  0  0  0  0  # atno 10763 bound_to 10752
  153.5057  135.7030  153.5813 H   0  0  0  0  0  0  0  0  0  0  0  0  # atno 10764 bound_to 10752
  153.4125  135.3921  155.2025 H   0  0  0  0  0  0  0  0  0  0  0  0  # atno 10765 bound_to 10752
  140.8569  134.2217  157.4729 H   0  0  0  0  0  0  0  0  0  0  0  0  # atno 11005 bound_to 11000
  146.1222  140.7294  142.9452 LP  0  0  0  0  0  0  0  0  0  0  0  0  # atno 17320 bound_to 7965
  144.7131  140.4110  143.7065 LP  0  0  0  0  0  0  0  0  0  0  0  0  # atno 17321 bound_to 7965
  140.5051  143.2306  151.8620 LP  0  0  0  0  0  0  0  0  0  0  0  0  # atno 17342 bound_to 10162
  139.4805  144.5014  151.9055 LP  0  0  0  0  0  0  0  0  0  0  0  0  # atno 17343 bound_to 10162
  157.4751  130.7731  149.7360 LP  0  0  0  0  0  0  0  0  0  0  0  0  # atno 17370 bound_to 10713
  155.9907  130.3942  150.3015 LP  0  0  0  0  0  0  0  0  0  0  0  0  # atno 17371 bound_to 10713
  139.8705  134.9710  156.4723 LP  0  0  0  0  0  0  0  0  0  0  0  0  # atno 17394 bound_to 11000
  140.8727  133.7976  155.9381 LP  0  0  0  0  0  0  0  0  0  0  0  0  # atno 17395 bound_to 11000

$$$$
