AV-unprocessed.smi:3118|AV-procd|sdf|11886|dock2
  -GOLD-   2272017273D 1   1.00000     0.00000
 Structure written by MMmdl.
 33 34  0  0  0  0  0  0  0  0  2 V2000
  149.2436  140.2943  157.1854 C   0  0  0  0  0  0  0  0  0  0  0  0
  149.9921  141.2403  156.2368 C   0  0  2  0  0  0  0  0  0  0  0  0
  151.3670  140.6608  155.8392 C   0  0  0  0  0  0  0  0  0  0  0  0
  151.2713  139.3315  155.2264 N   0  0  0  0  0  0  0  0  0  0  0  0
  151.7506  138.1497  155.7303 C   0  0  0  0  0  0  0  0  0  0  0  0
  151.4174  137.1752  154.8253 C   0  0  0  0  0  0  0  0  0  0  0  0
  150.7540  137.8034  153.8057 N   0  3  0  0  0  0  0  0  0  0  0  0
  150.6705  139.1153  154.0488 C   0  0  0  0  0  0  0  0  0  0  0  0
  150.1367  142.5427  156.8867 N   0  0  0  0  0  0  0  0  0  0  0  0
  150.7427  142.7709  158.0625 C   0  0  0  0  0  0  0  0  0  0  0  0
  151.2555  141.8808  158.7421 O   0  0  0  0  0  0  0  0  0  0  0  0
  150.7525  144.2281  158.5408 C   0  0  0  0  0  0  0  0  0  0  0  0
  152.1068  144.7293  159.0737 C   0  0  0  0  0  0  0  0  0  0  0  0
  151.3604  145.3713  160.2469 C   0  0  0  0  0  0  0  0  0  0  0  0
  150.1893  144.4275  159.9586 C   0  0  0  0  0  0  0  0  0  0  0  0
  149.0842  139.3200  156.7226 H   0  0  0  0  0  0  0  0  0  0  0  0
  148.2642  140.6953  157.4489 H   0  0  0  0  0  0  0  0  0  0  0  0
  149.7991  140.1358  158.1105 H   0  0  0  0  0  0  0  0  0  0  0  0
  149.3798  141.3439  155.3389 H   0  0  0  0  0  0  0  0  0  0  0  0
  151.8890  141.3283  155.1514 H   0  0  0  0  0  0  0  0  0  0  0  0
  152.0019  140.5581  156.7202 H   0  0  0  0  0  0  0  0  0  0  0  0
  152.2725  138.0905  156.6745 H   0  0  0  0  0  0  0  0  0  0  0  0
  151.5966  136.1099  154.8313 H   0  0  0  0  0  0  0  0  0  0  0  0
  150.1990  139.8519  153.4229 H   0  0  0  0  0  0  0  0  0  0  0  0
  149.7496  143.3370  156.3977 H   0  0  0  0  0  0  0  0  0  0  0  0
  150.3133  144.9255  157.8245 H   0  0  0  0  0  0  0  0  0  0  0  0
  152.7899  143.9397  159.3919 H   0  0  0  0  0  0  0  0  0  0  0  0
  152.6077  145.4466  158.4230 H   0  0  0  0  0  0  0  0  0  0  0  0
  151.8321  145.2285  161.2195 H   0  0  0  0  0  0  0  0  0  0  0  0
  151.1125  146.4184  160.0660 H   0  0  0  0  0  0  0  0  0  0  0  0
  149.2126  144.9109  159.9898 H   0  0  0  0  0  0  0  0  0  0  0  0
  150.2090  143.5295  160.5791 H   0  0  0  0  0  0  0  0  0  0  0  0
  150.3779  137.3433  152.9862 H   0  0  0  0  0  0  0  0  0  0  0  0
  1  2  1  0  0  0  0
  1 16  1  0  0  0  0
  1 17  1  0  0  0  0
  1 18  1  0  0  0  0
  2  3  1  0  0  0  0
  2  9  1  0  0  0  0
  2 19  1  0  0  0  0
  3  4  1  0  0  0  0
  3 20  1  0  0  0  0
  3 21  1  0  0  0  0
  4  8  1  0  0  0  0
  4  5  1  0  0  0  0
  5  6  2  0  0  0  0
  5 22  1  0  0  0  0
  6  7  1  0  0  0  0
  6 23  1  0  0  0  0
  7  8  2  0  0  0  0
  7 33  1  0  0  0  0
  8 24  1  0  0  0  0
  9 10  1  0  0  0  0
  9 25  1  0  0  0  0
 10 11  2  0  0  0  0
 10 12  1  0  0  0  0
 12 15  1  0  0  0  0
 12 13  1  0  0  0  0
 12 26  1  0  0  0  0
 13 14  1  0  0  0  0
 13 27  1  0  0  0  0
 13 28  1  0  0  0  0
 14 15  1  0  0  0  0
 14 29  1  0  0  0  0
 14 30  1  0  0  0  0
 15 31  1  0  0  0  0
 15 32  1  0  0  0  0
M  CHG  1   7   1
M  END
> <s_m_source_file>
AV-unprocessed.smi

> <i_m_source_file_index>
3118

> <i_lp_mmshare_version>
43012

> <i_f3d_flags>
0

> <s_epik_input>
W0NIMl0xW0NIMl1bQ0gyXVtDSF0xQyg9TylbTkhdW0NASF0oW0NIM10pW0NIMl1uMltjSF1bY0hdbltjSF0y

> <s_epik_cmdline>
J2VwaWtfcHl0aG9uJywgJy1waCcsICc3LjAnLCAnLXRuJywgJzgnLCAnLW1hJywgJzIwMCcsICctbWV0YWxfYmluZGluZycsICctaW1hZScsICc8aW5maWxlLm1hZT4nLCAnLW9tYWUnLCAnPG91dGZpbGUubWFlPic=

> <r_lp_tautomer_probability>
1

> <r_epik_Ionization_Penalty>
0.244425

> <r_epik_Ionization_Penalty_Charging>
0

> <r_epik_Ionization_Penalty_Neutral>
0.244425

> <r_epik_State_Penalty>
0.23553

> <r_epik_Charging_Adjusted_Penalty>
0.23553

> <i_epik_Tot_Q>
1

> <i_epik_Tot_abs_Q>
1

> <r_epik_Metal_State_Penalty>
0.5288

> <b_epik_Metal_Only>
0

> <s_lp_Force_Field>
OPLS_2005

> <r_lp_Energy>
13.9066

> <b_lp_Chiralities_Consistent>
1

> <s_lp_Variant>
AV-unprocessed.smi:3118-1

> <Gold.Version>
5.8.1

> <Gold.Id.Protein>
6NUR|6NUR_protein|mol2

> <Gold.PLP.Fitness>
47.9872

> <Gold.PLP.PLP>
-36.2112

> <Gold.PLP.part.hbond>
-2.8592

> <Gold.PLP.part.metal>
0.0000

> <Gold.PLP.part.buried>
-2.6579

> <Gold.PLP.part.nonpolar>
-30.3066

> <Gold.PLP.part.repulsive>
0.1130

> <Gold.PLP.ligand.clash>
0.0000

> <Gold.PLP.ligand.torsion>
0.2597

> <Gold.PLP.Chemscore.Hbond>
3.0000

> <Gold.PLP.Chemscore.CHOScore>
0.9594

> <Gold.PLP.Chemscore.Metal>
0.0000

> <Gold.Chemscore.Hbonds>
donor molecule, donor type, donor heavy atom, donor atom, acceptor molecule, acceptor atom, score
      L1  H     7    33       P1  7948  0.82
      L1  H     9    25       P1  8028  1.00
      L1  C     8    24       P1  7957  1.00

> <Gold.PLP.Chemscore.Internal.Correction>
0.4172

> <Gold.Rescore>
     Score         DG    S(hbond)    S(metal)    S(lipo)     H(rot)  DE(clash)    DE(int)     intcor
     14.48     -16.19       1.97        0.00      75.82       1.86       0.04       1.67       ----

> <Gold.Chemscore.Fitness>
14.4780

> <Gold.Chemscore.DG>
-16.1902

> <Gold.Chemscore.ZeroCoef>
-5.4800

> <Gold.Chemscore.Hbond>
1.9733

> <Gold.Chemscore.Metal>
0.0000

> <Gold.Chemscore.Lipo>
75.8198

> <Gold.Chemscore.Internal_Hbond>
0.0000

> <Gold.Chemscore.DEClash>
0.0390

> <Gold.Chemscore.DEInternal>
1.6731

> <Gold.Chemscore.Rot>
1.8561

> <Gold.Chemscore.Internal.Correction>
   9.000000E+99

> <Gold.Chemscore.Hbonds>
donor molecule, donor type, donor heavy atom, donor atom, acceptor molecule, acceptor atom, score
      L1  H     7    33       P1  7948  0.01
      L1  H     9    25       P1  8028  1.00

> <Gold.Chemscore.Hbond.Weighted>
-6.5908

> <Gold.Chemscore.Metal.Weighted>
-0.0000

> <Gold.Chemscore.Lipo.Weighted>
-8.8709

> <Gold.Chemscore.Internal_Hbond.Weighted>
0.0000

> <Gold.Chemscore.DEClash.Weighted>
0.0390

> <Gold.Chemscore.DEInternal.Weighted>
1.6731

> <Gold.Chemscore.Rot.Weighted>
4.7516

> <Gold.Chemscore.Internal.Correction.Weighted>
   9.000000E+99

> <Gold.Protein.RotatedTorsions>
[ 6907 6896 6895 6894 ] final   -4.88 input  -60.11 | X-H torsion
[ 7974 7965 7964 7962 ] final  -32.10 input  175.53 | X-H torsion
[ 8008 7997 7996 7995 ] final   57.21 input   59.86 | X-H torsion
[ 10167 10162 10161 10158 ] final   99.04 input  -65.29 | X-H torsion
[ 10718 10713 10712 10709 ] final   26.89 input   66.30 | X-H torsion
[ 10763 10752 10751 10750 ] final  -44.52 input  -60.55 | X-H torsion
[ 11005 11000 10999 10996 ] final   30.15 input  -57.11 | X-H torsion

> <Gold.Protein.ActiveResidues>
 VAL166  LYS551  ARG553  GLY616  TRP617  ASP618  TYR619  PRO620  LYS621  CYS622 
 ASP623  PHE694  ASN695  SER759  ASP760  ASP761  ALA762  ILE779  LEU786  VAL792 
 PHE793  MET794  SER795  GLU796  ALA797  LYS798  CYS799  TRP800  GLU811  SER814 

> <Gold.Protein.RotatedAtoms>
  151.4906  135.1057  159.9802 H   0  0  0  0  0  0  0  0  0  0  0  0  # atno 6907 bound_to 6896
  152.4742  133.8096  159.7007 H   0  0  0  0  0  0  0  0  0  0  0  0  # atno 6908 bound_to 6896
  150.8770  133.7363  159.2970 H   0  0  0  0  0  0  0  0  0  0  0  0  # atno 6909 bound_to 6896
  146.1016  140.5750  142.8818 H   0  0  0  0  0  0  0  0  0  0  0  0  # atno 7974 bound_to 7965
  155.5300  140.3482  155.4424 H   0  0  0  0  0  0  0  0  0  0  0  0  # atno 8008 bound_to 7997
  156.0725  140.1366  156.9838 H   0  0  0  0  0  0  0  0  0  0  0  0  # atno 8009 bound_to 7997
  154.4535  140.0963  156.6665 H   0  0  0  0  0  0  0  0  0  0  0  0  # atno 8010 bound_to 7997
  139.7654  144.6940  151.0232 H   0  0  0  0  0  0  0  0  0  0  0  0  # atno 10167 bound_to 10162
  157.2129  130.6942  149.6236 H   0  0  0  0  0  0  0  0  0  0  0  0  # atno 10718 bound_to 10713
  154.0135  135.6678  153.4767 H   0  0  0  0  0  0  0  0  0  0  0  0  # atno 10763 bound_to 10752
  153.0610  135.5027  154.8090 H   0  0  0  0  0  0  0  0  0  0  0  0  # atno 10764 bound_to 10752
  154.6981  135.3073  154.9346 H   0  0  0  0  0  0  0  0  0  0  0  0  # atno 10765 bound_to 10752
  140.2974  134.2795  155.7761 H   0  0  0  0  0  0  0  0  0  0  0  0  # atno 11005 bound_to 11000
  144.7437  140.5012  143.6851 LP  0  0  0  0  0  0  0  0  0  0  0  0  # atno 17320 bound_to 7965
  145.5843  139.1491  143.3218 LP  0  0  0  0  0  0  0  0  0  0  0  0  # atno 17321 bound_to 7965
  140.7810  143.4649  151.0226 LP  0  0  0  0  0  0  0  0  0  0  0  0  # atno 17342 bound_to 10162
  139.8334  143.7660  152.3180 LP  0  0  0  0  0  0  0  0  0  0  0  0  # atno 17343 bound_to 10162
  155.9689  130.4545  150.5853 LP  0  0  0  0  0  0  0  0  0  0  0  0  # atno 17370 bound_to 10713
  157.3654  131.0757  151.1602 LP  0  0  0  0  0  0  0  0  0  0  0  0  # atno 17371 bound_to 10713
  141.2135  133.7624  156.9716 LP  0  0  0  0  0  0  0  0  0  0  0  0  # atno 17394 bound_to 11000
  140.1140  134.9459  157.2107 LP  0  0  0  0  0  0  0  0  0  0  0  0  # atno 17395 bound_to 11000

$$$$
