AV-unprocessed.smi:1983|AV-procd|sdf|8028|dock5
  -GOLD-   2272010223D 1   1.00000     0.00000
 Structure written by MMmdl.
 49 50  0  0  0  0  0  0  0  0  1 V2000
  150.1274  135.0924  156.5634 C   0  0  0  0  0  0  0  0  0  0  0  0
  148.9010  134.8972  155.6546 C   0  0  2  0  0  0  0  0  0  0  0  0
  148.9838  133.5983  154.8339 C   0  0  0  0  0  0  0  0  0  0  0  0
  148.1909  133.6954  153.6698 O   0  0  0  0  0  0  0  0  0  0  0  0
  148.7625  136.0300  154.7433 N   0  0  0  0  0  0  0  0  0  0  0  0
  148.6813  137.3169  155.1099 C   0  0  0  0  0  0  0  0  0  0  0  0
  148.7119  137.7075  156.2768 O   0  0  0  0  0  0  0  0  0  0  0  0
  148.5742  138.1285  154.0485 N   0  0  0  0  0  0  0  0  0  0  0  0
  148.4891  139.5850  154.1117 C   0  0  0  0  0  0  0  0  0  0  0  0
  149.4234  140.2495  155.1165 C   0  0  0  0  0  0  0  0  0  0  0  0
  150.8141  140.0063  155.1504 C   0  0  0  0  0  0  0  0  0  0  0  0
  151.6020  140.6690  156.1106 C   0  0  0  0  0  0  0  0  0  0  0  0
  150.9829  141.5636  157.0145 C   0  0  0  0  0  0  0  0  0  0  0  0
  151.7564  142.2352  157.9852 N   0  0  0  0  0  0  0  0  0  0  0  0
  151.3312  143.5717  158.3948 C   0  0  0  0  0  0  0  0  0  0  0  0
  152.4360  144.2562  159.2203 C   0  0  1  0  0  0  0  0  0  0  0  0
  151.9894  145.6173  159.7635 C   0  0  0  0  0  0  0  0  0  0  0  0
  152.7754  143.4221  160.3248 O   0  0  0  0  0  0  0  0  0  0  0  0
  153.2899  142.1579  159.9147 C   0  0  1  0  0  0  0  0  0  0  0  0
  153.7035  141.3797  161.1681 C   0  0  0  0  0  0  0  0  0  0  0  0
  152.2172  141.4110  159.0989 C   0  0  0  0  0  0  0  0  0  0  0  0
  149.6493  141.8046  156.9722 N   0  0  0  0  0  0  0  0  0  0  0  0
  148.8983  141.1633  156.0523 C   0  0  0  0  0  0  0  0  0  0  0  0
  150.2360  134.2625  157.2620 H   0  0  0  0  0  0  0  0  0  0  0  0
  150.0412  136.0046  157.1544 H   0  0  0  0  0  0  0  0  0  0  0  0
  151.0472  135.1587  155.9813 H   0  0  0  0  0  0  0  0  0  0  0  0
  148.0052  134.8475  156.2772 H   0  0  0  0  0  0  0  0  0  0  0  0
  150.0114  133.4116  154.5194 H   0  0  0  0  0  0  0  0  0  0  0  0
  148.6665  132.7381  155.4244 H   0  0  0  0  0  0  0  0  0  0  0  0
  148.4167  134.4938  153.2175 H   0  0  0  0  0  0  0  0  0  0  0  0
  148.7322  135.8158  153.7573 H   0  0  0  0  0  0  0  0  0  0  0  0
  148.5585  137.7117  153.1293 H   0  0  0  0  0  0  0  0  0  0  0  0
  148.7246  139.9752  153.1215 H   0  0  0  0  0  0  0  0  0  0  0  0
  147.4620  139.8886  154.3227 H   0  0  0  0  0  0  0  0  0  0  0  0
  151.2852  139.3276  154.4556 H   0  0  0  0  0  0  0  0  0  0  0  0
  152.6676  140.4965  156.1333 H   0  0  0  0  0  0  0  0  0  0  0  0
  151.1052  144.1782  157.5167 H   0  0  0  0  0  0  0  0  0  0  0  0
  150.4157  143.4933  158.9830 H   0  0  0  0  0  0  0  0  0  0  0  0
  153.3213  144.4049  158.5990 H   0  0  0  0  0  0  0  0  0  0  0  0
  151.7339  146.2989  158.9517 H   0  0  0  0  0  0  0  0  0  0  0  0
  152.7825  146.0816  160.3500 H   0  0  0  0  0  0  0  0  0  0  0  0
  151.1143  145.5178  160.4065 H   0  0  0  0  0  0  0  0  0  0  0  0
  154.1757  142.3168  159.2970 H   0  0  0  0  0  0  0  0  0  0  0  0
  154.1163  140.4052  160.9066 H   0  0  0  0  0  0  0  0  0  0  0  0
  152.8520  141.2164  161.8293 H   0  0  0  0  0  0  0  0  0  0  0  0
  154.4628  141.9226  161.7318 H   0  0  0  0  0  0  0  0  0  0  0  0
  151.3620  141.1716  159.7325 H   0  0  0  0  0  0  0  0  0  0  0  0
  152.6284  140.4638  158.7521 H   0  0  0  0  0  0  0  0  0  0  0  0
  147.8420  141.3888  156.0635 H   0  0  0  0  0  0  0  0  0  0  0  0
  1  2  1  0  0  0  0
  1 24  1  0  0  0  0
  1 25  1  0  0  0  0
  1 26  1  0  0  0  0
  2  3  1  0  0  0  0
  2  5  1  0  0  0  0
  2 27  1  0  0  0  0
  3  4  1  0  0  0  0
  3 28  1  0  0  0  0
  3 29  1  0  0  0  0
  4 30  1  0  0  0  0
  5  6  1  0  0  0  0
  5 31  1  0  0  0  0
  6  7  2  0  0  0  0
  6  8  1  0  0  0  0
  8  9  1  0  0  0  0
  8 32  1  0  0  0  0
  9 10  1  0  0  0  0
  9 33  1  0  0  0  0
  9 34  1  0  0  0  0
 10 23  1  0  0  0  0
 10 11  2  0  0  0  0
 11 12  1  0  0  0  0
 11 35  1  0  0  0  0
 12 13  2  0  0  0  0
 12 36  1  0  0  0  0
 13 14  1  0  0  0  0
 13 22  1  0  0  0  0
 14 21  1  0  0  0  0
 14 15  1  0  0  0  0
 15 16  1  0  0  0  0
 15 37  1  0  0  0  0
 15 38  1  0  0  0  0
 16 17  1  0  0  0  0
 16 18  1  0  0  0  0
 16 39  1  0  0  0  0
 17 40  1  0  0  0  0
 17 41  1  0  0  0  0
 17 42  1  0  0  0  0
 18 19  1  0  0  0  0
 19 20  1  0  0  0  0
 19 21  1  0  0  0  0
 19 43  1  0  0  0  0
 20 44  1  0  0  0  0
 20 45  1  0  0  0  0
 20 46  1  0  0  0  0
 21 47  1  0  0  0  0
 21 48  1  0  0  0  0
 22 23  2  0  0  0  0
 23 49  1  0  0  0  0
M  END
> <s_m_source_file>
AV-unprocessed.smi

> <i_m_source_file_index>
1983

> <i_lp_mmshare_version>
43012

> <i_f3d_flags>
0

> <s_epik_input>
W09IXVtDSDJdW0NAQEhdKFtDSDNdKVtOSF1DKD1PKVtOSF1bQ0gyXWMxW2NIXVtjSF1jKG5bY0hdMSlOMltDSDJdW0NAQEhdKFtDSDNdKU9bQ0BASF0oW0NIM10pW0NIMl0y

> <s_epik_cmdline>
J2VwaWtfcHl0aG9uJywgJy1waCcsICc3LjAnLCAnLXRuJywgJzgnLCAnLW1hJywgJzIwMCcsICctbWV0YWxfYmluZGluZycsICctaW1hZScsICc8aW5maWxlLm1hZT4nLCAnLW9tYWUnLCAnPG91dGZpbGUubWFlPic=

> <r_lp_tautomer_probability>
1

> <r_epik_Ionization_Penalty>
0.00801967

> <r_epik_Ionization_Penalty_Charging>
0

> <r_epik_Ionization_Penalty_Neutral>
0.00801967

> <r_epik_State_Penalty>
0.00598289

> <r_epik_Charging_Adjusted_Penalty>
0.00598289

> <i_epik_Tot_Q>
0

> <i_epik_Tot_abs_Q>
0

> <r_epik_Metal_State_Penalty>
0.00590297

> <b_epik_Metal_Only>
0

> <s_lp_Force_Field>
OPLS_2005

> <r_lp_Energy>
13.3716

> <b_lp_Chiralities_Consistent>
1

> <s_lp_Variant>
AV-unprocessed.smi:1983-1

> <Gold.Version>
5.8.1

> <Gold.Id.Protein>
6NUR|6NUR_protein|mol2

> <Gold.PLP.Fitness>
49.7186

> <Gold.PLP.PLP>
-42.5843

> <Gold.PLP.part.hbond>
-3.0000

> <Gold.PLP.part.metal>
0.0000

> <Gold.PLP.part.buried>
-4.0490

> <Gold.PLP.part.nonpolar>
-35.7681

> <Gold.PLP.part.repulsive>
0.1740

> <Gold.PLP.ligand.clash>
0.0000

> <Gold.PLP.ligand.torsion>
1.0009

> <Gold.PLP.Chemscore.Hbond>
2.9260

> <Gold.PLP.Chemscore.CHOScore>
0.0000

> <Gold.PLP.Chemscore.Metal>
0.0000

> <Gold.Chemscore.Hbonds>
donor molecule, donor type, donor heavy atom, donor atom, acceptor molecule, acceptor atom, score
      L1  H     4    30       P1  7948  0.50
      L1  H     5    31       P1  7948  1.00
      L1  H     8    32       P1  7948  1.00

> <Gold.PLP.Chemscore.Internal.Correction>
0.3581

> <Gold.Rescore>
     Score         DG    S(hbond)    S(metal)    S(lipo)     H(rot)  DE(clash)    DE(int)     intcor
     17.14     -19.62       2.55        0.00     105.15       2.61       0.32       2.16       ----

> <Gold.Chemscore.Fitness>
17.1437

> <Gold.Chemscore.DG>
-19.6242

> <Gold.Chemscore.ZeroCoef>
-5.4800

> <Gold.Chemscore.Hbond>
2.5518

> <Gold.Chemscore.Metal>
0.0000

> <Gold.Chemscore.Lipo>
105.1466

> <Gold.Chemscore.Internal_Hbond>
0.0000

> <Gold.Chemscore.DEClash>
0.3174

> <Gold.Chemscore.DEInternal>
2.1630

> <Gold.Chemscore.Rot>
2.6097

> <Gold.Chemscore.Internal.Correction>
   9.000000E+99

> <Gold.Chemscore.Hbonds>
donor molecule, donor type, donor heavy atom, donor atom, acceptor molecule, acceptor atom, score
      L1  H     4    30       P1  7948  0.22
      L1  H     5    31       P1  7948  0.96
      L1  H     8    32       P1  7948  0.95

> <Gold.Chemscore.Hbond.Weighted>
-8.5229

> <Gold.Chemscore.Metal.Weighted>
-0.0000

> <Gold.Chemscore.Lipo.Weighted>
-12.3022

> <Gold.Chemscore.Internal_Hbond.Weighted>
0.0000

> <Gold.Chemscore.DEClash.Weighted>
0.3174

> <Gold.Chemscore.DEInternal.Weighted>
2.1630

> <Gold.Chemscore.Rot.Weighted>
6.6809

> <Gold.Chemscore.Internal.Correction.Weighted>
   9.000000E+99

> <Gold.Protein.RotatedTorsions>
[ 6907 6896 6895 6894 ] final  -20.40 input  -60.11 | X-H torsion
[ 7974 7965 7964 7962 ] final -147.39 input  175.53 | X-H torsion
[ 8008 7997 7996 7995 ] final  -76.60 input   59.86 | X-H torsion
[ 10167 10162 10161 10158 ] final  166.17 input  -65.29 | X-H torsion
[ 10718 10713 10712 10709 ] final -160.60 input   66.30 | X-H torsion
[ 10763 10752 10751 10750 ] final   35.25 input  -60.55 | X-H torsion
[ 11005 11000 10999 10996 ] final -167.35 input  -57.11 | X-H torsion

> <Gold.Protein.ActiveResidues>
 VAL166  LYS551  ARG553  GLY616  TRP617  ASP618  TYR619  PRO620  LYS621  CYS622 
 ASP623  PHE694  ASN695  SER759  ASP760  ASP761  ALA762  ILE779  LEU786  VAL792 
 PHE793  MET794  SER795  GLU796  ALA797  LYS798  CYS799  TRP800  GLU811  SER814 

> <Gold.Protein.RotatedAtoms>
  151.2488  135.0615  159.9053 H   0  0  0  0  0  0  0  0  0  0  0  0  # atno 6907 bound_to 6896
  152.5383  134.0355  159.8054 H   0  0  0  0  0  0  0  0  0  0  0  0  # atno 6908 bound_to 6896
  151.0559  133.5535  159.2669 H   0  0  0  0  0  0  0  0  0  0  0  0  # atno 6909 bound_to 6896
  144.8097  140.5333  143.5651 H   0  0  0  0  0  0  0  0  0  0  0  0  # atno 7974 bound_to 7965
  154.5520  140.0724  156.8683 H   0  0  0  0  0  0  0  0  0  0  0  0  # atno 8008 bound_to 7997
  155.2975  140.3382  155.4231 H   0  0  0  0  0  0  0  0  0  0  0  0  # atno 8009 bound_to 7997
  156.1969  140.1707  156.7965 H   0  0  0  0  0  0  0  0  0  0  0  0  # atno 8010 bound_to 7997
  139.4919  144.4056  151.9359 H   0  0  0  0  0  0  0  0  0  0  0  0  # atno 10167 bound_to 10162
  156.5844  130.8743  151.2873 H   0  0  0  0  0  0  0  0  0  0  0  0  # atno 10718 bound_to 10713
  153.0127  135.6338  154.1797 H   0  0  0  0  0  0  0  0  0  0  0  0  # atno 10763 bound_to 10752
  154.1538  135.2827  155.3129 H   0  0  0  0  0  0  0  0  0  0  0  0  # atno 10764 bound_to 10752
  154.6033  135.5580  153.7458 H   0  0  0  0  0  0  0  0  0  0  0  0  # atno 10765 bound_to 10752
  140.5542  134.5398  157.5129 H   0  0  0  0  0  0  0  0  0  0  0  0  # atno 11005 bound_to 11000
  145.5354  139.1475  143.3476 LP  0  0  0  0  0  0  0  0  0  0  0  0  # atno 17320 bound_to 7965
  146.2393  140.5494  142.8941 LP  0  0  0  0  0  0  0  0  0  0  0  0  # atno 17321 bound_to 7965
  140.3496  144.3105  150.5952 LP  0  0  0  0  0  0  0  0  0  0  0  0  # atno 17342 bound_to 10162
  140.5496  143.2208  151.7948 LP  0  0  0  0  0  0  0  0  0  0  0  0  # atno 17343 bound_to 10162
  157.7319  130.9707  150.1901 LP  0  0  0  0  0  0  0  0  0  0  0  0  # atno 17370 bound_to 10713
  156.2604  130.3710  149.8137 LP  0  0  0  0  0  0  0  0  0  0  0  0  # atno 17371 bound_to 10713
  139.9440  134.7736  156.0608 LP  0  0  0  0  0  0  0  0  0  0  0  0  # atno 17394 bound_to 11000
  141.1153  133.6630  156.3079 LP  0  0  0  0  0  0  0  0  0  0  0  0  # atno 17395 bound_to 11000

$$$$
