AV-unprocessed.smi:269|AV-procd|sdf|2044|dock7
  -GOLD-   2262021263D 1   1.00000     0.00000
 Structure written by MMmdl.
 61 64  0  0  0  0  0  0  0  0  3 V2000
  152.0425  145.5962  159.1789 C   0  0  0  0  0  0  0  0  0  0  0  0
  152.4258  144.4024  158.2985 C   0  0  0  0  0  0  0  0  0  0  0  0
  153.3844  143.5575  159.0041 N   0  5  0  0  0  0  0  0  0  0  0  0
  153.1820  142.2353  159.2504 C   0  0  0  0  0  0  0  0  0  0  0  0
  153.7420  141.4677  160.0400 O   0  0  0  0  0  0  0  0  0  0  0  0
  152.0399  141.6814  158.3911 C   0  0  0  0  0  0  0  0  0  0  0  0
  152.5063  140.5022  157.6204 N   0  3  0  0  0  0  0  0  0  0  0  0
  151.5389  140.0957  156.5694 C   0  0  0  0  0  0  0  0  0  0  0  0
  152.0873  138.9298  155.7274 C   0  0  0  0  0  0  0  0  0  0  0  0
  152.4831  137.8129  156.5815 N   0  0  0  0  0  0  0  0  0  0  0  0
  151.5271  136.8811  156.8430 C   0  0  0  0  0  0  0  0  0  0  0  0
  151.2811  135.8946  155.9399 N   0  0  0  0  0  0  0  0  0  0  0  0
  150.3533  134.9657  156.1846 C   0  0  0  0  0  0  0  0  0  0  0  0
  149.5619  134.8404  157.2500 N   0  0  0  0  0  0  0  0  0  0  0  0
  149.7866  135.8346  158.1551 C   0  0  0  0  0  0  0  0  0  0  0  0
  150.7447  136.8816  158.0342 C   0  0  0  0  0  0  0  0  0  0  0  0
  150.6830  137.7039  159.1529 N   0  0  0  0  0  0  0  0  0  0  0  0
  149.7545  137.1670  159.8957 C   0  0  0  0  0  0  0  0  0  0  0  0
  149.1472  136.0507  159.3645 N   0  0  0  0  0  0  0  0  0  0  0  0
  148.0865  135.2582  159.9744 C   0  0  0  0  0  0  0  0  0  0  0  0
  147.0110  136.0778  160.7576 C   0  0  0  0  0  0  0  0  0  0  0  0
  146.3826  137.1749  159.8573 C   0  0  0  0  0  0  0  0  0  0  0  0
  145.7342  136.6318  158.7241 O   0  0  0  0  0  0  0  0  0  0  0  0
  145.8603  135.1756  161.2715 C   0  0  0  0  0  0  0  0  0  0  0  0
  146.2972  134.2430  162.4162 C   0  0  0  0  0  0  0  0  0  0  0  0
  146.8288  135.0103  163.4879 O   0  0  0  0  0  0  0  0  0  0  0  0
  147.9906  135.7399  163.1165 C   0  0  0  0  0  0  0  0  0  0  0  0
  147.6475  136.7463  162.0028 C   0  0  0  0  0  0  0  0  0  0  0  0
  153.4303  138.1797  157.6344 C   0  0  0  0  0  0  0  0  0  0  0  0
  152.9064  139.3562  158.4811 C   0  0  0  0  0  0  0  0  0  0  0  0
  151.3301  146.2411  158.6642 H   0  0  0  0  0  0  0  0  0  0  0  0
  152.9144  146.2013  159.4295 H   0  0  0  0  0  0  0  0  0  0  0  0
  151.5794  145.2695  160.1105 H   0  0  0  0  0  0  0  0  0  0  0  0
  151.5194  143.8563  158.0352 H   0  0  0  0  0  0  0  0  0  0  0  0
  152.8356  144.7747  157.3590 H   0  0  0  0  0  0  0  0  0  0  0  0
  151.1512  141.4286  158.9738 H   0  0  0  0  0  0  0  0  0  0  0  0
  151.7439  142.4785  157.7079 H   0  0  0  0  0  0  0  0  0  0  0  0
  150.5958  139.8085  157.0374 H   0  0  0  0  0  0  0  0  0  0  0  0
  151.3257  140.9426  155.9160 H   0  0  0  0  0  0  0  0  0  0  0  0
  151.3467  138.6374  154.9848 H   0  0  0  0  0  0  0  0  0  0  0  0
  152.9641  139.2594  155.1687 H   0  0  0  0  0  0  0  0  0  0  0  0
  150.2262  134.2166  155.4168 H   0  0  0  0  0  0  0  0  0  0  0  0
  149.4807  137.5811  160.8549 H   0  0  0  0  0  0  0  0  0  0  0  0
  147.6275  134.6624  159.1867 H   0  0  0  0  0  0  0  0  0  0  0  0
  148.5587  134.5334  160.6385 H   0  0  0  0  0  0  0  0  0  0  0  0
  145.6695  137.7822  160.4146 H   0  0  0  0  0  0  0  0  0  0  0  0
  147.1493  137.8635  159.5007 H   0  0  0  0  0  0  0  0  0  0  0  0
  144.9795  137.1639  158.5248 H   0  0  0  0  0  0  0  0  0  0  0  0
  145.0510  135.8022  161.6488 H   0  0  0  0  0  0  0  0  0  0  0  0
  145.4230  134.5960  160.4589 H   0  0  0  0  0  0  0  0  0  0  0  0
  145.4384  133.6807  162.7831 H   0  0  0  0  0  0  0  0  0  0  0  0
  147.0306  133.5084  162.0845 H   0  0  0  0  0  0  0  0  0  0  0  0
  148.3598  136.2714  163.9937 H   0  0  0  0  0  0  0  0  0  0  0  0
  148.7841  135.0573  162.8113 H   0  0  0  0  0  0  0  0  0  0  0  0
  148.5434  137.3020  161.7240 H   0  0  0  0  0  0  0  0  0  0  0  0
  146.9549  137.4811  162.4158 H   0  0  0  0  0  0  0  0  0  0  0  0
  153.6674  137.3235  158.2673 H   0  0  0  0  0  0  0  0  0  0  0  0
  154.3675  138.4663  157.1563 H   0  0  0  0  0  0  0  0  0  0  0  0
  153.6810  139.6608  159.1850 H   0  0  0  0  0  0  0  0  0  0  0  0
  152.0495  139.0420  159.0779 H   0  0  0  0  0  0  0  0  0  0  0  0
  153.3390  140.8035  157.1346 H   0  0  0  0  0  0  0  0  0  0  0  0
  1  2  1  0  0  0  0
  1 31  1  0  0  0  0
  1 32  1  0  0  0  0
  1 33  1  0  0  0  0
  2  3  1  0  0  0  0
  2 34  1  0  0  0  0
  2 35  1  0  0  0  0
  3  4  1  0  0  0  0
  4  5  2  0  0  0  0
  4  6  1  0  0  0  0
  6  7  1  0  0  0  0
  6 36  1  0  0  0  0
  6 37  1  0  0  0  0
  7 30  1  0  0  0  0
  7  8  1  0  0  0  0
  7 61  1  0  0  0  0
  8  9  1  0  0  0  0
  8 38  1  0  0  0  0
  8 39  1  0  0  0  0
  9 10  1  0  0  0  0
  9 40  1  0  0  0  0
  9 41  1  0  0  0  0
 10 11  1  0  0  0  0
 10 29  1  0  0  0  0
 11 16  1  0  0  0  0
 11 12  2  0  0  0  0
 12 13  1  0  0  0  0
 13 14  2  0  0  0  0
 13 42  1  0  0  0  0
 14 15  1  0  0  0  0
 15 19  1  0  0  0  0
 15 16  2  0  0  0  0
 16 17  1  0  0  0  0
 17 18  2  0  0  0  0
 18 19  1  0  0  0  0
 18 43  1  0  0  0  0
 19 20  1  0  0  0  0
 20 21  1  0  0  0  0
 20 44  1  0  0  0  0
 20 45  1  0  0  0  0
 21 28  1  0  0  0  0
 21 22  1  0  0  0  0
 21 24  1  0  0  0  0
 22 23  1  0  0  0  0
 22 46  1  0  0  0  0
 22 47  1  0  0  0  0
 23 48  1  0  0  0  0
 24 25  1  0  0  0  0
 24 49  1  0  0  0  0
 24 50  1  0  0  0  0
 25 26  1  0  0  0  0
 25 51  1  0  0  0  0
 25 52  1  0  0  0  0
 26 27  1  0  0  0  0
 27 28  1  0  0  0  0
 27 53  1  0  0  0  0
 27 54  1  0  0  0  0
 28 55  1  0  0  0  0
 28 56  1  0  0  0  0
 29 30  1  0  0  0  0
 29 57  1  0  0  0  0
 29 58  1  0  0  0  0
 30 59  1  0  0  0  0
 30 60  1  0  0  0  0
M  CHG  1   3  -1
M  CHG  1   7   1
M  END
> <s_m_source_file>
AV-unprocessed.smi

> <i_m_source_file_index>
269

> <i_lp_mmshare_version>
43012

> <i_f3d_flags>
0

> <s_epik_input>
W0NIM11bQ0gyXVtOSF1DKD1PKVtDSDJdTjFbQ0gyXVtDSDJdTihbQ0gyXVtDSDJdMSljKG5bY0hdbjIpYyhjMjMpbltjSF1uM1tDSDJdQzQoW0NIMl1bT0hdKVtDSDJdW0NIMl1PW0NIMl1bQ0gyXTQ=

> <s_epik_cmdline>
J2VwaWtfcHl0aG9uJywgJy1waCcsICc3LjAnLCAnLXRuJywgJzgnLCAnLW1hJywgJzIwMCcsICctbWV0YWxfYmluZGluZycsICctaW1hZScsICc8aW5maWxlLm1hZT4nLCAnLW9tYWUnLCAnPG91dGZpbGUubWFlPic=

> <r_lp_tautomer_probability>
1

> <r_epik_Ionization_Penalty>
6.2463

> <r_epik_Ionization_Penalty_Charging>
6.24626

> <r_epik_Ionization_Penalty_Neutral>
4.36947e-05

> <r_epik_State_Penalty>
6.38251

> <r_epik_Charging_Adjusted_Penalty>
12.6288

> <i_epik_Tot_Q>
0

> <i_epik_Tot_abs_Q>
2

> <r_epik_Metal_State_Penalty>
2.3175

> <b_epik_Metal_Only>
1

> <s_lp_Force_Field>
OPLS_2005

> <r_lp_Energy>
38.3131

> <b_lp_Chiralities_Consistent>
1

> <s_lp_Variant>
AV-unprocessed.smi:269-3

> <Gold.Version>
5.8.1

> <Gold.Id.Protein>
6NUR|6NUR_protein|mol2

> <Gold.PLP.Fitness>
45.7602

> <Gold.PLP.PLP>
-44.0956

> <Gold.PLP.part.hbond>
-1.6117

> <Gold.PLP.part.metal>
0.0000

> <Gold.PLP.part.buried>
-4.7977

> <Gold.PLP.part.nonpolar>
-37.6348

> <Gold.PLP.part.repulsive>
0.2284

> <Gold.PLP.ligand.clash>
0.0080

> <Gold.PLP.ligand.torsion>
0.9753

> <Gold.PLP.Chemscore.Hbond>
0.9913

> <Gold.PLP.Chemscore.CHOScore>
0.0000

> <Gold.PLP.Chemscore.Metal>
0.0000

> <Gold.Chemscore.Hbonds>
donor molecule, donor type, donor heavy atom, donor atom, acceptor molecule, acceptor atom, score
      P1  H 10752 10763       L1    12  0.89

> <Gold.PLP.Chemscore.Internal.Correction>
0.6494

> <Gold.Rescore>
     Score         DG    S(hbond)    S(metal)    S(lipo)     H(rot)  DE(clash)    DE(int)     intcor
      7.97     -11.06       0.83        0.00      95.76       3.28       0.07       3.01       ----

> <Gold.Chemscore.Fitness>
7.9697

> <Gold.Chemscore.DG>
-11.0584

> <Gold.Chemscore.ZeroCoef>
-5.4800

> <Gold.Chemscore.Hbond>
0.8309

> <Gold.Chemscore.Metal>
0.0000

> <Gold.Chemscore.Lipo>
95.7618

> <Gold.Chemscore.Internal_Hbond>
0.0000

> <Gold.Chemscore.DEClash>
0.0742

> <Gold.Chemscore.DEInternal>
3.0145

> <Gold.Chemscore.Rot>
3.2816

> <Gold.Chemscore.Internal.Correction>
   9.000000E+99

> <Gold.Chemscore.Hbonds>
donor molecule, donor type, donor heavy atom, donor atom, acceptor molecule, acceptor atom, score
      P1  H 10752 10763       L1    12  0.59

> <Gold.Chemscore.Hbond.Weighted>
-2.7752

> <Gold.Chemscore.Metal.Weighted>
-0.0000

> <Gold.Chemscore.Lipo.Weighted>
-11.2041

> <Gold.Chemscore.Internal_Hbond.Weighted>
0.0000

> <Gold.Chemscore.DEClash.Weighted>
0.0742

> <Gold.Chemscore.DEInternal.Weighted>
3.0145

> <Gold.Chemscore.Rot.Weighted>
8.4009

> <Gold.Chemscore.Internal.Correction.Weighted>
   9.000000E+99

> <Gold.Protein.RotatedTorsions>
[ 6907 6896 6895 6894 ] final  158.89 input  -60.11 | X-H torsion
[ 7974 7965 7964 7962 ] final -177.19 input  175.53 | X-H torsion
[ 8008 7997 7996 7995 ] final    1.15 input   59.86 | X-H torsion
[ 10167 10162 10161 10158 ] final   32.78 input  -65.29 | X-H torsion
[ 10718 10713 10712 10709 ] final  147.87 input   66.30 | X-H torsion
[ 10763 10752 10751 10750 ] final   75.25 input  -60.55 | X-H torsion
[ 11005 11000 10999 10996 ] final  155.87 input  -57.11 | X-H torsion

> <Gold.Protein.ActiveResidues>
 VAL166  LYS551  ARG553  GLY616  TRP617  ASP618  TYR619  PRO620  LYS621  CYS622 
 ASP623  PHE694  ASN695  SER759  ASP760  ASP761  ALA762  ILE779  LEU786  VAL792 
 PHE793  MET794  SER795  GLU796  ALA797  LYS798  CYS799  TRP800  GLU811  SER814 

> <Gold.Protein.RotatedAtoms>
  151.9937  133.3800  159.4154 H   0  0  0  0  0  0  0  0  0  0  0  0  # atno 6907 bound_to 6896
  150.6918  134.3909  159.5085 H   0  0  0  0  0  0  0  0  0  0  0  0  # atno 6908 bound_to 6896
  152.1646  134.8884  160.0590 H   0  0  0  0  0  0  0  0  0  0  0  0  # atno 6909 bound_to 6896
  144.7127  140.1057  143.6414 H   0  0  0  0  0  0  0  0  0  0  0  0  # atno 7974 bound_to 7965
  154.6763  140.2623  155.6954 H   0  0  0  0  0  0  0  0  0  0  0  0  # atno 8008 bound_to 7997
  156.2679  140.2819  156.1214 H   0  0  0  0  0  0  0  0  0  0  0  0  # atno 8009 bound_to 7997
  155.1095  140.0375  157.2710 H   0  0  0  0  0  0  0  0  0  0  0  0  # atno 8010 bound_to 7997
  140.4467  144.1108  150.6184 H   0  0  0  0  0  0  0  0  0  0  0  0  # atno 10167 bound_to 10162
  157.3156  131.0895  151.1281 H   0  0  0  0  0  0  0  0  0  0  0  0  # atno 10718 bound_to 10713
  153.0642  135.4995  154.8162 H   0  0  0  0  0  0  0  0  0  0  0  0  # atno 10763 bound_to 10752
  154.6929  135.2987  154.9456 H   0  0  0  0  0  0  0  0  0  0  0  0  # atno 10764 bound_to 10752
  154.0205  135.6742  153.4825 H   0  0  0  0  0  0  0  0  0  0  0  0  # atno 10765 bound_to 10752
  140.1622  134.8602  157.2588 H   0  0  0  0  0  0  0  0  0  0  0  0  # atno 11005 bound_to 11000
  145.9499  139.2726  143.1218 LP  0  0  0  0  0  0  0  0  0  0  0  0  # atno 17320 bound_to 7965
  145.9334  140.9032  143.0344 LP  0  0  0  0  0  0  0  0  0  0  0  0  # atno 17321 bound_to 7965
  140.4255  143.2592  151.9662 LP  0  0  0  0  0  0  0  0  0  0  0  0  # atno 17342 bound_to 10162
  139.4793  144.5792  151.7961 LP  0  0  0  0  0  0  0  0  0  0  0  0  # atno 17343 bound_to 10162
  157.2586  130.6648  149.5964 LP  0  0  0  0  0  0  0  0  0  0  0  0  # atno 17370 bound_to 10713
  155.9681  130.4516  150.5740 LP  0  0  0  0  0  0  0  0  0  0  0  0  # atno 17371 bound_to 10713
  140.2476  134.3721  155.7455 LP  0  0  0  0  0  0  0  0  0  0  0  0  # atno 17394 bound_to 11000
  141.2210  133.7299  156.8886 LP  0  0  0  0  0  0  0  0  0  0  0  0  # atno 17395 bound_to 11000

$$$$
