AV-unprocessed.smi:2695|AV-procd|sdf|10409|dock3
  -GOLD-   2272014443D 1   1.00000     0.00000
 Structure written by MMmdl.
 42 43  0  0  0  0  0  0  0  0  1 V2000
  147.2503  142.4117  153.9167 C   0  0  0  0  0  0  0  0  0  0  0  0
  147.0933  140.8985  154.0094 C   0  0  0  0  0  0  0  0  0  0  0  0
  147.0671  140.1338  152.9026 C   0  0  0  0  0  0  0  0  0  0  0  0
  146.8789  138.7088  153.0201 C   0  0  0  0  0  0  0  0  0  0  0  0
  146.8616  137.9427  151.9224 O   0  0  0  0  0  0  0  0  0  0  0  0
  146.7107  138.1576  154.2362 C   0  0  0  0  0  0  0  0  0  0  0  0
  146.7241  138.9630  155.4597 C   0  0  0  0  0  0  0  0  0  0  0  0
  146.5527  138.4489  156.5660 O   0  0  0  0  0  0  0  0  0  0  0  0
  146.9421  140.3083  155.2988 N   0  0  0  0  0  0  0  0  0  0  0  0
  147.0183  141.1571  156.5106 C   0  0  0  0  0  0  0  0  0  0  0  0
  148.1309  140.7408  157.4846 C   0  0  0  0  0  0  0  0  0  0  0  0
  148.0050  139.7497  158.2051 O   0  0  0  0  0  0  0  0  0  0  0  0
  149.2134  141.5334  157.5027 N   0  0  0  0  0  0  0  0  0  0  0  0
  150.3976  141.3563  158.3459 C   0  0  2  0  0  0  0  0  0  0  0  0
  151.1684  142.6988  158.4492 C   0  0  0  0  0  0  0  0  0  0  0  0
  152.1315  142.8050  159.6394 C   0  0  0  0  0  0  0  0  0  0  0  0
  152.3381  144.3053  159.8866 C   0  0  0  0  0  0  0  0  0  0  0  0
  151.2132  145.0286  159.1347 C   0  0  0  0  0  0  0  0  0  0  0  0
  150.2734  143.9317  158.6321 C   0  0  0  0  0  0  0  0  0  0  0  0
  151.2403  140.1920  157.7767 C   0  0  0  0  0  0  0  0  0  0  0  0
  150.5701  139.0458  157.9032 F   0  0  0  0  0  0  0  0  0  0  0  0
  151.5051  140.3909  156.4849 F   0  0  0  0  0  0  0  0  0  0  0  0
  152.3894  140.0640  158.4389 F   0  0  0  0  0  0  0  0  0  0  0  0
  147.0971  142.7509  152.8918 H   0  0  0  0  0  0  0  0  0  0  0  0
  148.2545  142.7125  154.2162 H   0  0  0  0  0  0  0  0  0  0  0  0
  146.5217  142.9378  154.5332 H   0  0  0  0  0  0  0  0  0  0  0  0
  147.1711  140.5828  151.9253 H   0  0  0  0  0  0  0  0  0  0  0  0
  147.6999  137.5106  151.8631 H   0  0  0  0  0  0  0  0  0  0  0  0
  146.5646  137.0903  154.3211 H   0  0  0  0  0  0  0  0  0  0  0  0
  147.1787  142.2021  156.2382 H   0  0  0  0  0  0  0  0  0  0  0  0
  146.0702  141.1837  157.0458 H   0  0  0  0  0  0  0  0  0  0  0  0
  149.2258  142.3243  156.8750 H   0  0  0  0  0  0  0  0  0  0  0  0
  150.0869  141.0665  159.3513 H   0  0  0  0  0  0  0  0  0  0  0  0
  151.7470  142.8445  157.5356 H   0  0  0  0  0  0  0  0  0  0  0  0
  151.6795  142.3542  160.5240 H   0  0  0  0  0  0  0  0  0  0  0  0
  153.0766  142.2932  159.4555 H   0  0  0  0  0  0  0  0  0  0  0  0
  152.3120  144.5271  160.9538 H   0  0  0  0  0  0  0  0  0  0  0  0
  153.3092  144.6297  159.5110 H   0  0  0  0  0  0  0  0  0  0  0  0
  150.6941  145.7537  159.7623 H   0  0  0  0  0  0  0  0  0  0  0  0
  151.6322  145.5708  158.2859 H   0  0  0  0  0  0  0  0  0  0  0  0
  149.7595  144.2215  157.7148 H   0  0  0  0  0  0  0  0  0  0  0  0
  149.5123  143.7294  159.3875 H   0  0  0  0  0  0  0  0  0  0  0  0
  1  2  1  0  0  0  0
  1 24  1  0  0  0  0
  1 25  1  0  0  0  0
  1 26  1  0  0  0  0
  2  9  1  0  0  0  0
  2  3  2  0  0  0  0
  3  4  1  0  0  0  0
  3 27  1  0  0  0  0
  4  5  1  0  0  0  0
  4  6  2  0  0  0  0
  5 28  1  0  0  0  0
  6  7  1  0  0  0  0
  6 29  1  0  0  0  0
  7  8  2  0  0  0  0
  7  9  1  0  0  0  0
  9 10  1  0  0  0  0
 10 11  1  0  0  0  0
 10 30  1  0  0  0  0
 10 31  1  0  0  0  0
 11 12  2  0  0  0  0
 11 13  1  0  0  0  0
 13 14  1  0  0  0  0
 13 32  1  0  0  0  0
 14 15  1  0  0  0  0
 14 20  1  0  0  0  0
 14 33  1  0  0  0  0
 15 19  1  0  0  0  0
 15 16  1  0  0  0  0
 15 34  1  0  0  0  0
 16 17  1  0  0  0  0
 16 35  1  0  0  0  0
 16 36  1  0  0  0  0
 17 18  1  0  0  0  0
 17 37  1  0  0  0  0
 17 38  1  0  0  0  0
 18 19  1  0  0  0  0
 18 39  1  0  0  0  0
 18 40  1  0  0  0  0
 19 41  1  0  0  0  0
 19 42  1  0  0  0  0
 20 21  1  0  0  0  0
 20 22  1  0  0  0  0
 20 23  1  0  0  0  0
M  END
> <s_m_source_file>
AV-unprocessed.smi

> <i_m_source_file_index>
2695

> <i_lp_mmshare_version>
43012

> <i_f3d_flags>
0

> <s_epik_input>
W0NIM11jMVtjSF1jKFtPSF0pW2NIXWMoPU8pbjFbQ0gyXUMoPU8pW05IXVtDQEBIXShDKEYpKEYpRilbQ0hdMltDSDJdW0NIMl1bQ0gyXVtDSDJdMg==

> <s_epik_cmdline>
J2VwaWtfcHl0aG9uJywgJy1waCcsICc3LjAnLCAnLXRuJywgJzgnLCAnLW1hJywgJzIwMCcsICctbWV0YWxfYmluZGluZycsICctaW1hZScsICc8aW5maWxlLm1hZT4nLCAnLW9tYWUnLCAnPG91dGZpbGUubWFlPic=

> <r_lp_tautomer_probability>
0.999984

> <r_epik_Ionization_Penalty>
0.843628

> <r_epik_Ionization_Penalty_Charging>
1.18449e-07

> <r_epik_Ionization_Penalty_Neutral>
0.843628

> <r_epik_State_Penalty>
0.886913

> <r_epik_Charging_Adjusted_Penalty>
0.886913

> <i_epik_Tot_Q>
0

> <i_epik_Tot_abs_Q>
0

> <r_epik_Metal_State_Penalty>
0.886913

> <b_epik_Metal_Only>
0

> <s_lp_Force_Field>
OPLS_2005

> <r_lp_Energy>
35.2102

> <b_lp_Chiralities_Consistent>
1

> <s_lp_Variant>
AV-unprocessed.smi:2695-3

> <Gold.Version>
5.8.1

> <Gold.Id.Protein>
6NUR|6NUR_protein|mol2

> <Gold.PLP.Fitness>
40.5292

> <Gold.PLP.PLP>
-38.7411

> <Gold.PLP.part.hbond>
-2.6989

> <Gold.PLP.part.metal>
0.0000

> <Gold.PLP.part.buried>
-4.0902

> <Gold.PLP.part.nonpolar>
-31.7344

> <Gold.PLP.part.repulsive>
0.0662

> <Gold.PLP.ligand.clash>
0.0098

> <Gold.PLP.ligand.torsion>
0.8221

> <Gold.PLP.Chemscore.Hbond>
1.0000

> <Gold.PLP.Chemscore.CHOScore>
0.0000

> <Gold.PLP.Chemscore.Metal>
0.0000

> <Gold.Chemscore.Hbonds>
donor molecule, donor type, donor heavy atom, donor atom, acceptor molecule, acceptor atom, score
      L1  H     5    28       P1  7948  1.00

> <Gold.PLP.Chemscore.Internal.Correction>
0.4421

> <Gold.Rescore>
     Score         DG    S(hbond)    S(metal)    S(lipo)     H(rot)  DE(clash)    DE(int)     intcor
      8.47     -13.56       1.00        0.00      92.17       2.36       0.11       4.98       ----

> <Gold.Chemscore.Fitness>
8.4693

> <Gold.Chemscore.DG>
-13.5577

> <Gold.Chemscore.ZeroCoef>
-5.4800

> <Gold.Chemscore.Hbond>
0.9986

> <Gold.Chemscore.Metal>
0.0000

> <Gold.Chemscore.Lipo>
92.1691

> <Gold.Chemscore.Internal_Hbond>
0.0000

> <Gold.Chemscore.DEClash>
0.1110

> <Gold.Chemscore.DEInternal>
4.9774

> <Gold.Chemscore.Rot>
2.3599

> <Gold.Chemscore.Internal.Correction>
   9.000000E+99

> <Gold.Chemscore.Hbonds>
donor molecule, donor type, donor heavy atom, donor atom, acceptor molecule, acceptor atom, score
      L1  H     5    28       P1  7948  1.00

> <Gold.Chemscore.Hbond.Weighted>
-3.3352

> <Gold.Chemscore.Metal.Weighted>
-0.0000

> <Gold.Chemscore.Lipo.Weighted>
-10.7838

> <Gold.Chemscore.Internal_Hbond.Weighted>
0.0000

> <Gold.Chemscore.DEClash.Weighted>
0.1110

> <Gold.Chemscore.DEInternal.Weighted>
4.9774

> <Gold.Chemscore.Rot.Weighted>
6.0413

> <Gold.Chemscore.Internal.Correction.Weighted>
   9.000000E+99

> <Gold.Protein.RotatedTorsions>
[ 6907 6896 6895 6894 ] final   92.85 input  -60.11 | X-H torsion
[ 7974 7965 7964 7962 ] final  151.79 input  175.53 | X-H torsion
[ 8008 7997 7996 7995 ] final  142.78 input   59.86 | X-H torsion
[ 10167 10162 10161 10158 ] final  -49.52 input  -65.29 | X-H torsion
[ 10718 10713 10712 10709 ] final   54.83 input   66.30 | X-H torsion
[ 10763 10752 10751 10750 ] final  -41.10 input  -60.55 | X-H torsion
[ 11005 11000 10999 10996 ] final   18.09 input  -57.11 | X-H torsion

> <Gold.Protein.ActiveResidues>
 VAL166  LYS551  ARG553  GLY616  TRP617  ASP618  TYR619  PRO620  LYS621  CYS622 
 ASP623  PHE694  ASN695  SER759  ASP760  ASP761  ALA762  ILE779  LEU786  VAL792 
 PHE793  MET794  SER795  GLU796  ALA797  LYS798  CYS799  TRP800  GLU811  SER814 

> <Gold.Protein.RotatedAtoms>
  152.5453  134.1439  159.8490 H   0  0  0  0  0  0  0  0  0  0  0  0  # atno 6907 bound_to 6896
  151.1472  133.4924  159.2603 H   0  0  0  0  0  0  0  0  0  0  0  0  # atno 6908 bound_to 6896
  151.1510  135.0238  159.8723 H   0  0  0  0  0  0  0  0  0  0  0  0  # atno 6909 bound_to 6896
  144.8267  139.6584  143.6076 H   0  0  0  0  0  0  0  0  0  0  0  0  # atno 7974 bound_to 7965
  156.2943  140.2279  156.4784 H   0  0  0  0  0  0  0  0  0  0  0  0  # atno 8008 bound_to 7997
  154.7874  140.0456  157.1196 H   0  0  0  0  0  0  0  0  0  0  0  0  # atno 8009 bound_to 7997
  154.9686  140.3063  155.5002 H   0  0  0  0  0  0  0  0  0  0  0  0  # atno 8010 bound_to 7997
  140.6681  143.2694  151.4226 H   0  0  0  0  0  0  0  0  0  0  0  0  # atno 10167 bound_to 10162
  157.5292  130.8618  149.8663 H   0  0  0  0  0  0  0  0  0  0  0  0  # atno 10718 bound_to 10713
  153.9569  135.6744  153.4744 H   0  0  0  0  0  0  0  0  0  0  0  0  # atno 10763 bound_to 10752
  153.0857  135.4900  154.8589 H   0  0  0  0  0  0  0  0  0  0  0  0  # atno 10764 bound_to 10752
  154.7294  135.3135  154.8875 H   0  0  0  0  0  0  0  0  0  0  0  0  # atno 10765 bound_to 10752
  140.4287  134.1443  155.7678 H   0  0  0  0  0  0  0  0  0  0  0  0  # atno 11005 bound_to 11000
  146.2572  139.6329  142.9386 LP  0  0  0  0  0  0  0  0  0  0  0  0  # atno 17320 bound_to 7965
  145.4984  141.0438  143.2554 LP  0  0  0  0  0  0  0  0  0  0  0  0  # atno 17321 bound_to 7965
  139.5938  144.1441  152.2120 LP  0  0  0  0  0  0  0  0  0  0  0  0  # atno 17342 bound_to 10162
  140.0804  144.5705  150.7126 LP  0  0  0  0  0  0  0  0  0  0  0  0  # atno 17343 bound_to 10162
  156.0409  130.3739  150.1437 LP  0  0  0  0  0  0  0  0  0  0  0  0  # atno 17370 bound_to 10713
  156.9622  130.9808  151.3476 LP  0  0  0  0  0  0  0  0  0  0  0  0  # atno 17371 bound_to 10713
  141.1754  133.8524  157.1436 LP  0  0  0  0  0  0  0  0  0  0  0  0  # atno 17394 bound_to 11000
  140.0149  134.9972  157.0473 LP  0  0  0  0  0  0  0  0  0  0  0  0  # atno 17395 bound_to 11000

$$$$
