#       Name:                AV-unprocessed.smi:407
#       Creating user name   scv26
#       Creation time:       Thu Mar 26 22:45:05 2020


#       File generated by GOLD software.
#

@<TRIPOS>MOLECULE
AV-unprocessed.smi:407
    53    55     1
SMALL
NO_CHARGES


@<TRIPOS>ATOM
      1 ****        -7.4065   3.7236  -0.5310 C.3            1 S1                 0.0000
      2 ****        -6.9738   2.2649  -0.6696 C.2            1 S1                 0.0000
      3 ****        -7.8273   1.4173  -0.9294 O.2            1 S1                 0.0000
      4 ****        -5.5302   1.9464  -0.4786 C.ar           1 S1                 0.0000
      5 ****        -4.5763   2.9502  -0.1922 C.ar           1 S1                 0.0000
      6 ****        -3.2199   2.6158  -0.0154 C.ar           1 S1                 0.0000
      7 ****        -2.7833   1.2804  -0.1170 C.ar           1 S1                 0.0000
      8 ****        -1.4391   1.0442   0.0753 O.3            1 S1                 0.0000
      9 ****        -0.9766  -0.2993   0.0248 C.3            1 S1                 0.0000
     10 ****         0.5368  -0.3129   0.2969 C.3            1 S1                 0.0000
     11 ****         0.7119  -0.2059   1.6961 O.3            1 S1                 0.0000
     12 ****         1.1927  -1.6330  -0.1591 C.3            1 S1                 0.0000
     13 ****         2.6392  -1.4902  -0.3195 N.am           1 S1                 0.0000
     14 ****         3.2833  -0.9776  -1.3951 C.2            1 S1                 0.0000
     15 ****         2.7501  -0.5533  -2.4204 O.2            1 S1                 0.0000
     16 ****         4.6122  -1.0047  -1.1406 N.am           1 S1                 0.0000
     17 ****         5.6818  -0.5410  -2.0161 C.3            1 S1                 0.0000
     18 ****         4.8246  -1.5352   0.1381 C.ar           1 S1                 0.0000
     19 ****         6.0102  -1.7546   0.8601 C.ar           1 S1                 0.0000
     20 ****         5.8840  -2.3111   2.1545 C.ar           1 S1                 0.0000
     21 ****         4.6077  -2.6272   2.6887 C.ar           1 S1                 0.0000
     22 ****         3.4303  -2.3945   1.9397 C.ar           1 S1                 0.0000
     23 ****         3.5837  -1.8425   0.6558 C.ar           1 S1                 0.0000
     24 ****        -3.7370   0.2743  -0.4072 C.ar           1 S1                 0.0000
     25 ****        -5.0938   0.6068  -0.5854 C.ar           1 S1                 0.0000
     26 ****        -7.1757   4.0974   0.4667 H              1 S1                 0.0000
     27 ****        -8.4807   3.8196  -0.6904 H              1 S1                 0.0000
     28 ****        -6.8964   4.3459  -1.2665 H              1 S1                 0.0000
     29 ****        -4.8619   3.9875  -0.1019 H              1 S1                 0.0000
     30 ****        -2.5052   3.3956   0.2039 H              1 S1                 0.0000
     31 ****        -1.5054  -0.9367   0.7361 H              1 S1                 0.0000
     32 ****        -1.1687  -0.6866  -0.9771 H              1 S1                 0.0000
     33 ****         1.0041   0.5355  -0.2052 H              1 S1                 0.0000
     34 ****         0.2705  -0.9312   2.1106 H              1 S1                 0.0000
     35 ****         0.9519  -2.4514   0.5207 H              1 S1                 0.0000
     36 ****         0.7860  -1.9314  -1.1267 H              1 S1                 0.0000
     37 ****         6.4887  -1.2738  -2.0534 H              1 S1                 0.0000
     38 ****         6.0898   0.3988  -1.6433 H              1 S1                 0.0000
     39 ****         5.3318  -0.3790  -3.0367 H              1 S1                 0.0000
     40 ****         6.9774  -1.5087   0.4473 H              1 S1                 0.0000
     41 ****         6.7699  -2.4965   2.7440 H              1 S1                 0.0000
     42 ****         4.5339  -3.0492   3.6801 H              1 S1                 0.0000
     43 ****         2.4570  -2.6301   2.3438 H              1 S1                 0.0000
     44 ****        -3.4540  -0.7631  -0.4996 H              1 S1                 0.0000
     45 ****        -5.7966  -0.1842  -0.8044 H              1 S1                 0.0000
     46 ****        -8.7827   1.6890  -1.0455 LP             1 S1                 0.0000
     47 ****        -7.5655   0.4569  -1.0244 LP             1 S1                 0.0000
     48 ****        -1.2011   1.4055   0.9768 LP             1 S1                 0.0000
     49 ****        -0.9452   1.5540  -0.6292 LP             1 S1                 0.0000
     50 ****         0.3213   0.6559   2.0198 LP             1 S1                 0.0000
     51 ****         1.6868  -0.2338   1.9169 LP             1 S1                 0.0000
     52 ****         1.7542  -0.5696  -2.5096 LP             1 S1                 0.0000
     53 ****         3.3128  -0.1923  -3.1641 LP             1 S1                 0.0000
@<TRIPOS>BOND
    1    1    2 1     
    2    1   26 1     
    3    1   27 1     
    4    1   28 1     
    5    2    3 2     
    6    2    4 1     
    7    4   25 ar    
    8    4    5 ar    
    9    5    6 ar    
   10    5   29 1     
   11    6    7 ar    
   12    6   30 1     
   13    7    8 1     
   14    7   24 ar    
   15    8    9 1     
   16    9   10 1     
   17    9   31 1     
   18    9   32 1     
   19   10   11 1     
   20   10   12 1     
   21   10   33 1     
   22   11   34 1     
   23   12   13 1     
   24   12   35 1     
   25   12   36 1     
   26   13   23 1     
   27   13   14 am    
   28   14   15 2     
   29   14   16 am    
   30   16   17 1     
   31   16   18 1     
   32   17   37 1     
   33   17   38 1     
   34   17   39 1     
   35   18   23 ar    
   36   18   19 ar    
   37   19   20 ar    
   38   19   40 1     
   39   20   21 ar    
   40   20   41 1     
   41   21   22 ar    
   42   21   42 1     
   43   22   23 ar    
   44   22   43 1     
   45   24   25 ar    
   46   24   44 1     
   47   25   45 1     
   48    3   46 1     
   49    3   47 1     
   50    8   48 1     
   51    8   49 1     
   52   11   50 1     
   53   11   51 1     
   54   15   52 1     
   55   15   53 1     
@<TRIPOS>SUBSTRUCTURE
      1 S1             1
@<TRIPOS>SET
LONE_PAIRS      STATIC     ATOMS    <user>   **** ""
8 46 47 48 49 50 51 52 53
DONOR_HYDROGENS      STATIC     ATOMS    <user>   **** ""
1 34
ATOM$BLUE        STATIC     ATOMS    COLORGROUP SYSTEM
8 46 47 48 49 50 51 52 53
ATOM$RED        STATIC     ATOMS    COLORGROUP SYSTEM
1 34
