AV-unprocessed.smi:1690|AV-procd|sdf|6773|dock5
  -GOLD-   22720 7533D 1   1.00000     0.00000
 Structure written by MMmdl.
 37 38  0  0  0  0  0  0  0  0  1 V2000
  151.0036  144.4790  160.2251 C   0  0  0  0  0  0  0  0  0  0  0  0
  152.3253  144.1452  159.5182 C   0  0  0  0  0  0  0  0  0  0  0  0
  152.4277  144.7553  158.1125 C   0  0  0  0  0  0  0  0  0  0  0  0
  152.6065  142.6757  159.5131 C   0  0  0  0  0  0  0  0  0  0  0  0
  151.8797  141.7848  158.8319 N   0  0  0  0  0  0  0  0  0  0  0  0
  152.3547  140.4765  158.9719 C   0  0  0  0  0  0  0  0  0  0  0  0
  151.6682  139.3493  158.2550 C   0  0  0  0  0  0  0  0  0  0  0  0
  151.5891  139.6382  156.7540 C   0  0  0  0  0  0  0  0  0  0  0  0
  152.6185  139.6848  156.0806 O   0  0  0  0  0  0  0  0  0  0  0  0
  150.3612  139.8210  156.2428 N   0  0  0  0  0  0  0  0  0  0  0  0
  150.0607  140.1209  154.8462 C   0  0  0  0  0  0  0  0  0  0  0  0
  149.1470  141.3577  154.7409 C   0  0  0  0  0  0  0  0  0  0  0  0
  147.9843  140.9527  153.8324 C   0  0  0  0  0  0  0  0  0  0  0  0
  147.8516  139.4464  154.0332 C   0  0  0  0  0  0  0  0  0  0  0  0
  149.2946  138.9629  154.1783 C   0  0  0  0  0  0  0  0  0  0  0  0
  153.4527  140.3863  159.7913 C   0  0  0  0  0  0  0  0  0  0  0  0
  153.9377  141.9439  160.4026 S   0  0  0  0  0  0  0  0  0  0  0  0
  151.0002  144.1015  161.2482 H   0  0  0  0  0  0  0  0  0  0  0  0
  150.1528  144.0387  159.7044 H   0  0  0  0  0  0  0  0  0  0  0  0
  150.8434  145.5565  160.2701 H   0  0  0  0  0  0  0  0  0  0  0  0
  153.1158  144.6066  160.1115 H   0  0  0  0  0  0  0  0  0  0  0  0
  153.4096  144.5704  157.6757 H   0  0  0  0  0  0  0  0  0  0  0  0
  152.2763  145.8345  158.1405 H   0  0  0  0  0  0  0  0  0  0  0  0
  151.6795  144.3327  157.4412 H   0  0  0  0  0  0  0  0  0  0  0  0
  152.2031  138.4125  158.4162 H   0  0  0  0  0  0  0  0  0  0  0  0
  150.6593  139.1978  158.6411 H   0  0  0  0  0  0  0  0  0  0  0  0
  149.5752  139.7620  156.8744 H   0  0  0  0  0  0  0  0  0  0  0  0
  150.9878  140.3078  154.3008 H   0  0  0  0  0  0  0  0  0  0  0  0
  148.7542  141.6327  155.7214 H   0  0  0  0  0  0  0  0  0  0  0  0
  149.6781  142.2279  154.3540 H   0  0  0  0  0  0  0  0  0  0  0  0
  147.0647  141.4910  154.0630 H   0  0  0  0  0  0  0  0  0  0  0  0
  148.2403  141.1613  152.7927 H   0  0  0  0  0  0  0  0  0  0  0  0
  147.3016  139.2446  154.9533 H   0  0  0  0  0  0  0  0  0  0  0  0
  147.3245  138.9569  153.2139 H   0  0  0  0  0  0  0  0  0  0  0  0
  149.7128  138.7822  153.1870 H   0  0  0  0  0  0  0  0  0  0  0  0
  149.3596  138.0227  154.7277 H   0  0  0  0  0  0  0  0  0  0  0  0
  154.0081  139.5013  160.0647 H   0  0  0  0  0  0  0  0  0  0  0  0
  1  2  1  0  0  0  0
  1 18  1  0  0  0  0
  1 19  1  0  0  0  0
  1 20  1  0  0  0  0
  2  3  1  0  0  0  0
  2  4  1  0  0  0  0
  2 21  1  0  0  0  0
  3 22  1  0  0  0  0
  3 23  1  0  0  0  0
  3 24  1  0  0  0  0
  4 17  1  0  0  0  0
  4  5  2  0  0  0  0
  5  6  1  0  0  0  0
  6  7  1  0  0  0  0
  6 16  2  0  0  0  0
  7  8  1  0  0  0  0
  7 25  1  0  0  0  0
  7 26  1  0  0  0  0
  8  9  2  0  0  0  0
  8 10  1  0  0  0  0
 10 11  1  0  0  0  0
 10 27  1  0  0  0  0
 11 15  1  0  0  0  0
 11 12  1  0  0  0  0
 11 28  1  0  0  0  0
 12 13  1  0  0  0  0
 12 29  1  0  0  0  0
 12 30  1  0  0  0  0
 13 14  1  0  0  0  0
 13 31  1  0  0  0  0
 13 32  1  0  0  0  0
 14 15  1  0  0  0  0
 14 33  1  0  0  0  0
 14 34  1  0  0  0  0
 15 35  1  0  0  0  0
 15 36  1  0  0  0  0
 16 17  1  0  0  0  0
 16 37  1  0  0  0  0
M  END
> <s_m_source_file>
AV-unprocessed.smi

> <i_m_source_file_index>
1690

> <i_lp_mmshare_version>
43012

> <i_f3d_flags>
0

> <s_epik_input>
W0NIM11bQ0hdKFtDSDNdKWMxbmMoW2NIXXMxKVtDSDJdQyg9TylbTkhdW0NIXTJbQ0gyXVtDSDJdW0NIMl1bQ0gyXTI=

> <s_epik_cmdline>
J2VwaWtfcHl0aG9uJywgJy1waCcsICc3LjAnLCAnLXRuJywgJzgnLCAnLW1hJywgJzIwMCcsICctbWV0YWxfYmluZGluZycsICctaW1hZScsICc8aW5maWxlLm1hZT4nLCAnLW9tYWUnLCAnPG91dGZpbGUubWFlPic=

> <r_lp_tautomer_probability>
1

> <r_epik_Ionization_Penalty>
4.81312e-05

> <r_epik_Ionization_Penalty_Charging>
0

> <r_epik_Ionization_Penalty_Neutral>
4.81312e-05

> <r_epik_State_Penalty>
-0

> <r_epik_Charging_Adjusted_Penalty>
0

> <i_epik_Tot_Q>
0

> <i_epik_Tot_abs_Q>
0

> <r_epik_Metal_State_Penalty>
-0

> <b_epik_Metal_Only>
0

> <s_lp_Force_Field>
OPLS_2005

> <r_lp_Energy>
9.48899

> <b_lp_Chiralities_Consistent>
1

> <s_lp_Variant>
AV-unprocessed.smi:1690-1

> <Gold.Version>
5.8.1

> <Gold.Id.Protein>
6NUR|6NUR_protein|mol2

> <Gold.PLP.Fitness>
44.1270

> <Gold.PLP.PLP>
-41.3841

> <Gold.PLP.part.hbond>
-1.0000

> <Gold.PLP.part.metal>
0.0000

> <Gold.PLP.part.buried>
-4.1531

> <Gold.PLP.part.nonpolar>
-36.4151

> <Gold.PLP.part.repulsive>
0.0417

> <Gold.PLP.ligand.clash>
0.0000

> <Gold.PLP.ligand.torsion>
0.1672

> <Gold.PLP.Chemscore.Hbond>
1.0000

> <Gold.PLP.Chemscore.CHOScore>
0.0000

> <Gold.PLP.Chemscore.Metal>
0.0000

> <Gold.Chemscore.Hbonds>
donor molecule, donor type, donor heavy atom, donor atom, acceptor molecule, acceptor atom, score
      P1  H  7997  8008       L1     9  1.00

> <Gold.PLP.Chemscore.Internal.Correction>
0.0774

> <Gold.Rescore>
     Score         DG    S(hbond)    S(metal)    S(lipo)     H(rot)  DE(clash)    DE(int)     intcor
     19.04     -19.45       0.99        0.00     120.64       1.35       0.22       0.19       ----

> <Gold.Chemscore.Fitness>
19.0382

> <Gold.Chemscore.DG>
-19.4450

> <Gold.Chemscore.ZeroCoef>
-5.4800

> <Gold.Chemscore.Hbond>
0.9890

> <Gold.Chemscore.Metal>
0.0000

> <Gold.Chemscore.Lipo>
120.6401

> <Gold.Chemscore.Internal_Hbond>
0.0000

> <Gold.Chemscore.DEClash>
0.2191

> <Gold.Chemscore.DEInternal>
0.1878

> <Gold.Chemscore.Rot>
1.3489

> <Gold.Chemscore.Internal.Correction>
   9.000000E+99

> <Gold.Chemscore.Hbonds>
donor molecule, donor type, donor heavy atom, donor atom, acceptor molecule, acceptor atom, score
      P1  H  7997  8008       L1     9  0.96

> <Gold.Chemscore.Hbond.Weighted>
-3.3033

> <Gold.Chemscore.Metal.Weighted>
-0.0000

> <Gold.Chemscore.Lipo.Weighted>
-14.1149

> <Gold.Chemscore.Internal_Hbond.Weighted>
0.0000

> <Gold.Chemscore.DEClash.Weighted>
0.2191

> <Gold.Chemscore.DEInternal.Weighted>
0.1878

> <Gold.Chemscore.Rot.Weighted>
3.4532

> <Gold.Chemscore.Internal.Correction.Weighted>
   9.000000E+99

> <Gold.Protein.RotatedTorsions>
[ 6907 6896 6895 6894 ] final -160.58 input  -60.11 | X-H torsion
[ 7974 7965 7964 7962 ] final  -44.58 input  175.53 | X-H torsion
[ 8008 7997 7996 7995 ] final  -58.08 input   59.86 | X-H torsion
[ 10167 10162 10161 10158 ] final   25.48 input  -65.29 | X-H torsion
[ 10718 10713 10712 10709 ] final  159.25 input   66.30 | X-H torsion
[ 10763 10752 10751 10750 ] final  -45.95 input  -60.55 | X-H torsion
[ 11005 11000 10999 10996 ] final  -85.22 input  -57.11 | X-H torsion

> <Gold.Protein.ActiveResidues>
 VAL166  LYS551  ARG553  GLY616  TRP617  ASP618  TYR619  PRO620  LYS621  CYS622 
 ASP623  PHE694  ASN695  SER759  ASP760  ASP761  ALA762  ILE779  LEU786  VAL792 
 PHE793  MET794  SER795  GLU796  ALA797  LYS798  CYS799  TRP800  GLU811  SER814 

> <Gold.Protein.RotatedAtoms>
  151.3512  133.3924  159.2680 H   0  0  0  0  0  0  0  0  0  0  0  0  # atno 6907 bound_to 6896
  150.9799  134.9157  159.7849 H   0  0  0  0  0  0  0  0  0  0  0  0  # atno 6908 bound_to 6896
  152.5213  134.3476  159.9292 H   0  0  0  0  0  0  0  0  0  0  0  0  # atno 6909 bound_to 6896
  145.9906  140.7184  142.9318 H   0  0  0  0  0  0  0  0  0  0  0  0  # atno 7974 bound_to 7965
  154.4294  140.1092  156.5901 H   0  0  0  0  0  0  0  0  0  0  0  0  # atno 8008 bound_to 7997
  155.6021  140.3493  155.4578 H   0  0  0  0  0  0  0  0  0  0  0  0  # atno 8009 bound_to 7997
  156.0165  140.1230  157.0390 H   0  0  0  0  0  0  0  0  0  0  0  0  # atno 8010 bound_to 7997
  140.5103  144.0172  150.6369 H   0  0  0  0  0  0  0  0  0  0  0  0  # atno 10167 bound_to 10162
  157.1668  131.0600  151.2203 H   0  0  0  0  0  0  0  0  0  0  0  0  # atno 10718 bound_to 10713
  154.0369  135.6649  153.4786 H   0  0  0  0  0  0  0  0  0  0  0  0  # atno 10763 bound_to 10752
  153.0517  135.5080  154.7879 H   0  0  0  0  0  0  0  0  0  0  0  0  # atno 10764 bound_to 10752
  154.6843  135.3050  154.9535 H   0  0  0  0  0  0  0  0  0  0  0  0  # atno 10765 bound_to 10752
  141.1643  133.7387  156.8983 H   0  0  0  0  0  0  0  0  0  0  0  0  # atno 11005 bound_to 11000
  144.6888  140.3064  143.7255 LP  0  0  0  0  0  0  0  0  0  0  0  0  # atno 17320 bound_to 7965
  145.7635  139.1833  143.2253 LP  0  0  0  0  0  0  0  0  0  0  0  0  # atno 17321 bound_to 7965
  140.3492  143.2973  152.0505 LP  0  0  0  0  0  0  0  0  0  0  0  0  # atno 17342 bound_to 10162
  139.4894  144.6386  151.6924 LP  0  0  0  0  0  0  0  0  0  0  0  0  # atno 17343 bound_to 10162
  157.4081  130.7370  149.6817 LP  0  0  0  0  0  0  0  0  0  0  0  0  # atno 17370 bound_to 10713
  155.9745  130.4103  150.3922 LP  0  0  0  0  0  0  0  0  0  0  0  0  # atno 17371 bound_to 10713
  140.1601  134.9172  157.2703 LP  0  0  0  0  0  0  0  0  0  0  0  0  # atno 17394 bound_to 11000
  140.2622  134.3558  155.7402 LP  0  0  0  0  0  0  0  0  0  0  0  0  # atno 17395 bound_to 11000

$$$$
