AV-unprocessed.smi:1433|AV-procd|sdf|5842|dock2
  -GOLD-   22720 5503D 1   1.00000     0.00000
 Structure written by MMmdl.
 45 46  0  0  0  0  0  0  0  0  2 V2000
  147.7065  141.9760  153.7122 C   0  0  0  0  0  0  0  0  0  0  0  0
  148.1984  140.6369  154.2715 C   0  0  1  0  0  0  0  0  0  0  0  0
  148.1559  139.5173  153.2098 C   0  0  0  0  0  0  0  0  0  0  0  0
  148.7014  138.2405  153.7475 N   0  3  2  0  0  0  0  0  0  0  0  0
  147.8144  137.5081  154.7168 C   0  0  2  0  0  0  0  0  0  0  0  0
  148.5365  136.2910  155.3445 C   0  0  0  0  0  0  0  0  0  0  0  0
  146.4795  137.0545  154.0593 C   0  0  0  0  0  0  0  0  0  0  0  0
  146.6725  136.2190  152.8774 N   0  0  0  0  0  0  0  0  0  0  0  0
  145.9118  135.1621  152.5508 C   0  0  0  0  0  0  0  0  0  0  0  0
  144.9575  134.7821  153.2291 O   0  0  0  0  0  0  0  0  0  0  0  0
  146.2929  134.4105  151.2741 C   0  0  0  0  0  0  0  0  0  0  0  0
  145.3666  133.3267  150.9985 N   0  0  0  0  0  0  0  0  0  0  0  0
  145.6237  131.9726  150.9378 C   0  0  0  0  0  0  0  0  0  0  0  0
  144.4448  131.3472  150.6488 C   0  0  0  0  0  0  0  0  0  0  0  0
  143.5106  132.4160  150.5499 C   0  0  0  0  0  0  0  0  0  0  0  0
  144.0652  133.5991  150.7585 N   0  0  0  0  0  0  0  0  0  0  0  0
  150.0877  138.5057  154.2220 C   0  0  0  0  0  0  0  0  0  0  0  0
  150.1112  139.6342  155.2754 C   0  0  1  0  0  0  0  0  0  0  0  0
  151.5366  139.9676  155.7284 C   0  0  0  0  0  0  0  0  0  0  0  0
  149.5446  140.8103  154.7047 O   0  0  0  0  0  0  0  0  0  0  0  0
  146.6723  141.9035  153.3745 H   0  0  0  0  0  0  0  0  0  0  0  0
  148.3137  142.2981  152.8656 H   0  0  0  0  0  0  0  0  0  0  0  0
  147.7534  142.7568  154.4717 H   0  0  0  0  0  0  0  0  0  0  0  0
  147.5741  140.3759  155.1268 H   0  0  0  0  0  0  0  0  0  0  0  0
  147.1594  139.4070  152.7897 H   0  0  0  0  0  0  0  0  0  0  0  0
  148.7766  139.8136  152.3627 H   0  0  0  0  0  0  0  0  0  0  0  0
  147.5669  138.1866  155.5322 H   0  0  0  0  0  0  0  0  0  0  0  0
  147.8746  135.7003  155.9770 H   0  0  0  0  0  0  0  0  0  0  0  0
  149.3567  136.5888  155.9959 H   0  0  0  0  0  0  0  0  0  0  0  0
  148.9337  135.6261  154.5769 H   0  0  0  0  0  0  0  0  0  0  0  0
  145.8603  136.4774  154.7440 H   0  0  0  0  0  0  0  0  0  0  0  0
  145.8924  137.9257  153.7669 H   0  0  0  0  0  0  0  0  0  0  0  0
  147.4341  136.4642  152.2611 H   0  0  0  0  0  0  0  0  0  0  0  0
  146.2961  135.0978  150.4271 H   0  0  0  0  0  0  0  0  0  0  0  0
  147.3029  134.0069  151.3615 H   0  0  0  0  0  0  0  0  0  0  0  0
  146.6125  131.5707  151.1040 H   0  0  0  0  0  0  0  0  0  0  0  0
  144.2746  130.2878  150.5272 H   0  0  0  0  0  0  0  0  0  0  0  0
  142.4533  132.3677  150.3343 H   0  0  0  0  0  0  0  0  0  0  0  0
  150.5830  137.6090  154.5883 H   0  0  0  0  0  0  0  0  0  0  0  0
  150.6828  138.8148  153.3612 H   0  0  0  0  0  0  0  0  0  0  0  0
  149.5338  139.3464  156.1548 H   0  0  0  0  0  0  0  0  0  0  0  0
  152.0139  139.1029  156.1900 H   0  0  0  0  0  0  0  0  0  0  0  0
  151.5338  140.7750  156.4611 H   0  0  0  0  0  0  0  0  0  0  0  0
  152.1554  140.2833  154.8877 H   0  0  0  0  0  0  0  0  0  0  0  0
  148.7926  137.6200  152.9557 H   0  0  0  0  0  0  0  0  0  0  0  0
  1  2  1  0  0  0  0
  1 21  1  0  0  0  0
  1 22  1  0  0  0  0
  1 23  1  0  0  0  0
  2 20  1  0  0  0  0
  2  3  1  0  0  0  0
  2 24  1  0  0  0  0
  3  4  1  0  0  0  0
  3 25  1  0  0  0  0
  3 26  1  0  0  0  0
  4  5  1  0  0  0  0
  4 17  1  0  0  0  0
  4 45  1  0  0  0  0
  5  6  1  0  0  0  0
  5  7  1  0  0  0  0
  5 27  1  0  0  0  0
  6 28  1  0  0  0  0
  6 29  1  0  0  0  0
  6 30  1  0  0  0  0
  7  8  1  0  0  0  0
  7 31  1  0  0  0  0
  7 32  1  0  0  0  0
  8  9  1  0  0  0  0
  8 33  1  0  0  0  0
  9 10  2  0  0  0  0
  9 11  1  0  0  0  0
 11 12  1  0  0  0  0
 11 34  1  0  0  0  0
 11 35  1  0  0  0  0
 12 16  1  0  0  0  0
 12 13  1  0  0  0  0
 13 14  2  0  0  0  0
 13 36  1  0  0  0  0
 14 15  1  0  0  0  0
 14 37  1  0  0  0  0
 15 16  2  0  0  0  0
 15 38  1  0  0  0  0
 17 18  1  0  0  0  0
 17 39  1  0  0  0  0
 17 40  1  0  0  0  0
 18 19  1  0  0  0  0
 18 20  1  0  0  0  0
 18 41  1  0  0  0  0
 19 42  1  0  0  0  0
 19 43  1  0  0  0  0
 19 44  1  0  0  0  0
M  CHG  1   4   1
M  END
> <s_m_source_file>
AV-unprocessed.smi

> <i_m_source_file_index>
1433

> <i_lp_mmshare_version>
43012

> <i_f3d_flags>
0

> <s_epik_input>
W0NIM11bQ0BASF0xW0NIMl1OKFtDSDJdW0NASF0oTzEpW0NIM10pW0NASF0oW0NIM10pW0NIMl1bTkhdQyg9TylbQ0gyXW4yW2NIXVtjSF1bY0hdbjI=

> <s_epik_cmdline>
J2VwaWtfcHl0aG9uJywgJy1waCcsICc3LjAnLCAnLXRuJywgJzgnLCAnLW1hJywgJzIwMCcsICctbWV0YWxfYmluZGluZycsICctaW1hZScsICc8aW5maWxlLm1hZT4nLCAnLW9tYWUnLCAnPG91dGZpbGUubWFlPic=

> <r_lp_tautomer_probability>
1

> <r_epik_Ionization_Penalty>
0.748405

> <r_epik_Ionization_Penalty_Charging>
0.748396

> <r_epik_Ionization_Penalty_Neutral>
8.54426e-06

> <r_epik_State_Penalty>
0.775162

> <r_epik_Charging_Adjusted_Penalty>
1.52356

> <i_epik_Tot_Q>
1

> <i_epik_Tot_abs_Q>
1

> <r_epik_Metal_State_Penalty>
0.775167

> <b_epik_Metal_Only>
0

> <s_lp_Force_Field>
OPLS_2005

> <r_lp_Energy>
22.2422

> <b_lp_Chiralities_Consistent>
1

> <s_lp_Variant>
AV-unprocessed.smi:1433-8

> <Gold.Version>
5.8.1

> <Gold.Id.Protein>
6NUR|6NUR_protein|mol2

> <Gold.PLP.Fitness>
45.7694

> <Gold.PLP.PLP>
-31.2022

> <Gold.PLP.part.hbond>
-2.6693

> <Gold.PLP.part.metal>
0.0000

> <Gold.PLP.part.buried>
0.3574

> <Gold.PLP.part.nonpolar>
-28.8513

> <Gold.PLP.part.repulsive>
0.4043

> <Gold.PLP.ligand.clash>
0.0000

> <Gold.PLP.ligand.torsion>
0.2776

> <Gold.PLP.Chemscore.Hbond>
2.8726

> <Gold.PLP.Chemscore.CHOScore>
2.1445

> <Gold.PLP.Chemscore.Metal>
0.0000

> <Gold.Chemscore.Hbonds>
donor molecule, donor type, donor heavy atom, donor atom, acceptor molecule, acceptor atom, score
      L1  H     4    45       P1  7948  2.00
      L1  H     8    33       P1  7948  0.96
      P1  H  7989  7998       L1    20  0.01
      L1  C    13    36       P1 10747  0.82
      L1  C    15    38       P1 10186  0.69
      L1  C    15    38       P1 10952  0.58

> <Gold.PLP.Chemscore.Internal.Correction>
0.0711

> <Gold.Rescore>
     Score         DG    S(hbond)    S(metal)    S(lipo)     H(rot)  DE(clash)    DE(int)     intcor
     14.63     -16.16       1.99        0.00      75.16       1.87       0.05       1.48       ----

> <Gold.Chemscore.Fitness>
14.6265

> <Gold.Chemscore.DG>
-16.1585

> <Gold.Chemscore.ZeroCoef>
-5.4800

> <Gold.Chemscore.Hbond>
1.9943

> <Gold.Chemscore.Metal>
0.0000

> <Gold.Chemscore.Lipo>
75.1586

> <Gold.Chemscore.Internal_Hbond>
0.0000

> <Gold.Chemscore.DEClash>
0.0515

> <Gold.Chemscore.DEInternal>
1.4805

> <Gold.Chemscore.Rot>
1.8657

> <Gold.Chemscore.Internal.Correction>
   9.000000E+99

> <Gold.Chemscore.Hbonds>
donor molecule, donor type, donor heavy atom, donor atom, acceptor molecule, acceptor atom, score
      L1  H     4    45       P1  7948  1.00
      L1  H     8    33       P1  7948  0.90

> <Gold.Chemscore.Hbond.Weighted>
-6.6610

> <Gold.Chemscore.Metal.Weighted>
-0.0000

> <Gold.Chemscore.Lipo.Weighted>
-8.7936

> <Gold.Chemscore.Internal_Hbond.Weighted>
0.0000

> <Gold.Chemscore.DEClash.Weighted>
0.0515

> <Gold.Chemscore.DEInternal.Weighted>
1.4805

> <Gold.Chemscore.Rot.Weighted>
4.7761

> <Gold.Chemscore.Internal.Correction.Weighted>
   9.000000E+99

> <Gold.Protein.RotatedTorsions>
[ 6907 6896 6895 6894 ] final   -4.83 input  -60.11 | X-H torsion
[ 7974 7965 7964 7962 ] final  138.86 input  175.53 | X-H torsion
[ 8008 7997 7996 7995 ] final    5.90 input   59.86 | X-H torsion
[ 10167 10162 10161 10158 ] final -148.99 input  -65.29 | X-H torsion
[ 10718 10713 10712 10709 ] final  -81.03 input   66.30 | X-H torsion
[ 10763 10752 10751 10750 ] final  -23.78 input  -60.55 | X-H torsion
[ 11005 11000 10999 10996 ] final  -74.01 input  -57.11 | X-H torsion

> <Gold.Protein.ActiveResidues>
 VAL166  LYS551  ARG553  GLY616  TRP617  ASP618  TYR619  PRO620  LYS621  CYS622 
 ASP623  PHE694  ASN695  SER759  ASP760  ASP761  ALA762  ILE779  LEU786  VAL792 
 PHE793  MET794  SER795  GLU796  ALA797  LYS798  CYS799  TRP800  GLU811  SER814 

> <Gold.Protein.RotatedAtoms>
  151.4913  135.1057  159.9804 H   0  0  0  0  0  0  0  0  0  0  0  0  # atno 6907 bound_to 6896
  152.4739  133.8090  159.7004 H   0  0  0  0  0  0  0  0  0  0  0  0  # atno 6908 bound_to 6896
  150.8765  133.7369  159.2971 H   0  0  0  0  0  0  0  0  0  0  0  0  # atno 6909 bound_to 6896
  144.9332  139.5021  143.5607 H   0  0  0  0  0  0  0  0  0  0  0  0  # atno 7974 bound_to 7965
  154.7341  140.2736  155.6430 H   0  0  0  0  0  0  0  0  0  0  0  0  # atno 8008 bound_to 7997
  156.2857  140.2710  156.1976 H   0  0  0  0  0  0  0  0  0  0  0  0  # atno 8009 bound_to 7997
  155.0343  140.0371  157.2475 H   0  0  0  0  0  0  0  0  0  0  0  0  # atno 8010 bound_to 7997
  139.7482  143.8558  152.2580 H   0  0  0  0  0  0  0  0  0  0  0  0  # atno 10167 bound_to 10162
  156.0058  130.4591  150.3890 H   0  0  0  0  0  0  0  0  0  0  0  0  # atno 10718 bound_to 10713
  153.6732  135.6970  153.5140 H   0  0  0  0  0  0  0  0  0  0  0  0  # atno 10763 bound_to 10752
  153.2541  135.4265  155.0827 H   0  0  0  0  0  0  0  0  0  0  0  0  # atno 10764 bound_to 10752
  154.8421  135.3539  154.6276 H   0  0  0  0  0  0  0  0  0  0  0  0  # atno 10765 bound_to 10752
  141.1630  133.6897  156.7300 H   0  0  0  0  0  0  0  0  0  0  0  0  # atno 11005 bound_to 11000
  146.3256  139.8298  142.8910 LP  0  0  0  0  0  0  0  0  0  0  0  0  # atno 17320 bound_to 7965
  145.3108  141.0219  143.3555 LP  0  0  0  0  0  0  0  0  0  0  0  0  # atno 17321 bound_to 7965
  139.8529  144.7155  150.9192 LP  0  0  0  0  0  0  0  0  0  0  0  0  # atno 17342 bound_to 10162
  140.7794  143.3884  151.1354 LP  0  0  0  0  0  0  0  0  0  0  0  0  # atno 17343 bound_to 10162
  157.1966  131.0428  151.2672 LP  0  0  0  0  0  0  0  0  0  0  0  0  # atno 17370 bound_to 10713
  157.4014  130.7335  149.6769 LP  0  0  0  0  0  0  0  0  0  0  0  0  # atno 17371 bound_to 10713
  140.2752  134.8360  157.3884 LP  0  0  0  0  0  0  0  0  0  0  0  0  # atno 17394 bound_to 11000
  140.1484  134.4881  155.7979 LP  0  0  0  0  0  0  0  0  0  0  0  0  # atno 17395 bound_to 11000

$$$$
