AV-unprocessed.smi:384|AV-procd|sdf|2468|dock2
  -GOLD-   2262022413D 1   1.00000     0.00000
 Structure written by MMmdl.
 33 34  0  0  0  0  0  0  0  0  3 V2000
  145.8685  131.7488  149.4503 C   0  0  0  0  0  0  0  0  0  0  0  0
  145.9306  132.9178  150.4387 C   0  0  2  0  0  0  0  0  0  0  0  0
  146.8232  132.5996  151.6509 C   0  0  0  0  0  0  0  0  0  0  0  0
  146.7681  133.6943  152.6090 N   0  0  0  0  0  0  0  0  0  0  0  0
  147.6660  133.5411  153.6727 C   0  0  0  0  0  0  0  0  0  0  0  0
  147.6051  132.4730  154.5969 C   0  0  0  0  0  0  0  0  0  0  0  0
  148.5579  132.4008  155.6337 C   0  0  0  0  0  0  0  0  0  0  0  0
  149.5588  133.3951  155.7353 C   0  0  0  0  0  0  0  0  0  0  0  0
  150.5900  133.3442  156.8266 C   0  0  0  0  0  0  0  0  0  0  0  0
  150.4287  132.5361  157.7676 O   0  0  0  0  0  0  0  0  0  0  0  0
  151.5755  134.1119  156.7589 O   0  5  0  0  0  0  0  0  0  0  0  0
  149.5657  134.4391  154.7825 C   0  0  0  0  0  0  0  0  0  0  0  0
  148.6350  134.4728  153.8034 N   0  3  0  0  0  0  0  0  0  0  0  0
  145.4085  133.9827  153.0461 C   0  0  0  0  0  0  0  0  0  0  0  0
  144.4925  134.2548  151.8362 C   0  0  1  0  0  0  0  0  0  0  0  0
  144.7201  135.6320  151.1881 C   0  0  0  0  0  0  0  0  0  0  0  0
  144.6028  133.1889  150.8889 O   0  0  0  0  0  0  0  0  0  0  0  0
  146.8602  131.5029  149.0697 H   0  0  0  0  0  0  0  0  0  0  0  0
  145.2372  131.9949  148.5961 H   0  0  0  0  0  0  0  0  0  0  0  0
  145.4585  130.8543  149.9202 H   0  0  0  0  0  0  0  0  0  0  0  0
  146.3254  133.7860  149.9106 H   0  0  0  0  0  0  0  0  0  0  0  0
  146.4902  131.6761  152.1267 H   0  0  0  0  0  0  0  0  0  0  0  0
  147.8536  132.4437  151.3280 H   0  0  0  0  0  0  0  0  0  0  0  0
  146.8406  131.7140  154.5174 H   0  0  0  0  0  0  0  0  0  0  0  0
  148.5133  131.5843  156.3396 H   0  0  0  0  0  0  0  0  0  0  0  0
  150.2845  135.2460  154.7705 H   0  0  0  0  0  0  0  0  0  0  0  0
  145.0232  133.1297  153.6064 H   0  0  0  0  0  0  0  0  0  0  0  0
  145.4050  134.8366  153.7250 H   0  0  0  0  0  0  0  0  0  0  0  0
  143.4616  134.2409  152.1912 H   0  0  0  0  0  0  0  0  0  0  0  0
  144.5097  136.4325  151.8977 H   0  0  0  0  0  0  0  0  0  0  0  0
  144.0605  135.7708  150.3312 H   0  0  0  0  0  0  0  0  0  0  0  0
  145.7458  135.7656  150.8457 H   0  0  0  0  0  0  0  0  0  0  0  0
  148.6686  135.2385  153.1303 H   0  0  0  0  0  0  0  0  0  0  0  0
  1  2  1  0  0  0  0
  1 18  1  0  0  0  0
  1 19  1  0  0  0  0
  1 20  1  0  0  0  0
  2 17  1  0  0  0  0
  2  3  1  0  0  0  0
  2 21  1  0  0  0  0
  3  4  1  0  0  0  0
  3 22  1  0  0  0  0
  3 23  1  0  0  0  0
  4  5  1  0  0  0  0
  4 14  1  0  0  0  0
  5 13  1  0  0  0  0
  5  6  2  0  0  0  0
  6  7  1  0  0  0  0
  6 24  1  0  0  0  0
  7  8  2  0  0  0  0
  7 25  1  0  0  0  0
  8  9  1  0  0  0  0
  8 12  1  0  0  0  0
  9 10  2  0  0  0  0
  9 11  1  0  0  0  0
 12 13  2  0  0  0  0
 12 26  1  0  0  0  0
 13 33  1  0  0  0  0
 14 15  1  0  0  0  0
 14 27  1  0  0  0  0
 14 28  1  0  0  0  0
 15 16  1  0  0  0  0
 15 17  1  0  0  0  0
 15 29  1  0  0  0  0
 16 30  1  0  0  0  0
 16 31  1  0  0  0  0
 16 32  1  0  0  0  0
M  CHG  1  11  -1
M  CHG  1  13   1
M  END
> <s_m_source_file>
AV-unprocessed.smi

> <i_m_source_file_index>
384

> <i_lp_mmshare_version>
43012

> <i_f3d_flags>
0

> <s_epik_input>
W0NIM11bQ0BASF0xW0NIMl1OKFtDSDJdW0NASF0oTzEpW0NIM10pYzJbY0hdW2NIXWMoW2NIXW4yKUMoPU8pW09IXQ==

> <s_epik_cmdline>
J2VwaWtfcHl0aG9uJywgJy1waCcsICc3LjAnLCAnLXRuJywgJzgnLCAnLW1hJywgJzIwMCcsICctbWV0YWxfYmluZGluZycsICctaW1hZScsICc8aW5maWxlLm1hZT4nLCAnLW9tYWUnLCAnPG91dGZpbGUubWFlPic=

> <r_epik_Ionization_Penalty>
2.35185

> <r_epik_Ionization_Penalty_Charging>
2.35185

> <r_epik_Ionization_Penalty_Neutral>
3.18713e-12

> <r_epik_State_Penalty>
2.50619

> <r_epik_Charging_Adjusted_Penalty>
4.85804

> <i_epik_Tot_Q>
0

> <i_epik_Tot_abs_Q>
2

> <r_epik_Metal_State_Penalty>
6.59026

> <b_epik_Metal_Only>
0

> <s_lp_Force_Field>
OPLS_2005

> <r_lp_Energy>
19.905

> <b_lp_Chiralities_Consistent>
1

> <s_lp_Variant>
AV-unprocessed.smi:384-4

> <Gold.Version>
5.8.1

> <Gold.Id.Protein>
6NUR|6NUR_protein|mol2

> <Gold.PLP.Fitness>
36.7668

> <Gold.PLP.PLP>
-24.8959

> <Gold.PLP.part.hbond>
-2.6498

> <Gold.PLP.part.metal>
0.0000

> <Gold.PLP.part.buried>
-2.6172

> <Gold.PLP.part.nonpolar>
-20.1992

> <Gold.PLP.part.repulsive>
0.2504

> <Gold.PLP.ligand.clash>
0.0000

> <Gold.PLP.ligand.torsion>
0.1084

> <Gold.PLP.Chemscore.Hbond>
4.0000

> <Gold.PLP.Chemscore.CHOScore>
0.0000

> <Gold.PLP.Chemscore.Metal>
0.0000

> <Gold.Chemscore.Hbonds>
donor molecule, donor type, donor heavy atom, donor atom, acceptor molecule, acceptor atom, score
      L1  H    13    33       P1  7948  2.00
      P1  H  6896  6908       L1    10  2.00

> <Gold.PLP.Chemscore.Internal.Correction>
0.0877

> <Gold.Rescore>
     Score         DG    S(hbond)    S(metal)    S(lipo)     H(rot)  DE(clash)    DE(int)     intcor
     15.70     -16.14       1.85        0.00      60.30       1.00       0.22       0.22       ----

> <Gold.Chemscore.Fitness>
15.7039

> <Gold.Chemscore.DG>
-16.1415

> <Gold.Chemscore.ZeroCoef>
-5.4800

> <Gold.Chemscore.Hbond>
1.8462

> <Gold.Chemscore.Metal>
0.0000

> <Gold.Chemscore.Lipo>
60.3001

> <Gold.Chemscore.Internal_Hbond>
0.0000

> <Gold.Chemscore.DEClash>
0.2203

> <Gold.Chemscore.DEInternal>
0.2174

> <Gold.Chemscore.Rot>
1.0000

> <Gold.Chemscore.Internal.Correction>
   9.000000E+99

> <Gold.Chemscore.Hbonds>
donor molecule, donor type, donor heavy atom, donor atom, acceptor molecule, acceptor atom, score
      L1  H    13    33       P1  7948  0.74
      P1  H  6896  6908       L1    10  0.35

> <Gold.Chemscore.Hbond.Weighted>
-6.1664

> <Gold.Chemscore.Metal.Weighted>
-0.0000

> <Gold.Chemscore.Lipo.Weighted>
-7.0551

> <Gold.Chemscore.Internal_Hbond.Weighted>
0.0000

> <Gold.Chemscore.DEClash.Weighted>
0.2203

> <Gold.Chemscore.DEInternal.Weighted>
0.2174

> <Gold.Chemscore.Rot.Weighted>
2.5600

> <Gold.Chemscore.Internal.Correction.Weighted>
   9.000000E+99

> <Gold.Protein.RotatedTorsions>
[ 6907 6896 6895 6894 ] final   95.64 input  -60.11 | X-H torsion
[ 7974 7965 7964 7962 ] final   20.87 input  175.53 | X-H torsion
[ 8008 7997 7996 7995 ] final  155.60 input   59.86 | X-H torsion
[ 10167 10162 10161 10158 ] final   -4.80 input  -65.29 | X-H torsion
[ 10718 10713 10712 10709 ] final  -68.91 input   66.30 | X-H torsion
[ 10763 10752 10751 10750 ] final  -88.72 input  -60.55 | X-H torsion
[ 11005 11000 10999 10996 ] final -173.42 input  -57.11 | X-H torsion

> <Gold.Protein.ActiveResidues>
 VAL166  LYS551  ARG553  GLY616  TRP617  ASP618  TYR619  PRO620  LYS621  CYS622 
 ASP623  PHE694  ASN695  SER759  ASP760  ASP761  ALA762  ILE779  LEU786  VAL792 
 PHE793  MET794  SER795  GLU796  ALA797  LYS798  CYS799  TRP800  GLU811  SER814 

> <Gold.Protein.RotatedAtoms>
  152.5442  134.1009  159.8317 H   0  0  0  0  0  0  0  0  0  0  0  0  # atno 6907 bound_to 6896
  151.1087  133.5181  159.2614 H   0  0  0  0  0  0  0  0  0  0  0  0  # atno 6908 bound_to 6896
  151.1908  135.0411  159.8886 H   0  0  0  0  0  0  0  0  0  0  0  0  # atno 6909 bound_to 6896
  146.2094  139.8107  142.8700 H   0  0  0  0  0  0  0  0  0  0  0  0  # atno 7974 bound_to 7965
  156.2469  140.1935  156.6826 H   0  0  0  0  0  0  0  0  0  0  0  0  # atno 8008 bound_to 7997
  154.6311  140.0595  156.9759 H   0  0  0  0  0  0  0  0  0  0  0  0  # atno 8009 bound_to 7997
  155.1709  140.3268  155.4395 H   0  0  0  0  0  0  0  0  0  0  0  0  # atno 8010 bound_to 7997
  140.6940  143.6382  150.8460 H   0  0  0  0  0  0  0  0  0  0  0  0  # atno 10167 bound_to 10162
  156.0481  130.4303  150.2070 H   0  0  0  0  0  0  0  0  0  0  0  0  # atno 10718 bound_to 10713
  154.6476  135.5367  153.7863 H   0  0  0  0  0  0  0  0  0  0  0  0  # atno 10763 bound_to 10752
  153.0368  135.6474  154.1066 H   0  0  0  0  0  0  0  0  0  0  0  0  # atno 10764 bound_to 10752
  154.0986  135.2935  155.3236 H   0  0  0  0  0  0  0  0  0  0  0  0  # atno 10765 bound_to 10752
  140.4859  134.6030  157.4937 H   0  0  0  0  0  0  0  0  0  0  0  0  # atno 11005 bound_to 11000
  145.3199  141.0241  143.3506 LP  0  0  0  0  0  0  0  0  0  0  0  0  # atno 17320 bound_to 7965
  144.8875  139.4820  143.6694 LP  0  0  0  0  0  0  0  0  0  0  0  0  # atno 17321 bound_to 7965
  140.0098  143.5655  152.2843 LP  0  0  0  0  0  0  0  0  0  0  0  0  # atno 17342 bound_to 10162
  139.6374  144.7651  151.2408 LP  0  0  0  0  0  0  0  0  0  0  0  0  # atno 17343 bound_to 10162
  157.0157  130.9964  151.3353 LP  0  0  0  0  0  0  0  0  0  0  0  0  # atno 17370 bound_to 10713
  157.5379  130.8100  149.7993 LP  0  0  0  0  0  0  0  0  0  0  0  0  # atno 17371 bound_to 10713
  139.9798  134.7156  155.9881 LP  0  0  0  0  0  0  0  0  0  0  0  0  # atno 17394 bound_to 11000
  141.1508  133.6549  156.4007 LP  0  0  0  0  0  0  0  0  0  0  0  0  # atno 17395 bound_to 11000

$$$$
