#       Name:                AV-unprocessed.smi:2603
#       Creating user name   scv26
#       Creation time:       Fri Mar 27 14:20:13 2020


#       File generated by GOLD software.
#

@<TRIPOS>MOLECULE
AV-unprocessed.smi:2603
    42    43     1
SMALL
NO_CHARGES


@<TRIPOS>ATOM
      1 ****        -1.6812  -3.1231   0.9825 C.3            1 S1                 0.0000
      2 ****        -2.6309  -2.0417   0.4619 C.3            1 S1                 0.0000
      3 ****        -1.8848  -0.8720   0.1783 O.3            1 S1                 0.0000
      4 ****        -2.7014   0.1778  -0.3154 C.3            1 S1                 0.0000
      5 ****        -2.7431   0.2605  -1.8156 C.3            1 S1                 0.0000
      6 ****        -1.9212   1.2636  -1.0249 C.3            1 S1                 0.0000
      7 ****        -0.5011   1.1412  -1.0771 N.am           1 S1                 0.0000
      8 ****         0.3818   2.1327  -0.8890 C.2            1 S1                 0.0000
      9 ****         0.0605   3.3039  -0.6898 O.2            1 S1                 0.0000
     10 ****         1.8596   1.7385  -0.9220 C.3            1 S1                 0.0000
     11 ****         2.1576   0.7589   0.1870 C.2            1 S1                 0.0000
     12 ****         2.4977   1.0470   1.5403 C.2            1 S1                 0.0000
     13 ****         2.6508   2.3854   2.2038 C.3            1 S1                 0.0000
     14 ****         2.6897  -0.0540   2.2469 N.2            1 S1                 0.0000
     15 ****         2.4705  -1.1175   1.3664 O.3            1 S1                 0.0000
     16 ****         2.1543  -0.6093   0.1487 C.2            1 S1                 0.0000
     17 ****         1.8729  -1.6006  -0.9294 C.3            1 S1                 0.0000
     18 ****        -2.2276  -4.0317   1.2355 H              1 S1                 0.0000
     19 ****        -1.1576  -2.7866   1.8777 H              1 S1                 0.0000
     20 ****        -0.9331  -3.3816   0.2333 H              1 S1                 0.0000
     21 ****        -3.1384  -2.3915  -0.4383 H              1 S1                 0.0000
     22 ****        -3.3946  -1.8256   1.2104 H              1 S1                 0.0000
     23 ****        -3.5644   0.4487   0.2907 H              1 S1                 0.0000
     24 ****        -2.2122  -0.5055  -2.3778 H              1 S1                 0.0000
     25 ****        -3.6648   0.6165  -2.2713 H              1 S1                 0.0000
     26 ****        -2.3328   2.2700  -0.9633 H              1 S1                 0.0000
     27 ****        -0.1364   0.2113  -1.2243 H              1 S1                 0.0000
     28 ****         2.0879   1.3179  -1.9017 H              1 S1                 0.0000
     29 ****         2.4726   2.6359  -0.8297 H              1 S1                 0.0000
     30 ****         2.0363   3.1418   1.7150 H              1 S1                 0.0000
     31 ****         3.6865   2.7230   2.1652 H              1 S1                 0.0000
     32 ****         2.3505   2.3480   3.2516 H              1 S1                 0.0000
     33 ****         1.6005  -1.1048  -1.8609 H              1 S1                 0.0000
     34 ****         1.0488  -2.2542  -0.6451 H              1 S1                 0.0000
     35 ****         2.7477  -2.2222  -1.1203 H              1 S1                 0.0000
     36 ****        -1.1915  -1.0908  -0.5083 LP             1 S1                 0.0000
     37 ****        -1.4371  -0.5642   1.0178 LP             1 S1                 0.0000
     38 ****        -0.9059   3.5593  -0.6614 LP             1 S1                 0.0000
     39 ****         0.7658   4.0001  -0.5563 LP             1 S1                 0.0000
     40 ****         2.9403  -0.1137   3.2132 LP             1 S1                 0.0000
     41 ****         1.7173  -1.6835   1.7018 LP             1 S1                 0.0000
     42 ****         3.2989  -1.6731   1.2954 LP             1 S1                 0.0000
@<TRIPOS>BOND
    1    1    2 1     
    2    1   18 1     
    3    1   19 1     
    4    1   20 1     
    5    2    3 1     
    6    2   21 1     
    7    2   22 1     
    8    3    4 1     
    9    4    6 1     
   10    4    5 1     
   11    4   23 1     
   12    5    6 1     
   13    5   24 1     
   14    5   25 1     
   15    6    7 1     
   16    6   26 1     
   17    7    8 am    
   18    7   27 1     
   19    8    9 2     
   20    8   10 1     
   21   10   11 1     
   22   10   28 1     
   23   10   29 1     
   24   11   16 2     
   25   11   12 1     
   26   12   13 1     
   27   12   14 2     
   28   13   30 1     
   29   13   31 1     
   30   13   32 1     
   31   14   15 1     
   32   15   16 1     
   33   16   17 1     
   34   17   33 1     
   35   17   34 1     
   36   17   35 1     
   37    3   36 1     
   38    3   37 1     
   39    9   38 1     
   40    9   39 1     
   41   14   40 1     
   42   15   41 1     
   43   15   42 1     
@<TRIPOS>SUBSTRUCTURE
      1 S1             1
@<TRIPOS>SET
LONE_PAIRS      STATIC     ATOMS    <user>   **** ""
7 36 37 38 39 40 41 42
DONOR_HYDROGENS      STATIC     ATOMS    <user>   **** ""
1 27
ATOM$BLUE        STATIC     ATOMS    COLORGROUP SYSTEM
7 36 37 38 39 40 41 42
ATOM$RED        STATIC     ATOMS    COLORGROUP SYSTEM
1 27
