AV-unprocessed.smi:1672|AV-procd|sdf|6705|dock5
  -GOLD-   22720 7443D 1   1.00000     0.00000
 Structure written by MMmdl.
 49 51  0  0  0  0  0  0  0  0  3 V2000
  144.3458  144.5532  155.4867 C   0  0  0  0  0  0  0  0  0  0  0  0
  145.2682  143.3613  155.1957 C   0  0  2  0  0  0  0  0  0  0  0  0
  146.1796  143.0416  156.3925 C   0  0  0  0  0  0  0  0  0  0  0  0
  147.1214  141.8674  156.0791 C   0  0  0  0  0  0  0  0  0  0  0  0
  147.9388  142.1448  154.8678 N   0  3  1  0  0  0  0  0  0  0  0  0
  148.9553  141.0966  154.5961 C   0  0  0  0  0  0  0  0  0  0  0  0
  150.0648  141.0485  155.6705 C   0  0  2  0  0  0  0  0  0  0  0  0
  151.1978  140.3952  155.1354 O   0  0  0  0  0  0  0  0  0  0  0  0
  149.6534  140.2808  156.9433 C   0  0  0  0  0  0  0  0  0  0  0  0
  150.7637  140.0994  157.8919 N   0  0  0  0  0  0  0  0  0  0  0  0
  151.2315  138.9796  158.5197 C   0  0  0  0  0  0  0  0  0  0  0  0
  150.7046  137.5846  158.4055 C   0  0  0  0  0  0  0  0  0  0  0  0
  151.4055  136.6732  159.2231 O   0  0  0  0  0  0  0  0  0  0  0  0
  152.2868  139.3645  159.2927 N   0  3  0  0  0  0  0  0  0  0  0  0
  152.4989  140.7364  159.1590 C   0  0  0  0  0  0  0  0  0  0  0  0
  153.4447  141.5740  159.7421 C   0  0  0  0  0  0  0  0  0  0  0  0
  153.3868  142.9376  159.3869 C   0  0  0  0  0  0  0  0  0  0  0  0
  152.4163  143.4209  158.4854 C   0  0  0  0  0  0  0  0  0  0  0  0
  151.4619  142.5619  157.9015 C   0  0  0  0  0  0  0  0  0  0  0  0
  151.5260  141.2151  158.2584 C   0  0  0  0  0  0  0  0  0  0  0  0
  147.0812  142.4189  153.6863 C   0  0  0  0  0  0  0  0  0  0  0  0
  146.1359  143.6034  153.9494 C   0  0  0  0  0  0  0  0  0  0  0  0
  144.9183  145.4598  155.6857 H   0  0  0  0  0  0  0  0  0  0  0  0
  143.7170  144.3595  156.3562 H   0  0  0  0  0  0  0  0  0  0  0  0
  143.6863  144.7545  154.6420 H   0  0  0  0  0  0  0  0  0  0  0  0
  144.6368  142.4917  155.0069 H   0  0  0  0  0  0  0  0  0  0  0  0
  146.7693  143.9211  156.6557 H   0  0  0  0  0  0  0  0  0  0  0  0
  145.5752  142.8026  157.2682 H   0  0  0  0  0  0  0  0  0  0  0  0
  147.7635  141.6903  156.9410 H   0  0  0  0  0  0  0  0  0  0  0  0
  146.5421  140.9551  155.9279 H   0  0  0  0  0  0  0  0  0  0  0  0
  148.4444  140.1368  154.5130 H   0  0  0  0  0  0  0  0  0  0  0  0
  149.4242  141.2709  153.6264 H   0  0  0  0  0  0  0  0  0  0  0  0
  150.3659  142.0552  155.9567 H   0  0  0  0  0  0  0  0  0  0  0  0
  151.0078  139.4748  155.0393 H   0  0  0  0  0  0  0  0  0  0  0  0
  148.8482  140.8018  157.4617 H   0  0  0  0  0  0  0  0  0  0  0  0
  149.2574  139.2960  156.6913 H   0  0  0  0  0  0  0  0  0  0  0  0
  149.6520  137.5532  158.6842 H   0  0  0  0  0  0  0  0  0  0  0  0
  150.7750  137.2611  157.3670 H   0  0  0  0  0  0  0  0  0  0  0  0
  152.3292  136.7508  159.0368 H   0  0  0  0  0  0  0  0  0  0  0  0
  154.1905  141.2060  160.4315 H   0  0  0  0  0  0  0  0  0  0  0  0
  154.1022  143.6265  159.8128 H   0  0  0  0  0  0  0  0  0  0  0  0
  152.4048  144.4721  158.2355 H   0  0  0  0  0  0  0  0  0  0  0  0
  150.7248  142.9429  157.2102 H   0  0  0  0  0  0  0  0  0  0  0  0
  147.7062  142.6488  152.8225 H   0  0  0  0  0  0  0  0  0  0  0  0
  146.5073  141.5255  153.4348 H   0  0  0  0  0  0  0  0  0  0  0  0
  145.5007  143.7656  153.0778 H   0  0  0  0  0  0  0  0  0  0  0  0
  146.7220  144.5147  154.0772 H   0  0  0  0  0  0  0  0  0  0  0  0
  148.4491  142.9986  155.0425 H   0  0  0  0  0  0  0  0  0  0  0  0
  152.8204  138.7279  159.8711 H   0  0  0  0  0  0  0  0  0  0  0  0
  1  2  1  0  0  0  0
  1 23  1  0  0  0  0
  1 24  1  0  0  0  0
  1 25  1  0  0  0  0
  2 22  1  0  0  0  0
  2  3  1  0  0  0  0
  2 26  1  0  0  0  0
  3  4  1  0  0  0  0
  3 27  1  0  0  0  0
  3 28  1  0  0  0  0
  4  5  1  0  0  0  0
  4 29  1  0  0  0  0
  4 30  1  0  0  0  0
  5  6  1  0  0  0  0
  5 21  1  0  0  0  0
  5 48  1  0  0  0  0
  6  7  1  0  0  0  0
  6 31  1  0  0  0  0
  6 32  1  0  0  0  0
  7  8  1  0  0  0  0
  7  9  1  0  0  0  0
  7 33  1  0  0  0  0
  8 34  1  0  0  0  0
  9 10  1  0  0  0  0
  9 35  1  0  0  0  0
  9 36  1  0  0  0  0
 10 20  1  0  0  0  0
 10 11  1  0  0  0  0
 11 12  1  0  0  0  0
 11 14  2  0  0  0  0
 12 13  1  0  0  0  0
 12 37  1  0  0  0  0
 12 38  1  0  0  0  0
 13 39  1  0  0  0  0
 14 15  1  0  0  0  0
 14 49  1  0  0  0  0
 15 20  2  0  0  0  0
 15 16  1  0  0  0  0
 16 17  2  0  0  0  0
 16 40  1  0  0  0  0
 17 18  1  0  0  0  0
 17 41  1  0  0  0  0
 18 19  2  0  0  0  0
 18 42  1  0  0  0  0
 19 20  1  0  0  0  0
 19 43  1  0  0  0  0
 21 22  1  0  0  0  0
 21 44  1  0  0  0  0
 21 45  1  0  0  0  0
 22 46  1  0  0  0  0
 22 47  1  0  0  0  0
M  CHG  1   5   1
M  CHG  1  14   1
M  END
> <s_m_source_file>
AV-unprocessed.smi

> <i_m_source_file_index>
1672

> <i_lp_mmshare_version>
43012

> <i_f3d_flags>
0

> <s_epik_input>
W0NIM11bQ0hdMVtDSDJdW0NIMl1OKFtDSDJdW0NIMl0xKVtDSDJdW0NASF0oW09IXSlbQ0gyXW4oYyhuMilbQ0gyXVtPSF0pYyhjMjMpW2NIXVtjSF1bY0hdW2NIXTM=

> <s_epik_cmdline>
J2VwaWtfcHl0aG9uJywgJy1waCcsICc3LjAnLCAnLXRuJywgJzgnLCAnLW1hJywgJzIwMCcsICctbWV0YWxfYmluZGluZycsICctaW1hZScsICc8aW5maWxlLm1hZT4nLCAnLW9tYWUnLCAnPG91dGZpbGUubWFlPic=

> <r_epik_Ionization_Penalty>
1.51642

> <r_epik_Ionization_Penalty_Charging>
1.51557

> <r_epik_Ionization_Penalty_Neutral>
0.000856474

> <r_epik_State_Penalty>
1.6048

> <r_epik_Charging_Adjusted_Penalty>
3.12037

> <i_epik_Tot_Q>
2

> <i_epik_Tot_abs_Q>
2

> <r_epik_Metal_State_Penalty>
5.65673

> <b_epik_Metal_Only>
0

> <s_lp_Force_Field>
OPLS_2005

> <r_lp_Energy>
31.4563

> <b_lp_Chiralities_Consistent>
1

> <s_lp_Variant>
AV-unprocessed.smi:1672-5

> <Gold.Version>
5.8.1

> <Gold.Id.Protein>
6NUR|6NUR_protein|mol2

> <Gold.PLP.Fitness>
56.7447

> <Gold.PLP.PLP>
-45.5648

> <Gold.PLP.part.hbond>
-3.0000

> <Gold.PLP.part.metal>
0.0000

> <Gold.PLP.part.buried>
-8.1138

> <Gold.PLP.part.nonpolar>
-35.1975

> <Gold.PLP.part.repulsive>
0.2608

> <Gold.PLP.ligand.clash>
0.0000

> <Gold.PLP.ligand.torsion>
0.3738

> <Gold.PLP.Chemscore.Hbond>
3.9600

> <Gold.PLP.Chemscore.CHOScore>
0.0000

> <Gold.PLP.Chemscore.Metal>
0.0000

> <Gold.Chemscore.Hbonds>
donor molecule, donor type, donor heavy atom, donor atom, acceptor molecule, acceptor atom, score
      L1  H     5    48       P1  8028  2.00
      P1  H  6896  6907       L1    13  1.00
      P1  H  7989  7998       L1     8  1.00

> <Gold.PLP.Chemscore.Internal.Correction>
0.0475

> <Gold.Rescore>
     Score         DG    S(hbond)    S(metal)    S(lipo)     H(rot)  DE(clash)    DE(int)     intcor
     17.28     -18.29       2.25        0.00     110.03       2.96       0.36       0.66       ----

> <Gold.Chemscore.Fitness>
17.2818

> <Gold.Chemscore.DG>
-18.2930

> <Gold.Chemscore.ZeroCoef>
-5.4800

> <Gold.Chemscore.Hbond>
2.2471

> <Gold.Chemscore.Metal>
0.0000

> <Gold.Chemscore.Lipo>
110.0322

> <Gold.Chemscore.Internal_Hbond>
0.0000

> <Gold.Chemscore.DEClash>
0.3559

> <Gold.Chemscore.DEInternal>
0.6553

> <Gold.Chemscore.Rot>
2.9555

> <Gold.Chemscore.Internal.Correction>
   9.000000E+99

> <Gold.Chemscore.Hbonds>
donor molecule, donor type, donor heavy atom, donor atom, acceptor molecule, acceptor atom, score
      L1  H     5    48       P1  8028  1.00
      P1  H  6896  6907       L1    13  0.43
      P1  H  7989  7998       L1     8  0.34

> <Gold.Chemscore.Hbond.Weighted>
-7.5052

> <Gold.Chemscore.Metal.Weighted>
-0.0000

> <Gold.Chemscore.Lipo.Weighted>
-12.8738

> <Gold.Chemscore.Internal_Hbond.Weighted>
0.0000

> <Gold.Chemscore.DEClash.Weighted>
0.3559

> <Gold.Chemscore.DEInternal.Weighted>
0.6553

> <Gold.Chemscore.Rot.Weighted>
7.5660

> <Gold.Chemscore.Internal.Correction.Weighted>
   9.000000E+99

> <Gold.Protein.RotatedTorsions>
[ 6907 6896 6895 6894 ] final  -20.28 input  -60.11 | X-H torsion
[ 7974 7965 7964 7962 ] final  -95.36 input  175.53 | X-H torsion
[ 8008 7997 7996 7995 ] final  -58.28 input   59.86 | X-H torsion
[ 10167 10162 10161 10158 ] final  131.27 input  -65.29 | X-H torsion
[ 10718 10713 10712 10709 ] final -113.85 input   66.30 | X-H torsion
[ 10763 10752 10751 10750 ] final  175.07 input  -60.55 | X-H torsion
[ 11005 11000 10999 10996 ] final -143.19 input  -57.11 | X-H torsion

> <Gold.Protein.ActiveResidues>
 VAL166  LYS551  ARG553  GLY616  TRP617  ASP618  TYR619  PRO620  LYS621  CYS622 
 ASP623  PHE694  ASN695  SER759  ASP760  ASP761  ALA762  ILE779  LEU786  VAL792 
 PHE793  MET794  SER795  GLU796  ALA797  LYS798  CYS799  TRP800  GLU811  SER814 

> <Gold.Protein.RotatedAtoms>
  151.2506  135.0620  159.9060 H   0  0  0  0  0  0  0  0  0  0  0  0  # atno 6907 bound_to 6896
  152.5380  134.0336  159.8046 H   0  0  0  0  0  0  0  0  0  0  0  0  # atno 6908 bound_to 6896
  151.0544  133.5547  159.2671 H   0  0  0  0  0  0  0  0  0  0  0  0  # atno 6909 bound_to 6896
  145.3610  140.9492  143.2500 H   0  0  0  0  0  0  0  0  0  0  0  0  # atno 7974 bound_to 7965
  154.4302  140.1087  156.5932 H   0  0  0  0  0  0  0  0  0  0  0  0  # atno 8008 bound_to 7997
  155.5990  140.3493  155.4569 H   0  0  0  0  0  0  0  0  0  0  0  0  # atno 8009 bound_to 7997
  156.0188  140.1235  157.0368 H   0  0  0  0  0  0  0  0  0  0  0  0  # atno 8010 bound_to 7997
  139.5391  144.6713  151.4683 H   0  0  0  0  0  0  0  0  0  0  0  0  # atno 10167 bound_to 10162
  156.0793  130.5995  150.8697 H   0  0  0  0  0  0  0  0  0  0  0  0  # atno 10718 bound_to 10713
  154.4626  135.2768  155.1701 H   0  0  0  0  0  0  0  0  0  0  0  0  # atno 10763 bound_to 10752
  154.3483  135.6155  153.5634 H   0  0  0  0  0  0  0  0  0  0  0  0  # atno 10764 bound_to 10752
  152.9856  135.5805  154.4991 H   0  0  0  0  0  0  0  0  0  0  0  0  # atno 10765 bound_to 10752
  140.8149  134.2700  157.4925 H   0  0  0  0  0  0  0  0  0  0  0  0  # atno 11005 bound_to 11000
  144.8646  139.5127  143.6796 LP  0  0  0  0  0  0  0  0  0  0  0  0  # atno 17320 bound_to 7965
  146.2927  139.7186  142.9149 LP  0  0  0  0  0  0  0  0  0  0  0  0  # atno 17321 bound_to 7965
  140.6613  143.8492  150.6891 LP  0  0  0  0  0  0  0  0  0  0  0  0  # atno 17342 bound_to 10162
  140.1887  143.4054  152.1879 LP  0  0  0  0  0  0  0  0  0  0  0  0  # atno 17343 bound_to 10162
  157.5902  131.0944  150.9131 LP  0  0  0  0  0  0  0  0  0  0  0  0  # atno 17370 bound_to 10713
  156.9308  130.5349  149.5279 LP  0  0  0  0  0  0  0  0  0  0  0  0  # atno 17371 bound_to 10713
  139.8711  134.9504  156.4053 LP  0  0  0  0  0  0  0  0  0  0  0  0  # atno 17394 bound_to 11000
  140.9159  133.7679  155.9847 LP  0  0  0  0  0  0  0  0  0  0  0  0  # atno 17395 bound_to 11000

$$$$
