AV-unprocessed.smi:69|AV-procd|sdf|651|dock4
  -GOLD-   2262016553D 1   1.00000     0.00000
 Structure written by MMmdl.
 32 34  0  0  0  0  0  0  0  0  1 V2000
  154.0480  141.6478  160.4643 N   0  0  0  0  0  0  0  0  0  0  0  0
  153.0949  141.9648  159.5773 C   0  0  0  0  0  0  0  0  0  0  0  0
  152.9642  143.2613  159.2092 N   0  0  0  0  0  0  0  0  0  0  0  0
  152.0228  143.6038  158.3230 C   0  0  0  0  0  0  0  0  0  0  0  0
  151.1331  142.8224  157.7040 N   0  0  0  0  0  0  0  0  0  0  0  0
  151.2681  141.5172  158.0803 C   0  0  0  0  0  0  0  0  0  0  0  0
  152.2196  141.0076  159.0053 C   0  0  0  0  0  0  0  0  0  0  0  0
  152.0631  139.6334  159.1352 N   0  0  0  0  0  0  0  0  0  0  0  0
  151.0741  139.3519  158.3286 C   0  0  0  0  0  0  0  0  0  0  0  0
  150.5390  140.4296  157.6549 N   0  0  0  0  0  0  0  0  0  0  0  0
  149.4230  140.4608  156.6612 C   0  0  2  0  0  0  0  0  0  0  0  0
  148.8261  139.2077  156.6386 O   0  0  0  0  0  0  0  0  0  0  0  0
  148.1592  139.0727  155.3942 C   0  0  2  0  0  0  0  0  0  0  0  0
  147.8527  137.5926  155.1207 C   0  0  0  0  0  0  0  0  0  0  0  0
  149.0283  136.9204  154.7229 O   0  0  0  0  0  0  0  0  0  0  0  0
  149.1613  139.6849  154.4043 C   0  0  1  0  0  0  0  0  0  0  0  0
  148.4727  140.2801  153.3228 O   0  0  0  0  0  0  0  0  0  0  0  0
  149.8994  140.7467  155.2219 C   0  0  2  0  0  0  0  0  0  0  0  0
  151.3008  140.6346  155.0427 O   0  0  0  0  0  0  0  0  0  0  0  0
  148.7166  141.2033  157.0371 H   0  0  0  0  0  0  0  0  0  0  0  0
  147.2433  139.6682  155.4174 H   0  0  0  0  0  0  0  0  0  0  0  0
  149.8511  138.9223  154.0387 H   0  0  0  0  0  0  0  0  0  0  0  0
  149.5916  141.7605  154.9605 H   0  0  0  0  0  0  0  0  0  0  0  0
  154.1661  140.6874  160.7534 H   0  0  0  0  0  0  0  0  0  0  0  0
  154.6465  142.3689  160.8402 H   0  0  0  0  0  0  0  0  0  0  0  0
  151.9760  144.6536  158.0738 H   0  0  0  0  0  0  0  0  0  0  0  0
  150.7095  138.3430  158.2000 H   0  0  0  0  0  0  0  0  0  0  0  0
  147.4931  137.1109  156.0303 H   0  0  0  0  0  0  0  0  0  0  0  0
  147.0751  137.4809  154.3644 H   0  0  0  0  0  0  0  0  0  0  0  0
  149.0367  136.8616  153.7797 H   0  0  0  0  0  0  0  0  0  0  0  0
  148.8966  140.0201  152.5189 H   0  0  0  0  0  0  0  0  0  0  0  0
  151.5416  139.7254  155.1339 H   0  0  0  0  0  0  0  0  0  0  0  0
  1  2  1  0  0  0  0
  1 24  1  0  0  0  0
  1 25  1  0  0  0  0
  2  7  1  0  0  0  0
  2  3  2  0  0  0  0
  3  4  1  0  0  0  0
  4  5  2  0  0  0  0
  4 26  1  0  0  0  0
  5  6  1  0  0  0  0
  6 10  1  0  0  0  0
  6  7  2  0  0  0  0
  7  8  1  0  0  0  0
  8  9  2  0  0  0  0
  9 10  1  0  0  0  0
  9 27  1  0  0  0  0
 10 11  1  0  0  0  0
 11 20  1  0  0  0  0
 11 18  1  0  0  0  0
 11 12  1  0  0  0  0
 12 13  1  0  0  0  0
 13 21  1  0  0  0  0
 13 14  1  0  0  0  0
 13 16  1  0  0  0  0
 14 15  1  0  0  0  0
 14 28  1  0  0  0  0
 14 29  1  0  0  0  0
 15 30  1  0  0  0  0
 16 22  1  0  0  0  0
 16 17  1  0  0  0  0
 16 18  1  0  0  0  0
 17 31  1  0  0  0  0
 18 23  1  0  0  0  0
 18 19  1  0  0  0  0
 19 32  1  0  0  0  0
M  END
> <s_m_source_file>
AV-unprocessed.smi

> <i_m_source_file_index>
69

> <i_lp_mmshare_version>
43012

> <i_f3d_flags>
0

> <s_epik_input>
bjFbY0hdbmMoW05IMl0pYyhjMTIpbltjSF1uMltDQEBIXTNPW0NASF0oW0NIMl1bT0hdKVtDQEBIXShbT0hdKVtDQEhdM1tPSF0=

> <s_epik_cmdline>
J2VwaWtfcHl0aG9uJywgJy1waCcsICc3LjAnLCAnLXRuJywgJzgnLCAnLW1hJywgJzIwMCcsICctbWV0YWxfYmluZGluZycsICctaW1hZScsICc8aW5maWxlLm1hZT4nLCAnLW9tYWUnLCAnPG91dGZpbGUubWFlPic=

> <r_lp_tautomer_probability>
1

> <r_epik_Ionization_Penalty>
0.000428445

> <r_epik_Ionization_Penalty_Charging>
0

> <r_epik_Ionization_Penalty_Neutral>
0.000428445

> <r_epik_State_Penalty>
-0

> <r_epik_Charging_Adjusted_Penalty>
0

> <i_epik_Tot_Q>
0

> <i_epik_Tot_abs_Q>
0

> <r_epik_Metal_State_Penalty>
-0

> <b_epik_Metal_Only>
0

> <s_epik_Chemistry_Notes>
This compound contains an acetal/aminal-like group ( X-CH(R)-Y where X, Y are N, S, or O) that may be acid/base labile, releasing an aldehyde.

> <s_lp_Force_Field>
OPLS_2005

> <r_lp_Energy>
36.244

> <b_lp_Chiralities_Consistent>
1

> <s_lp_Variant>
AV-unprocessed.smi:69-9

> <Gold.Version>
5.8.1

> <Gold.Id.Protein>
6NUR|6NUR_protein|mol2

> <Gold.PLP.Fitness>
33.7020

> <Gold.PLP.PLP>
-25.7318

> <Gold.PLP.part.hbond>
-2.5445

> <Gold.PLP.part.metal>
0.0000

> <Gold.PLP.part.buried>
-5.4948

> <Gold.PLP.part.nonpolar>
-17.9842

> <Gold.PLP.part.repulsive>
0.1338

> <Gold.PLP.ligand.clash>
0.0000

> <Gold.PLP.ligand.torsion>
0.3415

> <Gold.PLP.Chemscore.Hbond>
2.8800

> <Gold.PLP.Chemscore.CHOScore>
0.0000

> <Gold.PLP.Chemscore.Metal>
0.0000

> <Gold.Chemscore.Hbonds>
donor molecule, donor type, donor heavy atom, donor atom, acceptor molecule, acceptor atom, score
      L1  H    15    30       P1  7948  1.00
      L1  H    17    31       P1  7957  1.00
      P1  H  7989  7998       L1    19  0.88

> <Gold.PLP.Chemscore.Internal.Correction>
0.0132

> <Gold.Rescore>
     Score         DG    S(hbond)    S(metal)    S(lipo)     H(rot)  DE(clash)    DE(int)     intcor
      7.14      -7.50       2.94        0.00      21.35       4.03       0.00       0.35       ----

> <Gold.Chemscore.Fitness>
7.1445

> <Gold.Chemscore.DG>
-7.4995

> <Gold.Chemscore.ZeroCoef>
-5.4800

> <Gold.Chemscore.Hbond>
2.9439

> <Gold.Chemscore.Metal>
0.0000

> <Gold.Chemscore.Lipo>
21.3497

> <Gold.Chemscore.Internal_Hbond>
0.0000

> <Gold.Chemscore.DEClash>
0.0015

> <Gold.Chemscore.DEInternal>
0.3536

> <Gold.Chemscore.Rot>
4.0277

> <Gold.Chemscore.Internal.Correction>
   9.000000E+99

> <Gold.Chemscore.Hbonds>
donor molecule, donor type, donor heavy atom, donor atom, acceptor molecule, acceptor atom, score
      L1  H    15    30       P1  7948  0.96
      L1  H    17    31       P1  7957  0.93
      P1  H  7989  7998       L1    19  0.18

> <Gold.Chemscore.Hbond.Weighted>
-9.8326

> <Gold.Chemscore.Metal.Weighted>
-0.0000

> <Gold.Chemscore.Lipo.Weighted>
-2.4979

> <Gold.Chemscore.Internal_Hbond.Weighted>
0.0000

> <Gold.Chemscore.DEClash.Weighted>
0.0015

> <Gold.Chemscore.DEInternal.Weighted>
0.3536

> <Gold.Chemscore.Rot.Weighted>
10.3110

> <Gold.Chemscore.Internal.Correction.Weighted>
   9.000000E+99

> <Gold.Protein.RotatedTorsions>
[ 6907 6896 6895 6894 ] final -108.90 input  -60.11 | X-H torsion
[ 7974 7965 7964 7962 ] final   18.07 input  175.53 | X-H torsion
[ 8008 7997 7996 7995 ] final  114.30 input   59.86 | X-H torsion
[ 10167 10162 10161 10158 ] final  -79.56 input  -65.29 | X-H torsion
[ 10718 10713 10712 10709 ] final  101.13 input   66.30 | X-H torsion
[ 10763 10752 10751 10750 ] final   68.23 input  -60.55 | X-H torsion
[ 11005 11000 10999 10996 ] final   82.00 input  -57.11 | X-H torsion

> <Gold.Protein.ActiveResidues>
 VAL166  LYS551  ARG553  GLY616  TRP617  ASP618  TYR619  PRO620  LYS621  CYS622 
 ASP623  PHE694  ASN695  SER759  ASP760  ASP761  ALA762  ILE779  LEU786  VAL792 
 PHE793  MET794  SER795  GLU796  ALA797  LYS798  CYS799  TRP800  GLU811  SER814 

> <Gold.Protein.RotatedAtoms>
  150.7529  133.9609  159.3515 H   0  0  0  0  0  0  0  0  0  0  0  0  # atno 6907 bound_to 6896
  151.7535  135.0825  160.0344 H   0  0  0  0  0  0  0  0  0  0  0  0  # atno 6908 bound_to 6896
  152.3450  133.6075  159.5940 H   0  0  0  0  0  0  0  0  0  0  0  0  # atno 6909 bound_to 6896
  146.2197  139.8510  142.8622 H   0  0  0  0  0  0  0  0  0  0  0  0  # atno 7974 bound_to 7965
  156.2312  140.2962  156.0194 H   0  0  0  0  0  0  0  0  0  0  0  0  # atno 8008 bound_to 7997
  155.2218  140.0416  157.2966 H   0  0  0  0  0  0  0  0  0  0  0  0  # atno 8009 bound_to 7997
  154.6000  140.2424  155.7813 H   0  0  0  0  0  0  0  0  0  0  0  0  # atno 8010 bound_to 7997
  140.4582  143.2462  151.8388 H   0  0  0  0  0  0  0  0  0  0  0  0  # atno 10167 bound_to 10162
  157.6837  131.0718  150.5206 H   0  0  0  0  0  0  0  0  0  0  0  0  # atno 10718 bound_to 10713
  153.0225  135.5255  154.7102 H   0  0  0  0  0  0  0  0  0  0  0  0  # atno 10763 bound_to 10752
  154.6186  135.2886  155.0353 H   0  0  0  0  0  0  0  0  0  0  0  0  # atno 10764 bound_to 10752
  154.1348  135.6587  153.4982 H   0  0  0  0  0  0  0  0  0  0  0  0  # atno 10765 bound_to 10752
  139.9078  134.8039  156.2116 H   0  0  0  0  0  0  0  0  0  0  0  0  # atno 11005 bound_to 11000
  145.2801  141.0136  143.3722 LP  0  0  0  0  0  0  0  0  0  0  0  0  # atno 17320 bound_to 7965
  144.9156  139.4474  143.6566 LP  0  0  0  0  0  0  0  0  0  0  0  0  # atno 17321 bound_to 7965
  139.4803  144.5039  151.9023 LP  0  0  0  0  0  0  0  0  0  0  0  0  # atno 17342 bound_to 10162
  140.4125  144.2350  150.5888 LP  0  0  0  0  0  0  0  0  0  0  0  0  # atno 17343 bound_to 10162
  156.5519  130.4234  149.6103 LP  0  0  0  0  0  0  0  0  0  0  0  0  # atno 17370 bound_to 10713
  156.2895  130.7116  151.1961 LP  0  0  0  0  0  0  0  0  0  0  0  0  # atno 17371 bound_to 10713
  141.0462  133.6912  156.1687 LP  0  0  0  0  0  0  0  0  0  0  0  0  # atno 17394 bound_to 11000
  140.6881  134.4695  157.5589 LP  0  0  0  0  0  0  0  0  0  0  0  0  # atno 17395 bound_to 11000

$$$$
