#       Name:                AV-unprocessed.smi:244
#       Creating user name   scv26
#       Creation time:       Thu Mar 26 20:51:41 2020


#       File generated by GOLD software.
#

@<TRIPOS>MOLECULE
AV-unprocessed.smi:244
    67    71     1
SMALL
NO_CHARGES


@<TRIPOS>ATOM
      1 ****        -2.8366   2.0550   2.3764 C.3            1 S1                 0.0000
      2 ****        -2.9077   0.6185   2.1332 N.3            1 S1                 0.0000
      3 ****        -4.2847   0.1162   2.1287 C.3            1 S1                 0.0000
      4 ****        -5.0637   0.5283   0.8625 C.3            1 S1                 0.0000
      5 ****        -4.3115   0.0784  -0.3942 C.3            1 S1                 0.0000
      6 ****        -4.9935   0.5225  -1.5623 O.3            1 S1                 0.0000
      7 ****        -4.3496   0.0679  -2.7488 C.3            1 S1                 0.0000
      8 ****        -2.9157   0.6214  -2.8014 C.3            1 S1                 0.0000
      9 ****        -2.1841   0.2535  -1.5924 N.3            1 S1                 0.0000
     10 ****        -0.8836   0.6182  -1.6419 C.ar           1 S1                 0.0000
     11 ****        -0.5432   1.9329  -1.7064 N.ar           1 S1                 0.0000
     12 ****         0.7458   2.2864  -1.7181 C.ar           1 S1                 0.0000
     13 ****         1.8269   1.5046  -1.6636 N.ar           1 S1                 0.0000
     14 ****         1.4833   0.1858  -1.5978 C.ar           1 S1                 0.0000
     15 ****         0.1619  -0.3390  -1.5909 C.ar           1 S1                 0.0000
     16 ****         0.1967  -1.7252  -1.5212 N.2            1 S1                 0.0000
     17 ****         1.4711  -2.0055  -1.4872 C.2            1 S1                 0.0000
     18 ****         2.3146  -0.9169  -1.5063 N.pl3          1 S1                 0.0000
     19 ****         3.7681  -0.9389  -1.4585 C.3            1 S1                 0.0000
     20 ****         4.3608  -0.9398  -0.0257 C.3            1 S1                 0.0000
     21 ****         5.7658  -0.9393  -0.2030 O.3            1 S1                 0.0000
     22 ****         3.9718   0.3130   0.7893 C.3            1 S1                 0.0000
     23 ****         4.4945   0.2425   2.2356 C.3            1 S1                 0.0000
     24 ****         4.0288  -0.9456   2.8652 O.3            1 S1                 0.0000
     25 ****         4.4990  -2.1297   2.2315 C.3            1 S1                 0.0000
     26 ****         3.9753  -2.1963   0.7854 C.3            1 S1                 0.0000
     27 ****        -2.8856   0.6623  -0.3738 C.3            1 S1                 0.0000
     28 ****        -2.1735   0.2149   0.9303 C.3            1 S1                 0.0000
     29 ****        -3.3176   2.3018   3.3232 H              1 S1                 0.0000
     30 ****        -3.3211   2.6352   1.5920 H              1 S1                 0.0000
     31 ****        -1.7969   2.3770   2.4412 H              1 S1                 0.0000
     32 ****        -4.2493  -0.9722   2.1891 H              1 S1                 0.0000
     33 ****        -4.8045   0.4569   3.0247 H              1 S1                 0.0000
     34 ****        -6.0565   0.0782   0.8795 H              1 S1                 0.0000
     35 ****        -5.2190   1.6072   0.8424 H              1 S1                 0.0000
     36 ****        -4.2674  -1.0129  -0.4017 H              1 S1                 0.0000
     37 ****        -4.3464  -1.0228  -2.7801 H              1 S1                 0.0000
     38 ****        -4.9167   0.4092  -3.6147 H              1 S1                 0.0000
     39 ****        -2.3990   0.2338  -3.6805 H              1 S1                 0.0000
     40 ****        -2.9481   1.7076  -2.8996 H              1 S1                 0.0000
     41 ****         0.9388   3.3475  -1.7731 H              1 S1                 0.0000
     42 ****         1.8339  -3.0217  -1.4315 H              1 S1                 0.0000
     43 ****         4.1083  -1.8189  -2.0064 H              1 S1                 0.0000
     44 ****         4.1364  -0.0758  -2.0153 H              1 S1                 0.0000
     45 ****         6.1763  -0.9341   0.6483 H              1 S1                 0.0000
     46 ****         4.3360   1.2173   0.3001 H              1 S1                 0.0000
     47 ****         2.8866   0.4043   0.8334 H              1 S1                 0.0000
     48 ****         5.5844   0.2798   2.2650 H              1 S1                 0.0000
     49 ****         4.1357   1.1017   2.8024 H              1 S1                 0.0000
     50 ****         5.5891  -2.1637   2.2603 H              1 S1                 0.0000
     51 ****         4.1431  -2.9922   2.7952 H              1 S1                 0.0000
     52 ****         2.8908  -2.2899   0.8328 H              1 S1                 0.0000
     53 ****         4.3408  -3.0983   0.2929 H              1 S1                 0.0000
     54 ****        -2.9547   1.7506  -0.3898 H              1 S1                 0.0000
     55 ****        -1.1630   0.6209   0.9882 H              1 S1                 0.0000
     56 ****        -2.0704  -0.8711   0.9360 H              1 S1                 0.0000
     57 ****        -2.4477   0.1856   2.9085 LP             1 S1                 0.0000
     58 ****        -5.0134   1.5223  -1.5663 LP             1 S1                 0.0000
     59 ****        -5.9294   0.1705  -1.5455 LP             1 S1                 0.0000
     60 ****        -2.1618  -0.7455  -1.5520 LP             1 S1                 0.0000
     61 ****        -1.2555   2.6337  -1.7450 LP             1 S1                 0.0000
     62 ****         2.7680   1.8425  -1.6701 LP             1 S1                 0.0000
     63 ****        -0.5750  -2.3610  -1.5016 LP             1 S1                 0.0000
     64 ****         6.0407  -0.1254  -0.7148 LP             1 S1                 0.0000
     65 ****         6.0424  -1.7583  -0.7056 LP             1 S1                 0.0000
     66 ****         3.0290  -0.9475   2.8431 LP             1 S1                 0.0000
     67 ****         4.3412  -0.9467   3.8152 LP             1 S1                 0.0000
@<TRIPOS>BOND
    1    1    2 1     
    2    1   29 1     
    3    1   30 1     
    4    1   31 1     
    5    2   28 1     
    6    2    3 1     
    7    3    4 1     
    8    3   32 1     
    9    3   33 1     
   10    4    5 1     
   11    4   34 1     
   12    4   35 1     
   13    5   27 1     
   14    5    6 1     
   15    5   36 1     
   16    6    7 1     
   17    7    8 1     
   18    7   37 1     
   19    7   38 1     
   20    8    9 1     
   21    8   39 1     
   22    8   40 1     
   23    9   10 1     
   24    9   27 1     
   25   10   15 ar    
   26   10   11 ar    
   27   11   12 ar    
   28   12   13 ar    
   29   12   41 1     
   30   13   14 ar    
   31   14   18 1     
   32   14   15 ar    
   33   15   16 1     
   34   16   17 2     
   35   17   18 1     
   36   17   42 1     
   37   18   19 1     
   38   19   20 1     
   39   19   43 1     
   40   19   44 1     
   41   20   26 1     
   42   20   21 1     
   43   20   22 1     
   44   21   45 1     
   45   22   23 1     
   46   22   46 1     
   47   22   47 1     
   48   23   24 1     
   49   23   48 1     
   50   23   49 1     
   51   24   25 1     
   52   25   26 1     
   53   25   50 1     
   54   25   51 1     
   55   26   52 1     
   56   26   53 1     
   57   27   28 1     
   58   27   54 1     
   59   28   55 1     
   60   28   56 1     
   61    2   57 1     
   62    6   58 1     
   63    6   59 1     
   64    9   60 1     
   65   11   61 1     
   66   13   62 1     
   67   16   63 1     
   68   21   64 1     
   69   21   65 1     
   70   24   66 1     
   71   24   67 1     
@<TRIPOS>SUBSTRUCTURE
      1 S1             1
@<TRIPOS>SET
LONE_PAIRS      STATIC     ATOMS    <user>   **** ""
11 57 58 59 60 61 62 63 64 65 66 67
DONOR_HYDROGENS      STATIC     ATOMS    <user>   **** ""
1 45
ATOM$BLUE        STATIC     ATOMS    COLORGROUP SYSTEM
11 57 58 59 60 61 62 63 64 65 66 67
ATOM$RED        STATIC     ATOMS    COLORGROUP SYSTEM
1 45
