AV-unprocessed.smi:24|AV-procd|sdf|176|dock3
  -GOLD-   2262015433D 1   1.00000     0.00000
 Structure written by MMmdl.
 61 65  0  0  0  0  0  0  0  0  1 V2000
  146.9062  136.4752  162.3788 C   0  0  0  0  0  0  0  0  0  0  0  0
  147.6324  137.2146  161.4080 O   0  0  0  0  0  0  0  0  0  0  0  0
  148.1737  136.5285  160.3421 C   0  0  0  0  0  0  0  0  0  0  0  0
  148.8903  137.2827  159.3909 C   0  0  0  0  0  0  0  0  0  0  0  0
  149.4771  136.6628  158.2713 C   0  0  0  0  0  0  0  0  0  0  0  0
  149.3516  135.2719  158.0808 C   0  0  0  0  0  0  0  0  0  0  0  0
  150.0035  134.6145  156.8656 C   0  0  1  0  0  0  0  0  0  0  0  0
  149.1199  133.5189  156.2630 C   0  0  0  0  0  0  0  0  0  0  0  0
  148.9390  134.0118  154.8665 C   0  0  0  0  0  0  0  0  0  0  0  0
  148.1084  133.2791  153.8850 C   0  0  0  0  0  0  0  0  0  0  0  0
  147.6506  133.9470  152.7263 C   0  0  0  0  0  0  0  0  0  0  0  0
  146.8593  133.2503  151.7918 C   0  0  0  0  0  0  0  0  0  0  0  0
  146.5288  131.8986  152.0127 C   0  0  0  0  0  0  0  0  0  0  0  0
  146.9883  131.2369  153.1689 C   0  0  0  0  0  0  0  0  0  0  0  0
  147.7802  131.9230  154.1106 C   0  0  0  0  0  0  0  0  0  0  0  0
  149.5593  135.1058  154.6190 N   0  0  0  0  0  0  0  0  0  0  0  0
  150.2267  135.5154  155.7270 N   0  0  0  0  0  0  0  0  0  0  0  0
  151.0714  136.5703  155.7364 C   0  0  0  0  0  0  0  0  0  0  0  0
  151.7463  136.8546  156.7278 O   0  0  0  0  0  0  0  0  0  0  0  0
  151.1840  137.4270  154.4572 C   0  0  0  0  0  0  0  0  0  0  0  0
  150.9546  138.8695  154.6918 N   0  0  0  0  0  0  0  0  0  0  0  0
  149.8167  139.4801  154.1085 C   0  0  0  0  0  0  0  0  0  0  0  0
  149.0329  138.8349  153.4104 O   0  0  0  0  0  0  0  0  0  0  0  0
  149.6456  140.8992  154.3988 C   0  0  0  0  0  0  0  0  0  0  0  0
  148.6024  141.5644  153.8742 F   0  0  0  0  0  0  0  0  0  0  0  0
  150.5197  141.5583  155.1870 C   0  0  0  0  0  0  0  0  0  0  0  0
  151.6161  140.9442  155.7665 N   0  0  0  0  0  0  0  0  0  0  0  0
  152.5853  141.6958  156.6553 C   0  0  2  0  0  0  0  0  0  0  0  0
  152.7584  140.9719  158.0047 C   0  0  0  0  0  0  0  0  0  0  0  0
  152.5018  142.0745  159.0126 C   0  0  0  0  0  0  0  0  0  0  0  0
  151.5424  142.9779  158.2530 C   0  0  0  0  0  0  0  0  0  0  0  0
  152.0822  142.9709  156.9381 O   0  0  0  0  0  0  0  0  0  0  0  0
  151.8588  139.5754  155.5204 C   0  0  0  0  0  0  0  0  0  0  0  0
  152.8320  139.0107  156.0250 O   0  0  0  0  0  0  0  0  0  0  0  0
  148.6400  134.5087  159.0322 C   0  0  0  0  0  0  0  0  0  0  0  0
  148.0539  135.1291  160.1520 C   0  0  0  0  0  0  0  0  0  0  0  0
  146.5486  137.1528  163.1539 H   0  0  0  0  0  0  0  0  0  0  0  0
  147.5355  135.7258  162.8609 H   0  0  0  0  0  0  0  0  0  0  0  0
  146.0348  135.9874  161.9396 H   0  0  0  0  0  0  0  0  0  0  0  0
  148.9925  138.3500  159.5218 H   0  0  0  0  0  0  0  0  0  0  0  0
  150.0233  137.2613  157.5573 H   0  0  0  0  0  0  0  0  0  0  0  0
  150.9643  134.1874  157.1601 H   0  0  0  0  0  0  0  0  0  0  0  0
  149.6176  132.5488  156.2801 H   0  0  0  0  0  0  0  0  0  0  0  0
  148.1603  133.4301  156.7743 H   0  0  0  0  0  0  0  0  0  0  0  0
  147.8927  134.9833  152.5397 H   0  0  0  0  0  0  0  0  0  0  0  0
  146.5052  133.7537  150.9045 H   0  0  0  0  0  0  0  0  0  0  0  0
  145.9217  131.3682  151.2940 H   0  0  0  0  0  0  0  0  0  0  0  0
  146.7326  130.2005  153.3337 H   0  0  0  0  0  0  0  0  0  0  0  0
  148.1202  131.3931  154.9880 H   0  0  0  0  0  0  0  0  0  0  0  0
  152.1640  137.2599  154.0073 H   0  0  0  0  0  0  0  0  0  0  0  0
  150.4817  137.0428  153.7156 H   0  0  0  0  0  0  0  0  0  0  0  0
  150.3365  142.6078  155.3593 H   0  0  0  0  0  0  0  0  0  0  0  0
  153.5054  141.7881  156.0753 H   0  0  0  0  0  0  0  0  0  0  0  0
  152.0141  140.1806  158.1084 H   0  0  0  0  0  0  0  0  0  0  0  0
  153.7537  140.5353  158.0896 H   0  0  0  0  0  0  0  0  0  0  0  0
  152.0901  141.7077  159.9530 H   0  0  0  0  0  0  0  0  0  0  0  0
  153.4279  142.6093  159.2278 H   0  0  0  0  0  0  0  0  0  0  0  0
  150.5349  142.5594  158.2500 H   0  0  0  0  0  0  0  0  0  0  0  0
  151.4963  143.9867  158.6637 H   0  0  0  0  0  0  0  0  0  0  0  0
  148.5412  133.4400  158.9101 H   0  0  0  0  0  0  0  0  0  0  0  0
  147.5176  134.5070  160.8523 H   0  0  0  0  0  0  0  0  0  0  0  0
  1  2  1  0  0  0  0
  1 37  1  0  0  0  0
  1 38  1  0  0  0  0
  1 39  1  0  0  0  0
  2  3  1  0  0  0  0
  3 36  1  0  0  0  0
  3  4  2  0  0  0  0
  4  5  1  0  0  0  0
  4 40  1  0  0  0  0
  5  6  2  0  0  0  0
  5 41  1  0  0  0  0
  6  7  1  0  0  0  0
  6 35  1  0  0  0  0
  7 17  1  0  0  0  0
  7  8  1  0  0  0  0
  7 42  1  0  0  0  0
  8  9  1  0  0  0  0
  8 43  1  0  0  0  0
  8 44  1  0  0  0  0
  9 10  1  0  0  0  0
  9 16  2  0  0  0  0
 10 15  1  0  0  0  0
 10 11  2  0  0  0  0
 11 12  1  0  0  0  0
 11 45  1  0  0  0  0
 12 13  2  0  0  0  0
 12 46  1  0  0  0  0
 13 14  1  0  0  0  0
 13 47  1  0  0  0  0
 14 15  2  0  0  0  0
 14 48  1  0  0  0  0
 15 49  1  0  0  0  0
 16 17  1  0  0  0  0
 17 18  1  0  0  0  0
 18 19  2  0  0  0  0
 18 20  1  0  0  0  0
 20 21  1  0  0  0  0
 20 50  1  0  0  0  0
 20 51  1  0  0  0  0
 21 33  1  0  0  0  0
 21 22  1  0  0  0  0
 22 23  2  0  0  0  0
 22 24  1  0  0  0  0
 24 25  1  0  0  0  0
 24 26  2  0  0  0  0
 26 27  1  0  0  0  0
 26 52  1  0  0  0  0
 27 28  1  0  0  0  0
 27 33  1  0  0  0  0
 28 32  1  0  0  0  0
 28 29  1  0  0  0  0
 28 53  1  0  0  0  0
 29 30  1  0  0  0  0
 29 54  1  0  0  0  0
 29 55  1  0  0  0  0
 30 31  1  0  0  0  0
 30 56  1  0  0  0  0
 30 57  1  0  0  0  0
 31 32  1  0  0  0  0
 31 58  1  0  0  0  0
 31 59  1  0  0  0  0
 33 34  2  0  0  0  0
 35 36  2  0  0  0  0
 35 60  1  0  0  0  0
 36 61  1  0  0  0  0
M  END
> <s_m_source_file>
AV-unprocessed.smi

> <i_m_source_file_index>
24

> <i_lp_mmshare_version>
43012

> <i_f3d_flags>
0

> <s_epik_input>
W0NIM11PYzFbY0hdW2NIXWMoW2NIXVtjSF0xKVtDQEBIXTJbQ0gyXUMoYzNbY0hdW2NIXVtjSF1bY0hdW2NIXTMpPU5OMkMoPU8pW0NIMl1uNGMoPU8pYyhGKVtjSF1uKGM0PU8pW0NAQEhdNVtDSDJdW0NIMl1bQ0gyXU81

> <s_epik_cmdline>
J2VwaWtfcHl0aG9uJywgJy1waCcsICc3LjAnLCAnLXRuJywgJzgnLCAnLW1hJywgJzIwMCcsICctbWV0YWxfYmluZGluZycsICctaW1hZScsICc8aW5maWxlLm1hZT4nLCAnLW9tYWUnLCAnPG91dGZpbGUubWFlPic=

> <r_lp_tautomer_probability>
1

> <r_epik_Ionization_Penalty>
1.46326e-08

> <r_epik_Ionization_Penalty_Charging>
4.53232e-09

> <r_epik_Ionization_Penalty_Neutral>
1.01002e-08

> <r_epik_State_Penalty>
-0

> <r_epik_Charging_Adjusted_Penalty>
4.53232e-09

> <i_epik_Tot_Q>
0

> <i_epik_Tot_abs_Q>
0

> <r_epik_Metal_State_Penalty>
-0

> <b_epik_Metal_Only>
0

> <s_epik_Chemistry_Notes>
This compound has an imine and may undergo hydrolysis. This compound contains an acetal/aminal-like group ( X-CH(R)-Y where X, Y are N, S, or O) that may be acid/base labile, releasing an aldehyde.

> <s_lp_Force_Field>
OPLS_2005

> <r_lp_Energy>
50.3667

> <b_lp_Chiralities_Consistent>
1

> <s_lp_Variant>
AV-unprocessed.smi:24-2

> <Gold.Version>
5.8.1

> <Gold.Id.Protein>
6NUR|6NUR_protein|mol2

> <Gold.PLP.Fitness>
57.2281

> <Gold.PLP.PLP>
-50.0741

> <Gold.PLP.part.hbond>
-2.5157

> <Gold.PLP.part.metal>
0.0000

> <Gold.PLP.part.buried>
-0.8646

> <Gold.PLP.part.nonpolar>
-47.8017

> <Gold.PLP.part.repulsive>
3.2964

> <Gold.PLP.ligand.clash>
0.1330

> <Gold.PLP.ligand.torsion>
0.9512

> <Gold.PLP.Chemscore.Hbond>
2.0283

> <Gold.PLP.Chemscore.CHOScore>
1.0000

> <Gold.PLP.Chemscore.Metal>
0.0000

> <Gold.Chemscore.Hbonds>
donor molecule, donor type, donor heavy atom, donor atom, acceptor molecule, acceptor atom, score
      P1  H  6931  6943       L1     2  0.96
      P1  H  6934  6947       L1     2  0.82
      P1  H  7997  8010       L1    34  1.00
      L1  C    26    52       P1  8028  0.89

> <Gold.PLP.Chemscore.Internal.Correction>
0.1046

> <Gold.Rescore>
     Score         DG    S(hbond)    S(metal)    S(lipo)     H(rot)  DE(clash)    DE(int)     intcor
      6.46     -13.89       0.00        0.00     115.13       1.98       0.22       7.22       ----

> <Gold.Chemscore.Fitness>
6.4603

> <Gold.Chemscore.DG>
-13.8939

> <Gold.Chemscore.ZeroCoef>
-5.4800

> <Gold.Chemscore.Hbond>
0.0000

> <Gold.Chemscore.Metal>
0.0000

> <Gold.Chemscore.Lipo>
115.1282

> <Gold.Chemscore.Internal_Hbond>
0.0000

> <Gold.Chemscore.DEClash>
0.2186

> <Gold.Chemscore.DEInternal>
7.2151

> <Gold.Chemscore.Rot>
1.9750

> <Gold.Chemscore.Internal.Correction>
   9.000000E+99

> <Gold.Chemscore.Hbonds>
donor molecule, donor type, donor heavy atom, donor atom, acceptor molecule, acceptor atom, score
      P1  H  6931  6943       L1     2  0.31
      P1  H  6934  6947       L1     2  0.66
      P1  H  7997  8010       L1    34  0.95

> <Gold.Chemscore.Hbond.Weighted>
-0.0000

> <Gold.Chemscore.Metal.Weighted>
-0.0000

> <Gold.Chemscore.Lipo.Weighted>
-13.4700

> <Gold.Chemscore.Internal_Hbond.Weighted>
0.0000

> <Gold.Chemscore.DEClash.Weighted>
0.2186

> <Gold.Chemscore.DEInternal.Weighted>
7.2151

> <Gold.Chemscore.Rot.Weighted>
5.0561

> <Gold.Chemscore.Internal.Correction.Weighted>
   9.000000E+99

> <Gold.Protein.RotatedTorsions>
[ 6907 6896 6895 6894 ] final   37.74 input  -60.11 | X-H torsion
[ 7974 7965 7964 7962 ] final -147.50 input  175.53 | X-H torsion
[ 8008 7997 7996 7995 ] final   69.33 input   59.86 | X-H torsion
[ 10167 10162 10161 10158 ] final   -2.39 input  -65.29 | X-H torsion
[ 10718 10713 10712 10709 ] final   -0.44 input   66.30 | X-H torsion
[ 10763 10752 10751 10750 ] final   15.58 input  -60.55 | X-H torsion
[ 11005 11000 10999 10996 ] final  176.42 input  -57.11 | X-H torsion

> <Gold.Protein.ActiveResidues>
 VAL166  LYS551  ARG553  GLY616  TRP617  ASP618  TYR619  PRO620  LYS621  CYS622 
 ASP623  PHE694  ASN695  SER759  ASP760  ASP761  ALA762  ILE779  LEU786  VAL792 
 PHE793  MET794  SER795  GLU796  ALA797  LYS798  CYS799  TRP800  GLU811  SER814 

> <Gold.Protein.RotatedAtoms>
  152.1471  134.9017  160.0550 H   0  0  0  0  0  0  0  0  0  0  0  0  # atno 6907 bound_to 6896
  152.0063  133.3839  159.4210 H   0  0  0  0  0  0  0  0  0  0  0  0  # atno 6908 bound_to 6896
  150.6871  134.3701  159.5032 H   0  0  0  0  0  0  0  0  0  0  0  0  # atno 6909 bound_to 6896
  144.8089  140.5319  143.5656 H   0  0  0  0  0  0  0  0  0  0  0  0  # atno 7974 bound_to 7965
  155.7220  140.3493  155.5020 H   0  0  0  0  0  0  0  0  0  0  0  0  # atno 8008 bound_to 7997
  155.9261  140.1076  157.1191 H   0  0  0  0  0  0  0  0  0  0  0  0  # atno 8009 bound_to 7997
  154.4077  140.1240  156.4728 H   0  0  0  0  0  0  0  0  0  0  0  0  # atno 8010 bound_to 7997
  140.6849  143.6663  150.8223 H   0  0  0  0  0  0  0  0  0  0  0  0  # atno 10167 bound_to 10162
  156.8204  130.5454  149.5698 H   0  0  0  0  0  0  0  0  0  0  0  0  # atno 10718 bound_to 10713
  153.1512  135.6779  153.8880 H   0  0  0  0  0  0  0  0  0  0  0  0  # atno 10763 bound_to 10752
  153.8306  135.3118  155.3419 H   0  0  0  0  0  0  0  0  0  0  0  0  # atno 10764 bound_to 10752
  154.7863  135.4860  154.0040 H   0  0  0  0  0  0  0  0  0  0  0  0  # atno 10765 bound_to 10752
  140.3729  134.7014  157.4403 H   0  0  0  0  0  0  0  0  0  0  0  0  # atno 11005 bound_to 11000
  145.5370  139.1475  143.3468 LP  0  0  0  0  0  0  0  0  0  0  0  0  # atno 17320 bound_to 7965
  146.2385  140.5510  142.8944 LP  0  0  0  0  0  0  0  0  0  0  0  0  # atno 17321 bound_to 7965
  140.0368  143.5386  152.2735 LP  0  0  0  0  0  0  0  0  0  0  0  0  # atno 17342 bound_to 10162
  139.6199  144.7627  151.2763 LP  0  0  0  0  0  0  0  0  0  0  0  0  # atno 17343 bound_to 10162
  156.0992  130.5956  150.9865 LP  0  0  0  0  0  0  0  0  0  0  0  0  # atno 17370 bound_to 10713
  157.6459  131.0904  150.8153 LP  0  0  0  0  0  0  0  0  0  0  0  0  # atno 17371 bound_to 10713
  140.0537  134.6093  155.8830 LP  0  0  0  0  0  0  0  0  0  0  0  0  # atno 17394 bound_to 11000
  141.1948  133.6584  156.5615 LP  0  0  0  0  0  0  0  0  0  0  0  0  # atno 17395 bound_to 11000

$$$$
