#       Name:                AV-unprocessed.smi:798
#       Creating user name   scv26
#       Creation time:       Fri Mar 27 01:20:54 2020


#       File generated by GOLD software.
#

@<TRIPOS>MOLECULE
AV-unprocessed.smi:798
    40    42     1
SMALL
NO_CHARGES


@<TRIPOS>ATOM
      1 ****        -0.9015   2.2375  -0.8178 O.2            1 S1                 0.0000
      2 ****        -1.3789   1.1106  -0.6848 C.2            1 S1                 0.0000
      3 ****        -2.6912   0.8189  -0.6577 N.am           1 S1                 0.0000
      4 ****        -3.7935   1.7092  -0.7509 C.2            1 S1                 0.0000
      5 ****        -3.6680   3.0400  -0.8727 N.2            1 S1                 0.0000
      6 ****        -4.9019   3.6742  -0.9392 N.2            1 S1                 0.0000
      7 ****        -5.9078   2.7982  -0.8649 C.2            1 S1                 0.0000
      8 ****        -5.4463   1.1123  -0.7062 S.3            1 S1                 0.0000
      9 ****        -0.6348   0.0045  -0.5402 N.am           1 S1                 0.0000
     10 ****         0.8285  -0.0382  -0.5389 C.3            1 S1                 0.0000
     11 ****         1.3203  -1.4124  -1.0428 C.3            1 S1                 0.0000
     12 ****         2.8136  -1.3112  -1.4034 C.3            1 S1                 0.0000
     13 ****         3.4842  -1.2053  -0.0205 C.3            1 S1                 0.0000
     14 ****         2.2857  -1.2575   0.9480 C.3            1 S1                 0.0000
     15 ****         1.3655  -2.2407   0.2357 C.3            1 S1                 0.0000
     16 ****         1.4978   0.0738   0.8655 C.3            1 S1                 0.0000
     17 ****         0.5447   0.2952   2.0621 C.3            1 S1                 0.0000
     18 ****         1.2804   0.4592   3.2562 O.3            1 S1                 0.0000
     19 ****        -2.9312  -0.1554  -0.5501 H              1 S1                 0.0000
     20 ****        -6.9290   3.1474  -0.9035 H              1 S1                 0.0000
     21 ****        -1.1120  -0.8787  -0.4346 H              1 S1                 0.0000
     22 ****         1.2022   0.7462  -1.2000 H              1 S1                 0.0000
     23 ****         0.7141  -1.8349  -1.8450 H              1 S1                 0.0000
     24 ****         3.1491  -2.2088  -1.9243 H              1 S1                 0.0000
     25 ****         3.0331  -0.4538  -2.0407 H              1 S1                 0.0000
     26 ****         4.1523  -2.0515   0.1447 H              1 S1                 0.0000
     27 ****         4.0705  -0.2923   0.0906 H              1 S1                 0.0000
     28 ****         2.5696  -1.5491   1.9596 H              1 S1                 0.0000
     29 ****         0.3925  -2.3567   0.7150 H              1 S1                 0.0000
     30 ****         1.8115  -3.2272   0.0960 H              1 S1                 0.0000
     31 ****         2.1979   0.9109   0.8527 H              1 S1                 0.0000
     32 ****        -0.0485   1.1982   1.9170 H              1 S1                 0.0000
     33 ****        -0.1500  -0.5361   2.1825 H              1 S1                 0.0000
     34 ****         1.7812  -0.3269   3.4111 H              1 S1                 0.0000
     35 ****        -1.5058   3.0281  -0.9168 LP             1 S1                 0.0000
     36 ****         0.0906   2.3624  -0.8267 LP             1 S1                 0.0000
     37 ****        -2.7905   3.5180  -0.9110 LP             1 S1                 0.0000
     38 ****        -5.0222   4.6627  -1.0311 LP             1 S1                 0.0000
     39 ****         0.6536   0.6155   4.0196 LP             1 S1                 0.0000
     40 ****         1.8982   1.2404   3.1669 LP             1 S1                 0.0000
@<TRIPOS>BOND
    1    1    2 2     
    2    2    3 am    
    3    2    9 am    
    4    3    4 1     
    5    3   19 1     
    6    4    8 1     
    7    4    5 2     
    8    5    6 1     
    9    6    7 2     
   10    7    8 1     
   11    7   20 1     
   12    9   10 1     
   13    9   21 1     
   14   10   16 1     
   15   10   11 1     
   16   10   22 1     
   17   11   15 1     
   18   11   12 1     
   19   11   23 1     
   20   12   13 1     
   21   12   24 1     
   22   12   25 1     
   23   13   14 1     
   24   13   26 1     
   25   13   27 1     
   26   14   15 1     
   27   14   16 1     
   28   14   28 1     
   29   15   29 1     
   30   15   30 1     
   31   16   17 1     
   32   16   31 1     
   33   17   18 1     
   34   17   32 1     
   35   17   33 1     
   36   18   34 1     
   37    1   35 1     
   38    1   36 1     
   39    5   37 1     
   40    6   38 1     
   41   18   39 1     
   42   18   40 1     
@<TRIPOS>SUBSTRUCTURE
      1 S1             1
@<TRIPOS>SET
LONE_PAIRS      STATIC     ATOMS    <user>   **** ""
6 35 36 37 38 39 40
DONOR_HYDROGENS      STATIC     ATOMS    <user>   **** ""
3 19 21 34
ATOM$BLUE        STATIC     ATOMS    COLORGROUP SYSTEM
6 35 36 37 38 39 40
ATOM$RED        STATIC     ATOMS    COLORGROUP SYSTEM
3 19 21 34
