AV-unprocessed.smi:1464|AV-procd|sdf|5940|dock8
  -GOLD-   22720 6 23D 1   1.00000     0.00000
 Structure written by MMmdl.
 40 41  0  0  0  0  0  0  0  0  2 V2000
  151.8809  145.1398  160.4181 C   0  0  0  0  0  0  0  0  0  0  0  0
  152.5126  143.8272  159.9186 C   0  0  1  0  0  0  0  0  0  0  0  0
  152.7034  142.8633  161.1069 C   0  0  0  0  0  0  0  0  0  0  0  0
  153.3620  141.5487  160.6751 C   0  0  0  0  0  0  0  0  0  0  0  0
  152.5380  140.8678  159.5787 C   0  0  0  0  0  0  0  0  0  0  0  0
  152.3403  141.7978  158.3663 C   0  0  1  0  0  0  0  0  0  0  0  0
  151.5147  141.1187  157.3690 N   0  0  0  0  0  0  0  0  0  0  0  0
  151.8357  139.9824  156.7309 C   0  0  0  0  0  0  0  0  0  0  0  0
  152.8801  139.3637  156.9434 O   0  0  0  0  0  0  0  0  0  0  0  0
  150.7986  139.4762  155.7160 C   0  0  0  0  0  0  0  0  0  0  0  0
  149.4599  140.0590  155.8881 N   0  0  0  0  0  0  0  0  0  0  0  0
  148.8487  139.7532  157.1789 N   0  5  0  0  0  0  0  0  0  0  0  0
  147.6200  140.2586  157.4664 C   0  0  0  0  0  0  0  0  0  0  0  0
  147.0509  140.0587  158.5371 O   0  0  0  0  0  0  0  0  0  0  0  0
  146.9583  141.0658  156.4549 C   0  0  0  0  0  0  0  0  0  0  0  0
  147.5368  141.3134  155.2632 C   0  0  0  0  0  0  0  0  0  0  0  0
  148.8551  140.7978  154.9144 C   0  0  0  0  0  0  0  0  0  0  0  0
  149.3860  141.0151  153.8251 O   0  0  0  0  0  0  0  0  0  0  0  0
  151.7018  143.1537  158.7743 C   0  0  2  0  0  0  0  0  0  0  0  0
  151.5476  144.0831  157.5500 C   0  0  0  0  0  0  0  0  0  0  0  0
  150.8501  144.9873  160.7391 H   0  0  0  0  0  0  0  0  0  0  0  0
  151.8848  145.9124  159.6499 H   0  0  0  0  0  0  0  0  0  0  0  0
  152.4348  145.5416  161.2671 H   0  0  0  0  0  0  0  0  0  0  0  0
  153.5034  144.0693  159.5310 H   0  0  0  0  0  0  0  0  0  0  0  0
  153.3157  143.3356  161.8761 H   0  0  0  0  0  0  0  0  0  0  0  0
  151.7381  142.6516  161.5693 H   0  0  0  0  0  0  0  0  0  0  0  0
  154.3719  141.7422  160.3114 H   0  0  0  0  0  0  0  0  0  0  0  0
  153.4621  140.8825  161.5325 H   0  0  0  0  0  0  0  0  0  0  0  0
  153.0352  139.9473  159.2701 H   0  0  0  0  0  0  0  0  0  0  0  0
  151.5683  140.5738  159.9834 H   0  0  0  0  0  0  0  0  0  0  0  0
  153.3199  142.0099  157.9326 H   0  0  0  0  0  0  0  0  0  0  0  0
  150.6361  141.5563  157.1330 H   0  0  0  0  0  0  0  0  0  0  0  0
  151.1714  139.6776  154.7106 H   0  0  0  0  0  0  0  0  0  0  0  0
  150.7393  138.3883  155.7889 H   0  0  0  0  0  0  0  0  0  0  0  0
  145.9803  141.4743  156.6626 H   0  0  0  0  0  0  0  0  0  0  0  0
  147.0080  141.9172  154.5410 H   0  0  0  0  0  0  0  0  0  0  0  0
  150.7003  142.9470  159.1555 H   0  0  0  0  0  0  0  0  0  0  0  0
  152.5199  144.3679  157.1468 H   0  0  0  0  0  0  0  0  0  0  0  0
  151.0073  144.9958  157.7974 H   0  0  0  0  0  0  0  0  0  0  0  0
  150.9855  143.6080  156.7461 H   0  0  0  0  0  0  0  0  0  0  0  0
  1  2  1  0  0  0  0
  1 21  1  0  0  0  0
  1 22  1  0  0  0  0
  1 23  1  0  0  0  0
  2 19  1  0  0  0  0
  2  3  1  0  0  0  0
  2 24  1  0  0  0  0
  3  4  1  0  0  0  0
  3 25  1  0  0  0  0
  3 26  1  0  0  0  0
  4  5  1  0  0  0  0
  4 27  1  0  0  0  0
  4 28  1  0  0  0  0
  5  6  1  0  0  0  0
  5 29  1  0  0  0  0
  5 30  1  0  0  0  0
  6  7  1  0  0  0  0
  6 19  1  0  0  0  0
  6 31  1  0  0  0  0
  7  8  1  0  0  0  0
  7 32  1  0  0  0  0
  8  9  2  0  0  0  0
  8 10  1  0  0  0  0
 10 33  1  0  0  0  0
 10 34  1  0  0  0  0
 10 11  1  0  0  0  0
 11 12  1  0  0  0  0
 11 17  1  0  0  0  0
 12 13  1  0  0  0  0
 13 14  2  0  0  0  0
 13 15  1  0  0  0  0
 15 35  1  0  0  0  0
 15 16  2  0  0  0  0
 16 36  1  0  0  0  0
 16 17  1  0  0  0  0
 17 18  2  0  0  0  0
 19 20  1  0  0  0  0
 19 37  1  0  0  0  0
 20 38  1  0  0  0  0
 20 39  1  0  0  0  0
 20 40  1  0  0  0  0
M  CHG  1  12  -1
M  END
> <s_m_source_file>
AV-unprocessed.smi

> <i_m_source_file_index>
1464

> <i_lp_mmshare_version>
43012

> <i_f3d_flags>
0

> <s_epik_input>
W0NIM11bQ0BASF0xW0NIMl1bQ0gyXVtDSDJdW0NASF0oW0NASF0xW0NIM10pW05IXUMoPU8pW0NIMl1uMltuSF1jKD1PKVtjSF1bY0hdYzI9Tw==

> <s_epik_cmdline>
J2VwaWtfcHl0aG9uJywgJy1waCcsICc3LjAnLCAnLXRuJywgJzgnLCAnLW1hJywgJzIwMCcsICctbWV0YWxfYmluZGluZycsICctaW1hZScsICc8aW5maWxlLm1hZT4nLCAnLW9tYWUnLCAnPG91dGZpbGUubWFlPic=

> <r_lp_tautomer_probability>
1

> <r_epik_Ionization_Penalty>
0.101366

> <r_epik_Ionization_Penalty_Charging>
0.101366

> <r_epik_Ionization_Penalty_Neutral>
1.90469e-08

> <r_epik_State_Penalty>
0.035861

> <r_epik_Charging_Adjusted_Penalty>
0.137227

> <i_epik_Tot_Q>
-1

> <i_epik_Tot_abs_Q>
1

> <r_epik_Metal_State_Penalty>
0.035861

> <b_epik_Metal_Only>
0

> <s_lp_Force_Field>
OPLS_2005

> <r_lp_Energy>
28.8284

> <b_lp_Chiralities_Consistent>
1

> <s_lp_Variant>
AV-unprocessed.smi:1464-6

> <Gold.Version>
5.8.1

> <Gold.Id.Protein>
6NUR|6NUR_protein|mol2

> <Gold.PLP.Fitness>
45.4167

> <Gold.PLP.PLP>
-39.4563

> <Gold.PLP.part.hbond>
-4.0000

> <Gold.PLP.part.metal>
0.0000

> <Gold.PLP.part.buried>
-5.2527

> <Gold.PLP.part.nonpolar>
-32.8896

> <Gold.PLP.part.repulsive>
2.6645

> <Gold.PLP.ligand.clash>
0.0000

> <Gold.PLP.ligand.torsion>
0.2715

> <Gold.PLP.Chemscore.Hbond>
2.1645

> <Gold.PLP.Chemscore.CHOScore>
0.0000

> <Gold.PLP.Chemscore.Metal>
0.0000

> <Gold.Chemscore.Hbonds>
donor molecule, donor type, donor heavy atom, donor atom, acceptor molecule, acceptor atom, score
      P1  H  7989  7998       L1    18  0.17
      P1  H  7997  8008       L1     9  0.99
      P1  H  8011  8017       L1    18  0.81

> <Gold.PLP.Chemscore.Internal.Correction>
0.0100

> <Gold.Rescore>
     Score         DG    S(hbond)    S(metal)    S(lipo)     H(rot)  DE(clash)    DE(int)     intcor
     18.36     -19.07       1.82        0.00     100.12       1.64       0.30       0.40       ----

> <Gold.Chemscore.Fitness>
18.3637

> <Gold.Chemscore.DG>
-19.0669

> <Gold.Chemscore.ZeroCoef>
-5.4800

> <Gold.Chemscore.Hbond>
1.8207

> <Gold.Chemscore.Metal>
0.0000

> <Gold.Chemscore.Lipo>
100.1188

> <Gold.Chemscore.Internal_Hbond>
0.0000

> <Gold.Chemscore.DEClash>
0.3038

> <Gold.Chemscore.DEInternal>
0.3994

> <Gold.Chemscore.Rot>
1.6438

> <Gold.Chemscore.Internal.Correction>
   9.000000E+99

> <Gold.Chemscore.Hbonds>
donor molecule, donor type, donor heavy atom, donor atom, acceptor molecule, acceptor atom, score
      P1  H  7989  7998       L1    18  0.17
      P1  H  7997  8008       L1     9  0.86
      P1  H  8011  8017       L1    18  0.77

> <Gold.Chemscore.Hbond.Weighted>
-6.0810

> <Gold.Chemscore.Metal.Weighted>
-0.0000

> <Gold.Chemscore.Lipo.Weighted>
-11.7139

> <Gold.Chemscore.Internal_Hbond.Weighted>
0.0000

> <Gold.Chemscore.DEClash.Weighted>
0.3038

> <Gold.Chemscore.DEInternal.Weighted>
0.3994

> <Gold.Chemscore.Rot.Weighted>
4.2080

> <Gold.Chemscore.Internal.Correction.Weighted>
   9.000000E+99

> <Gold.Protein.RotatedTorsions>
[ 6907 6896 6895 6894 ] final  107.31 input  -60.11 | X-H torsion
[ 7974 7965 7964 7962 ] final  -30.99 input  175.53 | X-H torsion
[ 8008 7997 7996 7995 ] final  -38.43 input   59.86 | X-H torsion
[ 10167 10162 10161 10158 ] final   60.68 input  -65.29 | X-H torsion
[ 10718 10713 10712 10709 ] final  121.07 input   66.30 | X-H torsion
[ 10763 10752 10751 10750 ] final  168.95 input  -60.55 | X-H torsion
[ 11005 11000 10999 10996 ] final  -59.80 input  -57.11 | X-H torsion

> <Gold.Protein.ActiveResidues>
 VAL166  LYS551  ARG553  GLY616  TRP617  ASP618  TYR619  PRO620  LYS621  CYS622 
 ASP623  PHE694  ASN695  SER759  ASP760  ASP761  ALA762  ILE779  LEU786  VAL792 
 PHE793  MET794  SER795  GLU796  ALA797  LYS798  CYS799  TRP800  GLU811  SER814 

> <Gold.Protein.RotatedAtoms>
  152.5159  133.9253  159.7553 H   0  0  0  0  0  0  0  0  0  0  0  0  # atno 6907 bound_to 6896
  150.9615  133.6432  159.2760 H   0  0  0  0  0  0  0  0  0  0  0  0  # atno 6908 bound_to 6896
  151.3675  135.0921  159.9507 H   0  0  0  0  0  0  0  0  0  0  0  0  # atno 6909 bound_to 6896
  146.1101  140.5610  142.8781 H   0  0  0  0  0  0  0  0  0  0  0  0  # atno 7974 bound_to 7965
  154.4037  140.1578  156.2699 H   0  0  0  0  0  0  0  0  0  0  0  0  # atno 8008 bound_to 7997
  155.8962  140.3436  155.5970 H   0  0  0  0  0  0  0  0  0  0  0  0  # atno 8009 bound_to 7997
  155.7501  140.0804  157.2196 H   0  0  0  0  0  0  0  0  0  0  0  0  # atno 8010 bound_to 7997
  140.1630  144.4352  150.6699 H   0  0  0  0  0  0  0  0  0  0  0  0  # atno 10167 bound_to 10162
  157.5845  131.1071  150.8122 H   0  0  0  0  0  0  0  0  0  0  0  0  # atno 10718 bound_to 10713
  154.3761  135.2753  155.2238 H   0  0  0  0  0  0  0  0  0  0  0  0  # atno 10763 bound_to 10752
  154.4365  135.5964  153.6105 H   0  0  0  0  0  0  0  0  0  0  0  0  # atno 10764 bound_to 10752
  152.9836  135.6008  154.3998 H   0  0  0  0  0  0  0  0  0  0  0  0  # atno 10765 bound_to 10752
  141.1262  133.6618  156.5126 H   0  0  0  0  0  0  0  0  0  0  0  0  # atno 11005 bound_to 11000
  144.7504  140.5177  143.6805 LP  0  0  0  0  0  0  0  0  0  0  0  0  # atno 17320 bound_to 7965
  145.5680  139.1482  143.3304 LP  0  0  0  0  0  0  0  0  0  0  0  0  # atno 17321 bound_to 7965
  140.6631  143.2258  151.5809 LP  0  0  0  0  0  0  0  0  0  0  0  0  # atno 17342 bound_to 10162
  139.5372  144.2747  152.1277 LP  0  0  0  0  0  0  0  0  0  0  0  0  # atno 17343 bound_to 10162
  156.8560  130.5097  149.5307 LP  0  0  0  0  0  0  0  0  0  0  0  0  # atno 17370 bound_to 10713
  156.0893  130.5883  150.9704 LP  0  0  0  0  0  0  0  0  0  0  0  0  # atno 17371 bound_to 10713
  140.4356  134.7062  157.4965 LP  0  0  0  0  0  0  0  0  0  0  0  0  # atno 17394 bound_to 11000
  140.0264  134.6471  155.9167 LP  0  0  0  0  0  0  0  0  0  0  0  0  # atno 17395 bound_to 11000

$$$$
