#       Name:                AV-unprocessed.smi:49
#       Creating user name   scv26
#       Creation time:       Thu Mar 26 16:33:51 2020


#       File generated by GOLD software.
#

@<TRIPOS>MOLECULE
AV-unprocessed.smi:49
    32    33     1
SMALL
NO_CHARGES


@<TRIPOS>ATOM
      1 ****        -3.9244   0.9287  -1.4677 C.3            1 S1                 0.0000
      2 ****        -3.3380  -0.4870  -1.4284 C.3            1 S1                 0.0000
      3 ****        -1.8451  -0.4807  -1.4217 C.2            1 S1                 0.0000
      4 ****        -1.1108  -0.4125  -0.2703 N.2            1 S1                 0.0000
      5 ****         0.1215  -0.3928  -0.7746 C.2            1 S1                 0.0000
      6 ****         1.3955  -0.3127   0.0122 C.3            1 S1                 0.0000
      7 ****         1.6949   1.0576   0.6213 C.3            1 S1                 0.0000
      8 ****         2.4671   0.7076   1.8926 C.3            1 S1                 0.0000
      9 ****         3.8408   0.5516   1.5974 O.3            1 S1                 0.0000
     10 ****         1.8739  -0.6397   2.3359 C.3            1 S1                 0.0000
     11 ****         1.2126  -1.2300   1.1536 N.4            1 S1                 1.0000
     12 ****         0.1221  -0.4286  -2.1092 N.pl3          1 S1                 0.0000
     13 ****        -1.1496  -0.4804  -2.5574 N.2            1 S1                 0.0000
     14 ****         2.2393  -0.6601  -0.5861 H              1 S1                 0.0000
     15 ****         2.3605   1.4734   2.6617 H              1 S1                 0.0000
     16 ****         0.9221  -0.4123  -2.7262 H              1 S1                 0.0000
     17 ****        -5.0139   0.8975  -1.4705 H              1 S1                 0.0000
     18 ****        -3.6046   1.4626  -2.3632 H              1 S1                 0.0000
     19 ****        -3.6096   1.5095  -0.6001 H              1 S1                 0.0000
     20 ****        -3.6959  -1.0106  -0.5412 H              1 S1                 0.0000
     21 ****        -3.6914  -1.0582  -2.2879 H              1 S1                 0.0000
     22 ****         2.2253   1.7266  -0.0574 H              1 S1                 0.0000
     23 ****         0.7630   1.5486   0.9065 H              1 S1                 0.0000
     24 ****         4.1940   1.3919   1.3457 H              1 S1                 0.0000
     25 ****         2.6225  -1.3159   2.7511 H              1 S1                 0.0000
     26 ****         1.1124  -0.4832   3.1004 H              1 S1                 0.0000
     27 ****         0.2235  -1.3089   1.3453 H              1 S1                 0.0000
     28 ****         1.5920  -2.1412   0.9396 H              1 S1                 0.0000
     29 ****        -1.4138  -0.3852   0.6822 LP             1 S1                 0.0000
     30 ****         3.9518  -0.0989   0.8460 LP             1 S1                 0.0000
     31 ****         4.3223   0.2125   2.4056 LP             1 S1                 0.0000
     32 ****        -1.4837  -0.5108  -3.4995 LP             1 S1                 0.0000
@<TRIPOS>BOND
    1    1    2 1     
    2    1   17 1     
    3    1   18 1     
    4    1   19 1     
    5    2   20 1     
    6    2   21 1     
    7    2    3 1     
    8    3    4 1     
    9    3   13 2     
   10    4    5 2     
   11    5    6 1     
   12    5   12 1     
   13    6   14 1     
   14    6   11 1     
   15    6    7 1     
   16    7    8 1     
   17    7   22 1     
   18    7   23 1     
   19    8   15 1     
   20    8    9 1     
   21    8   10 1     
   22    9   24 1     
   23   10   11 1     
   24   10   25 1     
   25   10   26 1     
   26   11   27 1     
   27   11   28 1     
   28   12   13 1     
   29   12   16 1     
   30    4   29 1     
   31    9   30 1     
   32    9   31 1     
   33   13   32 1     
@<TRIPOS>SUBSTRUCTURE
      1 S1             1
@<TRIPOS>SET
LONE_PAIRS      STATIC     ATOMS    <user>   **** ""
4 29 30 31 32
DONOR_HYDROGENS      STATIC     ATOMS    <user>   **** ""
4 24 27 28 16
ATOM$BLUE        STATIC     ATOMS    COLORGROUP SYSTEM
4 29 30 31 32
ATOM$RED        STATIC     ATOMS    COLORGROUP SYSTEM
4 24 27 28 16
