AV-unprocessed.smi:2297|AV-procd|sdf|9223|dock5
  -GOLD-   2272012443D 1   1.00000     0.00000
 Structure written by MMmdl.
 44 45  0  0  0  0  0  0  0  0  1 V2000
  151.3439  145.5055  159.6320 C   0  0  0  0  0  0  0  0  0  0  0  0
  151.7025  144.0394  159.5005 C   0  0  0  0  0  0  0  0  0  0  0  0
  152.4784  143.4049  160.4909 C   0  0  0  0  0  0  0  0  0  0  0  0
  152.8068  142.0412  160.3647 C   0  0  0  0  0  0  0  0  0  0  0  0
  153.6438  141.3664  161.4321 C   0  0  0  0  0  0  0  0  0  0  0  0
  152.3552  141.3138  159.2443 C   0  0  0  0  0  0  0  0  0  0  0  0
  151.5792  141.9340  158.2437 C   0  0  0  0  0  0  0  0  0  0  0  0
  151.1816  141.1462  157.1851 O   0  0  0  0  0  0  0  0  0  0  0  0
  150.5046  141.7665  156.0994 C   0  0  0  0  0  0  0  0  0  0  0  0
  150.0957  140.6855  155.0868 C   0  0  1  0  0  0  0  0  0  0  0  0
  151.1125  139.7039  155.0950 O   0  0  0  0  0  0  0  0  0  0  0  0
  148.7484  140.0207  155.4512 C   0  0  0  0  0  0  0  0  0  0  0  0
  147.6089  140.9289  155.2406 N   0  0  0  0  0  0  0  0  0  0  0  0
  147.3715  141.3333  153.9160 C   0  0  0  0  0  0  0  0  0  0  0  0
  146.3975  142.1272  153.6120 N   0  0  0  0  0  0  0  0  0  0  0  0
  145.5466  142.6013  154.6144 C   0  0  0  0  0  0  0  0  0  0  0  0
  144.4368  143.5271  154.1487 C   0  0  0  0  0  0  0  0  0  0  0  0
  145.7182  142.2424  155.9160 C   0  0  0  0  0  0  0  0  0  0  0  0
  144.8235  142.7281  157.0497 C   0  0  0  0  0  0  0  0  0  0  0  0
  146.8221  141.3380  156.2772 C   0  0  0  0  0  0  0  0  0  0  0  0
  147.0312  140.9695  157.4345 O   0  0  0  0  0  0  0  0  0  0  0  0
  151.2555  143.3072  158.3818 C   0  0  0  0  0  0  0  0  0  0  0  0
  151.8119  145.9535  160.5092 H   0  0  0  0  0  0  0  0  0  0  0  0
  150.2637  145.6233  159.7239 H   0  0  0  0  0  0  0  0  0  0  0  0
  151.6755  146.0567  158.7516 H   0  0  0  0  0  0  0  0  0  0  0  0
  152.8235  143.9628  161.3496 H   0  0  0  0  0  0  0  0  0  0  0  0
  153.7594  140.3003  161.2346 H   0  0  0  0  0  0  0  0  0  0  0  0
  153.1755  141.4818  162.4100 H   0  0  0  0  0  0  0  0  0  0  0  0
  154.6368  141.8150  161.4713 H   0  0  0  0  0  0  0  0  0  0  0  0
  152.6054  140.2676  159.1458 H   0  0  0  0  0  0  0  0  0  0  0  0
  149.6137  142.2745  156.4728 H   0  0  0  0  0  0  0  0  0  0  0  0
  151.1438  142.5098  155.6195 H   0  0  0  0  0  0  0  0  0  0  0  0
  150.0546  141.1329  154.0928 H   0  0  0  0  0  0  0  0  0  0  0  0
  150.8588  139.0120  155.6866 H   0  0  0  0  0  0  0  0  0  0  0  0
  148.6247  139.0792  154.9128 H   0  0  0  0  0  0  0  0  0  0  0  0
  148.7621  139.7203  156.5009 H   0  0  0  0  0  0  0  0  0  0  0  0
  148.0591  140.9275  153.1718 H   0  0  0  0  0  0  0  0  0  0  0  0
  144.5277  144.5032  154.6258 H   0  0  0  0  0  0  0  0  0  0  0  0
  143.4613  143.1070  154.3946 H   0  0  0  0  0  0  0  0  0  0  0  0
  144.4723  143.6779  153.0689 H   0  0  0  0  0  0  0  0  0  0  0  0
  144.3595  141.8791  157.5526 H   0  0  0  0  0  0  0  0  0  0  0  0
  144.0243  143.3868  156.7141 H   0  0  0  0  0  0  0  0  0  0  0  0
  145.4130  143.2764  157.7849 H   0  0  0  0  0  0  0  0  0  0  0  0
  150.6613  143.8213  157.6415 H   0  0  0  0  0  0  0  0  0  0  0  0
  1  2  1  0  0  0  0
  1 23  1  0  0  0  0
  1 24  1  0  0  0  0
  1 25  1  0  0  0  0
  2 22  1  0  0  0  0
  2  3  2  0  0  0  0
  3  4  1  0  0  0  0
  3 26  1  0  0  0  0
  4  5  1  0  0  0  0
  4  6  2  0  0  0  0
  5 27  1  0  0  0  0
  5 28  1  0  0  0  0
  5 29  1  0  0  0  0
  6  7  1  0  0  0  0
  6 30  1  0  0  0  0
  7  8  1  0  0  0  0
  7 22  2  0  0  0  0
  8  9  1  0  0  0  0
  9 10  1  0  0  0  0
  9 31  1  0  0  0  0
  9 32  1  0  0  0  0
 10 11  1  0  0  0  0
 10 12  1  0  0  0  0
 10 33  1  0  0  0  0
 11 34  1  0  0  0  0
 12 13  1  0  0  0  0
 12 35  1  0  0  0  0
 12 36  1  0  0  0  0
 13 20  1  0  0  0  0
 13 14  1  0  0  0  0
 14 15  2  0  0  0  0
 14 37  1  0  0  0  0
 15 16  1  0  0  0  0
 16 17  1  0  0  0  0
 16 18  2  0  0  0  0
 17 38  1  0  0  0  0
 17 39  1  0  0  0  0
 17 40  1  0  0  0  0
 18 19  1  0  0  0  0
 18 20  1  0  0  0  0
 19 41  1  0  0  0  0
 19 42  1  0  0  0  0
 19 43  1  0  0  0  0
 20 21  2  0  0  0  0
 22 44  1  0  0  0  0
M  END
> <s_m_source_file>
AV-unprocessed.smi

> <i_m_source_file_index>
2297

> <i_lp_mmshare_version>
43012

> <i_f3d_flags>
0

> <s_epik_input>
W0NIM11jMVtjSF1jKFtDSDNdKVtjSF1jKFtjSF0xKU9bQ0gyXVtDQEhdKFtPSF0pW0NIMl1uMltjSF1uYyhbQ0gzXSljKFtDSDNdKWMyPU8=

> <s_epik_cmdline>
J2VwaWtfcHl0aG9uJywgJy1waCcsICc3LjAnLCAnLXRuJywgJzgnLCAnLW1hJywgJzIwMCcsICctbWV0YWxfYmluZGluZycsICctaW1hZScsICc8aW5maWxlLm1hZT4nLCAnLW9tYWUnLCAnPG91dGZpbGUubWFlPic=

> <r_lp_tautomer_probability>
1

> <r_epik_Ionization_Penalty>
3.72236e-05

> <r_epik_Ionization_Penalty_Charging>
8.38864e-08

> <r_epik_Ionization_Penalty_Neutral>
3.71397e-05

> <r_epik_State_Penalty>
-0

> <r_epik_Charging_Adjusted_Penalty>
8.38864e-08

> <i_epik_Tot_Q>
0

> <i_epik_Tot_abs_Q>
0

> <r_epik_Metal_State_Penalty>
-0

> <b_epik_Metal_Only>
0

> <s_lp_Force_Field>
OPLS_2005

> <r_lp_Energy>
22.4286

> <b_lp_Chiralities_Consistent>
1

> <s_lp_Variant>
AV-unprocessed.smi:2297-2

> <Gold.Version>
5.8.1

> <Gold.Id.Protein>
6NUR|6NUR_protein|mol2

> <Gold.PLP.Fitness>
48.0149

> <Gold.PLP.PLP>
-46.2194

> <Gold.PLP.part.hbond>
-1.0000

> <Gold.PLP.part.metal>
0.0000

> <Gold.PLP.part.buried>
-2.4182

> <Gold.PLP.part.nonpolar>
-42.1102

> <Gold.PLP.part.repulsive>
0.2994

> <Gold.PLP.ligand.clash>
0.0000

> <Gold.PLP.ligand.torsion>
0.3865

> <Gold.PLP.Chemscore.Hbond>
0.0000

> <Gold.PLP.Chemscore.CHOScore>
0.8329

> <Gold.PLP.Chemscore.Metal>
0.0000

> <Gold.Chemscore.Hbonds>
donor molecule, donor type, donor heavy atom, donor atom, acceptor molecule, acceptor atom, score
      L1  C    14    37       P1  7957  0.63

> <Gold.PLP.Chemscore.Internal.Correction>
0.0696

> <Gold.Rescore>
     Score         DG    S(hbond)    S(metal)    S(lipo)     H(rot)  DE(clash)    DE(int)     intcor
     13.39     -13.80       0.00        0.00     121.95       2.32       0.08       0.33       ----

> <Gold.Chemscore.Fitness>
13.3888

> <Gold.Chemscore.DG>
-13.7997

> <Gold.Chemscore.ZeroCoef>
-5.4800

> <Gold.Chemscore.Hbond>
0.0000

> <Gold.Chemscore.Metal>
0.0000

> <Gold.Chemscore.Lipo>
121.9496

> <Gold.Chemscore.Internal_Hbond>
0.0000

> <Gold.Chemscore.DEClash>
0.0760

> <Gold.Chemscore.DEInternal>
0.3349

> <Gold.Chemscore.Rot>
2.3236

> <Gold.Chemscore.Internal.Correction>
   9.000000E+99

> <Gold.Chemscore.Hbond.Weighted>
-0.0000

> <Gold.Chemscore.Metal.Weighted>
-0.0000

> <Gold.Chemscore.Lipo.Weighted>
-14.2681

> <Gold.Chemscore.Internal_Hbond.Weighted>
0.0000

> <Gold.Chemscore.DEClash.Weighted>
0.0760

> <Gold.Chemscore.DEInternal.Weighted>
0.3349

> <Gold.Chemscore.Rot.Weighted>
5.9484

> <Gold.Chemscore.Internal.Correction.Weighted>
   9.000000E+99

> <Gold.Protein.RotatedTorsions>
[ 6907 6896 6895 6894 ] final   93.30 input  -60.11 | X-H torsion
[ 7974 7965 7964 7962 ] final   12.43 input  175.53 | X-H torsion
[ 8008 7997 7996 7995 ] final -101.61 input   59.86 | X-H torsion
[ 10167 10162 10161 10158 ] final   50.90 input  -65.29 | X-H torsion
[ 10718 10713 10712 10709 ] final   43.31 input   66.30 | X-H torsion
[ 10763 10752 10751 10750 ] final   57.97 input  -60.55 | X-H torsion
[ 11005 11000 10999 10996 ] final  -98.22 input  -57.11 | X-H torsion

> <Gold.Protein.ActiveResidues>
 VAL166  LYS551  ARG553  GLY616  TRP617  ASP618  TYR619  PRO620  LYS621  CYS622 
 ASP623  PHE694  ASN695  SER759  ASP760  ASP761  ALA762  ILE779  LEU786  VAL792 
 PHE793  MET794  SER795  GLU796  ALA797  LYS798  CYS799  TRP800  GLU811  SER814 

> <Gold.Protein.RotatedAtoms>
  152.5452  134.1370  159.8462 H   0  0  0  0  0  0  0  0  0  0  0  0  # atno 6907 bound_to 6896
  151.1409  133.4964  159.2604 H   0  0  0  0  0  0  0  0  0  0  0  0  # atno 6908 bound_to 6896
  151.1574  135.0267  159.8750 H   0  0  0  0  0  0  0  0  0  0  0  0  # atno 6909 bound_to 6896
  146.2351  139.9338  142.8492 H   0  0  0  0  0  0  0  0  0  0  0  0  # atno 7974 bound_to 7965
  154.8450  140.0433  157.1566 H   0  0  0  0  0  0  0  0  0  0  0  0  # atno 8008 bound_to 7997
  154.9005  140.2999  155.5300 H   0  0  0  0  0  0  0  0  0  0  0  0  # atno 8009 bound_to 7997
  156.2994  140.2376  156.4032 H   0  0  0  0  0  0  0  0  0  0  0  0  # atno 8010 bound_to 7997
  140.2676  144.3302  150.6299 H   0  0  0  0  0  0  0  0  0  0  0  0  # atno 10167 bound_to 10162
  157.4145  130.7933  149.7459 H   0  0  0  0  0  0  0  0  0  0  0  0  # atno 10718 bound_to 10713
  152.9861  135.5623  154.5476 H   0  0  0  0  0  0  0  0  0  0  0  0  # atno 10763 bound_to 10752
  154.4919  135.2793  155.1492 H   0  0  0  0  0  0  0  0  0  0  0  0  # atno 10764 bound_to 10752
  154.2958  135.6317  153.5457 H   0  0  0  0  0  0  0  0  0  0  0  0  # atno 10765 bound_to 10752
  141.1352  133.8229  157.0811 H   0  0  0  0  0  0  0  0  0  0  0  0  # atno 11005 bound_to 11000
  145.2018  140.9858  143.4151 LP  0  0  0  0  0  0  0  0  0  0  0  0  # atno 17320 bound_to 7965
  144.9767  139.3825  143.6282 LP  0  0  0  0  0  0  0  0  0  0  0  0  # atno 17321 bound_to 7965
  140.5916  143.2168  151.7243 LP  0  0  0  0  0  0  0  0  0  0  0  0  # atno 17342 bound_to 10162
  139.4998  144.3931  152.0259 LP  0  0  0  0  0  0  0  0  0  0  0  0  # atno 17343 bound_to 10162
  155.9861  130.3978  150.3230 LP  0  0  0  0  0  0  0  0  0  0  0  0  # atno 17370 bound_to 10713
  157.1372  131.0287  151.2943 LP  0  0  0  0  0  0  0  0  0  0  0  0  # atno 17371 bound_to 10713
  140.0451  134.9834  157.1034 LP  0  0  0  0  0  0  0  0  0  0  0  0  # atno 17394 bound_to 11000
  140.4075  134.2016  155.7163 LP  0  0  0  0  0  0  0  0  0  0  0  0  # atno 17395 bound_to 11000

$$$$
