AV-unprocessed.smi:2727|AV-procd|sdf|10522|dock7
  -GOLD-   2272014563D 1   1.00000     0.00000
 Structure written by MMmdl.
 40 41  0  0  0  0  0  0  0  0  1 V2000
  150.4910  140.3294  154.4749 O   0  0  0  0  0  0  0  0  0  0  0  0
  149.7006  141.2584  154.6712 C   0  0  0  0  0  0  0  0  0  0  0  0
  149.9438  142.1997  155.5961 N   0  0  0  0  0  0  0  0  0  0  0  0
  151.1252  142.2582  156.4506 C   0  0  0  0  0  0  0  0  0  0  0  0
  150.7429  142.3218  157.9435 C   0  0  0  0  0  0  0  0  0  0  0  0
  151.8176  141.7436  158.8820 C   0  0  0  0  0  0  0  0  0  0  0  0
  151.8326  140.5305  159.0994 O   0  0  0  0  0  0  0  0  0  0  0  0
  152.7145  142.5847  159.4536 N   0  0  0  0  0  0  0  0  0  0  0  0
  153.7096  142.1024  160.4189 C   0  0  0  0  0  0  0  0  0  0  0  0
  153.1267  141.9852  161.8422 C   0  0  0  0  0  0  0  0  0  0  0  0
  152.0828  143.0540  162.2348 C   0  0  0  0  0  0  0  0  0  0  0  0
  152.4028  144.4899  161.7741 C   0  0  0  0  0  0  0  0  0  0  0  0
  151.9608  144.7904  160.3257 C   0  0  0  0  0  0  0  0  0  0  0  0
  152.7587  144.0390  159.2435 C   0  0  0  0  0  0  0  0  0  0  0  0
  148.4971  141.5193  154.0323 N   0  0  0  0  0  0  0  0  0  0  0  0
  147.8787  140.5626  153.4114 C   0  0  0  0  0  0  0  0  0  0  0  0
  146.6778  140.6384  152.7236 N   0  0  0  0  0  0  0  0  0  0  0  0
  146.3979  139.3990  152.2177 C   0  0  0  0  0  0  0  0  0  0  0  0
  147.3795  138.5755  152.5733 C   0  0  0  0  0  0  0  0  0  0  0  0
  148.3030  139.2579  153.3061 O   0  0  0  0  0  0  0  0  0  0  0  0
  149.2618  142.9358  155.7099 H   0  0  0  0  0  0  0  0  0  0  0  0
  151.7674  141.3989  156.2487 H   0  0  0  0  0  0  0  0  0  0  0  0
  151.6961  143.1445  156.1719 H   0  0  0  0  0  0  0  0  0  0  0  0
  150.5486  143.3573  158.2250 H   0  0  0  0  0  0  0  0  0  0  0  0
  149.8156  141.7698  158.0939 H   0  0  0  0  0  0  0  0  0  0  0  0
  154.1257  141.1436  160.1053 H   0  0  0  0  0  0  0  0  0  0  0  0
  154.5670  142.7755  160.4470 H   0  0  0  0  0  0  0  0  0  0  0  0
  152.6673  141.0034  161.9603 H   0  0  0  0  0  0  0  0  0  0  0  0
  153.9524  142.0088  162.5538 H   0  0  0  0  0  0  0  0  0  0  0  0
  151.1017  142.7657  161.8545 H   0  0  0  0  0  0  0  0  0  0  0  0
  151.9845  143.0434  163.3207 H   0  0  0  0  0  0  0  0  0  0  0  0
  151.8707  145.1801  162.4297 H   0  0  0  0  0  0  0  0  0  0  0  0
  153.4625  144.7091  161.9098 H   0  0  0  0  0  0  0  0  0  0  0  0
  150.8975  144.5742  160.2210 H   0  0  0  0  0  0  0  0  0  0  0  0
  152.0622  145.8609  160.1448 H   0  0  0  0  0  0  0  0  0  0  0  0
  153.7911  144.3902  159.2476 H   0  0  0  0  0  0  0  0  0  0  0  0
  152.3902  144.3128  158.2553 H   0  0  0  0  0  0  0  0  0  0  0  0
  146.0845  141.4440  152.5867 H   0  0  0  0  0  0  0  0  0  0  0  0
  145.5006  139.2343  151.6400 H   0  0  0  0  0  0  0  0  0  0  0  0
  147.5595  137.5263  152.3914 H   0  0  0  0  0  0  0  0  0  0  0  0
  1  2  2  0  0  0  0
  2 15  1  0  0  0  0
  2  3  1  0  0  0  0
  3  4  1  0  0  0  0
  3 21  1  0  0  0  0
  4  5  1  0  0  0  0
  4 22  1  0  0  0  0
  4 23  1  0  0  0  0
  5  6  1  0  0  0  0
  5 24  1  0  0  0  0
  5 25  1  0  0  0  0
  6  7  2  0  0  0  0
  6  8  1  0  0  0  0
  8 14  1  0  0  0  0
  8  9  1  0  0  0  0
  9 10  1  0  0  0  0
  9 26  1  0  0  0  0
  9 27  1  0  0  0  0
 10 11  1  0  0  0  0
 10 28  1  0  0  0  0
 10 29  1  0  0  0  0
 11 12  1  0  0  0  0
 11 30  1  0  0  0  0
 11 31  1  0  0  0  0
 12 13  1  0  0  0  0
 12 32  1  0  0  0  0
 12 33  1  0  0  0  0
 13 14  1  0  0  0  0
 13 34  1  0  0  0  0
 13 35  1  0  0  0  0
 14 36  1  0  0  0  0
 14 37  1  0  0  0  0
 15 16  2  0  0  0  0
 16 20  1  0  0  0  0
 16 17  1  0  0  0  0
 17 38  1  0  0  0  0
 17 18  1  0  0  0  0
 18 39  1  0  0  0  0
 18 19  2  0  0  0  0
 19 40  1  0  0  0  0
 19 20  1  0  0  0  0
M  END
> <s_m_source_file>
AV-unprocessed.smi

> <i_m_source_file_index>
2727

> <i_lp_mmshare_version>
43012

> <i_f3d_flags>
0

> <s_epik_input>
bzFbY0hdW2NIXW5jMVtOSF1DKD1PKVtOSF1bQ0gyXVtDSDJdQyg9TylOMltDSDJdW0NIMl1bQ0gyXVtDSDJdW0NIMl1bQ0gyXTI=

> <s_epik_cmdline>
J2VwaWtfcHl0aG9uJywgJy1waCcsICc3LjAnLCAnLXRuJywgJzgnLCAnLW1hJywgJzIwMCcsICctbWV0YWxfYmluZGluZycsICctaW1hZScsICc8aW5maWxlLm1hZT4nLCAnLW9tYWUnLCAnPG91dGZpbGUubWFlPic=

> <r_lp_tautomer_probability>
0.107061

> <r_epik_Ionization_Penalty>
0.376272

> <r_epik_Ionization_Penalty_Charging>
0.375918

> <r_epik_Ionization_Penalty_Neutral>
0.000353756

> <r_epik_State_Penalty>
2.48665

> <r_epik_Charging_Adjusted_Penalty>
2.86256

> <i_epik_Tot_Q>
0

> <i_epik_Tot_abs_Q>
0

> <r_epik_Metal_State_Penalty>
4.1171

> <b_epik_Metal_Only>
0

> <s_lp_Force_Field>
OPLS_2005

> <r_lp_Energy>
48.3689

> <b_lp_Chiralities_Consistent>
1

> <s_lp_Variant>
AV-unprocessed.smi:2727-2

> <Gold.Version>
5.8.1

> <Gold.Id.Protein>
6NUR|6NUR_protein|mol2

> <Gold.PLP.Fitness>
51.7730

> <Gold.PLP.PLP>
-39.0509

> <Gold.PLP.part.hbond>
-3.4726

> <Gold.PLP.part.metal>
0.0000

> <Gold.PLP.part.buried>
2.0892

> <Gold.PLP.part.nonpolar>
-38.5641

> <Gold.PLP.part.repulsive>
2.5396

> <Gold.PLP.ligand.clash>
0.0000

> <Gold.PLP.ligand.torsion>
0.6178

> <Gold.PLP.Chemscore.Hbond>
1.9440

> <Gold.PLP.Chemscore.CHOScore>
2.7024

> <Gold.PLP.Chemscore.Metal>
0.0000

> <Gold.Chemscore.Hbonds>
donor molecule, donor type, donor heavy atom, donor atom, acceptor molecule, acceptor atom, score
      L1  H     3    21       P1  8028  0.96
      P1  H  7989  7998       L1     1  1.00
      P1  H  8011  8017       L1    15  0.05
      L1  C    18    39       P1 10171  1.00
      L1  C    18    39       P1 10175  0.66
      L1  C    19    40       P1  7948  0.82

> <Gold.PLP.Chemscore.Internal.Correction>
0.0186

> <Gold.Rescore>
     Score         DG    S(hbond)    S(metal)    S(lipo)     H(rot)  DE(clash)    DE(int)     intcor
     12.58     -17.79       1.41        0.00     102.34       1.70       3.11       2.10       ----

> <Gold.Chemscore.Fitness>
12.5809

> <Gold.Chemscore.DG>
-17.7942

> <Gold.Chemscore.ZeroCoef>
-5.4800

> <Gold.Chemscore.Hbond>
1.4067

> <Gold.Chemscore.Metal>
0.0000

> <Gold.Chemscore.Lipo>
102.3445

> <Gold.Chemscore.Internal_Hbond>
0.0000

> <Gold.Chemscore.DEClash>
3.1129

> <Gold.Chemscore.DEInternal>
2.1003

> <Gold.Chemscore.Rot>
1.7025

> <Gold.Chemscore.Internal.Correction>
   9.000000E+99

> <Gold.Chemscore.Hbonds>
donor molecule, donor type, donor heavy atom, donor atom, acceptor molecule, acceptor atom, score
      L1  H     3    21       P1  8028  0.92
      P1  H  7989  7998       L1     1  0.58

> <Gold.Chemscore.Hbond.Weighted>
-4.6982

> <Gold.Chemscore.Metal.Weighted>
-0.0000

> <Gold.Chemscore.Lipo.Weighted>
-11.9743

> <Gold.Chemscore.Internal_Hbond.Weighted>
0.0000

> <Gold.Chemscore.DEClash.Weighted>
3.1129

> <Gold.Chemscore.DEInternal.Weighted>
2.1003

> <Gold.Chemscore.Rot.Weighted>
4.3584

> <Gold.Chemscore.Internal.Correction.Weighted>
   9.000000E+99

> <Gold.Protein.RotatedTorsions>
[ 6907 6896 6895 6894 ] final  127.02 input  -60.11 | X-H torsion
[ 7974 7965 7964 7962 ] final  -15.35 input  175.53 | X-H torsion
[ 8008 7997 7996 7995 ] final    7.32 input   59.86 | X-H torsion
[ 10167 10162 10161 10158 ] final  135.70 input  -65.29 | X-H torsion
[ 10718 10713 10712 10709 ] final   55.38 input   66.30 | X-H torsion
[ 10763 10752 10751 10750 ] final  -86.28 input  -60.55 | X-H torsion
[ 11005 11000 10999 10996 ] final   27.34 input  -57.11 | X-H torsion

> <Gold.Protein.ActiveResidues>
 VAL166  LYS551  ARG553  GLY616  TRP617  ASP618  TYR619  PRO620  LYS621  CYS622 
 ASP623  PHE694  ASN695  SER759  ASP760  ASP761  ALA762  ILE779  LEU786  VAL792 
 PHE793  MET794  SER795  GLU796  ALA797  LYS798  CYS799  TRP800  GLU811  SER814 

> <Gold.Protein.RotatedAtoms>
  152.3851  133.6599  159.6191 H   0  0  0  0  0  0  0  0  0  0  0  0  # atno 6907 bound_to 6896
  150.7772  133.9049  159.3361 H   0  0  0  0  0  0  0  0  0  0  0  0  # atno 6908 bound_to 6896
  151.6847  135.0957  160.0274 H   0  0  0  0  0  0  0  0  0  0  0  0  # atno 6909 bound_to 6896
  146.2036  140.3480  142.8415 H   0  0  0  0  0  0  0  0  0  0  0  0  # atno 7974 bound_to 7965
  154.7523  140.2769  155.6282 H   0  0  0  0  0  0  0  0  0  0  0  0  # atno 8008 bound_to 7997
  156.2898  140.2676  156.2206 H   0  0  0  0  0  0  0  0  0  0  0  0  # atno 8009 bound_to 7997
  155.0121  140.0372  157.2393 H   0  0  0  0  0  0  0  0  0  0  0  0  # atno 8010 bound_to 7997
  139.5207  144.6503  151.5321 H   0  0  0  0  0  0  0  0  0  0  0  0  # atno 10167 bound_to 10162
  157.5340  130.8650  149.8727 H   0  0  0  0  0  0  0  0  0  0  0  0  # atno 10718 bound_to 10713
  154.6206  135.5455  153.7572 H   0  0  0  0  0  0  0  0  0  0  0  0  # atno 10763 bound_to 10752
  153.0237  135.6412  154.1445 H   0  0  0  0  0  0  0  0  0  0  0  0  # atno 10764 bound_to 10752
  154.1380  135.2910  155.3148 H   0  0  0  0  0  0  0  0  0  0  0  0  # atno 10765 bound_to 10752
  140.3273  134.2476  155.7707 H   0  0  0  0  0  0  0  0  0  0  0  0  # atno 11005 bound_to 11000
  144.8739  140.7310  143.6029 LP  0  0  0  0  0  0  0  0  0  0  0  0  # atno 17320 bound_to 7965
  145.3400  139.1735  143.4491 LP  0  0  0  0  0  0  0  0  0  0  0  0  # atno 17321 bound_to 7965
  140.6305  143.9085  150.6602 LP  0  0  0  0  0  0  0  0  0  0  0  0  # atno 17342 bound_to 10162
  140.2387  143.3680  152.1505 LP  0  0  0  0  0  0  0  0  0  0  0  0  # atno 17343 bound_to 10162
  156.0444  130.3731  150.1354 LP  0  0  0  0  0  0  0  0  0  0  0  0  # atno 17370 bound_to 10713
  156.9537  130.9783  151.3493 LP  0  0  0  0  0  0  0  0  0  0  0  0  # atno 17371 bound_to 10713
  141.2072  133.7812  157.0133 LP  0  0  0  0  0  0  0  0  0  0  0  0  # atno 17394 bound_to 11000
  140.0890  134.9604  157.1746 LP  0  0  0  0  0  0  0  0  0  0  0  0  # atno 17395 bound_to 11000

$$$$
