AV-unprocessed.smi:2017|AV-procd|sdf|8168|dock6
  -GOLD-   2272010413D 1   1.00000     0.00000
 Structure written by MMmdl.
 44 45  0  0  0  0  0  0  0  0  2 V2000
  151.2645  136.0302  155.9337 O   0  0  0  0  0  0  0  0  0  0  0  0
  150.6532  136.2970  154.8979 C   0  0  0  0  0  0  0  0  0  0  0  0
  150.6646  137.7208  154.3249 C   0  0  0  0  0  0  0  0  0  0  0  0
  151.1376  138.7253  155.2912 N   0  0  0  0  0  0  0  0  0  0  0  0
  150.2675  139.7805  155.6173 C   0  0  0  0  0  0  0  0  0  0  0  0
  150.6140  140.7420  156.4941 C   0  0  0  0  0  0  0  0  0  0  0  0
  151.9323  140.6699  157.1119 C   0  0  0  0  0  0  0  0  0  0  0  0
  152.2681  141.5421  157.9107 O   0  0  0  0  0  0  0  0  0  0  0  0
  152.7385  139.6236  156.7670 N   0  5  0  0  0  0  0  0  0  0  0  0
  152.3714  138.6513  155.8755 C   0  0  0  0  0  0  0  0  0  0  0  0
  153.1136  137.7136  155.5808 O   0  0  0  0  0  0  0  0  0  0  0  0
  149.9237  135.3954  154.2234 N   0  0  0  0  0  0  0  0  0  0  0  0
  149.7697  133.9943  154.5965 C   0  0  0  0  0  0  0  0  0  0  0  0
  148.2909  133.5714  154.6114 C   0  0  0  0  0  0  0  0  0  0  0  0
  147.8841  132.7938  153.3543 C   0  0  0  0  0  0  0  0  0  0  0  0
  147.4268  133.7077  152.3673 O   0  0  0  0  0  0  0  0  0  0  0  0
  146.1406  133.4116  151.8386 C   0  0  0  0  0  0  0  0  0  0  0  0
  146.0375  131.9256  151.4342 C   0  0  0  0  0  0  0  0  0  0  0  0
  144.6998  131.6264  150.7372 C   0  0  0  0  0  0  0  0  0  0  0  0
  144.4837  132.5432  149.5229 C   0  0  0  0  0  0  0  0  0  0  0  0
  144.5888  134.0239  149.9200 C   0  0  0  0  0  0  0  0  0  0  0  0
  145.9287  134.3185  150.6135 C   0  0  0  0  0  0  0  0  0  0  0  0
  151.2777  137.7517  153.4221 H   0  0  0  0  0  0  0  0  0  0  0  0
  149.6535  137.9595  153.9924 H   0  0  0  0  0  0  0  0  0  0  0  0
  149.3086  139.7559  155.1210 H   0  0  0  0  0  0  0  0  0  0  0  0
  149.9329  141.5444  156.7364 H   0  0  0  0  0  0  0  0  0  0  0  0
  149.4512  135.7002  153.3847 H   0  0  0  0  0  0  0  0  0  0  0  0
  150.3230  133.3923  153.8753 H   0  0  0  0  0  0  0  0  0  0  0  0
  150.2306  133.8127  155.5690 H   0  0  0  0  0  0  0  0  0  0  0  0
  148.1011  132.9459  155.4845 H   0  0  0  0  0  0  0  0  0  0  0  0
  147.6530  134.4497  154.7184 H   0  0  0  0  0  0  0  0  0  0  0  0
  148.7297  132.2093  152.9915 H   0  0  0  0  0  0  0  0  0  0  0  0
  147.0857  132.0930  153.6027 H   0  0  0  0  0  0  0  0  0  0  0  0
  145.3717  133.6488  152.5764 H   0  0  0  0  0  0  0  0  0  0  0  0
  146.8608  131.6708  150.7657 H   0  0  0  0  0  0  0  0  0  0  0  0
  146.1373  131.2798  152.3059 H   0  0  0  0  0  0  0  0  0  0  0  0
  144.6692  130.5824  150.4243 H   0  0  0  0  0  0  0  0  0  0  0  0
  143.8815  131.7604  151.4456 H   0  0  0  0  0  0  0  0  0  0  0  0
  145.2267  132.3166  148.7571 H   0  0  0  0  0  0  0  0  0  0  0  0
  143.5087  132.3460  149.0765 H   0  0  0  0  0  0  0  0  0  0  0  0
  144.4798  134.6546  149.0374 H   0  0  0  0  0  0  0  0  0  0  0  0
  143.7667  134.2826  150.5886 H   0  0  0  0  0  0  0  0  0  0  0  0
  145.9650  135.3655  150.9159 H   0  0  0  0  0  0  0  0  0  0  0  0
  146.7444  134.1738  149.9037 H   0  0  0  0  0  0  0  0  0  0  0  0
  1  2  2  0  0  0  0
  2  3  1  0  0  0  0
  2 12  1  0  0  0  0
  3  4  1  0  0  0  0
  3 23  1  0  0  0  0
  3 24  1  0  0  0  0
  4 10  1  0  0  0  0
  4  5  1  0  0  0  0
  5  6  2  0  0  0  0
  5 25  1  0  0  0  0
  6  7  1  0  0  0  0
  6 26  1  0  0  0  0
  7  8  2  0  0  0  0
  7  9  1  0  0  0  0
  9 10  1  0  0  0  0
 10 11  2  0  0  0  0
 12 13  1  0  0  0  0
 12 27  1  0  0  0  0
 13 14  1  0  0  0  0
 13 28  1  0  0  0  0
 13 29  1  0  0  0  0
 14 15  1  0  0  0  0
 14 30  1  0  0  0  0
 14 31  1  0  0  0  0
 15 16  1  0  0  0  0
 15 32  1  0  0  0  0
 15 33  1  0  0  0  0
 16 17  1  0  0  0  0
 17 22  1  0  0  0  0
 17 18  1  0  0  0  0
 17 34  1  0  0  0  0
 18 19  1  0  0  0  0
 18 35  1  0  0  0  0
 18 36  1  0  0  0  0
 19 20  1  0  0  0  0
 19 37  1  0  0  0  0
 19 38  1  0  0  0  0
 20 21  1  0  0  0  0
 20 39  1  0  0  0  0
 20 40  1  0  0  0  0
 21 22  1  0  0  0  0
 21 41  1  0  0  0  0
 21 42  1  0  0  0  0
 22 43  1  0  0  0  0
 22 44  1  0  0  0  0
M  CHG  1   9  -1
M  END
> <s_m_source_file>
AV-unprocessed.smi

> <i_m_source_file_index>
2017

> <i_lp_mmshare_version>
43012

> <i_f3d_flags>
0

> <s_epik_input>
Tz1jMVtuSF1jKD1PKVtjSF1bY0hdbjFbQ0gyXUMoPU8pW05IXVtDSDJdW0NIMl1bQ0gyXU9bQ0hdMltDSDJdW0NIMl1bQ0gyXVtDSDJdW0NIMl0y

> <s_epik_cmdline>
J2VwaWtfcHl0aG9uJywgJy1waCcsICc3LjAnLCAnLXRuJywgJzgnLCAnLW1hJywgJzIwMCcsICctbWV0YWxfYmluZGluZycsICctaW1hZScsICc8aW5maWxlLm1hZT4nLCAnLW9tYWUnLCAnPG91dGZpbGUubWFlPic=

> <r_lp_tautomer_probability>
0.999537

> <r_epik_Ionization_Penalty>
3.07707

> <r_epik_Ionization_Penalty_Charging>
2.73667e-08

> <r_epik_Ionization_Penalty_Neutral>
3.07707

> <r_epik_State_Penalty>
3.07611

> <r_epik_Charging_Adjusted_Penalty>
3.07611

> <i_epik_Tot_Q>
-1

> <i_epik_Tot_abs_Q>
1

> <r_epik_Metal_State_Penalty>
0.459703

> <b_epik_Metal_Only>
1

> <s_lp_Force_Field>
OPLS_2005

> <r_lp_Energy>
18.9634

> <b_lp_Chiralities_Consistent>
1

> <s_lp_Variant>
AV-unprocessed.smi:2017-2

> <Gold.Version>
5.8.1

> <Gold.Id.Protein>
6NUR|6NUR_protein|mol2

> <Gold.PLP.Fitness>
48.5741

> <Gold.PLP.PLP>
-38.8361

> <Gold.PLP.part.hbond>
-5.0000

> <Gold.PLP.part.metal>
0.0000

> <Gold.PLP.part.buried>
-3.7601

> <Gold.PLP.part.nonpolar>
-30.9448

> <Gold.PLP.part.repulsive>
0.9488

> <Gold.PLP.ligand.clash>
0.0000

> <Gold.PLP.ligand.torsion>
1.1635

> <Gold.PLP.Chemscore.Hbond>
4.0000

> <Gold.PLP.Chemscore.CHOScore>
0.0000

> <Gold.PLP.Chemscore.Metal>
0.0000

> <Gold.Chemscore.Hbonds>
donor molecule, donor type, donor heavy atom, donor atom, acceptor molecule, acceptor atom, score
      L1  H    12    27       P1  7948  0.95
      P1  H  7997  8010       L1     9  2.00
      P1  H 10752 10763       L1     1  0.66

> <Gold.PLP.Chemscore.Internal.Correction>
0.0651

> <Gold.Rescore>
     Score         DG    S(hbond)    S(metal)    S(lipo)     H(rot)  DE(clash)    DE(int)     intcor
     13.43     -15.33       2.30        0.00      76.64       2.66       0.56       1.34       ----

> <Gold.Chemscore.Fitness>
13.4341

> <Gold.Chemscore.DG>
-15.3330

> <Gold.Chemscore.ZeroCoef>
-5.4800

> <Gold.Chemscore.Hbond>
2.3019

> <Gold.Chemscore.Metal>
0.0000

> <Gold.Chemscore.Lipo>
76.6416

> <Gold.Chemscore.Internal_Hbond>
0.0000

> <Gold.Chemscore.DEClash>
0.5583

> <Gold.Chemscore.DEInternal>
1.3406

> <Gold.Chemscore.Rot>
2.6572

> <Gold.Chemscore.Internal.Correction>
   9.000000E+99

> <Gold.Chemscore.Hbonds>
donor molecule, donor type, donor heavy atom, donor atom, acceptor molecule, acceptor atom, score
      L1  H    12    27       P1  7948  0.21
      P1  H  7997  8010       L1     9  0.64
      P1  H 10752 10763       L1     1  0.15

> <Gold.Chemscore.Hbond.Weighted>
-7.6884

> <Gold.Chemscore.Metal.Weighted>
-0.0000

> <Gold.Chemscore.Lipo.Weighted>
-8.9671

> <Gold.Chemscore.Internal_Hbond.Weighted>
0.0000

> <Gold.Chemscore.DEClash.Weighted>
0.5583

> <Gold.Chemscore.DEInternal.Weighted>
1.3406

> <Gold.Chemscore.Rot.Weighted>
6.8024

> <Gold.Chemscore.Internal.Correction.Weighted>
   9.000000E+99

> <Gold.Protein.RotatedTorsions>
[ 6907 6896 6895 6894 ] final   78.07 input  -60.11 | X-H torsion
[ 7974 7965 7964 7962 ] final   16.75 input  175.53 | X-H torsion
[ 8008 7997 7996 7995 ] final   67.23 input   59.86 | X-H torsion
[ 10167 10162 10161 10158 ] final  131.18 input  -65.29 | X-H torsion
[ 10718 10713 10712 10709 ] final  -86.27 input   66.30 | X-H torsion
[ 10763 10752 10751 10750 ] final   91.56 input  -60.55 | X-H torsion
[ 11005 11000 10999 10996 ] final  -27.13 input  -57.11 | X-H torsion

> <Gold.Protein.ActiveResidues>
 VAL166  LYS551  ARG553  GLY616  TRP617  ASP618  TYR619  PRO620  LYS621  CYS622 
 ASP623  PHE694  ASN695  SER759  ASP760  ASP761  ALA762  ILE779  LEU786  VAL792 
 PHE793  MET794  SER795  GLU796  ALA797  LYS798  CYS799  TRP800  GLU811  SER814 

> <Gold.Protein.RotatedAtoms>
  152.5144  134.3720  159.9321 H   0  0  0  0  0  0  0  0  0  0  0  0  # atno 6907 bound_to 6896
  151.3675  133.3860  159.2704 H   0  0  0  0  0  0  0  0  0  0  0  0  # atno 6908 bound_to 6896
  150.9604  134.9012  159.7785 H   0  0  0  0  0  0  0  0  0  0  0  0  # atno 6909 bound_to 6896
  146.2240  139.8702  142.8589 H   0  0  0  0  0  0  0  0  0  0  0  0  # atno 7974 bound_to 7965
  155.6897  140.3496  155.4888 H   0  0  0  0  0  0  0  0  0  0  0  0  # atno 8008 bound_to 7997
  155.9535  140.1123  157.0979 H   0  0  0  0  0  0  0  0  0  0  0  0  # atno 8009 bound_to 7997
  154.4127  140.1189  156.5070 H   0  0  0  0  0  0  0  0  0  0  0  0  # atno 8010 bound_to 7997
  139.5396  144.6717  151.4670 H   0  0  0  0  0  0  0  0  0  0  0  0  # atno 10167 bound_to 10162
  155.9991  130.4759  150.4690 H   0  0  0  0  0  0  0  0  0  0  0  0  # atno 10718 bound_to 10713
  153.2096  135.4393  155.0363 H   0  0  0  0  0  0  0  0  0  0  0  0  # atno 10763 bound_to 10752
  154.8192  135.3329  154.7089 H   0  0  0  0  0  0  0  0  0  0  0  0  # atno 10764 bound_to 10752
  153.7528  135.6997  153.4997 H   0  0  0  0  0  0  0  0  0  0  0  0  # atno 10765 bound_to 10752
  140.9092  133.7472  156.0647 H   0  0  0  0  0  0  0  0  0  0  0  0  # atno 11005 bound_to 11000
  145.2615  141.0079  143.3823 LP  0  0  0  0  0  0  0  0  0  0  0  0  # atno 17320 bound_to 7965
  144.9294  139.4316  143.6502 LP  0  0  0  0  0  0  0  0  0  0  0  0  # atno 17321 bound_to 7965
  140.6619  143.8480  150.6898 LP  0  0  0  0  0  0  0  0  0  0  0  0  # atno 17342 bound_to 10162
  140.1877  143.4062  152.1886 LP  0  0  0  0  0  0  0  0  0  0  0  0  # atno 17343 bound_to 10162
  157.2707  131.0586  151.2262 LP  0  0  0  0  0  0  0  0  0  0  0  0  # atno 17370 bound_to 10713
  157.3343  130.7001  149.6343 LP  0  0  0  0  0  0  0  0  0  0  0  0  # atno 17371 bound_to 10713
  140.8132  134.3375  157.5405 LP  0  0  0  0  0  0  0  0  0  0  0  0  # atno 17394 bound_to 11000
  139.8754  134.9266  156.3404 LP  0  0  0  0  0  0  0  0  0  0  0  0  # atno 17395 bound_to 11000

$$$$
