AV-unprocessed.smi:653|AV-procd|sdf|3206|dock5
  -GOLD-   22720 0143D 1   1.00000     0.00000
 Structure written by MMmdl.
 44 45  0  0  0  0  0  0  0  0  1 V2000
  153.1653  142.6287  163.6341 C   0  0  0  0  0  0  0  0  0  0  0  0
  152.7561  142.8798  162.1975 C   0  0  0  0  0  0  0  0  0  0  0  0
  152.2734  144.1439  161.7995 C   0  0  0  0  0  0  0  0  0  0  0  0
  151.9039  144.3274  160.4533 C   0  0  0  0  0  0  0  0  0  0  0  0
  152.0279  143.2435  159.5597 C   0  0  0  0  0  0  0  0  0  0  0  0
  151.6427  143.3893  158.0979 C   0  0  0  0  0  0  0  0  0  0  0  0
  150.3582  142.6147  157.7917 C   0  0  0  0  0  0  0  0  0  0  0  0
  149.4503  142.5650  158.6220 O   0  0  0  0  0  0  0  0  0  0  0  0
  150.2963  142.0113  156.5949 N   0  0  0  0  0  0  0  0  0  0  0  0
  149.1658  141.2282  156.1076 C   0  0  0  0  0  0  0  0  0  0  0  0
  149.3162  140.8352  154.6161 C   0  0  2  0  0  0  0  0  0  0  0  0
  148.1466  141.3132  153.7659 C   0  0  0  0  0  0  0  0  0  0  0  0
  147.1313  140.1727  153.8784 C   0  0  0  0  0  0  0  0  0  0  0  0
  147.8441  139.0610  154.4137 O   0  0  0  0  0  0  0  0  0  0  0  0
  149.2395  139.3229  154.3450 C   0  0  2  0  0  0  0  0  0  0  0  0
  150.0424  138.3893  155.2798 C   0  0  0  0  0  0  0  0  0  0  0  0
  151.5598  138.5553  155.0855 C   0  0  0  0  0  0  0  0  0  0  0  0
  149.6455  136.9199  155.0645 C   0  0  0  0  0  0  0  0  0  0  0  0
  152.5198  142.0192  160.0604 C   0  0  0  0  0  0  0  0  0  0  0  0
  152.8771  141.8343  161.3495 N   0  0  0  0  0  0  0  0  0  0  0  0
  153.5373  143.5436  164.0963 H   0  0  0  0  0  0  0  0  0  0  0  0
  153.9540  141.8777  163.6921 H   0  0  0  0  0  0  0  0  0  0  0  0
  152.3110  142.2756  164.2120 H   0  0  0  0  0  0  0  0  0  0  0  0
  152.1883  144.9551  162.5075 H   0  0  0  0  0  0  0  0  0  0  0  0
  151.5333  145.2838  160.1146 H   0  0  0  0  0  0  0  0  0  0  0  0
  151.5194  144.4474  157.8617 H   0  0  0  0  0  0  0  0  0  0  0  0
  152.4444  143.0146  157.4603 H   0  0  0  0  0  0  0  0  0  0  0  0
  151.0879  142.1035  155.9749 H   0  0  0  0  0  0  0  0  0  0  0  0
  149.0615  140.3444  156.7373 H   0  0  0  0  0  0  0  0  0  0  0  0
  148.2592  141.8157  156.2552 H   0  0  0  0  0  0  0  0  0  0  0  0
  150.2544  141.2372  154.2318 H   0  0  0  0  0  0  0  0  0  0  0  0
  147.7363  142.2762  154.0704 H   0  0  0  0  0  0  0  0  0  0  0  0
  148.4686  141.4120  152.7283 H   0  0  0  0  0  0  0  0  0  0  0  0
  146.3148  140.4303  154.5534 H   0  0  0  0  0  0  0  0  0  0  0  0
  146.7034  139.9251  152.9066 H   0  0  0  0  0  0  0  0  0  0  0  0
  149.5536  139.1393  153.3153 H   0  0  0  0  0  0  0  0  0  0  0  0
  149.8032  138.6349  156.3145 H   0  0  0  0  0  0  0  0  0  0  0  0
  151.8561  138.3090  154.0654 H   0  0  0  0  0  0  0  0  0  0  0  0
  152.1148  137.9016  155.7589 H   0  0  0  0  0  0  0  0  0  0  0  0
  151.8854  139.5757  155.2870 H   0  0  0  0  0  0  0  0  0  0  0  0
  149.8463  136.6000  154.0415 H   0  0  0  0  0  0  0  0  0  0  0  0
  148.5844  136.7625  155.2598 H   0  0  0  0  0  0  0  0  0  0  0  0
  150.2000  136.2609  155.7331 H   0  0  0  0  0  0  0  0  0  0  0  0
  152.6310  141.1648  159.4087 H   0  0  0  0  0  0  0  0  0  0  0  0
  1  2  1  0  0  0  0
  1 21  1  0  0  0  0
  1 22  1  0  0  0  0
  1 23  1  0  0  0  0
  2 20  1  0  0  0  0
  2  3  2  0  0  0  0
  3  4  1  0  0  0  0
  3 24  1  0  0  0  0
  4  5  2  0  0  0  0
  4 25  1  0  0  0  0
  5  6  1  0  0  0  0
  5 19  1  0  0  0  0
  6  7  1  0  0  0  0
  6 26  1  0  0  0  0
  6 27  1  0  0  0  0
  7  8  2  0  0  0  0
  7  9  1  0  0  0  0
  9 10  1  0  0  0  0
  9 28  1  0  0  0  0
 10 11  1  0  0  0  0
 10 29  1  0  0  0  0
 10 30  1  0  0  0  0
 11 15  1  0  0  0  0
 11 12  1  0  0  0  0
 11 31  1  0  0  0  0
 12 13  1  0  0  0  0
 12 32  1  0  0  0  0
 12 33  1  0  0  0  0
 13 14  1  0  0  0  0
 13 34  1  0  0  0  0
 13 35  1  0  0  0  0
 14 15  1  0  0  0  0
 15 16  1  0  0  0  0
 15 36  1  0  0  0  0
 16 17  1  0  0  0  0
 16 18  1  0  0  0  0
 16 37  1  0  0  0  0
 17 38  1  0  0  0  0
 17 39  1  0  0  0  0
 17 40  1  0  0  0  0
 18 41  1  0  0  0  0
 18 42  1  0  0  0  0
 18 43  1  0  0  0  0
 19 20  2  0  0  0  0
 19 44  1  0  0  0  0
M  END
> <s_m_source_file>
AV-unprocessed.smi

> <i_m_source_file_index>
653

> <i_lp_mmshare_version>
43012

> <i_f3d_flags>
0

> <s_epik_input>
W0NIM11jMVtjSF1bY0hdYyhbY0hdbjEpW0NIMl1DKD1PKVtOSF1bQ0gyXVtDQEBIXTJbQ0gyXVtDSDJdT1tDQEhdMltDSF0oW0NIM10pW0NIM10=

> <s_epik_cmdline>
J2VwaWtfcHl0aG9uJywgJy1waCcsICc3LjAnLCAnLXRuJywgJzgnLCAnLW1hJywgJzIwMCcsICctbWV0YWxfYmluZGluZycsICctaW1hZScsICc8aW5maWxlLm1hZT4nLCAnLW9tYWUnLCAnPG91dGZpbGUubWFlPic=

> <r_epik_Ionization_Penalty>
0.0166429

> <r_epik_Ionization_Penalty_Charging>
0

> <r_epik_Ionization_Penalty_Neutral>
0.0166429

> <r_epik_State_Penalty>
0.0131478

> <r_epik_Charging_Adjusted_Penalty>
0.0131478

> <i_epik_Tot_Q>
0

> <i_epik_Tot_abs_Q>
0

> <r_epik_Metal_State_Penalty>
0.012786

> <b_epik_Metal_Only>
0

> <s_lp_Force_Field>
OPLS_2005

> <r_lp_Energy>
20.8525

> <b_lp_Chiralities_Consistent>
1

> <s_lp_Variant>
AV-unprocessed.smi:653-3

> <Gold.Version>
5.8.1

> <Gold.Id.Protein>
6NUR|6NUR_protein|mol2

> <Gold.PLP.Fitness>
45.7567

> <Gold.PLP.PLP>
-48.3162

> <Gold.PLP.part.hbond>
-0.9708

> <Gold.PLP.part.metal>
0.0000

> <Gold.PLP.part.buried>
-3.1798

> <Gold.PLP.part.nonpolar>
-43.2611

> <Gold.PLP.part.repulsive>
0.2985

> <Gold.PLP.ligand.clash>
0.0000

> <Gold.PLP.ligand.torsion>
1.3051

> <Gold.PLP.Chemscore.Hbond>
0.0000

> <Gold.PLP.Chemscore.CHOScore>
0.0000

> <Gold.PLP.Chemscore.Metal>
0.0000

> <Gold.PLP.Chemscore.Internal.Correction>
0.0508

> <Gold.Rescore>
     Score         DG    S(hbond)    S(metal)    S(lipo)     H(rot)  DE(clash)    DE(int)     intcor
     15.76     -17.07       0.00        0.00     131.54       1.48       0.15       1.15       ----

> <Gold.Chemscore.Fitness>
15.7609

> <Gold.Chemscore.DG>
-17.0690

> <Gold.Chemscore.ZeroCoef>
-5.4800

> <Gold.Chemscore.Hbond>
0.0000

> <Gold.Chemscore.Metal>
0.0000

> <Gold.Chemscore.Lipo>
131.5429

> <Gold.Chemscore.Internal_Hbond>
0.0000

> <Gold.Chemscore.DEClash>
0.1546

> <Gold.Chemscore.DEInternal>
1.1535

> <Gold.Chemscore.Rot>
1.4850

> <Gold.Chemscore.Internal.Correction>
   9.000000E+99

> <Gold.Chemscore.Hbond.Weighted>
-0.0000

> <Gold.Chemscore.Metal.Weighted>
-0.0000

> <Gold.Chemscore.Lipo.Weighted>
-15.3905

> <Gold.Chemscore.Internal_Hbond.Weighted>
0.0000

> <Gold.Chemscore.DEClash.Weighted>
0.1546

> <Gold.Chemscore.DEInternal.Weighted>
1.1535

> <Gold.Chemscore.Rot.Weighted>
3.8015

> <Gold.Chemscore.Internal.Correction.Weighted>
   9.000000E+99

> <Gold.Protein.RotatedTorsions>
[ 6907 6896 6895 6894 ] final  104.22 input  -60.11 | X-H torsion
[ 7974 7965 7964 7962 ] final -112.78 input  175.53 | X-H torsion
[ 8008 7997 7996 7995 ] final  105.12 input   59.86 | X-H torsion
[ 10167 10162 10161 10158 ] final    2.12 input  -65.29 | X-H torsion
[ 10718 10713 10712 10709 ] final  -53.25 input   66.30 | X-H torsion
[ 10763 10752 10751 10750 ] final -126.30 input  -60.55 | X-H torsion
[ 11005 11000 10999 10996 ] final  -55.61 input  -57.11 | X-H torsion

> <Gold.Protein.ActiveResidues>
 VAL166  LYS551  ARG553  GLY616  TRP617  ASP618  TYR619  PRO620  LYS621  CYS622 
 ASP623  PHE694  ASN695  SER759  ASP760  ASP761  ALA762  ILE779  LEU786  VAL792 
 PHE793  MET794  SER795  GLU796  ALA797  LYS798  CYS799  TRP800  GLU811  SER814 

> <Gold.Protein.RotatedAtoms>
  152.5271  133.9709  159.7761 H   0  0  0  0  0  0  0  0  0  0  0  0  # atno 6907 bound_to 6896
  150.9981  133.6075  159.2706 H   0  0  0  0  0  0  0  0  0  0  0  0  # atno 6908 bound_to 6896
  151.3194  135.0821  159.9353 H   0  0  0  0  0  0  0  0  0  0  0  0  # atno 6909 bound_to 6896
  145.1399  140.8772  143.3708 H   0  0  0  0  0  0  0  0  0  0  0  0  # atno 7974 bound_to 7965
  156.1631  140.3136  155.8842 H   0  0  0  0  0  0  0  0  0  0  0  0  # atno 8008 bound_to 7997
  155.3741  140.0484  157.3062 H   0  0  0  0  0  0  0  0  0  0  0  0  # atno 8009 bound_to 7997
  154.5166  140.2183  155.9065 H   0  0  0  0  0  0  0  0  0  0  0  0  # atno 8010 bound_to 7997
  140.6650  143.7203  150.7810 H   0  0  0  0  0  0  0  0  0  0  0  0  # atno 10167 bound_to 10162
  156.1551  130.4150  149.9881 H   0  0  0  0  0  0  0  0  0  0  0  0  # atno 10718 bound_to 10713
  154.8744  135.4000  154.3409 H   0  0  0  0  0  0  0  0  0  0  0  0  # atno 10763 bound_to 10752
  153.4208  135.7023  153.6301 H   0  0  0  0  0  0  0  0  0  0  0  0  # atno 10764 bound_to 10752
  153.4963  135.3737  155.2488 H   0  0  0  0  0  0  0  0  0  0  0  0  # atno 10765 bound_to 10752
  141.1082  133.6612  156.4496 H   0  0  0  0  0  0  0  0  0  0  0  0  # atno 11005 bound_to 11000
  145.0543  139.3156  143.5912 LP  0  0  0  0  0  0  0  0  0  0  0  0  # atno 17320 bound_to 7965
  146.3506  139.9963  142.8680 LP  0  0  0  0  0  0  0  0  0  0  0  0  # atno 17321 bound_to 7965
  140.0879  143.4906  152.2495 LP  0  0  0  0  0  0  0  0  0  0  0  0  # atno 17342 bound_to 10162
  139.5896  144.7545  151.3434 LP  0  0  0  0  0  0  0  0  0  0  0  0  # atno 17343 bound_to 10162
  156.7727  130.9192  151.3644 LP  0  0  0  0  0  0  0  0  0  0  0  0  # atno 17370 bound_to 10713
  157.6689  130.9032  149.9994 LP  0  0  0  0  0  0  0  0  0  0  0  0  # atno 17371 bound_to 10713
  140.4846  134.6632  157.5185 LP  0  0  0  0  0  0  0  0  0  0  0  0  # atno 17394 bound_to 11000
  139.9962  134.6907  155.9605 LP  0  0  0  0  0  0  0  0  0  0  0  0  # atno 17395 bound_to 11000

$$$$
