AV-unprocessed.smi:1762|AV-procd|sdf|7105|dock3
  -GOLD-   22720 8323D 1   1.00000     0.00000
 Structure written by MMmdl.
 53 54  0  0  0  0  0  0  0  0  2 V2000
  151.2091  142.5712  157.0801 C   0  0  0  0  0  0  0  0  0  0  0  0
  150.5758  141.4970  156.1887 C   0  0  2  0  0  0  0  0  0  0  0  0
  149.0370  141.5374  156.2306 C   0  0  0  0  0  0  0  0  0  0  0  0
  148.4197  140.4613  155.4473 N   0  0  0  0  0  0  0  0  0  0  0  0
  146.9316  140.5367  155.4236 C   0  0  2  0  0  0  0  0  0  0  0  0
  146.2764  139.3639  154.6559 C   0  0  0  0  0  0  0  0  0  0  0  0
  145.3510  138.7269  155.1609 O   0  0  0  0  0  0  0  0  0  0  0  0
  146.7488  139.1098  153.4249 N   0  0  0  0  0  0  0  0  0  0  0  0
  146.2461  138.0673  152.5388 C   0  0  0  0  0  0  0  0  0  0  0  0
  145.9964  136.7536  153.2987 C   0  0  0  0  0  0  0  0  0  0  0  0
  145.6000  135.6209  152.3724 C   0  0  0  0  0  0  0  0  0  0  0  0
  144.2594  135.1995  152.2361 C   0  0  0  0  0  0  0  0  0  0  0  0
  143.9574  134.1355  151.3606 C   0  0  0  0  0  0  0  0  0  0  0  0
  145.0009  133.5160  150.6418 C   0  0  0  0  0  0  0  0  0  0  0  0
  146.3221  133.9757  150.8178 C   0  0  0  0  0  0  0  0  0  0  0  0
  146.5712  134.9978  151.6661 N   0  3  0  0  0  0  0  0  0  0  0  0
  146.3440  141.9071  154.9445 C   0  0  0  0  0  0  0  0  0  0  0  0
  144.8239  142.0384  155.1700 C   0  0  0  0  0  0  0  0  0  0  0  0
  146.7019  142.2648  153.4885 C   0  0  0  0  0  0  0  0  0  0  0  0
  148.9551  139.1728  155.9234 C   0  0  0  0  0  0  0  0  0  0  0  0
  150.4957  139.1127  155.9317 C   0  0  1  0  0  0  0  0  0  0  0  0
  151.1077  138.9759  154.5264 C   0  0  0  0  0  0  0  0  0  0  0  0
  151.0327  140.2270  156.6402 O   0  0  0  0  0  0  0  0  0  0  0  0
  150.9102  143.5707  156.7634 H   0  0  0  0  0  0  0  0  0  0  0  0
  152.2974  142.5212  157.0360 H   0  0  0  0  0  0  0  0  0  0  0  0
  150.9120  142.4463  158.1217 H   0  0  0  0  0  0  0  0  0  0  0  0
  150.9156  141.6626  155.1658 H   0  0  0  0  0  0  0  0  0  0  0  0
  148.6940  141.4866  157.2655 H   0  0  0  0  0  0  0  0  0  0  0  0
  148.7410  142.5125  155.8499 H   0  0  0  0  0  0  0  0  0  0  0  0
  146.6014  140.4257  156.4588 H   0  0  0  0  0  0  0  0  0  0  0  0
  147.5077  139.6805  153.0809 H   0  0  0  0  0  0  0  0  0  0  0  0
  145.3181  138.4222  152.0896 H   0  0  0  0  0  0  0  0  0  0  0  0
  146.9479  137.9081  151.7180 H   0  0  0  0  0  0  0  0  0  0  0  0
  146.8908  136.4586  153.8496 H   0  0  0  0  0  0  0  0  0  0  0  0
  145.2120  136.8947  154.0435 H   0  0  0  0  0  0  0  0  0  0  0  0
  143.4715  135.6839  152.7951 H   0  0  0  0  0  0  0  0  0  0  0  0
  142.9377  133.7989  151.2415 H   0  0  0  0  0  0  0  0  0  0  0  0
  144.7903  132.7002  149.9653 H   0  0  0  0  0  0  0  0  0  0  0  0
  147.1801  133.5608  150.3091 H   0  0  0  0  0  0  0  0  0  0  0  0
  146.7677  142.6873  155.5747 H   0  0  0  0  0  0  0  0  0  0  0  0
  144.2523  141.3864  154.5088 H   0  0  0  0  0  0  0  0  0  0  0  0
  144.4906  143.0592  154.9806 H   0  0  0  0  0  0  0  0  0  0  0  0
  144.5551  141.7935  156.1980 H   0  0  0  0  0  0  0  0  0  0  0  0
  146.2376  141.5843  152.7752 H   0  0  0  0  0  0  0  0  0  0  0  0
  147.7787  142.2386  153.3216 H   0  0  0  0  0  0  0  0  0  0  0  0
  146.3628  143.2714  153.2427 H   0  0  0  0  0  0  0  0  0  0  0  0
  148.5905  138.9839  156.9347 H   0  0  0  0  0  0  0  0  0  0  0  0
  148.6083  138.3389  155.3141 H   0  0  0  0  0  0  0  0  0  0  0  0
  150.7929  138.2263  156.4930 H   0  0  0  0  0  0  0  0  0  0  0  0
  150.7930  138.0441  154.0559 H   0  0  0  0  0  0  0  0  0  0  0  0
  152.1965  138.9695  154.5758 H   0  0  0  0  0  0  0  0  0  0  0  0
  150.8067  139.7892  153.8665 H   0  0  0  0  0  0  0  0  0  0  0  0
  147.5348  135.3142  151.7778 H   0  0  0  0  0  0  0  0  0  0  0  0
  1  2  1  0  0  0  0
  1 24  1  0  0  0  0
  1 25  1  0  0  0  0
  1 26  1  0  0  0  0
  2 23  1  0  0  0  0
  2  3  1  0  0  0  0
  2 27  1  0  0  0  0
  3  4  1  0  0  0  0
  3 28  1  0  0  0  0
  3 29  1  0  0  0  0
  4  5  1  0  0  0  0
  4 20  1  0  0  0  0
  5  6  1  0  0  0  0
  5 17  1  0  0  0  0
  5 30  1  0  0  0  0
  6  7  2  0  0  0  0
  6  8  1  0  0  0  0
  8  9  1  0  0  0  0
  8 31  1  0  0  0  0
  9 10  1  0  0  0  0
  9 32  1  0  0  0  0
  9 33  1  0  0  0  0
 10 11  1  0  0  0  0
 10 34  1  0  0  0  0
 10 35  1  0  0  0  0
 11 16  1  0  0  0  0
 11 12  2  0  0  0  0
 12 13  1  0  0  0  0
 12 36  1  0  0  0  0
 13 14  2  0  0  0  0
 13 37  1  0  0  0  0
 14 15  1  0  0  0  0
 14 38  1  0  0  0  0
 15 16  2  0  0  0  0
 15 39  1  0  0  0  0
 16 53  1  0  0  0  0
 17 18  1  0  0  0  0
 17 19  1  0  0  0  0
 17 40  1  0  0  0  0
 18 41  1  0  0  0  0
 18 42  1  0  0  0  0
 18 43  1  0  0  0  0
 19 44  1  0  0  0  0
 19 45  1  0  0  0  0
 19 46  1  0  0  0  0
 20 21  1  0  0  0  0
 20 47  1  0  0  0  0
 20 48  1  0  0  0  0
 21 22  1  0  0  0  0
 21 23  1  0  0  0  0
 21 49  1  0  0  0  0
 22 50  1  0  0  0  0
 22 51  1  0  0  0  0
 22 52  1  0  0  0  0
M  CHG  1  16   1
M  END
> <s_m_source_file>
AV-unprocessed.smi

> <i_m_source_file_index>
1762

> <i_lp_mmshare_version>
43012

> <i_f3d_flags>
0

> <s_epik_input>
W0NIM11bQ0BASF0xW0NIMl1OKFtDSDJdW0NASF0oTzEpW0NIM10pW0NAQEhdKFtDSF0oW0NIM10pW0NIM10pQyg9TylbTkhdW0NIMl1bQ0gyXWMyW2NIXVtjSF1bY0hdW2NIXW4y

> <s_epik_cmdline>
J2VwaWtfcHl0aG9uJywgJy1waCcsICc3LjAnLCAnLXRuJywgJzgnLCAnLW1hJywgJzIwMCcsICctbWV0YWxfYmluZGluZycsICctaW1hZScsICc8aW5maWxlLm1hZT4nLCAnLW9tYWUnLCAnPG91dGZpbGUubWFlPic=

> <r_epik_Ionization_Penalty>
1.86475

> <r_epik_Ionization_Penalty_Charging>
1.85347

> <r_epik_Ionization_Penalty_Neutral>
0.0112771

> <r_epik_State_Penalty>
1.99714

> <r_epik_Charging_Adjusted_Penalty>
3.85061

> <i_epik_Tot_Q>
1

> <i_epik_Tot_abs_Q>
1

> <r_epik_Metal_State_Penalty>
2.02271

> <b_epik_Metal_Only>
0

> <s_lp_Force_Field>
OPLS_2005

> <r_lp_Energy>
35.8241

> <b_lp_Chiralities_Consistent>
1

> <s_lp_Variant>
AV-unprocessed.smi:1762-7

> <Gold.Version>
5.8.1

> <Gold.Id.Protein>
6NUR|6NUR_protein|mol2

> <Gold.PLP.Fitness>
35.4015

> <Gold.PLP.PLP>
-30.7520

> <Gold.PLP.part.hbond>
-1.0000

> <Gold.PLP.part.metal>
0.0000

> <Gold.PLP.part.buried>
-5.9616

> <Gold.PLP.part.nonpolar>
-23.5617

> <Gold.PLP.part.repulsive>
0.1931

> <Gold.PLP.ligand.clash>
0.0000

> <Gold.PLP.ligand.torsion>
0.8281

> <Gold.PLP.Chemscore.Hbond>
2.0000

> <Gold.PLP.Chemscore.CHOScore>
0.0000

> <Gold.PLP.Chemscore.Metal>
0.0000

> <Gold.Chemscore.Hbonds>
donor molecule, donor type, donor heavy atom, donor atom, acceptor molecule, acceptor atom, score
      L1  H    16    53       P1  7948  2.00

> <Gold.PLP.Chemscore.Internal.Correction>
0.3056

> <Gold.Rescore>
     Score         DG    S(hbond)    S(metal)    S(lipo)     H(rot)  DE(clash)    DE(int)     intcor
     12.49     -14.65       0.99        0.00      87.70       1.72       0.04       2.12       ----

> <Gold.Chemscore.Fitness>
12.4942

> <Gold.Chemscore.DG>
-14.6541

> <Gold.Chemscore.ZeroCoef>
-5.4800

> <Gold.Chemscore.Hbond>
0.9911

> <Gold.Chemscore.Metal>
0.0000

> <Gold.Chemscore.Lipo>
87.6961

> <Gold.Chemscore.Internal_Hbond>
0.0000

> <Gold.Chemscore.DEClash>
0.0438

> <Gold.Chemscore.DEInternal>
2.1161

> <Gold.Chemscore.Rot>
1.7174

> <Gold.Chemscore.Internal.Correction>
   9.000000E+99

> <Gold.Chemscore.Hbonds>
donor molecule, donor type, donor heavy atom, donor atom, acceptor molecule, acceptor atom, score
      L1  H    16    53       P1  7948  0.94

> <Gold.Chemscore.Hbond.Weighted>
-3.3102

> <Gold.Chemscore.Metal.Weighted>
-0.0000

> <Gold.Chemscore.Lipo.Weighted>
-10.2604

> <Gold.Chemscore.Internal_Hbond.Weighted>
0.0000

> <Gold.Chemscore.DEClash.Weighted>
0.0438

> <Gold.Chemscore.DEInternal.Weighted>
2.1161

> <Gold.Chemscore.Rot.Weighted>
4.3966

> <Gold.Chemscore.Internal.Correction.Weighted>
   9.000000E+99

> <Gold.Protein.RotatedTorsions>
[ 6907 6896 6895 6894 ] final  103.94 input  -60.11 | X-H torsion
[ 7974 7965 7964 7962 ] final  165.57 input  175.53 | X-H torsion
[ 8008 7997 7996 7995 ] final -166.59 input   59.86 | X-H torsion
[ 10167 10162 10161 10158 ] final -178.10 input  -65.29 | X-H torsion
[ 10718 10713 10712 10709 ] final   42.34 input   66.30 | X-H torsion
[ 10763 10752 10751 10750 ] final -140.14 input  -60.55 | X-H torsion
[ 11005 11000 10999 10996 ] final  119.65 input  -57.11 | X-H torsion

> <Gold.Protein.ActiveResidues>
 VAL166  LYS551  ARG553  GLY616  TRP617  ASP618  TYR619  PRO620  LYS621  CYS622 
 ASP623  PHE694  ASN695  SER759  ASP760  ASP761  ALA762  ILE779  LEU786  VAL792 
 PHE793  MET794  SER795  GLU796  ALA797  LYS798  CYS799  TRP800  GLU811  SER814 

> <Gold.Protein.RotatedAtoms>
  152.5280  133.9750  159.7779 H   0  0  0  0  0  0  0  0  0  0  0  0  # atno 6907 bound_to 6896
  151.0015  133.6044  159.2701 H   0  0  0  0  0  0  0  0  0  0  0  0  # atno 6908 bound_to 6896
  151.3151  135.0810  159.9339 H   0  0  0  0  0  0  0  0  0  0  0  0  # atno 6909 bound_to 6896
  144.7497  139.8489  143.6370 H   0  0  0  0  0  0  0  0  0  0  0  0  # atno 7974 bound_to 7965
  155.8660  140.0985  157.1582 H   0  0  0  0  0  0  0  0  0  0  0  0  # atno 8008 bound_to 7997
  154.3993  140.1356  156.4082 H   0  0  0  0  0  0  0  0  0  0  0  0  # atno 8009 bound_to 7997
  155.7804  140.3458  155.5296 H   0  0  0  0  0  0  0  0  0  0  0  0  # atno 8010 bound_to 7997
  139.5448  144.2265  152.0966 H   0  0  0  0  0  0  0  0  0  0  0  0  # atno 10167 bound_to 10162
  157.4037  130.7874  149.7370 H   0  0  0  0  0  0  0  0  0  0  0  0  # atno 10718 bound_to 10713
  154.8588  135.3562  154.5660 H   0  0  0  0  0  0  0  0  0  0  0  0  # atno 10763 bound_to 10752
  153.6274  135.7003  153.5292 H   0  0  0  0  0  0  0  0  0  0  0  0  # atno 10764 bound_to 10752
  153.3078  135.4187  155.1269 H   0  0  0  0  0  0  0  0  0  0  0  0  # atno 10765 bound_to 10752
  139.9155  134.9630  156.7688 H   0  0  0  0  0  0  0  0  0  0  0  0  # atno 11005 bound_to 11000
  146.1430  139.4492  143.0097 LP  0  0  0  0  0  0  0  0  0  0  0  0  # atno 17320 bound_to 7965
  145.6989  141.0142  143.1515 LP  0  0  0  0  0  0  0  0  0  0  0  0  # atno 17321 bound_to 7965
  140.1750  144.4900  150.6559 LP  0  0  0  0  0  0  0  0  0  0  0  0  # atno 17342 bound_to 10162
  140.6692  143.2279  151.5667 LP  0  0  0  0  0  0  0  0  0  0  0  0  # atno 17343 bound_to 10162
  155.9830  130.4004  150.3384 LP  0  0  0  0  0  0  0  0  0  0  0  0  # atno 17370 bound_to 10713
  157.1515  131.0322  151.2883 LP  0  0  0  0  0  0  0  0  0  0  0  0  # atno 17371 bound_to 10713
  140.6638  133.9621  155.7819 LP  0  0  0  0  0  0  0  0  0  0  0  0  # atno 17394 bound_to 11000
  141.0625  134.0325  157.3639 LP  0  0  0  0  0  0  0  0  0  0  0  0  # atno 17395 bound_to 11000

$$$$
