AV-unprocessed.smi:48|AV-procd|sdf|454|dock4
  -GOLD-   2262016323D 1   1.00000     0.00000
 Structure written by MMmdl.
 30 32  0  0  0  0  0  0  0  0  1 V2000
  150.0670  139.9985  153.7861 O   0  0  0  0  0  0  0  0  0  0  0  0
  148.8429  140.2071  154.4574 C   0  0  0  0  0  0  0  0  0  0  0  0
  148.9983  141.3215  155.5074 C   0  0  2  0  0  0  0  0  0  0  0  0
  150.3516  141.4501  155.9176 O   0  0  0  0  0  0  0  0  0  0  0  0
  150.3941  142.1385  157.1266 C   0  0  2  0  0  0  0  0  0  0  0  0
  151.5164  141.5826  157.9401 N   0  0  0  0  0  0  0  0  0  0  0  0
  152.2900  140.5191  157.6423 C   0  0  0  0  0  0  0  0  0  0  0  0
  153.2474  140.1936  158.5099 N   0  0  0  0  0  0  0  0  0  0  0  0
  153.0731  141.1589  159.4879 C   0  0  0  0  0  0  0  0  0  0  0  0
  153.7430  141.4197  160.7079 C   0  0  0  0  0  0  0  0  0  0  0  0
  155.0604  140.4332  161.2264 Cl  0  0  0  0  0  0  0  0  0  0  0  0
  153.3266  142.4644  161.4626 N   0  0  0  0  0  0  0  0  0  0  0  0
  152.3018  143.2130  161.0366 C   0  0  0  0  0  0  0  0  0  0  0  0
  151.5788  143.0888  159.9181 N   0  0  0  0  0  0  0  0  0  0  0  0
  152.0005  142.0357  159.1572 C   0  0  0  0  0  0  0  0  0  0  0  0
  149.0444  141.9315  157.8359 C   0  0  1  0  0  0  0  0  0  0  0  0
  148.3896  143.1661  158.0464 O   0  0  0  0  0  0  0  0  0  0  0  0
  148.2506  141.0991  156.8313 C   0  0  2  0  0  0  0  0  0  0  0  0
  148.2521  139.7356  157.2108 O   0  0  0  0  0  0  0  0  0  0  0  0
  148.6731  142.2778  155.0923 H   0  0  0  0  0  0  0  0  0  0  0  0
  150.6507  143.1867  156.9631 H   0  0  0  0  0  0  0  0  0  0  0  0
  149.1703  141.4250  158.7946 H   0  0  0  0  0  0  0  0  0  0  0  0
  147.2088  141.4143  156.7544 H   0  0  0  0  0  0  0  0  0  0  0  0
  149.8821  139.6886  152.9128 H   0  0  0  0  0  0  0  0  0  0  0  0
  148.1071  140.4972  153.7068 H   0  0  0  0  0  0  0  0  0  0  0  0
  148.4977  139.2781  154.9125 H   0  0  0  0  0  0  0  0  0  0  0  0
  152.1443  139.9528  156.7340 H   0  0  0  0  0  0  0  0  0  0  0  0
  152.0195  144.0292  161.6848 H   0  0  0  0  0  0  0  0  0  0  0  0
  148.5875  143.7371  157.3199 H   0  0  0  0  0  0  0  0  0  0  0  0
  147.4792  139.5657  157.7271 H   0  0  0  0  0  0  0  0  0  0  0  0
  1  2  1  0  0  0  0
  1 24  1  0  0  0  0
  2  3  1  0  0  0  0
  2 25  1  0  0  0  0
  2 26  1  0  0  0  0
  3 20  1  0  0  0  0
  3 18  1  0  0  0  0
  3  4  1  0  0  0  0
  4  5  1  0  0  0  0
  5 21  1  0  0  0  0
  5  6  1  0  0  0  0
  5 16  1  0  0  0  0
  6 15  1  0  0  0  0
  6  7  1  0  0  0  0
  7  8  2  0  0  0  0
  7 27  1  0  0  0  0
  8  9  1  0  0  0  0
  9 15  2  0  0  0  0
  9 10  1  0  0  0  0
 10 11  1  0  0  0  0
 10 12  2  0  0  0  0
 12 13  1  0  0  0  0
 13 14  2  0  0  0  0
 13 28  1  0  0  0  0
 14 15  1  0  0  0  0
 16 22  1  0  0  0  0
 16 17  1  0  0  0  0
 16 18  1  0  0  0  0
 17 29  1  0  0  0  0
 18 23  1  0  0  0  0
 18 19  1  0  0  0  0
 19 30  1  0  0  0  0
M  END
> <s_m_source_file>
AV-unprocessed.smi

> <i_m_source_file_index>
48

> <i_lp_mmshare_version>
43012

> <i_f3d_flags>
0

> <s_epik_input>
W09IXVtDSDJdW0NASF0xT1tDQEhdKFtDQEhdKFtPSF0pW0NAQEhdMVtPSF0pbihbY0hdbjIpYyhjMjMpbltjSF1uYzNDbA==

> <s_epik_cmdline>
J2VwaWtfcHl0aG9uJywgJy1waCcsICc3LjAnLCAnLXRuJywgJzgnLCAnLW1hJywgJzIwMCcsICctbWV0YWxfYmluZGluZycsICctaW1hZScsICc8aW5maWxlLm1hZT4nLCAnLW9tYWUnLCAnPG91dGZpbGUubWFlPic=

> <r_lp_tautomer_probability>
1

> <r_epik_Ionization_Penalty>
3.45505e-06

> <r_epik_Ionization_Penalty_Charging>
0

> <r_epik_Ionization_Penalty_Neutral>
3.45505e-06

> <r_epik_State_Penalty>
-0

> <r_epik_Charging_Adjusted_Penalty>
0

> <i_epik_Tot_Q>
0

> <i_epik_Tot_abs_Q>
0

> <r_epik_Metal_State_Penalty>
-0

> <b_epik_Metal_Only>
0

> <s_epik_Chemistry_Notes>
This compound contains an acetal/aminal-like group ( X-CH(R)-Y where X, Y are N, S, or O) that may be acid/base labile, releasing an aldehyde.

> <s_lp_Force_Field>
OPLS_2005

> <r_lp_Energy>
33.2989

> <b_lp_Chiralities_Consistent>
1

> <s_lp_Variant>
AV-unprocessed.smi:48-8

> <Gold.Version>
5.8.1

> <Gold.Id.Protein>
6NUR|6NUR_protein|mol2

> <Gold.PLP.Fitness>
41.8002

> <Gold.PLP.PLP>
-33.4273

> <Gold.PLP.part.hbond>
-5.0000

> <Gold.PLP.part.metal>
0.0000

> <Gold.PLP.part.buried>
-4.2431

> <Gold.PLP.part.nonpolar>
-23.5337

> <Gold.PLP.part.repulsive>
0.1140

> <Gold.PLP.ligand.clash>
0.0000

> <Gold.PLP.ligand.torsion>
0.6072

> <Gold.PLP.Chemscore.Hbond>
3.1939

> <Gold.PLP.Chemscore.CHOScore>
0.0000

> <Gold.PLP.Chemscore.Metal>
0.0000

> <Gold.Chemscore.Hbonds>
donor molecule, donor type, donor heavy atom, donor atom, acceptor molecule, acceptor atom, score
      L1  H     1    24       P1  7957  0.99
      L1  H    17    29       P1  8028  0.55
      P1  H  7989  7998       L1     1  0.79
      P1  H  7997  8008       L1     8  0.78

> <Gold.PLP.Chemscore.Internal.Correction>
0.0056

> <Gold.Rescore>
     Score         DG    S(hbond)    S(metal)    S(lipo)     H(rot)  DE(clash)    DE(int)     intcor
      6.79      -7.41       1.96        0.00      43.72       3.80       0.02       0.60       ----

> <Gold.Chemscore.Fitness>
6.7939

> <Gold.Chemscore.DG>
-7.4125

> <Gold.Chemscore.ZeroCoef>
-5.4800

> <Gold.Chemscore.Hbond>
1.9610

> <Gold.Chemscore.Metal>
0.0000

> <Gold.Chemscore.Lipo>
43.7181

> <Gold.Chemscore.Internal_Hbond>
0.0000

> <Gold.Chemscore.DEClash>
0.0208

> <Gold.Chemscore.DEInternal>
0.5978

> <Gold.Chemscore.Rot>
3.8017

> <Gold.Chemscore.Internal.Correction>
   9.000000E+99

> <Gold.Chemscore.Hbonds>
donor molecule, donor type, donor heavy atom, donor atom, acceptor molecule, acceptor atom, score
      L1  H     1    24       P1  7957  0.94
      L1  H    17    29       P1  8028  0.03
      P1  H  7989  7998       L1     1  0.18
      P1  H  7997  8008       L1     8  0.12

> <Gold.Chemscore.Hbond.Weighted>
-6.5499

> <Gold.Chemscore.Metal.Weighted>
-0.0000

> <Gold.Chemscore.Lipo.Weighted>
-5.1150

> <Gold.Chemscore.Internal_Hbond.Weighted>
0.0000

> <Gold.Chemscore.DEClash.Weighted>
0.0208

> <Gold.Chemscore.DEInternal.Weighted>
0.5978

> <Gold.Chemscore.Rot.Weighted>
9.7324

> <Gold.Chemscore.Internal.Correction.Weighted>
   9.000000E+99

> <Gold.Protein.RotatedTorsions>
[ 6907 6896 6895 6894 ] final  -87.66 input  -60.11 | X-H torsion
[ 7974 7965 7964 7962 ] final  123.58 input  175.53 | X-H torsion
[ 8008 7997 7996 7995 ] final  -98.60 input   59.86 | X-H torsion
[ 10167 10162 10161 10158 ] final  164.84 input  -65.29 | X-H torsion
[ 10718 10713 10712 10709 ] final  -13.78 input   66.30 | X-H torsion
[ 10763 10752 10751 10750 ] final -161.99 input  -60.55 | X-H torsion
[ 11005 11000 10999 10996 ] final  167.96 input  -57.11 | X-H torsion

> <Gold.Protein.ActiveResidues>
 VAL166  LYS551  ARG553  GLY616  TRP617  ASP618  TYR619  PRO620  LYS621  CYS622 
 ASP623  PHE694  ASN695  SER759  ASP760  ASP761  ALA762  ILE779  LEU786  VAL792 
 PHE793  MET794  SER795  GLU796  ALA797  LYS798  CYS799  TRP800  GLU811  SER814 

> <Gold.Protein.RotatedAtoms>
  150.6867  134.2861  159.4647 H   0  0  0  0  0  0  0  0  0  0  0  0  # atno 6907 bound_to 6896
  152.0771  134.9493  160.0583 H   0  0  0  0  0  0  0  0  0  0  0  0  # atno 6908 bound_to 6896
  152.0861  133.4142  159.4559 H   0  0  0  0  0  0  0  0  0  0  0  0  # atno 6909 bound_to 6896
  145.0943  139.3564  143.4845 H   0  0  0  0  0  0  0  0  0  0  0  0  # atno 7974 bound_to 7965
  154.8034  140.0454  157.1289 H   0  0  0  0  0  0  0  0  0  0  0  0  # atno 8008 bound_to 7997
  154.9452  140.3058  155.5081 H   0  0  0  0  0  0  0  0  0  0  0  0  # atno 8009 bound_to 7997
  156.2964  140.2298  156.4525 H   0  0  0  0  0  0  0  0  0  0  0  0  # atno 8010 bound_to 7997
  139.4895  144.4194  151.9204 H   0  0  0  0  0  0  0  0  0  0  0  0  # atno 10167 bound_to 10162
  156.6253  130.4886  149.6149 H   0  0  0  0  0  0  0  0  0  0  0  0  # atno 10718 bound_to 10713
  154.7254  135.3034  154.8979 H   0  0  0  0  0  0  0  0  0  0  0  0  # atno 10763 bound_to 10752
  153.9839  135.6727  153.4755 H   0  0  0  0  0  0  0  0  0  0  0  0  # atno 10764 bound_to 10752
  153.0870  135.4979  154.8535 H   0  0  0  0  0  0  0  0  0  0  0  0  # atno 10765 bound_to 10752
  140.2822  134.7741  157.3768 H   0  0  0  0  0  0  0  0  0  0  0  0  # atno 11005 bound_to 11000
  146.3531  140.0791  142.8618 LP  0  0  0  0  0  0  0  0  0  0  0  0  # atno 17320 bound_to 7965
  145.1030  140.9357  143.4701 LP  0  0  0  0  0  0  0  0  0  0  0  0  # atno 17321 bound_to 7965
  140.3638  144.2940  150.5929 LP  0  0  0  0  0  0  0  0  0  0  0  0  # atno 17342 bound_to 10162
  140.5380  143.2229  151.8132 LP  0  0  0  0  0  0  0  0  0  0  0  0  # atno 17343 bound_to 10162
  156.2278  130.6776  151.1433 LP  0  0  0  0  0  0  0  0  0  0  0  0  # atno 17370 bound_to 10713
  157.7216  131.0678  150.6112 LP  0  0  0  0  0  0  0  0  0  0  0  0  # atno 17371 bound_to 10713
  140.1272  134.5142  155.8134 LP  0  0  0  0  0  0  0  0  0  0  0  0  # atno 17394 bound_to 11000
  141.2161  133.6777  156.6974 LP  0  0  0  0  0  0  0  0  0  0  0  0  # atno 17395 bound_to 11000

$$$$
