AV-unprocessed.smi:246|AV-procd|sdf|1885|dock2
  -GOLD-   2262020533D 1   1.00000     0.00000
 Structure written by MMmdl.
 57 60  0  0  0  0  0  0  0  0  1 V2000
  145.3061  130.5434  151.6396 C   0  0  0  0  0  0  0  0  0  0  0  0
  146.4687  130.2074  152.5833 C   0  0  0  0  0  0  0  0  0  0  0  0
  146.9461  131.3605  153.2624 O   0  0  0  0  0  0  0  0  0  0  0  0
  147.8254  132.1679  152.4932 C   0  0  0  0  0  0  0  0  0  0  0  0
  148.4550  133.2248  153.4048 C   0  0  0  0  0  0  0  0  0  0  0  0
  149.4906  132.6212  154.1655 O   0  0  0  0  0  0  0  0  0  0  0  0
  150.0609  133.4864  155.1363 C   0  0  2  0  0  0  0  0  0  0  0  0
  149.0127  133.9270  156.1572 C   0  0  0  0  0  0  0  0  0  0  0  0
  149.5965  135.2307  156.6979 C   0  0  0  0  0  0  0  0  0  0  0  0
  150.2930  135.8230  155.5639 N   0  0  0  0  0  0  0  0  0  0  0  0
  151.0804  136.9215  155.6990 C   0  0  0  0  0  0  0  0  0  0  0  0
  151.8820  137.2818  154.6615 N   0  0  0  0  0  0  0  0  0  0  0  0
  152.6656  138.3600  154.7506 C   0  0  0  0  0  0  0  0  0  0  0  0
  152.8066  139.2061  155.7717 N   0  0  0  0  0  0  0  0  0  0  0  0
  152.0192  138.8445  156.8239 C   0  0  0  0  0  0  0  0  0  0  0  0
  151.1358  137.7275  156.8749 C   0  0  0  0  0  0  0  0  0  0  0  0
  150.5135  137.6832  158.1184 N   0  0  0  0  0  0  0  0  0  0  0  0
  150.9896  138.7162  158.7570 C   0  0  0  0  0  0  0  0  0  0  0  0
  151.8967  139.4715  158.0513 N   0  0  0  0  0  0  0  0  0  0  0  0
  152.5693  140.6714  158.5172 C   0  0  0  0  0  0  0  0  0  0  0  0
  151.6080  141.8701  158.6344 C   0  0  2  0  0  0  0  0  0  0  0  0
  151.2843  142.3358  157.3381 O   0  0  0  0  0  0  0  0  0  0  0  0
  152.2165  143.0297  159.4438 C   0  0  1  0  0  0  0  0  0  0  0  0
  151.6096  144.4014  159.1429 C   0  0  0  0  0  0  0  0  0  0  0  0
  151.8511  145.1908  160.4201 C   0  0  0  0  0  0  0  0  0  0  0  0
  152.2042  144.1223  161.4580 C   0  0  0  0  0  0  0  0  0  0  0  0
  151.9226  142.8824  160.8247 O   0  0  0  0  0  0  0  0  0  0  0  0
  150.5613  134.8137  154.5481 C   0  0  0  0  0  0  0  0  0  0  0  0
  150.8731  132.9877  155.6687 H   0  0  0  0  0  0  0  0  0  0  0  0
  145.0138  129.6663  151.0622 H   0  0  0  0  0  0  0  0  0  0  0  0
  145.5895  131.3253  150.9350 H   0  0  0  0  0  0  0  0  0  0  0  0
  144.4253  130.8837  152.1833 H   0  0  0  0  0  0  0  0  0  0  0  0
  146.1886  129.4242  153.2892 H   0  0  0  0  0  0  0  0  0  0  0  0
  147.2947  129.8100  151.9932 H   0  0  0  0  0  0  0  0  0  0  0  0
  148.6038  131.5761  152.0114 H   0  0  0  0  0  0  0  0  0  0  0  0
  147.2564  132.6639  151.7058 H   0  0  0  0  0  0  0  0  0  0  0  0
  148.8788  134.0231  152.7939 H   0  0  0  0  0  0  0  0  0  0  0  0
  147.6951  133.6721  154.0469 H   0  0  0  0  0  0  0  0  0  0  0  0
  148.0652  134.1292  155.6555 H   0  0  0  0  0  0  0  0  0  0  0  0
  148.8327  133.1843  156.9348 H   0  0  0  0  0  0  0  0  0  0  0  0
  148.8194  135.8913  157.0839 H   0  0  0  0  0  0  0  0  0  0  0  0
  150.3066  135.0251  157.5003 H   0  0  0  0  0  0  0  0  0  0  0  0
  153.2635  138.5769  153.8776 H   0  0  0  0  0  0  0  0  0  0  0  0
  150.6880  138.9599  159.7655 H   0  0  0  0  0  0  0  0  0  0  0  0
  153.0175  140.4503  159.4866 H   0  0  0  0  0  0  0  0  0  0  0  0
  153.3929  140.9022  157.8401 H   0  0  0  0  0  0  0  0  0  0  0  0
  150.6842  141.5437  159.1143 H   0  0  0  0  0  0  0  0  0  0  0  0
  150.4656  141.9440  157.0744 H   0  0  0  0  0  0  0  0  0  0  0  0
  153.3003  143.0636  159.3133 H   0  0  0  0  0  0  0  0  0  0  0  0
  152.0515  144.8724  158.2644 H   0  0  0  0  0  0  0  0  0  0  0  0
  150.5364  144.3093  158.9698 H   0  0  0  0  0  0  0  0  0  0  0  0
  152.6720  145.8991  160.3034 H   0  0  0  0  0  0  0  0  0  0  0  0
  150.9606  145.7522  160.7042 H   0  0  0  0  0  0  0  0  0  0  0  0
  153.2652  144.1652  161.7075 H   0  0  0  0  0  0  0  0  0  0  0  0
  151.6328  144.2299  162.3800 H   0  0  0  0  0  0  0  0  0  0  0  0
  151.6191  134.7492  154.2917 H   0  0  0  0  0  0  0  0  0  0  0  0
  150.0034  135.0737  153.6479 H   0  0  0  0  0  0  0  0  0  0  0  0
  1  2  1  0  0  0  0
  1 30  1  0  0  0  0
  1 31  1  0  0  0  0
  1 32  1  0  0  0  0
  2  3  1  0  0  0  0
  2 33  1  0  0  0  0
  2 34  1  0  0  0  0
  3  4  1  0  0  0  0
  4  5  1  0  0  0  0
  4 35  1  0  0  0  0
  4 36  1  0  0  0  0
  5  6  1  0  0  0  0
  5 37  1  0  0  0  0
  5 38  1  0  0  0  0
  6  7  1  0  0  0  0
  7 29  1  0  0  0  0
  7 28  1  0  0  0  0
  7  8  1  0  0  0  0
  8  9  1  0  0  0  0
  8 39  1  0  0  0  0
  8 40  1  0  0  0  0
  9 10  1  0  0  0  0
  9 41  1  0  0  0  0
  9 42  1  0  0  0  0
 10 11  1  0  0  0  0
 10 28  1  0  0  0  0
 11 16  1  0  0  0  0
 11 12  2  0  0  0  0
 12 13  1  0  0  0  0
 13 14  2  0  0  0  0
 13 43  1  0  0  0  0
 14 15  1  0  0  0  0
 15 19  1  0  0  0  0
 15 16  2  0  0  0  0
 16 17  1  0  0  0  0
 17 18  2  0  0  0  0
 18 19  1  0  0  0  0
 18 44  1  0  0  0  0
 19 20  1  0  0  0  0
 20 21  1  0  0  0  0
 20 45  1  0  0  0  0
 20 46  1  0  0  0  0
 21 22  1  0  0  0  0
 21 23  1  0  0  0  0
 21 47  1  0  0  0  0
 22 48  1  0  0  0  0
 23 27  1  0  0  0  0
 23 24  1  0  0  0  0
 23 49  1  0  0  0  0
 24 25  1  0  0  0  0
 24 50  1  0  0  0  0
 24 51  1  0  0  0  0
 25 26  1  0  0  0  0
 25 52  1  0  0  0  0
 25 53  1  0  0  0  0
 26 27  1  0  0  0  0
 26 54  1  0  0  0  0
 26 55  1  0  0  0  0
 28 56  1  0  0  0  0
 28 57  1  0  0  0  0
M  END
> <s_m_source_file>
AV-unprocessed.smi

> <i_m_source_file_index>
246

> <i_lp_mmshare_version>
43012

> <i_f3d_flags>
0

> <s_epik_input>
W0NIM11bQ0gyXU9bQ0gyXVtDSDJdT1tDQEhdMVtDSDJdW0NIMl1OKFtDSDJdMSljKG5bY0hdbjIpYyhjMjMpbltjSF1uM1tDSDJdW0NASF0oW09IXSlbQ0BASF00W0NIMl1bQ0gyXVtDSDJdTzQ=

> <s_epik_cmdline>
J2VwaWtfcHl0aG9uJywgJy1waCcsICc3LjAnLCAnLXRuJywgJzgnLCAnLW1hJywgJzIwMCcsICctbWV0YWxfYmluZGluZycsICctaW1hZScsICc8aW5maWxlLm1hZT4nLCAnLW9tYWUnLCAnPG91dGZpbGUubWFlPic=

> <r_lp_tautomer_probability>
1

> <r_epik_Ionization_Penalty>
0.0024631

> <r_epik_Ionization_Penalty_Charging>
0

> <r_epik_Ionization_Penalty_Neutral>
0.0024631

> <r_epik_State_Penalty>
0.00162428

> <r_epik_Charging_Adjusted_Penalty>
0.00162428

> <i_epik_Tot_Q>
0

> <i_epik_Tot_abs_Q>
0

> <r_epik_Metal_State_Penalty>
-0

> <b_epik_Metal_Only>
0

> <s_lp_Force_Field>
OPLS_2005

> <r_lp_Energy>
48.9745

> <b_lp_Chiralities_Consistent>
1

> <s_lp_Variant>
AV-unprocessed.smi:246-6

> <Gold.Version>
5.8.1

> <Gold.Id.Protein>
6NUR|6NUR_protein|mol2

> <Gold.PLP.Fitness>
52.4817

> <Gold.PLP.PLP>
-47.9468

> <Gold.PLP.part.hbond>
-2.4927

> <Gold.PLP.part.metal>
0.0000

> <Gold.PLP.part.buried>
-7.4337

> <Gold.PLP.part.nonpolar>
-38.9222

> <Gold.PLP.part.repulsive>
0.4311

> <Gold.PLP.ligand.clash>
0.0000

> <Gold.PLP.ligand.torsion>
1.1534

> <Gold.PLP.Chemscore.Hbond>
2.0000

> <Gold.PLP.Chemscore.CHOScore>
0.0000

> <Gold.PLP.Chemscore.Metal>
0.0000

> <Gold.Chemscore.Hbonds>
donor molecule, donor type, donor heavy atom, donor atom, acceptor molecule, acceptor atom, score
      P1  H  7997  8008       L1    14  1.00
      P1  H 10752 10763       L1    12  0.96

> <Gold.PLP.Chemscore.Internal.Correction>
0.8417

> <Gold.Rescore>
     Score         DG    S(hbond)    S(metal)    S(lipo)     H(rot)  DE(clash)    DE(int)     intcor
     13.60     -15.68       1.58        0.00     109.90       3.10       0.04       2.04       ----

> <Gold.Chemscore.Fitness>
13.6018

> <Gold.Chemscore.DG>
-15.6760

> <Gold.Chemscore.ZeroCoef>
-5.4800

> <Gold.Chemscore.Hbond>
1.5809

> <Gold.Chemscore.Metal>
0.0000

> <Gold.Chemscore.Lipo>
109.9001

> <Gold.Chemscore.Internal_Hbond>
0.0000

> <Gold.Chemscore.DEClash>
0.0363

> <Gold.Chemscore.DEInternal>
2.0379

> <Gold.Chemscore.Rot>
3.1026

> <Gold.Chemscore.Internal.Correction>
   9.000000E+99

> <Gold.Chemscore.Hbonds>
donor molecule, donor type, donor heavy atom, donor atom, acceptor molecule, acceptor atom, score
      P1  H  7997  8008       L1    14  0.91
      P1  H 10752 10763       L1    12  0.25

> <Gold.Chemscore.Hbond.Weighted>
-5.2803

> <Gold.Chemscore.Metal.Weighted>
-0.0000

> <Gold.Chemscore.Lipo.Weighted>
-12.8583

> <Gold.Chemscore.Internal_Hbond.Weighted>
0.0000

> <Gold.Chemscore.DEClash.Weighted>
0.0363

> <Gold.Chemscore.DEInternal.Weighted>
2.0379

> <Gold.Chemscore.Rot.Weighted>
7.9426

> <Gold.Chemscore.Internal.Correction.Weighted>
   9.000000E+99

> <Gold.Protein.RotatedTorsions>
[ 6907 6896 6895 6894 ] final -170.36 input  -60.11 | X-H torsion
[ 7974 7965 7964 7962 ] final  159.46 input  175.53 | X-H torsion
[ 8008 7997 7996 7995 ] final  -37.87 input   59.86 | X-H torsion
[ 10167 10162 10161 10158 ] final  160.17 input  -65.29 | X-H torsion
[ 10718 10713 10712 10709 ] final   25.98 input   66.30 | X-H torsion
[ 10763 10752 10751 10750 ] final   46.32 input  -60.55 | X-H torsion
[ 11005 11000 10999 10996 ] final -112.59 input  -57.11 | X-H torsion

> <Gold.Protein.ActiveResidues>
 VAL166  LYS551  ARG553  GLY616  TRP617  ASP618  TYR619  PRO620  LYS621  CYS622 
 ASP623  PHE694  ASN695  SER759  ASP760  ASP761  ALA762  ILE779  LEU786  VAL792 
 PHE793  MET794  SER795  GLU796  ALA797  LYS798  CYS799  TRP800  GLU811  SER814 

> <Gold.Protein.RotatedAtoms>
  151.5064  133.3493  159.2877 H   0  0  0  0  0  0  0  0  0  0  0  0  # atno 6907 bound_to 6896
  150.8740  134.8121  159.7187 H   0  0  0  0  0  0  0  0  0  0  0  0  # atno 6908 bound_to 6896
  152.4718  134.4953  159.9759 H   0  0  0  0  0  0  0  0  0  0  0  0  # atno 6909 bound_to 6896
  144.7789  139.7621  143.6268 H   0  0  0  0  0  0  0  0  0  0  0  0  # atno 7974 bound_to 7965
  154.4046  140.1593  156.2608 H   0  0  0  0  0  0  0  0  0  0  0  0  # atno 8008 bound_to 7997
  155.9038  140.3431  155.6024 H   0  0  0  0  0  0  0  0  0  0  0  0  # atno 8009 bound_to 7997
  155.7416  140.0793  157.2233 H   0  0  0  0  0  0  0  0  0  0  0  0  # atno 8010 bound_to 7997
  139.4838  144.4659  151.8642 H   0  0  0  0  0  0  0  0  0  0  0  0  # atno 10167 bound_to 10162
  157.2006  130.6888  149.6187 H   0  0  0  0  0  0  0  0  0  0  0  0  # atno 10718 bound_to 10713
  152.9812  135.6011  154.3581 H   0  0  0  0  0  0  0  0  0  0  0  0  # atno 10763 bound_to 10752
  154.3265  135.2769  155.2495 H   0  0  0  0  0  0  0  0  0  0  0  0  # atno 10764 bound_to 10752
  154.4638  135.5959  153.6330 H   0  0  0  0  0  0  0  0  0  0  0  0  # atno 10765 bound_to 10752
  141.0666  133.9449  157.2567 H   0  0  0  0  0  0  0  0  0  0  0  0  # atno 11005 bound_to 11000
  146.1985  139.5266  142.9758 LP  0  0  0  0  0  0  0  0  0  0  0  0  # atno 17320 bound_to 7965
  145.6107  141.0340  143.1968 LP  0  0  0  0  0  0  0  0  0  0  0  0  # atno 17321 bound_to 7965
  140.4125  144.2351  150.5888 LP  0  0  0  0  0  0  0  0  0  0  0  0  # atno 17342 bound_to 10162
  140.4953  143.2334  151.8759 LP  0  0  0  0  0  0  0  0  0  0  0  0  # atno 17343 bound_to 10162
  155.9701  130.4584  150.5997 LP  0  0  0  0  0  0  0  0  0  0  0  0  # atno 17370 bound_to 10713
  157.3771  131.0775  151.1509 LP  0  0  0  0  0  0  0  0  0  0  0  0  # atno 17371 bound_to 10713
  139.9482  135.0180  156.8916 LP  0  0  0  0  0  0  0  0  0  0  0  0  # atno 17394 bound_to 11000
  140.5760  134.0397  155.7447 LP  0  0  0  0  0  0  0  0  0  0  0  0  # atno 17395 bound_to 11000

$$$$
