AV-unprocessed.smi:2049|AV-procd|sdf|8322|dock4
  -GOLD-   2272010583D 1   1.00000     0.00000
 Structure written by MMmdl.
 51 53  0  0  0  0  0  0  0  0  2 V2000
  150.5101  136.1420  156.4353 O   0  0  0  0  0  0  0  0  0  0  0  0
  150.3100  136.3429  155.2379 C   0  0  0  0  0  0  0  0  0  0  0  0
  151.1620  137.3610  154.4733 C   0  0  0  0  0  0  0  0  0  0  0  0
  150.6711  138.7318  154.6830 N   0  0  0  0  0  0  0  0  0  0  0  0
  149.4299  139.0745  154.1210 C   0  0  0  0  0  0  0  0  0  0  0  0
  148.9315  140.3118  154.2571 C   0  0  0  0  0  0  0  0  0  0  0  0
  149.7504  141.2663  155.0160 C   0  0  0  0  0  0  0  0  0  0  0  0
  150.8829  140.9573  155.5287 N   0  0  0  0  0  0  0  0  0  0  0  0
  151.4043  139.6584  155.3840 C   0  0  0  0  0  0  0  0  0  0  0  0
  152.4954  139.3564  155.8696 O   0  0  0  0  0  0  0  0  0  0  0  0
  149.3523  135.7263  154.5310 N   0  0  0  0  0  0  0  0  0  0  0  0
  148.3311  134.8330  155.0741 C   0  0  0  0  0  0  0  0  0  0  0  0
  147.9585  133.6577  154.1064 C   0  0  0  0  0  0  0  0  0  0  0  0
  147.2136  134.2323  152.9188 N   0  3  0  0  0  0  0  0  0  0  0  0
  146.6885  133.2221  151.9553 C   0  0  0  0  0  0  0  0  0  0  0  0
  146.1476  133.9034  150.6904 C   0  0  0  0  0  0  0  0  0  0  0  0
  145.1061  134.7952  151.0557 O   0  0  0  0  0  0  0  0  0  0  0  0
  145.5854  135.8338  151.8961 C   0  0  0  0  0  0  0  0  0  0  0  0
  146.1589  135.2495  153.2004 C   0  0  0  0  0  0  0  0  0  0  0  0
  149.2585  132.9245  153.6595 C   0  0  0  0  0  0  0  0  0  0  0  0
  149.9918  132.2088  154.8116 C   0  0  0  0  0  0  0  0  0  0  0  0
  149.0769  131.2189  155.5451 C   0  0  0  0  0  0  0  0  0  0  0  0
  147.7906  131.9007  156.0295 C   0  0  0  0  0  0  0  0  0  0  0  0
  147.0777  132.6072  154.8617 C   0  0  0  0  0  0  0  0  0  0  0  0
  152.1969  137.2599  154.8035 H   0  0  0  0  0  0  0  0  0  0  0  0
  151.1736  137.1272  153.4068 H   0  0  0  0  0  0  0  0  0  0  0  0
  148.9269  138.2861  153.5802 H   0  0  0  0  0  0  0  0  0  0  0  0
  147.9878  140.6422  153.8486 H   0  0  0  0  0  0  0  0  0  0  0  0
  149.3271  142.2691  155.1160 H   0  0  0  0  0  0  0  0  0  0  0  0
  149.2920  135.9366  153.5453 H   0  0  0  0  0  0  0  0  0  0  0  0
  148.7270  134.4385  156.0089 H   0  0  0  0  0  0  0  0  0  0  0  0
  147.4623  135.4101  155.3859 H   0  0  0  0  0  0  0  0  0  0  0  0
  147.4603  132.5151  151.6573 H   0  0  0  0  0  0  0  0  0  0  0  0
  145.8843  132.6456  152.4136 H   0  0  0  0  0  0  0  0  0  0  0  0
  146.9400  134.4337  150.1592 H   0  0  0  0  0  0  0  0  0  0  0  0
  145.7468  133.1570  150.0042 H   0  0  0  0  0  0  0  0  0  0  0  0
  146.3389  136.4205  151.3687 H   0  0  0  0  0  0  0  0  0  0  0  0
  144.7617  136.5117  152.1210 H   0  0  0  0  0  0  0  0  0  0  0  0
  145.3596  134.8065  153.7950 H   0  0  0  0  0  0  0  0  0  0  0  0
  146.5564  136.0961  153.7562 H   0  0  0  0  0  0  0  0  0  0  0  0
  149.0221  132.1860  152.8931 H   0  0  0  0  0  0  0  0  0  0  0  0
  149.9594  133.6216  153.2004 H   0  0  0  0  0  0  0  0  0  0  0  0
  150.8592  131.6780  154.4180 H   0  0  0  0  0  0  0  0  0  0  0  0
  150.3847  132.9395  155.5186 H   0  0  0  0  0  0  0  0  0  0  0  0
  148.8213  130.3975  154.8744 H   0  0  0  0  0  0  0  0  0  0  0  0
  149.6058  130.7749  156.3890 H   0  0  0  0  0  0  0  0  0  0  0  0
  147.1255  131.1514  156.4599 H   0  0  0  0  0  0  0  0  0  0  0  0
  148.0105  132.5949  156.8392 H   0  0  0  0  0  0  0  0  0  0  0  0
  146.1439  133.0520  155.2046 H   0  0  0  0  0  0  0  0  0  0  0  0
  146.7950  131.7975  154.1910 H   0  0  0  0  0  0  0  0  0  0  0  0
  147.9210  134.7431  152.4094 H   0  0  0  0  0  0  0  0  0  0  0  0
  1  2  2  0  0  0  0
  2  3  1  0  0  0  0
  2 11  1  0  0  0  0
  3  4  1  0  0  0  0
  3 25  1  0  0  0  0
  3 26  1  0  0  0  0
  4  9  1  0  0  0  0
  4  5  1  0  0  0  0
  5  6  2  0  0  0  0
  5 27  1  0  0  0  0
  6  7  1  0  0  0  0
  6 28  1  0  0  0  0
  7  8  2  0  0  0  0
  7 29  1  0  0  0  0
  8  9  1  0  0  0  0
  9 10  2  0  0  0  0
 11 12  1  0  0  0  0
 11 30  1  0  0  0  0
 12 13  1  0  0  0  0
 12 31  1  0  0  0  0
 12 32  1  0  0  0  0
 13 24  1  0  0  0  0
 13 14  1  0  0  0  0
 13 20  1  0  0  0  0
 14 19  1  0  0  0  0
 14 15  1  0  0  0  0
 14 51  1  0  0  0  0
 15 16  1  0  0  0  0
 15 33  1  0  0  0  0
 15 34  1  0  0  0  0
 16 17  1  0  0  0  0
 16 35  1  0  0  0  0
 16 36  1  0  0  0  0
 17 18  1  0  0  0  0
 18 19  1  0  0  0  0
 18 37  1  0  0  0  0
 18 38  1  0  0  0  0
 19 39  1  0  0  0  0
 19 40  1  0  0  0  0
 20 21  1  0  0  0  0
 20 41  1  0  0  0  0
 20 42  1  0  0  0  0
 21 22  1  0  0  0  0
 21 43  1  0  0  0  0
 21 44  1  0  0  0  0
 22 23  1  0  0  0  0
 22 45  1  0  0  0  0
 22 46  1  0  0  0  0
 23 24  1  0  0  0  0
 23 47  1  0  0  0  0
 23 48  1  0  0  0  0
 24 49  1  0  0  0  0
 24 50  1  0  0  0  0
M  CHG  1  14   1
M  END
> <s_m_source_file>
AV-unprocessed.smi

> <i_m_source_file_index>
2049

> <i_lp_mmshare_version>
43012

> <i_f3d_flags>
0

> <s_epik_input>
Tz1jMW5bY0hdW2NIXVtjSF1uMVtDSDJdQyg9TylbTkhdW0NIMl1DMihbQ0gyXVtDSDJdW0NIMl1bQ0gyXVtDSDJdMilOM1tDSDJdW0NIMl1PW0NIMl1bQ0gyXTM=

> <s_epik_cmdline>
J2VwaWtfcHl0aG9uJywgJy1waCcsICc3LjAnLCAnLXRuJywgJzgnLCAnLW1hJywgJzIwMCcsICctbWV0YWxfYmluZGluZycsICctaW1hZScsICc8aW5maWxlLm1hZT4nLCAnLW9tYWUnLCAnPG91dGZpbGUubWFlPic=

> <r_lp_tautomer_probability>
1

> <r_epik_Ionization_Penalty>
0.40042

> <r_epik_Ionization_Penalty_Charging>
0.400415

> <r_epik_Ionization_Penalty_Neutral>
5.09538e-06

> <r_epik_State_Penalty>
0.399732

> <r_epik_Charging_Adjusted_Penalty>
0.800147

> <i_epik_Tot_Q>
1

> <i_epik_Tot_abs_Q>
1

> <r_epik_Metal_State_Penalty>
0.399734

> <b_epik_Metal_Only>
0

> <s_lp_Force_Field>
OPLS_2005

> <r_lp_Energy>
43.1449

> <b_lp_Chiralities_Consistent>
1

> <s_lp_Variant>
AV-unprocessed.smi:2049-1

> <Gold.Version>
5.8.1

> <Gold.Id.Protein>
6NUR|6NUR_protein|mol2

> <Gold.PLP.Fitness>
53.4952

> <Gold.PLP.PLP>
-37.9606

> <Gold.PLP.part.hbond>
-4.0000

> <Gold.PLP.part.metal>
0.0000

> <Gold.PLP.part.buried>
-0.2422

> <Gold.PLP.part.nonpolar>
-31.8320

> <Gold.PLP.part.repulsive>
0.2812

> <Gold.PLP.ligand.clash>
0.0000

> <Gold.PLP.ligand.torsion>
0.8256

> <Gold.PLP.Chemscore.Hbond>
4.0000

> <Gold.PLP.Chemscore.CHOScore>
1.6842

> <Gold.PLP.Chemscore.Metal>
0.0000

> <Gold.Chemscore.Hbonds>
donor molecule, donor type, donor heavy atom, donor atom, acceptor molecule, acceptor atom, score
      L1  H    11    30       P1  7948  1.00
      L1  H    14    51       P1  7948  2.00
      P1  H  7997  8008       L1    10  0.98
      L1  C     5    27       P1  7948  0.69
      L1  C     7    29       P1  8028  0.97

> <Gold.PLP.Chemscore.Internal.Correction>
0.1335

> <Gold.Rescore>
     Score         DG    S(hbond)    S(metal)    S(lipo)     H(rot)  DE(clash)    DE(int)     intcor
     18.18     -19.02       2.91        0.00      76.66       2.02       0.01       0.83       ----

> <Gold.Chemscore.Fitness>
18.1827

> <Gold.Chemscore.DG>
-19.0240

> <Gold.Chemscore.ZeroCoef>
-5.4800

> <Gold.Chemscore.Hbond>
2.9149

> <Gold.Chemscore.Metal>
0.0000

> <Gold.Chemscore.Lipo>
76.6626

> <Gold.Chemscore.Internal_Hbond>
0.0000

> <Gold.Chemscore.DEClash>
0.0126

> <Gold.Chemscore.DEInternal>
0.8287

> <Gold.Chemscore.Rot>
2.0162

> <Gold.Chemscore.Internal.Correction>
   9.000000E+99

> <Gold.Chemscore.Hbonds>
donor molecule, donor type, donor heavy atom, donor atom, acceptor molecule, acceptor atom, score
      L1  H    11    30       P1  7948  0.70
      L1  H    14    51       P1  7948  0.65
      P1  H  7997  8008       L1    10  0.91

> <Gold.Chemscore.Hbond.Weighted>
-9.7359

> <Gold.Chemscore.Metal.Weighted>
-0.0000

> <Gold.Chemscore.Lipo.Weighted>
-8.9695

> <Gold.Chemscore.Internal_Hbond.Weighted>
0.0000

> <Gold.Chemscore.DEClash.Weighted>
0.0126

> <Gold.Chemscore.DEInternal.Weighted>
0.8287

> <Gold.Chemscore.Rot.Weighted>
5.1614

> <Gold.Chemscore.Internal.Correction.Weighted>
   9.000000E+99

> <Gold.Protein.RotatedTorsions>
[ 6907 6896 6895 6894 ] final   50.01 input  -60.11 | X-H torsion
[ 7974 7965 7964 7962 ] final  -20.49 input  175.53 | X-H torsion
[ 8008 7997 7996 7995 ] final  -33.50 input   59.86 | X-H torsion
[ 10167 10162 10161 10158 ] final  159.50 input  -65.29 | X-H torsion
[ 10718 10713 10712 10709 ] final   90.75 input   66.30 | X-H torsion
[ 10763 10752 10751 10750 ] final  129.92 input  -60.55 | X-H torsion
[ 11005 11000 10999 10996 ] final  134.62 input  -57.11 | X-H torsion

> <Gold.Protein.ActiveResidues>
 VAL166  LYS551  ARG553  GLY616  TRP617  ASP618  TYR619  PRO620  LYS621  CYS622 
 ASP623  PHE694  ASN695  SER759  ASP760  ASP761  ALA762  ILE779  LEU786  VAL792 
 PHE793  MET794  SER795  GLU796  ALA797  LYS798  CYS799  TRP800  GLU811  SER814 

> <Gold.Protein.RotatedAtoms>
  152.2972  134.7654  160.0365 H   0  0  0  0  0  0  0  0  0  0  0  0  # atno 6907 bound_to 6896
  151.8180  133.3385  159.3583 H   0  0  0  0  0  0  0  0  0  0  0  0  # atno 6908 bound_to 6896
  150.7257  134.5531  159.5849 H   0  0  0  0  0  0  0  0  0  0  0  0  # atno 6909 bound_to 6896
  146.1785  140.4209  142.8504 H   0  0  0  0  0  0  0  0  0  0  0  0  # atno 7974 bound_to 7965
  154.4147  140.1709  156.1899 H   0  0  0  0  0  0  0  0  0  0  0  0  # atno 8008 bound_to 7997
  155.9612  140.3393  155.6469 H   0  0  0  0  0  0  0  0  0  0  0  0  # atno 8009 bound_to 7997
  155.6746  140.0715  157.2498 H   0  0  0  0  0  0  0  0  0  0  0  0  # atno 8010 bound_to 7997
  139.4833  144.4724  151.8558 H   0  0  0  0  0  0  0  0  0  0  0  0  # atno 10167 bound_to 10162
  157.6959  131.0382  150.3626 H   0  0  0  0  0  0  0  0  0  0  0  0  # atno 10718 bound_to 10713
  153.7497  135.3212  155.3319 H   0  0  0  0  0  0  0  0  0  0  0  0  # atno 10763 bound_to 10752
  154.8267  135.4564  154.0944 H   0  0  0  0  0  0  0  0  0  0  0  0  # atno 10764 bound_to 10752
  153.2143  135.6940  153.8158 H   0  0  0  0  0  0  0  0  0  0  0  0  # atno 10765 bound_to 10752
  139.9926  134.9509  156.9892 H   0  0  0  0  0  0  0  0  0  0  0  0  # atno 11005 bound_to 11000
  144.8276  140.6654  143.6312 LP  0  0  0  0  0  0  0  0  0  0  0  0  # atno 17320 bound_to 7965
  145.4143  139.1574  143.4109 LP  0  0  0  0  0  0  0  0  0  0  0  0  # atno 17321 bound_to 7965
  140.4194  144.2264  150.5887 LP  0  0  0  0  0  0  0  0  0  0  0  0  # atno 17342 bound_to 10162
  140.4889  143.2354  151.8847 LP  0  0  0  0  0  0  0  0  0  0  0  0  # atno 17343 bound_to 10162
  156.4060  130.3925  149.6925 LP  0  0  0  0  0  0  0  0  0  0  0  0  # atno 17370 bound_to 10713
  156.4226  130.7776  151.2794 LP  0  0  0  0  0  0  0  0  0  0  0  0  # atno 17371 bound_to 10713
  140.4879  134.1223  155.7227 LP  0  0  0  0  0  0  0  0  0  0  0  0  # atno 17394 bound_to 11000
  141.1578  133.8849  157.1929 LP  0  0  0  0  0  0  0  0  0  0  0  0  # atno 17395 bound_to 11000

$$$$
