AV-unprocessed.smi:2302|AV-procd|sdf|9240|dock3
  -GOLD-   2272012453D 1   1.00000     0.00000
 Structure written by MMmdl.
 39 40  0  0  0  0  0  0  0  0  1 V2000
  146.4314  129.2800  152.2618 C   0  0  0  0  0  0  0  0  0  0  0  0
  146.4293  130.7266  151.8136 C   0  0  0  0  0  0  0  0  0  0  0  0
  145.6122  131.1561  150.7495 C   0  0  0  0  0  0  0  0  0  0  0  0
  145.6534  132.5148  150.3892 C   0  0  0  0  0  0  0  0  0  0  0  0
  146.5041  133.3817  151.1020 C   0  0  0  0  0  0  0  0  0  0  0  0
  147.2937  132.8697  152.1564 C   0  0  0  0  0  0  0  0  0  0  0  0
  148.1150  133.8248  152.8125 N   0  0  0  0  0  0  0  0  0  0  0  0
  148.9614  133.6280  153.8386 C   0  0  0  0  0  0  0  0  0  0  0  0
  149.1901  132.5435  154.3757 O   0  0  0  0  0  0  0  0  0  0  0  0
  149.5384  134.7779  154.2166 N   0  0  0  0  0  0  0  0  0  0  0  0
  150.4759  134.9242  155.3251 C   0  0  0  0  0  0  0  0  0  0  0  0
  150.9141  136.3876  155.5049 C   0  0  2  0  0  0  0  0  0  0  0  0
  149.7283  137.3016  155.8735 C   0  0  0  0  0  0  0  0  0  0  0  0
  150.1330  138.6978  155.9807 N   0  0  0  0  0  0  0  0  0  0  0  0
  149.0127  139.5572  156.3320 C   0  0  0  0  0  0  0  0  0  0  0  0
  150.7639  139.1207  154.7376 C   0  0  0  0  0  0  0  0  0  0  0  0
  151.9384  138.2042  154.3567 C   0  0  0  0  0  0  0  0  0  0  0  0
  151.4830  136.8572  154.2835 O   0  0  0  0  0  0  0  0  0  0  0  0
  147.2465  131.5572  152.4959 N   0  0  0  0  0  0  0  0  0  0  0  0
  145.7650  128.6734  151.6480 H   0  0  0  0  0  0  0  0  0  0  0  0
  146.1011  129.2053  153.2982 H   0  0  0  0  0  0  0  0  0  0  0  0
  147.4356  128.8616  152.1901 H   0  0  0  0  0  0  0  0  0  0  0  0
  144.9691  130.4658  150.2237 H   0  0  0  0  0  0  0  0  0  0  0  0
  145.0422  132.8872  149.5804 H   0  0  0  0  0  0  0  0  0  0  0  0
  146.5463  134.4285  150.8386 H   0  0  0  0  0  0  0  0  0  0  0  0
  148.0382  134.7709  152.4704 H   0  0  0  0  0  0  0  0  0  0  0  0
  149.2936  135.6197  153.7163 H   0  0  0  0  0  0  0  0  0  0  0  0
  150.0537  134.5311  156.2515 H   0  0  0  0  0  0  0  0  0  0  0  0
  151.3459  134.3073  155.0986 H   0  0  0  0  0  0  0  0  0  0  0  0
  151.6673  136.4399  156.2935 H   0  0  0  0  0  0  0  0  0  0  0  0
  148.9449  137.2013  155.1204 H   0  0  0  0  0  0  0  0  0  0  0  0
  149.2957  136.9717  156.8188 H   0  0  0  0  0  0  0  0  0  0  0  0
  149.3406  140.5910  156.4448 H   0  0  0  0  0  0  0  0  0  0  0  0
  148.5679  139.2452  157.2774 H   0  0  0  0  0  0  0  0  0  0  0  0
  148.2375  139.5283  155.5649 H   0  0  0  0  0  0  0  0  0  0  0  0
  150.0295  139.1169  153.9304 H   0  0  0  0  0  0  0  0  0  0  0  0
  151.1189  140.1475  154.8323 H   0  0  0  0  0  0  0  0  0  0  0  0
  152.3491  138.4946  153.3898 H   0  0  0  0  0  0  0  0  0  0  0  0
  152.7460  138.2836  155.0862 H   0  0  0  0  0  0  0  0  0  0  0  0
  1  2  1  0  0  0  0
  1 20  1  0  0  0  0
  1 21  1  0  0  0  0
  1 22  1  0  0  0  0
  2 19  1  0  0  0  0
  2  3  2  0  0  0  0
  3  4  1  0  0  0  0
  3 23  1  0  0  0  0
  4  5  2  0  0  0  0
  4 24  1  0  0  0  0
  5  6  1  0  0  0  0
  5 25  1  0  0  0  0
  6  7  1  0  0  0  0
  6 19  2  0  0  0  0
  7  8  1  0  0  0  0
  7 26  1  0  0  0  0
  8  9  2  0  0  0  0
  8 10  1  0  0  0  0
 10 11  1  0  0  0  0
 10 27  1  0  0  0  0
 11 12  1  0  0  0  0
 11 28  1  0  0  0  0
 11 29  1  0  0  0  0
 12 18  1  0  0  0  0
 12 13  1  0  0  0  0
 12 30  1  0  0  0  0
 13 14  1  0  0  0  0
 13 31  1  0  0  0  0
 13 32  1  0  0  0  0
 14 15  1  0  0  0  0
 14 16  1  0  0  0  0
 15 33  1  0  0  0  0
 15 34  1  0  0  0  0
 15 35  1  0  0  0  0
 16 17  1  0  0  0  0
 16 36  1  0  0  0  0
 16 37  1  0  0  0  0
 17 18  1  0  0  0  0
 17 38  1  0  0  0  0
 17 39  1  0  0  0  0
M  END
> <s_m_source_file>
AV-unprocessed.smi

> <i_m_source_file_index>
2302

> <i_lp_mmshare_version>
43012

> <i_f3d_flags>
0

> <s_epik_input>
W0NIM11jMVtjSF1bY0hdW2NIXWMobjEpW05IXUMoPU8pW05IXVtDSDJdW0NAQEhdMltDSDJdTihbQ0gzXSlbQ0gyXVtDSDJdTzI=

> <s_epik_cmdline>
J2VwaWtfcHl0aG9uJywgJy1waCcsICc3LjAnLCAnLXRuJywgJzgnLCAnLW1hJywgJzIwMCcsICctbWV0YWxfYmluZGluZycsICctaW1hZScsICc8aW5maWxlLm1hZT4nLCAnLW9tYWUnLCAnPG91dGZpbGUubWFlPic=

> <r_epik_Ionization_Penalty>
0.729465

> <r_epik_Ionization_Penalty_Charging>
0

> <r_epik_Ionization_Penalty_Neutral>
0.729465

> <r_epik_State_Penalty>
0.754525

> <r_epik_Charging_Adjusted_Penalty>
0.754525

> <i_epik_Tot_Q>
0

> <i_epik_Tot_abs_Q>
0

> <r_epik_Metal_State_Penalty>
0.754521

> <b_epik_Metal_Only>
0

> <s_lp_Force_Field>
OPLS_2005

> <r_lp_Energy>
19.6921

> <b_lp_Chiralities_Consistent>
1

> <s_lp_Variant>
AV-unprocessed.smi:2302-5

> <Gold.Version>
5.8.1

> <Gold.Id.Protein>
6NUR|6NUR_protein|mol2

> <Gold.PLP.Fitness>
41.1041

> <Gold.PLP.PLP>
-32.5722

> <Gold.PLP.part.hbond>
-3.0000

> <Gold.PLP.part.metal>
0.0000

> <Gold.PLP.part.buried>
-4.9957

> <Gold.PLP.part.nonpolar>
-25.0440

> <Gold.PLP.part.repulsive>
0.8005

> <Gold.PLP.ligand.clash>
0.0000

> <Gold.PLP.ligand.torsion>
0.0062

> <Gold.PLP.Chemscore.Hbond>
2.8480

> <Gold.PLP.Chemscore.CHOScore>
0.0000

> <Gold.PLP.Chemscore.Metal>
0.0000

> <Gold.Chemscore.Hbonds>
donor molecule, donor type, donor heavy atom, donor atom, acceptor molecule, acceptor atom, score
      L1  H     7    26       P1  7948  0.88
      L1  H    10    27       P1  7948  0.77
      P1  H 10752 10765       L1    18  0.45

> <Gold.PLP.Chemscore.Internal.Correction>
0.0002

> <Gold.Rescore>
     Score         DG    S(hbond)    S(metal)    S(lipo)     H(rot)  DE(clash)    DE(int)     intcor
     15.24     -16.55       1.73        0.00      72.48       1.25       0.01       1.30       ----

> <Gold.Chemscore.Fitness>
15.2368

> <Gold.Chemscore.DG>
-16.5477

> <Gold.Chemscore.ZeroCoef>
-5.4800

> <Gold.Chemscore.Hbond>
1.7334

> <Gold.Chemscore.Metal>
0.0000

> <Gold.Chemscore.Lipo>
72.4758

> <Gold.Chemscore.Internal_Hbond>
0.0000

> <Gold.Chemscore.DEClash>
0.0147

> <Gold.Chemscore.DEInternal>
1.2962

> <Gold.Chemscore.Rot>
1.2506

> <Gold.Chemscore.Internal.Correction>
   9.000000E+99

> <Gold.Chemscore.Hbonds>
donor molecule, donor type, donor heavy atom, donor atom, acceptor molecule, acceptor atom, score
      L1  H     7    26       P1  7948  0.52
      L1  H    10    27       P1  7948  0.42
      P1  H 10752 10765       L1    18  0.01

> <Gold.Chemscore.Hbond.Weighted>
-5.7895

> <Gold.Chemscore.Metal.Weighted>
-0.0000

> <Gold.Chemscore.Lipo.Weighted>
-8.4797

> <Gold.Chemscore.Internal_Hbond.Weighted>
0.0000

> <Gold.Chemscore.DEClash.Weighted>
0.0147

> <Gold.Chemscore.DEInternal.Weighted>
1.2962

> <Gold.Chemscore.Rot.Weighted>
3.2015

> <Gold.Chemscore.Internal.Correction.Weighted>
   9.000000E+99

> <Gold.Protein.RotatedTorsions>
[ 6907 6896 6895 6894 ] final  -52.66 input  -60.11 | X-H torsion
[ 7974 7965 7964 7962 ] final   91.69 input  175.53 | X-H torsion
[ 8008 7997 7996 7995 ] final -160.89 input   59.86 | X-H torsion
[ 10167 10162 10161 10158 ] final -136.87 input  -65.29 | X-H torsion
[ 10718 10713 10712 10709 ] final   21.97 input   66.30 | X-H torsion
[ 10763 10752 10751 10750 ] final  177.12 input  -60.55 | X-H torsion
[ 11005 11000 10999 10996 ] final  157.61 input  -57.11 | X-H torsion

> <Gold.Protein.ActiveResidues>
 VAL166  LYS551  ARG553  GLY616  TRP617  ASP618  TYR619  PRO620  LYS621  CYS622 
 ASP623  PHE694  ASN695  SER759  ASP760  ASP761  ALA762  ILE779  LEU786  VAL792 
 PHE793  MET794  SER795  GLU796  ALA797  LYS798  CYS799  TRP800  GLU811  SER814 

> <Gold.Protein.RotatedAtoms>
  150.8497  134.7818  159.6998 H   0  0  0  0  0  0  0  0  0  0  0  0  # atno 6907 bound_to 6896
  152.4565  134.5276  159.9811 H   0  0  0  0  0  0  0  0  0  0  0  0  # atno 6908 bound_to 6896
  151.5400  133.3396  159.2969 H   0  0  0  0  0  0  0  0  0  0  0  0  # atno 6909 bound_to 6896
  145.5023  139.2276  143.2770 H   0  0  0  0  0  0  0  0  0  0  0  0  # atno 7974 bound_to 7965
  155.7841  140.0869  157.2044 H   0  0  0  0  0  0  0  0  0  0  0  0  # atno 8008 bound_to 7997
  154.3988  140.1502  156.3144 H   0  0  0  0  0  0  0  0  0  0  0  0  # atno 8009 bound_to 7997
  155.8624  140.3429  155.5768 H   0  0  0  0  0  0  0  0  0  0  0  0  # atno 8010 bound_to 7997
  139.8634  143.7048  152.2648 H   0  0  0  0  0  0  0  0  0  0  0  0  # atno 10167 bound_to 10162
  157.1458  130.6652  149.5995 H   0  0  0  0  0  0  0  0  0  0  0  0  # atno 10718 bound_to 10713
  154.4903  135.2778  155.1502 H   0  0  0  0  0  0  0  0  0  0  0  0  # atno 10763 bound_to 10752
  154.3177  135.6216  153.5497 H   0  0  0  0  0  0  0  0  0  0  0  0  # atno 10764 bound_to 10752
  152.9887  135.5735  154.5322 H   0  0  0  0  0  0  0  0  0  0  0  0  # atno 10765 bound_to 10752
  140.1785  134.8492  157.2775 H   0  0  0  0  0  0  0  0  0  0  0  0  # atno 11005 bound_to 11000
  146.2218  140.5824  142.9014 LP  0  0  0  0  0  0  0  0  0  0  0  0  # atno 17320 bound_to 7965
  144.7773  140.5767  143.6629 LP  0  0  0  0  0  0  0  0  0  0  0  0  # atno 17321 bound_to 7965
  139.7352  144.7573  151.0739 LP  0  0  0  0  0  0  0  0  0  0  0  0  # atno 17342 bound_to 10162
  140.7771  143.5039  150.9736 LP  0  0  0  0  0  0  0  0  0  0  0  0  # atno 17343 bound_to 10162
  155.9780  130.4762  150.6627 LP  0  0  0  0  0  0  0  0  0  0  0  0  # atno 17370 bound_to 10713
  157.4266  131.0844  151.1080 LP  0  0  0  0  0  0  0  0  0  0  0  0  # atno 17371 bound_to 10713
  140.2294  134.3927  155.7528 LP  0  0  0  0  0  0  0  0  0  0  0  0  # atno 17394 bound_to 11000
  141.2222  133.7207  156.8617 LP  0  0  0  0  0  0  0  0  0  0  0  0  # atno 17395 bound_to 11000

$$$$
