AV-unprocessed.smi:16|AV-procd|sdf|96|dock3
  -GOLD-   2262015243D 1   1.00000     0.00000
 Structure written by MMmdl.
 59 63  0  0  0  0  0  0  0  0  1 V2000
  151.5604  145.1761  159.4568 C   0  0  0  0  0  0  0  0  0  0  0  0
  151.2329  143.8051  158.8437 C   0  0  0  0  0  0  0  0  0  0  0  0
  152.2635  142.8062  159.1270 N   0  0  0  0  0  0  0  0  0  0  0  0
  152.6038  142.8748  160.5512 C   0  0  0  0  0  0  0  0  0  0  0  0
  153.7337  141.8872  160.8894 C   0  0  0  0  0  0  0  0  0  0  0  0
  153.3097  140.4608  160.5314 C   0  0  2  0  0  0  0  0  0  0  0  0
  154.3797  139.5528  160.7719 O   0  0  0  0  0  0  0  0  0  0  0  0
  153.9952  138.2085  160.5004 C   0  0  0  0  0  0  0  0  0  0  0  0
  153.5871  138.0796  159.0235 C   0  0  0  0  0  0  0  0  0  0  0  0
  152.5312  139.0373  158.7007 N   0  0  0  0  0  0  0  0  0  0  0  0
  152.0173  138.8801  157.4586 C   0  0  0  0  0  0  0  0  0  0  0  0
  152.7466  139.2274  156.3655 N   0  0  0  0  0  0  0  0  0  0  0  0
  152.2215  139.0944  155.1435 C   0  0  0  0  0  0  0  0  0  0  0  0
  151.0109  138.6499  154.7981 N   0  0  0  0  0  0  0  0  0  0  0  0
  150.2766  138.3034  155.8948 C   0  0  0  0  0  0  0  0  0  0  0  0
  150.7026  138.3865  157.2498 C   0  0  0  0  0  0  0  0  0  0  0  0
  149.6893  137.9605  158.0979 N   0  0  0  0  0  0  0  0  0  0  0  0
  148.7143  137.6472  157.2891 C   0  0  0  0  0  0  0  0  0  0  0  0
  148.9824  137.8134  155.9478 N   0  0  0  0  0  0  0  0  0  0  0  0
  148.0838  137.5646  154.8559 C   0  0  0  0  0  0  0  0  0  0  0  0
  148.4662  137.9760  153.4329 C   0  0  0  0  0  0  0  0  0  0  0  0
  147.0055  138.3898  153.1442 C   0  0  0  0  0  0  0  0  0  0  0  0
  146.8609  139.7635  152.4714 C   0  0  0  0  0  0  0  0  0  0  0  0
  147.7034  140.7257  153.0729 O   0  0  0  0  0  0  0  0  0  0  0  0
  146.1640  137.3886  152.3229 C   0  0  0  0  0  0  0  0  0  0  0  0
  146.5670  137.3012  150.9711 O   0  0  0  0  0  0  0  0  0  0  0  0
  146.8036  138.3857  154.6765 C   0  0  0  0  0  0  0  0  0  0  0  0
  152.9080  140.4112  159.0444 C   0  0  1  0  0  0  0  0  0  0  0  0
  151.7945  141.4569  158.7885 C   0  0  0  0  0  0  0  0  0  0  0  0
  152.4591  140.1820  161.1572 H   0  0  0  0  0  0  0  0  0  0  0  0
  153.7751  140.6769  158.4367 H   0  0  0  0  0  0  0  0  0  0  0  0
  150.7112  145.8512  159.3501 H   0  0  0  0  0  0  0  0  0  0  0  0
  152.4103  145.6551  158.9716 H   0  0  0  0  0  0  0  0  0  0  0  0
  151.7806  145.0908  160.5213 H   0  0  0  0  0  0  0  0  0  0  0  0
  150.2893  143.4686  159.2755 H   0  0  0  0  0  0  0  0  0  0  0  0
  151.0693  143.8927  157.7684 H   0  0  0  0  0  0  0  0  0  0  0  0
  152.9276  143.8854  160.8028 H   0  0  0  0  0  0  0  0  0  0  0  0
  151.7219  142.6610  161.1574 H   0  0  0  0  0  0  0  0  0  0  0  0
  154.6394  142.1581  160.3451 H   0  0  0  0  0  0  0  0  0  0  0  0
  153.9764  141.9490  161.9505 H   0  0  0  0  0  0  0  0  0  0  0  0
  154.8338  137.5473  160.7184 H   0  0  0  0  0  0  0  0  0  0  0  0
  153.1761  137.9115  161.1574 H   0  0  0  0  0  0  0  0  0  0  0  0
  154.4584  138.2590  158.3917 H   0  0  0  0  0  0  0  0  0  0  0  0
  153.2428  137.0649  158.8194 H   0  0  0  0  0  0  0  0  0  0  0  0
  152.8619  139.3895  154.3255 H   0  0  0  0  0  0  0  0  0  0  0  0
  147.7634  137.2876  157.6542 H   0  0  0  0  0  0  0  0  0  0  0  0
  147.8375  136.5026  154.8871 H   0  0  0  0  0  0  0  0  0  0  0  0
  149.1597  138.8183  153.4167 H   0  0  0  0  0  0  0  0  0  0  0  0
  148.8418  137.1571  152.8183 H   0  0  0  0  0  0  0  0  0  0  0  0
  147.1238  139.7080  151.4145 H   0  0  0  0  0  0  0  0  0  0  0  0
  145.8306  140.1181  152.5138 H   0  0  0  0  0  0  0  0  0  0  0  0
  148.3991  140.9358  152.4687 H   0  0  0  0  0  0  0  0  0  0  0  0
  146.2259  136.3858  152.7464 H   0  0  0  0  0  0  0  0  0  0  0  0
  145.1101  137.6685  152.3359 H   0  0  0  0  0  0  0  0  0  0  0  0
  145.8315  137.5286  150.4231 H   0  0  0  0  0  0  0  0  0  0  0  0
  145.8983  137.8795  155.0132 H   0  0  0  0  0  0  0  0  0  0  0  0
  146.8715  139.3830  155.1132 H   0  0  0  0  0  0  0  0  0  0  0  0
  150.9008  141.2129  159.3651 H   0  0  0  0  0  0  0  0  0  0  0  0
  151.5157  141.4326  157.7366 H   0  0  0  0  0  0  0  0  0  0  0  0
  1  2  1  0  0  0  0
  1 32  1  0  0  0  0
  1 33  1  0  0  0  0
  1 34  1  0  0  0  0
  2  3  1  0  0  0  0
  2 35  1  0  0  0  0
  2 36  1  0  0  0  0
  3 29  1  0  0  0  0
  3  4  1  0  0  0  0
  4  5  1  0  0  0  0
  4 37  1  0  0  0  0
  4 38  1  0  0  0  0
  5  6  1  0  0  0  0
  5 39  1  0  0  0  0
  5 40  1  0  0  0  0
  6 30  1  0  0  0  0
  6 28  1  0  0  0  0
  6  7  1  0  0  0  0
  7  8  1  0  0  0  0
  8  9  1  0  0  0  0
  8 41  1  0  0  0  0
  8 42  1  0  0  0  0
  9 10  1  0  0  0  0
  9 43  1  0  0  0  0
  9 44  1  0  0  0  0
 10 11  1  0  0  0  0
 10 28  1  0  0  0  0
 11 16  1  0  0  0  0
 11 12  2  0  0  0  0
 12 13  1  0  0  0  0
 13 14  2  0  0  0  0
 13 45  1  0  0  0  0
 14 15  1  0  0  0  0
 15 19  1  0  0  0  0
 15 16  2  0  0  0  0
 16 17  1  0  0  0  0
 17 18  2  0  0  0  0
 18 19  1  0  0  0  0
 18 46  1  0  0  0  0
 19 20  1  0  0  0  0
 20 27  1  0  0  0  0
 20 21  1  0  0  0  0
 20 47  1  0  0  0  0
 21 22  1  0  0  0  0
 21 48  1  0  0  0  0
 21 49  1  0  0  0  0
 22 23  1  0  0  0  0
 22 25  1  0  0  0  0
 22 27  1  0  0  0  0
 23 24  1  0  0  0  0
 23 50  1  0  0  0  0
 23 51  1  0  0  0  0
 24 52  1  0  0  0  0
 25 26  1  0  0  0  0
 25 53  1  0  0  0  0
 25 54  1  0  0  0  0
 26 55  1  0  0  0  0
 27 56  1  0  0  0  0
 27 57  1  0  0  0  0
 28 31  1  0  0  0  0
 28 29  1  0  0  0  0
 29 58  1  0  0  0  0
 29 59  1  0  0  0  0
M  END
> <s_m_source_file>
AV-unprocessed.smi

> <i_m_source_file_index>
16

> <i_lp_mmshare_version>
43012

> <i_f3d_flags>
0

> <s_epik_input>
W0NIM11bQ0gyXU4oW0NIMl1bQ0gyXTEpW0NIMl1bQ0BASF0oW0NAQEhdMTIpTihbQ0gyXVtDSDJdTzIpYyhuW2NIXW4zKWMoYzM0KW5bY0hdbjRbQ0hdKFtDSDJdNSlbQ0gyXUM1KFtDSDJdW09IXSlbQ0gyXVtPSF0=

> <s_epik_cmdline>
J2VwaWtfcHl0aG9uJywgJy1waCcsICc3LjAnLCAnLXRuJywgJzgnLCAnLW1hJywgJzIwMCcsICctbWV0YWxfYmluZGluZycsICctaW1hZScsICc8aW5maWxlLm1hZT4nLCAnLW9tYWUnLCAnPG91dGZpbGUubWFlPic=

> <r_lp_tautomer_probability>
1

> <r_epik_Ionization_Penalty>
2.27341

> <r_epik_Ionization_Penalty_Charging>
0

> <r_epik_Ionization_Penalty_Neutral>
2.27341

> <r_epik_State_Penalty>
2.41121

> <r_epik_Charging_Adjusted_Penalty>
2.41121

> <i_epik_Tot_Q>
0

> <i_epik_Tot_abs_Q>
0

> <r_epik_Metal_State_Penalty>
2.40177

> <b_epik_Metal_Only>
0

> <s_lp_Force_Field>
OPLS_2005

> <r_lp_Energy>
56.9359

> <b_lp_Chiralities_Consistent>
1

> <s_lp_Variant>
AV-unprocessed.smi:16-10

> <Gold.Version>
5.8.1

> <Gold.Id.Protein>
6NUR|6NUR_protein|mol2

> <Gold.PLP.Fitness>
52.0820

> <Gold.PLP.PLP>
-41.1813

> <Gold.PLP.part.hbond>
-5.3976

> <Gold.PLP.part.metal>
0.0000

> <Gold.PLP.part.buried>
0.4755

> <Gold.PLP.part.nonpolar>
-37.0367

> <Gold.PLP.part.repulsive>
0.1218

> <Gold.PLP.ligand.clash>
0.0000

> <Gold.PLP.ligand.torsion>
0.4107

> <Gold.PLP.Chemscore.Hbond>
3.7200

> <Gold.PLP.Chemscore.CHOScore>
0.0000

> <Gold.PLP.Chemscore.Metal>
0.0000

> <Gold.Chemscore.Hbonds>
donor molecule, donor type, donor heavy atom, donor atom, acceptor molecule, acceptor atom, score
      L1  H    24    52       P1  7957  0.82
      L1  H    26    55       P1 10171  0.32
      P1  H  7954  7966       L1    26  1.00
      P1  H  7997  8009       L1    12  1.00

> <Gold.PLP.Chemscore.Internal.Correction>
0.5620

> <Gold.Rescore>
     Score         DG    S(hbond)    S(metal)    S(lipo)     H(rot)  DE(clash)    DE(int)     intcor
     16.32     -20.94       2.99        0.00     118.45       3.28       2.98       1.64       ----

> <Gold.Chemscore.Fitness>
16.3230

> <Gold.Chemscore.DG>
-20.9365

> <Gold.Chemscore.ZeroCoef>
-5.4800

> <Gold.Chemscore.Hbond>
2.9905

> <Gold.Chemscore.Metal>
0.0000

> <Gold.Chemscore.Lipo>
118.4534

> <Gold.Chemscore.Internal_Hbond>
0.0000

> <Gold.Chemscore.DEClash>
2.9780

> <Gold.Chemscore.DEInternal>
1.6354

> <Gold.Chemscore.Rot>
3.2776

> <Gold.Chemscore.Internal.Correction>
   9.000000E+99

> <Gold.Chemscore.Hbonds>
donor molecule, donor type, donor heavy atom, donor atom, acceptor molecule, acceptor atom, score
      L1  H    24    52       P1  7957  0.80
      L1  H    26    55       P1 10171  0.33
      P1  H  7954  7966       L1    26  0.43
      P1  H  7997  8009       L1    12  0.82

> <Gold.Chemscore.Hbond.Weighted>
-9.9881

> <Gold.Chemscore.Metal.Weighted>
-0.0000

> <Gold.Chemscore.Lipo.Weighted>
-13.8590

> <Gold.Chemscore.Internal_Hbond.Weighted>
0.0000

> <Gold.Chemscore.DEClash.Weighted>
2.9780

> <Gold.Chemscore.DEInternal.Weighted>
1.6354

> <Gold.Chemscore.Rot.Weighted>
8.3907

> <Gold.Chemscore.Internal.Correction.Weighted>
   9.000000E+99

> <Gold.Protein.RotatedTorsions>
[ 6907 6896 6895 6894 ] final  128.40 input  -60.11 | X-H torsion
[ 7974 7965 7964 7962 ] final  178.74 input  175.53 | X-H torsion
[ 8008 7997 7996 7995 ] final -162.07 input   59.86 | X-H torsion
[ 10167 10162 10161 10158 ] final   89.07 input  -65.29 | X-H torsion
[ 10718 10713 10712 10709 ] final  102.51 input   66.30 | X-H torsion
[ 10763 10752 10751 10750 ] final -121.34 input  -60.55 | X-H torsion
[ 11005 11000 10999 10996 ] final   25.58 input  -57.11 | X-H torsion

> <Gold.Protein.ActiveResidues>
 VAL166  LYS551  ARG553  GLY616  TRP617  ASP618  TYR619  PRO620  LYS621  CYS622 
 ASP623  PHE694  ASN695  SER759  ASP760  ASP761  ALA762  ILE779  LEU786  VAL792 
 PHE793  MET794  SER795  GLU796  ALA797  LYS798  CYS799  TRP800  GLU811  SER814 

> <Gold.Protein.RotatedAtoms>
  152.3722  133.6434  159.6095 H   0  0  0  0  0  0  0  0  0  0  0  0  # atno 6907 bound_to 6896
  150.7677  133.9251  159.3418 H   0  0  0  0  0  0  0  0  0  0  0  0  # atno 6908 bound_to 6896
  151.7071  135.0920  160.0312 H   0  0  0  0  0  0  0  0  0  0  0  0  # atno 6909 bound_to 6896
  144.7153  140.0442  143.6437 H   0  0  0  0  0  0  0  0  0  0  0  0  # atno 7974 bound_to 7965
  155.8015  140.0892  157.1954 H   0  0  0  0  0  0  0  0  0  0  0  0  # atno 8008 bound_to 7997
  154.3982  140.1471  156.3339 H   0  0  0  0  0  0  0  0  0  0  0  0  # atno 8009 bound_to 7997
  155.8458  140.3437  155.5663 H   0  0  0  0  0  0  0  0  0  0  0  0  # atno 8010 bound_to 7997
  139.8609  144.6544  150.9059 H   0  0  0  0  0  0  0  0  0  0  0  0  # atno 10167 bound_to 10162
  157.6800  131.0755  150.5414 H   0  0  0  0  0  0  0  0  0  0  0  0  # atno 10718 bound_to 10713
  154.8666  135.4171  154.2604 H   0  0  0  0  0  0  0  0  0  0  0  0  # atno 10763 bound_to 10752
  153.3534  135.7000  153.6776 H   0  0  0  0  0  0  0  0  0  0  0  0  # atno 10764 bound_to 10752
  153.5707  135.3592  155.2809 H   0  0  0  0  0  0  0  0  0  0  0  0  # atno 10765 bound_to 10752
  140.3463  134.2277  155.7684 H   0  0  0  0  0  0  0  0  0  0  0  0  # atno 11005 bound_to 11000
  145.9998  139.3082  143.0935 LP  0  0  0  0  0  0  0  0  0  0  0  0  # atno 17320 bound_to 7965
  145.8807  140.9364  143.0603 LP  0  0  0  0  0  0  0  0  0  0  0  0  # atno 17321 bound_to 7965
  140.7775  143.3745  151.1588 LP  0  0  0  0  0  0  0  0  0  0  0  0  # atno 17342 bound_to 10162
  139.7375  143.8977  152.3039 LP  0  0  0  0  0  0  0  0  0  0  0  0  # atno 17343 bound_to 10162
  156.5721  130.4282  149.6014 LP  0  0  0  0  0  0  0  0  0  0  0  0  # atno 17370 bound_to 10713
  156.2732  130.7028  151.1832 LP  0  0  0  0  0  0  0  0  0  0  0  0  # atno 17371 bound_to 10713
  141.2024  133.7937  157.0390 LP  0  0  0  0  0  0  0  0  0  0  0  0  # atno 17394 bound_to 11000
  140.0739  134.9686  157.1514 LP  0  0  0  0  0  0  0  0  0  0  0  0  # atno 17395 bound_to 11000

$$$$
