AV-unprocessed.smi:72|AV-procd|sdf|720|dock3
  -GOLD-   2262017 43D 1   1.00000     0.00000
 Structure written by MMmdl.
 28 29  0  0  0  0  0  0  0  0  2 V2000
  148.7115  136.8686  160.9361 N   0  0  0  0  0  0  0  0  0  0  0  0
  148.7678  136.8753  159.6769 C   0  0  0  0  0  0  0  0  0  0  0  0
  147.9317  137.7781  158.9175 N   0  0  0  0  0  0  0  0  0  0  0  0
  148.0503  137.7704  157.6254 C   0  0  0  0  0  0  0  0  0  0  0  0
  149.0072  136.9056  156.9427 N   0  0  0  0  0  0  0  0  0  0  0  0
  149.1524  136.8774  155.4275 C   0  0  1  0  0  0  0  0  0  0  0  0
  148.1628  137.6622  154.8278 O   0  0  0  0  0  0  0  0  0  0  0  0
  148.6984  138.9430  154.5306 C   0  0  2  0  0  0  0  0  0  0  0  0
  147.8099  139.6886  153.5188 C   0  0  0  0  0  0  0  0  0  0  0  0
  147.7072  139.0025  152.2880 O   0  0  0  0  0  0  0  0  0  0  0  0
  150.1457  138.6620  154.1203 C   0  0  1  0  0  0  0  0  0  0  0  0
  150.9653  139.7723  154.4275 O   0  0  0  0  0  0  0  0  0  0  0  0
  150.5188  137.4582  154.9856 C   0  0  2  0  0  0  0  0  0  0  0  0
  151.2573  136.5235  154.2256 O   0  0  0  0  0  0  0  0  0  0  0  0
  149.7742  135.9912  157.7153 C   0  0  0  0  0  0  0  0  0  0  0  0
  150.5308  135.2224  157.1211 O   0  0  0  0  0  0  0  0  0  0  0  0
  149.6407  136.0002  159.0707 N   0  5  0  0  0  0  0  0  0  0  0  0
  148.9968  135.8317  155.1559 H   0  0  0  0  0  0  0  0  0  0  0  0
  148.6982  139.5103  155.4629 H   0  0  0  0  0  0  0  0  0  0  0  0
  150.2198  138.4154  153.0606 H   0  0  0  0  0  0  0  0  0  0  0  0
  151.0973  137.7618  155.8600 H   0  0  0  0  0  0  0  0  0  0  0  0
  149.3414  136.1931  161.3443 H   0  0  0  0  0  0  0  0  0  0  0  0
  147.4409  138.4062  156.9840 H   0  0  0  0  0  0  0  0  0  0  0  0
  146.8136  139.8487  153.9316 H   0  0  0  0  0  0  0  0  0  0  0  0
  148.2332  140.6726  153.3167 H   0  0  0  0  0  0  0  0  0  0  0  0
  148.5214  139.1030  151.8191 H   0  0  0  0  0  0  0  0  0  0  0  0
  151.4704  139.5630  155.1983 H   0  0  0  0  0  0  0  0  0  0  0  0
  151.0861  136.6882  153.3102 H   0  0  0  0  0  0  0  0  0  0  0  0
  1  2  2  0  0  0  0
  1 22  1  0  0  0  0
  2 17  1  0  0  0  0
  2  3  1  0  0  0  0
  3  4  2  0  0  0  0
  4  5  1  0  0  0  0
  4 23  1  0  0  0  0
  5  6  1  0  0  0  0
  5 15  1  0  0  0  0
  6 18  1  0  0  0  0
  6 13  1  0  0  0  0
  6  7  1  0  0  0  0
  7  8  1  0  0  0  0
  8 19  1  0  0  0  0
  8  9  1  0  0  0  0
  8 11  1  0  0  0  0
  9 10  1  0  0  0  0
  9 24  1  0  0  0  0
  9 25  1  0  0  0  0
 10 26  1  0  0  0  0
 11 20  1  0  0  0  0
 11 12  1  0  0  0  0
 11 13  1  0  0  0  0
 12 27  1  0  0  0  0
 13 21  1  0  0  0  0
 13 14  1  0  0  0  0
 14 28  1  0  0  0  0
 15 16  2  0  0  0  0
 15 17  1  0  0  0  0
M  CHG  1  17  -1
M  END
> <s_m_source_file>
AV-unprocessed.smi

> <i_m_source_file_index>
72

> <i_lp_mmshare_version>
43012

> <i_f3d_flags>
0

> <s_epik_input>
W05IMl1jMW5bY0hdbihjKD1PKW4xKVtDQEBIXTJPW0NASF0oW0NIMl1bT0hdKVtDQEBIXShbT0hdKVtDQEhdMltPSF0=

> <s_epik_cmdline>
J2VwaWtfcHl0aG9uJywgJy1waCcsICc3LjAnLCAnLXRuJywgJzgnLCAnLW1hJywgJzIwMCcsICctbWV0YWxfYmluZGluZycsICctaW1hZScsICc8aW5maWxlLm1hZT4nLCAnLW9tYWUnLCAnPG91dGZpbGUubWFlPic=

> <r_lp_tautomer_probability>
7.17554e-07

> <r_epik_Ionization_Penalty>
12.8705

> <r_epik_Ionization_Penalty_Charging>
5.64144

> <r_epik_Ionization_Penalty_Neutral>
7.22905

> <r_epik_State_Penalty>
3.30104

> <r_epik_Charging_Adjusted_Penalty>
8.94249

> <i_epik_Tot_Q>
-1

> <i_epik_Tot_abs_Q>
1

> <r_epik_Metal_State_Penalty>
0.529074

> <b_epik_Metal_Only>
1

> <s_epik_Chemistry_Notes>
This compound contains an acetal/aminal-like group ( X-CH(R)-Y where X, Y are N, S, or O) that may be acid/base labile, releasing an aldehyde.

> <s_lp_Force_Field>
OPLS_2005

> <r_lp_Energy>
31.8888

> <b_lp_Chiralities_Consistent>
1

> <s_lp_Variant>
AV-unprocessed.smi:72-58

> <Gold.Version>
5.8.1

> <Gold.Id.Protein>
6NUR|6NUR_protein|mol2

> <Gold.PLP.Fitness>
42.6918

> <Gold.PLP.PLP>
-22.2700

> <Gold.PLP.part.hbond>
-8.2243

> <Gold.PLP.part.metal>
0.0000

> <Gold.PLP.part.buried>
-3.2874

> <Gold.PLP.part.nonpolar>
-10.5943

> <Gold.PLP.part.repulsive>
0.1156

> <Gold.PLP.ligand.clash>
0.0000

> <Gold.PLP.ligand.torsion>
0.1669

> <Gold.PLP.Chemscore.Hbond>
6.9120

> <Gold.PLP.Chemscore.CHOScore>
0.0000

> <Gold.PLP.Chemscore.Metal>
0.0000

> <Gold.Chemscore.Hbonds>
donor molecule, donor type, donor heavy atom, donor atom, acceptor molecule, acceptor atom, score
      L1  H    10    26       P1  7957  1.00
      L1  H    14    28       P1  7949  0.93
      P1  H  6896  6909       L1    17  2.00
      P1  H  6931  6943       L1     1  1.00
      P1  H  7989  7998       L1    12  1.00
      P1  H 10752 10763       L1    14  1.00

> <Gold.PLP.Chemscore.Internal.Correction>
0.0198

> <Gold.Rescore>
     Score         DG    S(hbond)    S(metal)    S(lipo)     H(rot)  DE(clash)    DE(int)     intcor
     13.32     -13.64       4.68        0.00      24.64       4.04       0.05       0.27       ----

> <Gold.Chemscore.Fitness>
13.3197

> <Gold.Chemscore.DG>
-13.6364

> <Gold.Chemscore.ZeroCoef>
-5.4800

> <Gold.Chemscore.Hbond>
4.6757

> <Gold.Chemscore.Metal>
0.0000

> <Gold.Chemscore.Lipo>
24.6384

> <Gold.Chemscore.Internal_Hbond>
0.0000

> <Gold.Chemscore.DEClash>
0.0476

> <Gold.Chemscore.DEInternal>
0.2691

> <Gold.Chemscore.Rot>
4.0403

> <Gold.Chemscore.Internal.Correction>
   9.000000E+99

> <Gold.Chemscore.Hbonds>
donor molecule, donor type, donor heavy atom, donor atom, acceptor molecule, acceptor atom, score
      L1  H    10    26       P1  7957  0.86
      L1  H    14    28       P1  7949  0.35
      P1  H  6896  6909       L1    17  0.50
      P1  H  6931  6943       L1     1  0.28
      P1  H  7989  7998       L1    12  0.86
      P1  H 10752 10763       L1    14  0.74

> <Gold.Chemscore.Hbond.Weighted>
-15.6167

> <Gold.Chemscore.Metal.Weighted>
-0.0000

> <Gold.Chemscore.Lipo.Weighted>
-2.8827

> <Gold.Chemscore.Internal_Hbond.Weighted>
0.0000

> <Gold.Chemscore.DEClash.Weighted>
0.0476

> <Gold.Chemscore.DEInternal.Weighted>
0.2691

> <Gold.Chemscore.Rot.Weighted>
10.3431

> <Gold.Chemscore.Internal.Correction.Weighted>
   9.000000E+99

> <Gold.Protein.RotatedTorsions>
[ 6907 6896 6895 6894 ] final   62.19 input  -60.11 | X-H torsion
[ 7974 7965 7964 7962 ] final  -55.15 input  175.53 | X-H torsion
[ 8008 7997 7996 7995 ] final  139.92 input   59.86 | X-H torsion
[ 10167 10162 10161 10158 ] final -115.24 input  -65.29 | X-H torsion
[ 10718 10713 10712 10709 ] final  -30.59 input   66.30 | X-H torsion
[ 10763 10752 10751 10750 ] final   49.80 input  -60.55 | X-H torsion
[ 11005 11000 10999 10996 ] final  -58.89 input  -57.11 | X-H torsion

> <Gold.Protein.ActiveResidues>
 VAL166  LYS551  ARG553  GLY616  TRP617  ASP618  TYR619  PRO620  LYS621  CYS622 
 ASP623  PHE694  ASN695  SER759  ASP760  ASP761  ALA762  ILE779  LEU786  VAL792 
 PHE793  MET794  SER795  GLU796  ALA797  LYS798  CYS799  TRP800  GLU811  SER814 

> <Gold.Protein.RotatedAtoms>
  152.4152  134.6054  160.0011 H   0  0  0  0  0  0  0  0  0  0  0  0  # atno 6907 bound_to 6896
  151.6220  133.3333  159.3098 H   0  0  0  0  0  0  0  0  0  0  0  0  # atno 6908 bound_to 6896
  150.8041  134.7193  159.6694 H   0  0  0  0  0  0  0  0  0  0  0  0  # atno 6909 bound_to 6896
  145.8774  140.8170  142.9857 H   0  0  0  0  0  0  0  0  0  0  0  0  # atno 7974 bound_to 7965
  156.2985  140.2355  156.4316 H   0  0  0  0  0  0  0  0  0  0  0  0  # atno 8008 bound_to 7997
  154.8265  140.0435  157.1467 H   0  0  0  0  0  0  0  0  0  0  0  0  # atno 8009 bound_to 7997
  154.9256  140.3009  155.5197 H   0  0  0  0  0  0  0  0  0  0  0  0  # atno 8010 bound_to 7997
  140.0922  143.4689  152.1863 H   0  0  0  0  0  0  0  0  0  0  0  0  # atno 10167 bound_to 10162
  156.3979  130.4385  149.7345 H   0  0  0  0  0  0  0  0  0  0  0  0  # atno 10718 bound_to 10713
  152.9786  135.5900  154.4149 H   0  0  0  0  0  0  0  0  0  0  0  0  # atno 10763 bound_to 10752
  154.3780  135.2767  155.2230 H   0  0  0  0  0  0  0  0  0  0  0  0  # atno 10764 bound_to 10752
  154.4156  135.6071  153.6033 H   0  0  0  0  0  0  0  0  0  0  0  0  # atno 10765 bound_to 10752
  141.1226  133.6614  156.4989 H   0  0  0  0  0  0  0  0  0  0  0  0  # atno 11005 bound_to 11000
  144.6726  140.1332  143.7442 LP  0  0  0  0  0  0  0  0  0  0  0  0  # atno 17320 bound_to 7965
  145.9064  139.2461  143.1463 LP  0  0  0  0  0  0  0  0  0  0  0  0  # atno 17321 bound_to 7965
  139.5718  144.7467  151.3870 LP  0  0  0  0  0  0  0  0  0  0  0  0  # atno 17342 bound_to 10162
  140.7022  143.7602  150.7423 LP  0  0  0  0  0  0  0  0  0  0  0  0  # atno 17343 bound_to 10162
  156.4373  130.7844  151.2865 LP  0  0  0  0  0  0  0  0  0  0  0  0  # atno 17370 bound_to 10713
  157.7502  131.0136  150.3429 LP  0  0  0  0  0  0  0  0  0  0  0  0  # atno 17371 bound_to 10713
  140.4462  134.6970  157.5017 LP  0  0  0  0  0  0  0  0  0  0  0  0  # atno 17394 bound_to 11000
  140.0196  134.6567  155.9259 LP  0  0  0  0  0  0  0  0  0  0  0  0  # atno 17395 bound_to 11000

$$$$
