AV-unprocessed.smi:2059|AV-procd|sdf|8348|dock8
  -GOLD-   2272011 13D 1   1.00000     0.00000
 Structure written by MMmdl.
 30 31  0  0  0  0  0  0  0  0  1 V2000
  143.7475  143.5616  161.1475 C   0  0  0  0  0  0  0  0  0  0  0  0
  145.1362  143.4815  160.6125 C   0  0  0  0  0  0  0  0  0  0  0  0
  145.6458  143.4782  159.3447 C   0  0  0  0  0  0  0  0  0  0  0  0
  147.0467  143.3792  159.5583 C   0  0  0  0  0  0  0  0  0  0  0  0
  147.9413  143.3435  158.4508 N   0  0  0  0  0  0  0  0  0  0  0  0
  148.6234  142.3193  157.8964 C   0  0  0  0  0  0  0  0  0  0  0  0
  148.5292  141.1776  158.3440 O   0  0  0  0  0  0  0  0  0  0  0  0
  149.3971  142.6231  156.8413 N   0  0  0  0  0  0  0  0  0  0  0  0
  150.2145  141.6744  156.0932 C   0  0  2  0  0  0  0  0  0  0  0  0
  149.3629  140.7625  155.1864 C   0  0  0  0  0  0  0  0  0  0  0  0
  150.2206  139.5727  154.7380 C   0  0  0  0  0  0  0  0  0  0  0  0
  151.4253  139.2731  156.0869 S   0  0  0  0  0  0  0  0  0  0  0  0
  151.0236  138.0844  156.8541 O   0  0  0  0  0  0  0  0  0  0  0  0
  152.7866  139.3995  155.5445 O   0  0  0  0  0  0  0  0  0  0  0  0
  151.0112  140.7763  157.0487 C   0  0  0  0  0  0  0  0  0  0  0  0
  147.3607  143.3236  160.8448 N   0  0  0  0  0  0  0  0  0  0  0  0
  146.1398  143.3890  161.5260 O   0  0  0  0  0  0  0  0  0  0  0  0
  143.0631  143.9543  160.3955 H   0  0  0  0  0  0  0  0  0  0  0  0
  143.7034  144.2169  162.0175 H   0  0  0  0  0  0  0  0  0  0  0  0
  143.3922  142.5757  161.4472 H   0  0  0  0  0  0  0  0  0  0  0  0
  145.1000  143.5383  158.4146 H   0  0  0  0  0  0  0  0  0  0  0  0
  148.0823  144.2352  157.9985 H   0  0  0  0  0  0  0  0  0  0  0  0
  149.4186  143.5859  156.5358 H   0  0  0  0  0  0  0  0  0  0  0  0
  150.9270  142.2174  155.4692 H   0  0  0  0  0  0  0  0  0  0  0  0
  148.5136  140.3837  155.7566 H   0  0  0  0  0  0  0  0  0  0  0  0
  148.9552  141.3030  154.3317 H   0  0  0  0  0  0  0  0  0  0  0  0
  149.6339  138.6736  154.5491 H   0  0  0  0  0  0  0  0  0  0  0  0
  150.7811  139.8192  153.8361 H   0  0  0  0  0  0  0  0  0  0  0  0
  151.9208  141.2474  157.4220 H   0  0  0  0  0  0  0  0  0  0  0  0
  150.4038  140.4670  157.9004 H   0  0  0  0  0  0  0  0  0  0  0  0
  1  2  1  0  0  0  0
  1 18  1  0  0  0  0
  1 19  1  0  0  0  0
  1 20  1  0  0  0  0
  2 17  1  0  0  0  0
  2  3  2  0  0  0  0
  3  4  1  0  0  0  0
  3 21  1  0  0  0  0
  4  5  1  0  0  0  0
  4 16  2  0  0  0  0
  5  6  1  0  0  0  0
  5 22  1  0  0  0  0
  6  7  2  0  0  0  0
  6  8  1  0  0  0  0
  8  9  1  0  0  0  0
  8 23  1  0  0  0  0
  9 15  1  0  0  0  0
  9 10  1  0  0  0  0
  9 24  1  0  0  0  0
 10 11  1  0  0  0  0
 10 25  1  0  0  0  0
 10 26  1  0  0  0  0
 11 12  1  0  0  0  0
 11 27  1  0  0  0  0
 11 28  1  0  0  0  0
 12 13  2  0  0  0  0
 12 14  2  0  0  0  0
 12 15  1  0  0  0  0
 15 29  1  0  0  0  0
 15 30  1  0  0  0  0
 16 17  1  0  0  0  0
M  END
> <s_m_source_file>
AV-unprocessed.smi

> <i_m_source_file_index>
2059

> <i_lp_mmshare_version>
43012

> <i_f3d_flags>
0

> <s_epik_input>
W0NIM11jMVtjSF1jKG5vMSlbTkhdQyg9TylbTkhdW0NAQEhdKFtDSDJdMilbQ0gyXVtDSDJdUzIoPU8pPU8=

> <s_epik_cmdline>
J2VwaWtfcHl0aG9uJywgJy1waCcsICc3LjAnLCAnLXRuJywgJzgnLCAnLW1hJywgJzIwMCcsICctbWV0YWxfYmluZGluZycsICctaW1hZScsICc8aW5maWxlLm1hZT4nLCAnLW9tYWUnLCAnPG91dGZpbGUubWFlPic=

> <r_lp_tautomer_probability>
1

> <r_epik_Ionization_Penalty>
3.88767e-05

> <r_epik_Ionization_Penalty_Charging>
0

> <r_epik_Ionization_Penalty_Neutral>
3.88767e-05

> <r_epik_State_Penalty>
-0

> <r_epik_Charging_Adjusted_Penalty>
0

> <i_epik_Tot_Q>
0

> <i_epik_Tot_abs_Q>
0

> <r_epik_Metal_State_Penalty>
0.0251347

> <b_epik_Metal_Only>
0

> <s_lp_Force_Field>
OPLS_2005

> <r_lp_Energy>
4.38419

> <b_lp_Chiralities_Consistent>
1

> <s_lp_Variant>
AV-unprocessed.smi:2059-1

> <Gold.Version>
5.8.1

> <Gold.Id.Protein>
6NUR|6NUR_protein|mol2

> <Gold.PLP.Fitness>
33.7633

> <Gold.PLP.PLP>
-23.9506

> <Gold.PLP.part.hbond>
-5.6054

> <Gold.PLP.part.metal>
0.0000

> <Gold.PLP.part.buried>
-4.2702

> <Gold.PLP.part.nonpolar>
-15.3603

> <Gold.PLP.part.repulsive>
0.2263

> <Gold.PLP.ligand.clash>
0.0000

> <Gold.PLP.ligand.torsion>
0.8673

> <Gold.PLP.Chemscore.Hbond>
3.8490

> <Gold.PLP.Chemscore.CHOScore>
0.0000

> <Gold.PLP.Chemscore.Metal>
0.0000

> <Gold.Chemscore.Hbonds>
donor molecule, donor type, donor heavy atom, donor atom, acceptor molecule, acceptor atom, score
      L1  H     5    22       P1  8029  0.90
      L1  H     8    23       P1  8028  0.99
      P1  H  6933  6944       L1    16  1.00
      P1  H  7997  8009       L1    14  1.00

> <Gold.PLP.Chemscore.Internal.Correction>
0.0002

> <Gold.Rescore>
     Score         DG    S(hbond)    S(metal)    S(lipo)     H(rot)  DE(clash)    DE(int)     intcor
     16.21     -17.81       3.17        0.00      36.83       1.00       0.00       1.60       ----

> <Gold.Chemscore.Fitness>
16.2069

> <Gold.Chemscore.DG>
-17.8108

> <Gold.Chemscore.ZeroCoef>
-5.4800

> <Gold.Chemscore.Hbond>
3.1681

> <Gold.Chemscore.Metal>
0.0000

> <Gold.Chemscore.Lipo>
36.8334

> <Gold.Chemscore.Internal_Hbond>
0.0000

> <Gold.Chemscore.DEClash>
0.0000

> <Gold.Chemscore.DEInternal>
1.6039

> <Gold.Chemscore.Rot>
1.0000

> <Gold.Chemscore.Internal.Correction>
   9.000000E+99

> <Gold.Chemscore.Hbonds>
donor molecule, donor type, donor heavy atom, donor atom, acceptor molecule, acceptor atom, score
      L1  H     5    22       P1  8029  0.18
      L1  H     8    23       P1  8028  0.88
      P1  H  6933  6944       L1    16  0.93
      P1  H  7997  8009       L1    14  1.00

> <Gold.Chemscore.Hbond.Weighted>
-10.5813

> <Gold.Chemscore.Metal.Weighted>
-0.0000

> <Gold.Chemscore.Lipo.Weighted>
-4.3095

> <Gold.Chemscore.Internal_Hbond.Weighted>
0.0000

> <Gold.Chemscore.DEClash.Weighted>
0.0000

> <Gold.Chemscore.DEInternal.Weighted>
1.6039

> <Gold.Chemscore.Rot.Weighted>
2.5600

> <Gold.Chemscore.Internal.Correction.Weighted>
   9.000000E+99

> <Gold.Protein.RotatedTorsions>
[ 6907 6896 6895 6894 ] final   -5.68 input  -60.11 | X-H torsion
[ 7974 7965 7964 7962 ] final  -14.70 input  175.53 | X-H torsion
[ 8008 7997 7996 7995 ] final -152.76 input   59.86 | X-H torsion
[ 10167 10162 10161 10158 ] final   41.55 input  -65.29 | X-H torsion
[ 10718 10713 10712 10709 ] final  -51.25 input   66.30 | X-H torsion
[ 10763 10752 10751 10750 ] final -125.67 input  -60.55 | X-H torsion
[ 11005 11000 10999 10996 ] final   91.58 input  -57.11 | X-H torsion

> <Gold.Protein.ActiveResidues>
 VAL166  LYS551  ARG553  GLY616  TRP617  ASP618  TYR619  PRO620  LYS621  CYS622 
 ASP623  PHE694  ASN695  SER759  ASP760  ASP761  ALA762  ILE779  LEU786  VAL792 
 PHE793  MET794  SER795  GLU796  ALA797  LYS798  CYS799  TRP800  GLU811  SER814 

> <Gold.Protein.RotatedAtoms>
  151.4777  135.1050  159.9768 H   0  0  0  0  0  0  0  0  0  0  0  0  # atno 6907 bound_to 6896
  152.4791  133.8207  159.7062 H   0  0  0  0  0  0  0  0  0  0  0  0  # atno 6908 bound_to 6896
  150.8850  133.7258  159.2947 H   0  0  0  0  0  0  0  0  0  0  0  0  # atno 6909 bound_to 6896
  146.2063  140.3386  142.8406 H   0  0  0  0  0  0  0  0  0  0  0  0  # atno 7974 bound_to 7965
  155.6602  140.0721  157.2557 H   0  0  0  0  0  0  0  0  0  0  0  0  # atno 8008 bound_to 7997
  154.4144  140.1717  156.1819 H   0  0  0  0  0  0  0  0  0  0  0  0  # atno 8009 bound_to 7997
  155.9704  140.3362  155.6573 H   0  0  0  0  0  0  0  0  0  0  0  0  # atno 8010 bound_to 7997
  140.3632  144.2201  150.6137 H   0  0  0  0  0  0  0  0  0  0  0  0  # atno 10167 bound_to 10162
  156.1727  130.4149  149.9624 H   0  0  0  0  0  0  0  0  0  0  0  0  # atno 10718 bound_to 10713
  154.8738  135.4022  154.3305 H   0  0  0  0  0  0  0  0  0  0  0  0  # atno 10763 bound_to 10752
  153.4120  135.7021  153.6358 H   0  0  0  0  0  0  0  0  0  0  0  0  # atno 10764 bound_to 10752
  153.5057  135.3718  155.2532 H   0  0  0  0  0  0  0  0  0  0  0  0  # atno 10765 bound_to 10752
  139.8836  134.8682  156.3449 H   0  0  0  0  0  0  0  0  0  0  0  0  # atno 11005 bound_to 11000
  144.8801  140.7389  143.5992 LP  0  0  0  0  0  0  0  0  0  0  0  0  # atno 17320 bound_to 7965
  145.3306  139.1761  143.4539 LP  0  0  0  0  0  0  0  0  0  0  0  0  # atno 17321 bound_to 7965
  140.5106  143.2291  151.8541 LP  0  0  0  0  0  0  0  0  0  0  0  0  # atno 17342 bound_to 10162
  139.4811  144.4954  151.9131 LP  0  0  0  0  0  0  0  0  0  0  0  0  # atno 17343 bound_to 10162
  156.7419  130.9082  151.3632 LP  0  0  0  0  0  0  0  0  0  0  0  0  # atno 17370 bound_to 10713
  157.6814  130.9143  150.0276 LP  0  0  0  0  0  0  0  0  0  0  0  0  # atno 17371 bound_to 10713
  140.9634  133.7374  156.0432 LP  0  0  0  0  0  0  0  0  0  0  0  0  # atno 17394 bound_to 11000
  140.7962  134.3561  157.5452 LP  0  0  0  0  0  0  0  0  0  0  0  0  # atno 17395 bound_to 11000

$$$$
