#       Name:                AV-unprocessed.smi:1775
#       Creating user name   scv26
#       Creation time:       Fri Mar 27 08:41:13 2020


#       File generated by GOLD software.
#

@<TRIPOS>MOLECULE
AV-unprocessed.smi:1775
    42    44     1
SMALL
NO_CHARGES


@<TRIPOS>ATOM
      1 ****         0.2236   0.9807   0.0637 O.2            1 S1                 0.0000
      2 ****        -0.2948  -0.1352   0.0976 C.2            1 S1                 0.0000
      3 ****        -1.6129  -0.3883   0.1875 N.am           1 S1                 0.0000
      4 ****        -2.6910   0.5120   0.2182 C.2            1 S1                 0.0000
      5 ****        -2.6338   1.8058  -0.2031 C.2            1 S1                 0.0000
      6 ****        -3.7906   2.6915  -0.1618 C.2            1 S1                 0.0000
      7 ****        -3.7380   4.1639  -0.5292 C.3            1 S1                 0.0000
      8 ****        -4.5536   4.8810   0.2440 F              1 S1                 0.0000
      9 ****        -2.5020   4.6458  -0.3979 F              1 S1                 0.0000
     10 ****        -4.1155   4.3284  -1.7961 F              1 S1                 0.0000
     11 ****        -4.9106   2.0670   0.3521 C.2            1 S1                 0.0000
     12 ****        -5.0590   0.7884   0.7622 N.pl3          1 S1                -1.0000
     13 ****        -3.9714  -0.0319   0.7162 C.2            1 S1                 0.0000
     14 ****        -4.0354  -1.2076   1.0776 O.2            1 S1                 0.0000
     15 ****         0.4054  -1.2797   0.0697 N.am           1 S1                 0.0000
     16 ****         1.8587  -1.4171  -0.0019 C.3            1 S1                 0.0000
     17 ****         2.5855  -0.8838   1.2237 C.3            1 S1                 0.0000
     18 ****         3.8864  -1.4930   1.6900 C.3            1 S1                 0.0000
     19 ****         2.6284  -1.6725   2.5100 C.3            1 S1                 0.0000
     20 ****         2.4677  -0.8610  -1.2806 C.3            1 S1                 0.0000
     21 ****         2.3893  -1.6273  -2.5787 C.3            1 S1                 0.0000
     22 ****         3.7193  -1.4588  -1.8783 C.3            1 S1                 0.0000
     23 ****        -1.8789  -1.3568   0.2879 H              1 S1                 0.0000
     24 ****        -1.7221   2.2146  -0.6070 H              1 S1                 0.0000
     25 ****        -5.8247   2.6903   0.4520 H              1 S1                 0.0000
     26 ****        -0.1193  -2.1413   0.1069 H              1 S1                 0.0000
     27 ****         2.0259  -2.4950  -0.0199 H              1 S1                 0.0000
     28 ****         2.5128   0.1962   1.3384 H              1 S1                 0.0000
     29 ****         4.2631  -2.3642   1.1582 H              1 S1                 0.0000
     30 ****         4.6469  -0.8170   2.0756 H              1 S1                 0.0000
     31 ****         2.5495  -1.1160   3.4417 H              1 S1                 0.0000
     32 ****         2.1680  -2.6585   2.5152 H              1 S1                 0.0000
     33 ****         2.3864   0.2209  -1.3685 H              1 S1                 0.0000
     34 ****         1.9316  -2.6142  -2.5576 H              1 S1                 0.0000
     35 ****         2.2212  -1.0545  -3.4884 H              1 S1                 0.0000
     36 ****         4.4389  -0.7741  -2.3224 H              1 S1                 0.0000
     37 ****         4.1459  -2.3374  -1.3987 H              1 S1                 0.0000
     38 ****        -0.3491   1.7995   0.1041 LP             1 S1                 0.0000
     39 ****         1.2174   1.0684  -0.0042 LP             1 S1                 0.0000
     40 ****        -5.9421   0.4531   1.0904 LP             1 S1                 0.0000
     41 ****        -3.2232  -1.7893   1.0333 LP             1 S1                 0.0000
     42 ****        -4.8996  -1.5805   1.4155 LP             1 S1                 0.0000
@<TRIPOS>BOND
    1    1    2 2     
    2    2    3 am    
    3    2   15 am    
    4    3    4 1     
    5    3   23 1     
    6    4   13 1     
    7    4    5 2     
    8    5    6 1     
    9    5   24 1     
   10    6    7 1     
   11    6   11 2     
   12    7    8 1     
   13    7    9 1     
   14    7   10 1     
   15   11   12 1     
   16   11   25 1     
   17   12   13 1     
   18   13   14 2     
   19   15   16 1     
   20   15   26 1     
   21   16   17 1     
   22   16   20 1     
   23   16   27 1     
   24   17   19 1     
   25   17   18 1     
   26   17   28 1     
   27   18   19 1     
   28   18   29 1     
   29   18   30 1     
   30   19   31 1     
   31   19   32 1     
   32   20   22 1     
   33   20   21 1     
   34   20   33 1     
   35   21   22 1     
   36   21   34 1     
   37   21   35 1     
   38   22   36 1     
   39   22   37 1     
   40    1   38 1     
   41    1   39 1     
   42   12   40 1     
   43   14   41 1     
   44   14   42 1     
@<TRIPOS>SUBSTRUCTURE
      1 S1             1
@<TRIPOS>SET
LONE_PAIRS      STATIC     ATOMS    <user>   **** ""
5 38 39 40 41 42
DONOR_HYDROGENS      STATIC     ATOMS    <user>   **** ""
2 23 26
ATOM$BLUE        STATIC     ATOMS    COLORGROUP SYSTEM
5 38 39 40 41 42
ATOM$RED        STATIC     ATOMS    COLORGROUP SYSTEM
2 23 26
