AV-unprocessed.smi:826|AV-procd|sdf|3855|dock3
  -GOLD-   22720 1303D 1   1.00000     0.00000
 Structure written by MMmdl.
 38 39  0  0  0  0  0  0  0  0  2 V2000
  143.3770  143.5495  162.0509 C   0  0  0  0  0  0  0  0  0  0  0  0
  144.3017  143.1708  160.9455 C   0  0  0  0  0  0  0  0  0  0  0  0
  144.9572  142.0078  160.9147 N   0  0  0  0  0  0  0  0  0  0  0  0
  145.7515  141.8853  159.7837 N   0  0  0  0  0  0  0  0  0  0  0  0
  145.6768  142.9489  158.9710 C   0  0  0  0  0  0  0  0  0  0  0  0
  146.3672  143.0271  157.8215 N   0  5  0  0  0  0  0  0  0  0  0  0
  147.0733  141.9592  157.3852 C   0  0  0  0  0  0  0  0  0  0  0  0
  146.9974  140.8071  157.8196 O   0  0  0  0  0  0  0  0  0  0  0  0
  147.9155  142.2399  156.3790 N   0  0  0  0  0  0  0  0  0  0  0  0
  148.7904  141.2836  155.7019 C   0  0  1  0  0  0  0  0  0  0  0  0
  148.6405  141.4918  154.1852 C   0  0  0  0  0  0  0  0  0  0  0  0
  150.2575  141.5394  156.0810 C   0  0  0  0  0  0  0  0  0  0  0  0
  151.1584  140.8394  155.6157 O   0  0  0  0  0  0  0  0  0  0  0  0
  150.4768  142.5390  156.9482 N   0  0  0  0  0  0  0  0  0  0  0  0
  151.7856  142.9400  157.4555 C   0  0  0  0  0  0  0  0  0  0  0  0
  152.1319  142.2078  158.7692 C   0  0  0  0  0  0  0  0  0  0  0  0
  152.5286  143.2935  159.7723 C   0  0  0  0  0  0  0  0  0  0  0  0
  151.7675  144.5335  159.3132 C   0  0  0  0  0  0  0  0  0  0  0  0
  151.7972  144.4426  157.7878 C   0  0  0  0  0  0  0  0  0  0  0  0
  144.6120  144.2195  159.5730 S   0  0  0  0  0  0  0  0  0  0  0  0
  142.3523  143.2930  161.7814 H   0  0  0  0  0  0  0  0  0  0  0  0
  143.4332  144.6221  162.2363 H   0  0  0  0  0  0  0  0  0  0  0  0
  143.6418  143.0230  162.9685 H   0  0  0  0  0  0  0  0  0  0  0  0
  147.9543  143.1969  156.0607 H   0  0  0  0  0  0  0  0  0  0  0  0
  148.5003  140.2623  155.9572 H   0  0  0  0  0  0  0  0  0  0  0  0
  149.2750  140.8027  153.6265 H   0  0  0  0  0  0  0  0  0  0  0  0
  148.9032  142.5068  153.8835 H   0  0  0  0  0  0  0  0  0  0  0  0
  147.6123  141.3126  153.8698 H   0  0  0  0  0  0  0  0  0  0  0  0
  149.6789  143.0642  157.2744 H   0  0  0  0  0  0  0  0  0  0  0  0
  152.5462  142.7417  156.6979 H   0  0  0  0  0  0  0  0  0  0  0  0
  151.2629  141.6697  159.1514 H   0  0  0  0  0  0  0  0  0  0  0  0
  152.9269  141.4744  158.6312 H   0  0  0  0  0  0  0  0  0  0  0  0
  152.2999  143.0171  160.8018 H   0  0  0  0  0  0  0  0  0  0  0  0
  153.6016  143.4788  159.7079 H   0  0  0  0  0  0  0  0  0  0  0  0
  150.7363  144.4844  159.6650 H   0  0  0  0  0  0  0  0  0  0  0  0
  152.2057  145.4593  159.6873 H   0  0  0  0  0  0  0  0  0  0  0  0
  152.7263  144.8823  157.4226 H   0  0  0  0  0  0  0  0  0  0  0  0
  150.9792  144.9965  157.3248 H   0  0  0  0  0  0  0  0  0  0  0  0
  1  2  1  0  0  0  0
  1 21  1  0  0  0  0
  1 22  1  0  0  0  0
  1 23  1  0  0  0  0
  2 20  1  0  0  0  0
  2  3  2  0  0  0  0
  3  4  1  0  0  0  0
  4  5  2  0  0  0  0
  5  6  1  0  0  0  0
  5 20  1  0  0  0  0
  6  7  1  0  0  0  0
  7  8  2  0  0  0  0
  7  9  1  0  0  0  0
  9 10  1  0  0  0  0
  9 24  1  0  0  0  0
 10 11  1  0  0  0  0
 10 12  1  0  0  0  0
 10 25  1  0  0  0  0
 11 26  1  0  0  0  0
 11 27  1  0  0  0  0
 11 28  1  0  0  0  0
 12 13  2  0  0  0  0
 12 14  1  0  0  0  0
 14 15  1  0  0  0  0
 14 29  1  0  0  0  0
 15 19  1  0  0  0  0
 15 16  1  0  0  0  0
 15 30  1  0  0  0  0
 16 17  1  0  0  0  0
 16 31  1  0  0  0  0
 16 32  1  0  0  0  0
 17 18  1  0  0  0  0
 17 33  1  0  0  0  0
 17 34  1  0  0  0  0
 18 19  1  0  0  0  0
 18 35  1  0  0  0  0
 18 36  1  0  0  0  0
 19 37  1  0  0  0  0
 19 38  1  0  0  0  0
M  CHG  1   6  -1
M  END
> <s_m_source_file>
AV-unprocessed.smi

> <i_m_source_file_index>
826

> <i_lp_mmshare_version>
43012

> <i_f3d_flags>
0

> <s_epik_input>
W0NIM11jMW5uYyhzMSlbTkhdQyg9TylbTkhdW0NASF0oW0NIM10pQyg9TylbTkhdW0NIXTJbQ0gyXVtDSDJdW0NIMl1bQ0gyXTI=

> <s_epik_cmdline>
J2VwaWtfcHl0aG9uJywgJy1waCcsICc3LjAnLCAnLXRuJywgJzgnLCAnLW1hJywgJzIwMCcsICctbWV0YWxfYmluZGluZycsICctaW1hZScsICc8aW5maWxlLm1hZT4nLCAnLW9tYWUnLCAnPG91dGZpbGUubWFlPic=

> <r_lp_tautomer_probability>
1

> <r_epik_Ionization_Penalty>
3.15008

> <r_epik_Ionization_Penalty_Charging>
3.01509

> <r_epik_Ionization_Penalty_Neutral>
0.134987

> <r_epik_State_Penalty>
3.01143

> <r_epik_Charging_Adjusted_Penalty>
6.02652

> <i_epik_Tot_Q>
-1

> <i_epik_Tot_abs_Q>
1

> <r_epik_Metal_State_Penalty>
0.454645

> <b_epik_Metal_Only>
1

> <s_lp_Force_Field>
OPLS_2005

> <r_lp_Energy>
16.5176

> <b_lp_Chiralities_Consistent>
1

> <s_lp_Variant>
AV-unprocessed.smi:826-4

> <Gold.Version>
5.8.1

> <Gold.Id.Protein>
6NUR|6NUR_protein|mol2

> <Gold.PLP.Fitness>
46.1143

> <Gold.PLP.PLP>
-40.8135

> <Gold.PLP.part.hbond>
-6.0000

> <Gold.PLP.part.metal>
0.0000

> <Gold.PLP.part.buried>
-7.0111

> <Gold.PLP.part.nonpolar>
-28.7481

> <Gold.PLP.part.repulsive>
0.2190

> <Gold.PLP.ligand.clash>
0.0000

> <Gold.PLP.ligand.torsion>
0.5515

> <Gold.PLP.Chemscore.Hbond>
2.1066

> <Gold.PLP.Chemscore.CHOScore>
0.0000

> <Gold.PLP.Chemscore.Metal>
0.0000

> <Gold.Chemscore.Hbonds>
donor molecule, donor type, donor heavy atom, donor atom, acceptor molecule, acceptor atom, score
      L1  H     9    24       P1  8028  1.00
      P1  H  6934  6946       L1     4  0.50
      P1  H  7989  7998       L1    13  0.50

> <Gold.PLP.Chemscore.Internal.Correction>
0.0839

> <Gold.Rescore>
     Score         DG    S(hbond)    S(metal)    S(lipo)     H(rot)  DE(clash)    DE(int)     intcor
     13.27     -15.70       1.31        0.00      85.25       1.62       0.24       2.19       ----

> <Gold.Chemscore.Fitness>
13.2670

> <Gold.Chemscore.DG>
-15.6957

> <Gold.Chemscore.ZeroCoef>
-5.4800

> <Gold.Chemscore.Hbond>
1.3140

> <Gold.Chemscore.Metal>
0.0000

> <Gold.Chemscore.Lipo>
85.2508

> <Gold.Chemscore.Internal_Hbond>
0.0000

> <Gold.Chemscore.DEClash>
0.2386

> <Gold.Chemscore.DEInternal>
2.1901

> <Gold.Chemscore.Rot>
1.6201

> <Gold.Chemscore.Internal.Correction>
   9.000000E+99

> <Gold.Chemscore.Hbonds>
donor molecule, donor type, donor heavy atom, donor atom, acceptor molecule, acceptor atom, score
      L1  H     9    24       P1  8028  0.34
      L1  H    14    29       P1  8028  0.02
      P1  H  6934  6946       L1     4  0.02
      P1  H  7989  7998       L1    13  0.50

> <Gold.Chemscore.Hbond.Weighted>
-4.3888

> <Gold.Chemscore.Metal.Weighted>
-0.0000

> <Gold.Chemscore.Lipo.Weighted>
-9.9743

> <Gold.Chemscore.Internal_Hbond.Weighted>
0.0000

> <Gold.Chemscore.DEClash.Weighted>
0.2386

> <Gold.Chemscore.DEInternal.Weighted>
2.1901

> <Gold.Chemscore.Rot.Weighted>
4.1475

> <Gold.Chemscore.Internal.Correction.Weighted>
   9.000000E+99

> <Gold.Protein.RotatedTorsions>
[ 6907 6896 6895 6894 ] final -151.47 input  -60.11 | X-H torsion
[ 7974 7965 7964 7962 ] final   23.01 input  175.53 | X-H torsion
[ 8008 7997 7996 7995 ] final  -31.27 input   59.86 | X-H torsion
[ 10167 10162 10161 10158 ] final -112.63 input  -65.29 | X-H torsion
[ 10718 10713 10712 10709 ] final  -68.84 input   66.30 | X-H torsion
[ 10763 10752 10751 10750 ] final -154.21 input  -60.55 | X-H torsion
[ 11005 11000 10999 10996 ] final  -92.51 input  -57.11 | X-H torsion

> <Gold.Protein.ActiveResidues>
 VAL166  LYS551  ARG553  GLY616  TRP617  ASP618  TYR619  PRO620  LYS621  CYS622 
 ASP623  PHE694  ASN695  SER759  ASP760  ASP761  ALA762  ILE779  LEU786  VAL792 
 PHE793  MET794  SER795  GLU796  ALA797  LYS798  CYS799  TRP800  GLU811  SER814 

> <Gold.Protein.RotatedAtoms>
  151.2135  133.4542  159.2598 H   0  0  0  0  0  0  0  0  0  0  0  0  # atno 6907 bound_to 6896
  151.0953  134.9940  159.8433 H   0  0  0  0  0  0  0  0  0  0  0  0  # atno 6908 bound_to 6896
  152.5438  134.2066  159.8786 H   0  0  0  0  0  0  0  0  0  0  0  0  # atno 6909 bound_to 6896
  146.2003  139.7805  142.8766 H   0  0  0  0  0  0  0  0  0  0  0  0  # atno 7974 bound_to 7965
  154.4220  140.1769  156.1540 H   0  0  0  0  0  0  0  0  0  0  0  0  # atno 8008 bound_to 7997
  155.9892  140.3370  155.6712 H   0  0  0  0  0  0  0  0  0  0  0  0  # atno 8009 bound_to 7997
  155.6395  140.0678  157.2613 H   0  0  0  0  0  0  0  0  0  0  0  0  # atno 8010 bound_to 7997
  140.1206  143.4447  152.1693 H   0  0  0  0  0  0  0  0  0  0  0  0  # atno 10167 bound_to 10162
  156.0485  130.4302  150.2060 H   0  0  0  0  0  0  0  0  0  0  0  0  # atno 10718 bound_to 10713
  154.7874  135.3195  154.7854 H   0  0  0  0  0  0  0  0  0  0  0  0  # atno 10763 bound_to 10752
  153.8551  135.6858  153.4792 H   0  0  0  0  0  0  0  0  0  0  0  0  # atno 10764 bound_to 10752
  153.1531  135.4691  154.9605 H   0  0  0  0  0  0  0  0  0  0  0  0  # atno 10765 bound_to 10752
  141.1520  133.7826  157.0030 H   0  0  0  0  0  0  0  0  0  0  0  0  # atno 11005 bound_to 11000
  145.3505  141.0306  143.3341 LP  0  0  0  0  0  0  0  0  0  0  0  0  # atno 17320 bound_to 7965
  144.8670  139.5094  143.6786 LP  0  0  0  0  0  0  0  0  0  0  0  0  # atno 17321 bound_to 7965
  139.5571  144.7380  151.4264 LP  0  0  0  0  0  0  0  0  0  0  0  0  # atno 17342 bound_to 10162
  140.6874  143.7942  150.7206 LP  0  0  0  0  0  0  0  0  0  0  0  0  # atno 17343 bound_to 10162
  157.0146  130.9961  151.3356 LP  0  0  0  0  0  0  0  0  0  0  0  0  # atno 17370 bound_to 10713
  157.5386  130.8105  149.8002 LP  0  0  0  0  0  0  0  0  0  0  0  0  # atno 17371 bound_to 10713
  140.0927  134.9582  157.1802 LP  0  0  0  0  0  0  0  0  0  0  0  0  # atno 17394 bound_to 11000
  140.3423  134.2690  155.7210 LP  0  0  0  0  0  0  0  0  0  0  0  0  # atno 17395 bound_to 11000

$$$$
