AV-unprocessed.smi:178|AV-procd|sdf|1447|dock6
  -GOLD-   2262019243D 1   1.00000     0.00000
 Structure written by MMmdl.
 50 52  0  0  0  0  0  0  0  0  1 V2000
  146.5246  137.6884  163.1411 C   0  0  0  0  0  0  0  0  0  0  0  0
  147.0756  137.2079  161.9272 O   0  0  0  0  0  0  0  0  0  0  0  0
  146.8141  135.8306  161.7200 C   0  0  0  0  0  0  0  0  0  0  0  0
  147.8994  135.2571  160.7954 C   0  0  0  0  0  0  0  0  0  0  0  0
  147.6097  135.4791  159.3769 N   0  0  0  0  0  0  0  0  0  0  0  0
  146.4692  134.7906  158.7783 C   0  0  0  0  0  0  0  0  0  0  0  0
  145.1472  135.5380  158.9977 C   0  0  0  0  0  0  0  0  0  0  0  0
  144.0146  134.8748  158.3359 C   0  0  0  0  0  0  0  0  0  0  0  0
  143.1229  134.3535  157.8151 N   0  0  0  0  0  0  0  0  0  0  0  0
  148.4902  136.1830  158.6078 C   0  0  0  0  0  0  0  0  0  0  0  0
  149.7487  136.3677  159.0897 N   0  0  0  0  0  0  0  0  0  0  0  0
  150.6594  137.0485  158.3906 C   0  0  0  0  0  0  0  0  0  0  0  0
  150.5304  137.6264  157.1972 N   0  0  0  0  0  0  0  0  0  0  0  0
  149.2752  137.4494  156.6973 C   0  0  0  0  0  0  0  0  0  0  0  0
  148.2039  136.7467  157.3248 C   0  0  0  0  0  0  0  0  0  0  0  0
  147.0918  136.7686  156.4881 N   0  0  0  0  0  0  0  0  0  0  0  0
  147.4769  137.4464  155.4432 C   0  0  0  0  0  0  0  0  0  0  0  0
  148.7721  137.9045  155.4907 N   0  0  0  0  0  0  0  0  0  0  0  0
  149.4556  138.6882  154.4737 C   0  0  0  0  0  0  0  0  0  0  0  0
  148.9831  140.1607  154.4063 C   0  0  1  0  0  0  0  0  0  0  0  0
  149.8109  140.8599  153.4909 O   0  0  0  0  0  0  0  0  0  0  0  0
  147.5438  140.2851  153.9278 C   0  0  0  0  0  0  0  0  0  0  0  0
  147.1111  141.6183  154.5220 C   0  0  0  0  0  0  0  0  0  0  0  0
  147.7182  141.6311  155.8050 O   0  0  0  0  0  0  0  0  0  0  0  0
  148.9346  140.8856  155.7760 C   0  0  2  0  0  0  0  0  0  0  0  0
  150.1225  141.8022  156.1182 C   0  0  0  0  0  0  0  0  0  0  0  0
  146.7460  138.7505  163.2480 H   0  0  0  0  0  0  0  0  0  0  0  0
  146.9492  137.1677  164.0004 H   0  0  0  0  0  0  0  0  0  0  0  0
  145.4408  137.5670  163.1586 H   0  0  0  0  0  0  0  0  0  0  0  0
  146.8112  135.3063  162.6767 H   0  0  0  0  0  0  0  0  0  0  0  0
  145.8267  135.7051  161.2745 H   0  0  0  0  0  0  0  0  0  0  0  0
  148.8530  135.7280  161.0362 H   0  0  0  0  0  0  0  0  0  0  0  0
  148.0416  134.1937  160.9910 H   0  0  0  0  0  0  0  0  0  0  0  0
  146.6488  134.6930  157.7072 H   0  0  0  0  0  0  0  0  0  0  0  0
  146.4039  133.7672  159.1462 H   0  0  0  0  0  0  0  0  0  0  0  0
  144.9110  135.6140  160.0588 H   0  0  0  0  0  0  0  0  0  0  0  0
  145.2104  136.5533  158.6072 H   0  0  0  0  0  0  0  0  0  0  0  0
  151.6299  137.1442  158.8547 H   0  0  0  0  0  0  0  0  0  0  0  0
  146.8190  137.6367  154.6078 H   0  0  0  0  0  0  0  0  0  0  0  0
  150.5287  138.6423  154.6651 H   0  0  0  0  0  0  0  0  0  0  0  0
  149.2976  138.1990  153.5115 H   0  0  0  0  0  0  0  0  0  0  0  0
  149.5003  140.6892  152.6149 H   0  0  0  0  0  0  0  0  0  0  0  0
  147.4357  140.2432  152.8432 H   0  0  0  0  0  0  0  0  0  0  0  0
  146.9312  139.4894  154.3545 H   0  0  0  0  0  0  0  0  0  0  0  0
  147.4983  142.4500  153.9318 H   0  0  0  0  0  0  0  0  0  0  0  0
  146.0278  141.7199  154.5888 H   0  0  0  0  0  0  0  0  0  0  0  0
  148.8359  140.1428  156.5682 H   0  0  0  0  0  0  0  0  0  0  0  0
  151.0667  141.2587  156.0851 H   0  0  0  0  0  0  0  0  0  0  0  0
  150.0136  142.2140  157.1218 H   0  0  0  0  0  0  0  0  0  0  0  0
  150.1938  142.6427  155.4276 H   0  0  0  0  0  0  0  0  0  0  0  0
  1  2  1  0  0  0  0
  1 27  1  0  0  0  0
  1 28  1  0  0  0  0
  1 29  1  0  0  0  0
  2  3  1  0  0  0  0
  3  4  1  0  0  0  0
  3 30  1  0  0  0  0
  3 31  1  0  0  0  0
  4  5  1  0  0  0  0
  4 32  1  0  0  0  0
  4 33  1  0  0  0  0
  5  6  1  0  0  0  0
  5 10  1  0  0  0  0
  6  7  1  0  0  0  0
  6 34  1  0  0  0  0
  6 35  1  0  0  0  0
  7  8  1  0  0  0  0
  7 36  1  0  0  0  0
  7 37  1  0  0  0  0
  8  9  3  0  0  0  0
 10 15  1  0  0  0  0
 10 11  2  0  0  0  0
 11 12  1  0  0  0  0
 12 13  2  0  0  0  0
 12 38  1  0  0  0  0
 13 14  1  0  0  0  0
 14 18  1  0  0  0  0
 14 15  2  0  0  0  0
 15 16  1  0  0  0  0
 16 17  2  0  0  0  0
 17 18  1  0  0  0  0
 17 39  1  0  0  0  0
 18 19  1  0  0  0  0
 19 20  1  0  0  0  0
 19 40  1  0  0  0  0
 19 41  1  0  0  0  0
 20 25  1  0  0  0  0
 20 21  1  0  0  0  0
 20 22  1  0  0  0  0
 21 42  1  0  0  0  0
 22 23  1  0  0  0  0
 22 43  1  0  0  0  0
 22 44  1  0  0  0  0
 23 24  1  0  0  0  0
 23 45  1  0  0  0  0
 23 46  1  0  0  0  0
 24 25  1  0  0  0  0
 25 26  1  0  0  0  0
 25 47  1  0  0  0  0
 26 48  1  0  0  0  0
 26 49  1  0  0  0  0
 26 50  1  0  0  0  0
M  END
> <s_m_source_file>
AV-unprocessed.smi

> <i_m_source_file_index>
178

> <i_lp_mmshare_version>
43012

> <i_f3d_flags>
0

> <s_epik_input>
W0NIM11PW0NIMl1bQ0gyXU4oW0NIMl1bQ0gyXUMjTiljKG5bY0hdbjEpYyhjMTIpbltjSF1uMltDSDJdW0NAQF0zKFtPSF0pW0NIMl1bQ0gyXU9bQ0BIXTNbQ0gzXQ==

> <s_epik_cmdline>
J2VwaWtfcHl0aG9uJywgJy1waCcsICc3LjAnLCAnLXRuJywgJzgnLCAnLW1hJywgJzIwMCcsICctbWV0YWxfYmluZGluZycsICctaW1hZScsICc8aW5maWxlLm1hZT4nLCAnLW9tYWUnLCAnPG91dGZpbGUubWFlPic=

> <r_lp_tautomer_probability>
1

> <r_epik_Ionization_Penalty>
0.000885317

> <r_epik_Ionization_Penalty_Charging>
0

> <r_epik_Ionization_Penalty_Neutral>
0.000885317

> <r_epik_State_Penalty>
0.00047273

> <r_epik_Charging_Adjusted_Penalty>
0.00047273

> <i_epik_Tot_Q>
0

> <i_epik_Tot_abs_Q>
0

> <r_epik_Metal_State_Penalty>
-0

> <b_epik_Metal_Only>
0

> <s_lp_Force_Field>
OPLS_2005

> <r_lp_Energy>
28.3017

> <b_lp_Chiralities_Consistent>
1

> <s_lp_Variant>
AV-unprocessed.smi:178-3

> <Gold.Version>
5.8.1

> <Gold.Id.Protein>
6NUR|6NUR_protein|mol2

> <Gold.PLP.Fitness>
41.1541

> <Gold.PLP.PLP>
-29.4756

> <Gold.PLP.part.hbond>
-6.3508

> <Gold.PLP.part.metal>
0.0000

> <Gold.PLP.part.buried>
-3.1206

> <Gold.PLP.part.nonpolar>
-20.4891

> <Gold.PLP.part.repulsive>
0.1579

> <Gold.PLP.ligand.clash>
0.0000

> <Gold.PLP.ligand.torsion>
0.9550

> <Gold.PLP.Chemscore.Hbond>
4.4803

> <Gold.PLP.Chemscore.CHOScore>
0.0000

> <Gold.PLP.Chemscore.Metal>
0.0000

> <Gold.Chemscore.Hbonds>
donor molecule, donor type, donor heavy atom, donor atom, acceptor molecule, acceptor atom, score
      L1  H    21    42       P1  7957  1.00
      P1  H  6896  6908       L1    11  1.00
      P1  H  6931  6943       L1     2  0.45
      P1  H  6934  6947       L1     2  0.66
      P1  H  7989  7998       L1    21  0.32
      P1  H 11000 11005       L1     9  0.81

> <Gold.PLP.Chemscore.Internal.Correction>
0.1474

> <Gold.Rescore>
     Score         DG    S(hbond)    S(metal)    S(lipo)     H(rot)  DE(clash)    DE(int)     intcor
     12.08     -13.30       2.70        0.00      63.50       3.37       0.21       1.01       ----

> <Gold.Chemscore.Fitness>
12.0778

> <Gold.Chemscore.DG>
-13.2976

> <Gold.Chemscore.ZeroCoef>
-5.4800

> <Gold.Chemscore.Hbond>
2.7016

> <Gold.Chemscore.Metal>
0.0000

> <Gold.Chemscore.Lipo>
63.5015

> <Gold.Chemscore.Internal_Hbond>
0.0000

> <Gold.Chemscore.DEClash>
0.2051

> <Gold.Chemscore.DEInternal>
1.0148

> <Gold.Chemscore.Rot>
3.3732

> <Gold.Chemscore.Internal.Correction>
   9.000000E+99

> <Gold.Chemscore.Hbonds>
donor molecule, donor type, donor heavy atom, donor atom, acceptor molecule, acceptor atom, score
      L1  H    21    42       P1  7957  0.96
      P1  H  6896  6908       L1    11  0.32
      P1  H  6931  6943       L1     2  0.12
      P1  H  6934  6947       L1     2  0.11
      P1  H  7989  7998       L1    21  0.21
      P1  H 11000 11005       L1     9  0.73

> <Gold.Chemscore.Hbond.Weighted>
-9.0233

> <Gold.Chemscore.Metal.Weighted>
-0.0000

> <Gold.Chemscore.Lipo.Weighted>
-7.4297

> <Gold.Chemscore.Internal_Hbond.Weighted>
0.0000

> <Gold.Chemscore.DEClash.Weighted>
0.2051

> <Gold.Chemscore.DEInternal.Weighted>
1.0148

> <Gold.Chemscore.Rot.Weighted>
8.6354

> <Gold.Chemscore.Internal.Correction.Weighted>
   9.000000E+99

> <Gold.Protein.RotatedTorsions>
[ 6907 6896 6895 6894 ] final -179.20 input  -60.11 | X-H torsion
[ 7974 7965 7964 7962 ] final   87.96 input  175.53 | X-H torsion
[ 8008 7997 7996 7995 ] final  -54.87 input   59.86 | X-H torsion
[ 10167 10162 10161 10158 ] final  -87.75 input  -65.29 | X-H torsion
[ 10718 10713 10712 10709 ] final  -82.27 input   66.30 | X-H torsion
[ 10763 10752 10751 10750 ] final -130.84 input  -60.55 | X-H torsion
[ 11005 11000 10999 10996 ] final -116.97 input  -57.11 | X-H torsion

> <Gold.Protein.ActiveResidues>
 VAL166  LYS551  ARG553  GLY616  TRP617  ASP618  TYR619  PRO620  LYS621  CYS622 
 ASP623  PHE694  ASN695  SER759  ASP760  ASP761  ALA762  ILE779  LEU786  VAL792 
 PHE793  MET794  SER795  GLU796  ALA797  LYS798  CYS799  TRP800  GLU811  SER814 

> <Gold.Protein.RotatedAtoms>
  151.6496  133.3321  159.3148 H   0  0  0  0  0  0  0  0  0  0  0  0  # atno 6907 bound_to 6896
  150.7967  134.7035  159.6573 H   0  0  0  0  0  0  0  0  0  0  0  0  # atno 6908 bound_to 6896
  152.4055  134.6219  160.0104 H   0  0  0  0  0  0  0  0  0  0  0  0  # atno 6909 bound_to 6896
  145.5521  139.2296  143.2507 H   0  0  0  0  0  0  0  0  0  0  0  0  # atno 7974 bound_to 7965
  154.4176  140.1166  156.5385 H   0  0  0  0  0  0  0  0  0  0  0  0  # atno 8008 bound_to 7997
  155.6532  140.3496  155.4736 H   0  0  0  0  0  0  0  0  0  0  0  0  # atno 8009 bound_to 7997
  155.9775  140.1153  157.0746 H   0  0  0  0  0  0  0  0  0  0  0  0  # atno 8010 bound_to 7997
  140.3814  143.2747  151.9378 H   0  0  0  0  0  0  0  0  0  0  0  0  # atno 10167 bound_to 10162
  156.0036  130.4629  150.4079 H   0  0  0  0  0  0  0  0  0  0  0  0  # atno 10718 bound_to 10713
  154.8754  135.3849  154.4149 H   0  0  0  0  0  0  0  0  0  0  0  0  # atno 10763 bound_to 10752
  153.4859  135.7030  153.5917 H   0  0  0  0  0  0  0  0  0  0  0  0  # atno 10764 bound_to 10752
  153.4312  135.3878  155.2138 H   0  0  0  0  0  0  0  0  0  0  0  0  # atno 10765 bound_to 10752
  141.0386  133.9870  157.3030 H   0  0  0  0  0  0  0  0  0  0  0  0  # atno 11005 bound_to 11000
  146.1910  140.6344  142.9146 LP  0  0  0  0  0  0  0  0  0  0  0  0  # atno 17320 bound_to 7965
  144.7524  140.5224  143.6792 LP  0  0  0  0  0  0  0  0  0  0  0  0  # atno 17321 bound_to 7965
  139.4795  144.5814  151.7925 LP  0  0  0  0  0  0  0  0  0  0  0  0  # atno 17342 bound_to 10162
  140.4933  144.1278  150.5955 LP  0  0  0  0  0  0  0  0  0  0  0  0  # atno 17343 bound_to 10162
  157.2144  131.0468  151.2581 LP  0  0  0  0  0  0  0  0  0  0  0  0  # atno 17370 bound_to 10713
  157.3859  130.7256  149.6663 LP  0  0  0  0  0  0  0  0  0  0  0  0  # atno 17371 bound_to 10713
  139.9259  135.0201  156.8232 LP  0  0  0  0  0  0  0  0  0  0  0  0  # atno 17394 bound_to 11000
  140.6276  133.9936  155.7647 LP  0  0  0  0  0  0  0  0  0  0  0  0  # atno 17395 bound_to 11000

$$$$
