AV-unprocessed.smi:1999|AV-procd|sdf|8095|dock2
  -GOLD-   2272010313D 1   1.00000     0.00000
 Structure written by MMmdl.
 39 40  0  0  0  0  0  0  0  0  2 V2000
  143.7651  133.4597  151.9603 C   0  0  0  0  0  0  0  0  0  0  0  0
  144.4503  134.7009  152.4206 C   0  0  0  0  0  0  0  0  0  0  0  0
  145.6557  134.6847  153.0025 N   0  0  0  0  0  0  0  0  0  0  0  0
  146.0905  135.9567  153.3471 N   0  0  0  0  0  0  0  0  0  0  0  0
  145.1974  136.8979  153.0120 C   0  0  0  0  0  0  0  0  0  0  0  0
  145.3832  138.2842  153.2576 N   0  0  0  0  0  0  0  0  0  0  0  0
  146.4778  138.9047  153.7310 C   0  0  0  0  0  0  0  0  0  0  0  0
  147.5478  138.3568  153.9964 O   0  0  0  0  0  0  0  0  0  0  0  0
  146.2609  140.2187  153.8938 N   0  0  0  0  0  0  0  0  0  0  0  0
  147.2389  141.2012  154.3641 C   0  0  1  0  0  0  0  0  0  0  0  0
  146.9863  142.5351  153.6483 C   0  0  0  0  0  0  0  0  0  0  0  0
  147.1802  141.3728  155.9005 C   0  0  0  0  0  0  0  0  0  0  0  0
  148.4388  141.9089  156.4783 N   0  3  0  0  0  0  0  0  0  0  0  0
  148.4587  141.9063  157.9613 C   0  0  0  0  0  0  0  0  0  0  0  0
  149.7554  142.5539  158.4743 C   0  0  0  0  0  0  0  0  0  0  0  0
  150.8756  141.8546  157.9451 O   0  0  0  0  0  0  0  0  0  0  0  0
  150.9154  141.9082  156.5241 C   0  0  0  0  0  0  0  0  0  0  0  0
  149.6523  141.2484  155.9440 C   0  0  0  0  0  0  0  0  0  0  0  0
  143.7353  136.2996  152.2471 S   0  0  0  0  0  0  0  0  0  0  0  0
  144.4390  132.8646  151.3436 H   0  0  0  0  0  0  0  0  0  0  0  0
  142.8828  133.7091  151.3703 H   0  0  0  0  0  0  0  0  0  0  0  0
  143.4552  132.8642  152.8191 H   0  0  0  0  0  0  0  0  0  0  0  0
  144.5840  138.8682  153.0599 H   0  0  0  0  0  0  0  0  0  0  0  0
  145.3494  140.5769  153.6480 H   0  0  0  0  0  0  0  0  0  0  0  0
  148.2384  140.8738  154.0747 H   0  0  0  0  0  0  0  0  0  0  0  0
  147.7210  143.2844  153.9445 H   0  0  0  0  0  0  0  0  0  0  0  0
  145.9967  142.9312  153.8791 H   0  0  0  0  0  0  0  0  0  0  0  0
  147.0552  142.4198  152.5660 H   0  0  0  0  0  0  0  0  0  0  0  0
  146.3467  142.0166  156.1861 H   0  0  0  0  0  0  0  0  0  0  0  0
  146.9720  140.3968  156.3418 H   0  0  0  0  0  0  0  0  0  0  0  0
  147.6017  142.4510  158.3559 H   0  0  0  0  0  0  0  0  0  0  0  0
  148.3826  140.8820  158.3291 H   0  0  0  0  0  0  0  0  0  0  0  0
  149.8021  143.6081  158.1958 H   0  0  0  0  0  0  0  0  0  0  0  0
  149.7923  142.5098  159.5629 H   0  0  0  0  0  0  0  0  0  0  0  0
  151.0017  142.9436  156.1900 H   0  0  0  0  0  0  0  0  0  0  0  0
  151.8066  141.3859  156.1757 H   0  0  0  0  0  0  0  0  0  0  0  0
  149.6327  140.1863  156.1940 H   0  0  0  0  0  0  0  0  0  0  0  0
  149.6683  141.3238  154.8562 H   0  0  0  0  0  0  0  0  0  0  0  0
  148.4945  142.8754  156.1884 H   0  0  0  0  0  0  0  0  0  0  0  0
  1  2  1  0  0  0  0
  1 20  1  0  0  0  0
  1 21  1  0  0  0  0
  1 22  1  0  0  0  0
  2 19  1  0  0  0  0
  2  3  2  0  0  0  0
  3  4  1  0  0  0  0
  4  5  2  0  0  0  0
  5  6  1  0  0  0  0
  5 19  1  0  0  0  0
  6  7  1  0  0  0  0
  6 23  1  0  0  0  0
  7  8  2  0  0  0  0
  7  9  1  0  0  0  0
  9 10  1  0  0  0  0
  9 24  1  0  0  0  0
 10 11  1  0  0  0  0
 10 12  1  0  0  0  0
 10 25  1  0  0  0  0
 11 26  1  0  0  0  0
 11 27  1  0  0  0  0
 11 28  1  0  0  0  0
 12 13  1  0  0  0  0
 12 29  1  0  0  0  0
 12 30  1  0  0  0  0
 13 18  1  0  0  0  0
 13 14  1  0  0  0  0
 13 39  1  0  0  0  0
 14 15  1  0  0  0  0
 14 31  1  0  0  0  0
 14 32  1  0  0  0  0
 15 16  1  0  0  0  0
 15 33  1  0  0  0  0
 15 34  1  0  0  0  0
 16 17  1  0  0  0  0
 17 18  1  0  0  0  0
 17 35  1  0  0  0  0
 17 36  1  0  0  0  0
 18 37  1  0  0  0  0
 18 38  1  0  0  0  0
M  CHG  1  13   1
M  END
> <s_m_source_file>
AV-unprocessed.smi

> <i_m_source_file_index>
1999

> <i_lp_mmshare_version>
43012

> <i_f3d_flags>
0

> <s_epik_input>
W0NIM11jMW5uYyhzMSlbTkhdQyg9TylbTkhdW0NASF0oW0NIM10pW0NIMl1OMltDSDJdW0NIMl1PW0NIMl1bQ0gyXTI=

> <s_epik_cmdline>
J2VwaWtfcHl0aG9uJywgJy1waCcsICc3LjAnLCAnLXRuJywgJzgnLCAnLW1hJywgJzIwMCcsICctbWV0YWxfYmluZGluZycsICctaW1hZScsICc8aW5maWxlLm1hZT4nLCAnLW9tYWUnLCAnPG91dGZpbGUubWFlPic=

> <r_lp_tautomer_probability>
1

> <r_epik_Ionization_Penalty>
0.701298

> <r_epik_Ionization_Penalty_Charging>
0.695697

> <r_epik_Ionization_Penalty_Neutral>
0.00560124

> <r_epik_State_Penalty>
0.717972

> <r_epik_Charging_Adjusted_Penalty>
1.41367

> <i_epik_Tot_Q>
1

> <i_epik_Tot_abs_Q>
1

> <r_epik_Metal_State_Penalty>
1.07748

> <b_epik_Metal_Only>
0

> <s_lp_Force_Field>
OPLS_2005

> <r_lp_Energy>
20.3005

> <b_lp_Chiralities_Consistent>
1

> <s_lp_Variant>
AV-unprocessed.smi:1999-4

> <Gold.Version>
5.8.1

> <Gold.Id.Protein>
6NUR|6NUR_protein|mol2

> <Gold.PLP.Fitness>
35.0916

> <Gold.PLP.PLP>
-24.4332

> <Gold.PLP.part.hbond>
-3.0000

> <Gold.PLP.part.metal>
0.0000

> <Gold.PLP.part.buried>
-6.5086

> <Gold.PLP.part.nonpolar>
-15.1917

> <Gold.PLP.part.repulsive>
1.2139

> <Gold.PLP.ligand.clash>
0.0000

> <Gold.PLP.ligand.torsion>
0.6592

> <Gold.PLP.Chemscore.Hbond>
3.9760

> <Gold.PLP.Chemscore.CHOScore>
0.0000

> <Gold.PLP.Chemscore.Metal>
0.0000

> <Gold.Chemscore.Hbonds>
donor molecule, donor type, donor heavy atom, donor atom, acceptor molecule, acceptor atom, score
      L1  H     6    23       P1 10175  1.00
      L1  H     9    24       P1 10175  0.98
      L1  H    13    39       P1  8028  2.00

> <Gold.PLP.Chemscore.Internal.Correction>
0.0489

> <Gold.Rescore>
     Score         DG    S(hbond)    S(metal)    S(lipo)     H(rot)  DE(clash)    DE(int)     intcor
     13.77     -17.32       2.86        0.00      55.26       1.63       1.62       1.93       ----

> <Gold.Chemscore.Fitness>
13.7684

> <Gold.Chemscore.DG>
-17.3174

> <Gold.Chemscore.ZeroCoef>
-5.4800

> <Gold.Chemscore.Hbond>
2.8590

> <Gold.Chemscore.Metal>
0.0000

> <Gold.Chemscore.Lipo>
55.2607

> <Gold.Chemscore.Internal_Hbond>
0.0000

> <Gold.Chemscore.DEClash>
1.6181

> <Gold.Chemscore.DEInternal>
1.9309

> <Gold.Chemscore.Rot>
1.6317

> <Gold.Chemscore.Internal.Correction>
   9.000000E+99

> <Gold.Chemscore.Hbonds>
donor molecule, donor type, donor heavy atom, donor atom, acceptor molecule, acceptor atom, score
      L1  H     6    23       P1 10175  0.98
      L1  H     9    24       P1 10175  0.85
      L1  H    13    39       P1  8028  0.93

> <Gold.Chemscore.Hbond.Weighted>
-9.5492

> <Gold.Chemscore.Metal.Weighted>
-0.0000

> <Gold.Chemscore.Lipo.Weighted>
-6.4655

> <Gold.Chemscore.Internal_Hbond.Weighted>
0.0000

> <Gold.Chemscore.DEClash.Weighted>
1.6181

> <Gold.Chemscore.DEInternal.Weighted>
1.9309

> <Gold.Chemscore.Rot.Weighted>
4.1773

> <Gold.Chemscore.Internal.Correction.Weighted>
   9.000000E+99

> <Gold.Protein.RotatedTorsions>
[ 6907 6896 6895 6894 ] final  170.76 input  -60.11 | X-H torsion
[ 7974 7965 7964 7962 ] final -102.98 input  175.53 | X-H torsion
[ 8008 7997 7996 7995 ] final -153.77 input   59.86 | X-H torsion
[ 10167 10162 10161 10158 ] final   43.02 input  -65.29 | X-H torsion
[ 10718 10713 10712 10709 ] final   83.95 input   66.30 | X-H torsion
[ 10763 10752 10751 10750 ] final    6.31 input  -60.55 | X-H torsion
[ 11005 11000 10999 10996 ] final  171.83 input  -57.11 | X-H torsion

> <Gold.Protein.ActiveResidues>
 VAL166  LYS551  ARG553  GLY616  TRP617  ASP618  TYR619  PRO620  LYS621  CYS622 
 ASP623  PHE694  ASN695  SER759  ASP760  ASP761  ALA762  ILE779  LEU786  VAL792 
 PHE793  MET794  SER795  GLU796  ALA797  LYS798  CYS799  TRP800  GLU811  SER814 

> <Gold.Protein.RotatedAtoms>
  151.8110  133.3381  159.3554 H   0  0  0  0  0  0  0  0  0  0  0  0  # atno 6907 bound_to 6896
  150.7326  134.5664  159.5877 H   0  0  0  0  0  0  0  0  0  0  0  0  # atno 6908 bound_to 6896
  152.3075  134.7538  160.0395 H   0  0  0  0  0  0  0  0  0  0  0  0  # atno 6909 bound_to 6896
  145.2618  140.9271  143.3037 H   0  0  0  0  0  0  0  0  0  0  0  0  # atno 7974 bound_to 7965
  155.6759  140.0738  157.2503 H   0  0  0  0  0  0  0  0  0  0  0  0  # atno 8008 bound_to 7997
  154.4114  140.1690  156.1981 H   0  0  0  0  0  0  0  0  0  0  0  0  # atno 8009 bound_to 7997
  155.9576  140.3372  155.6465 H   0  0  0  0  0  0  0  0  0  0  0  0  # atno 8010 bound_to 7997
  140.3485  144.2380  150.6148 H   0  0  0  0  0  0  0  0  0  0  0  0  # atno 10167 bound_to 10162
  157.6889  131.0113  150.2600 H   0  0  0  0  0  0  0  0  0  0  0  0  # atno 10718 bound_to 10713
  153.2492  135.6912  153.7697 H   0  0  0  0  0  0  0  0  0  0  0  0  # atno 10763 bound_to 10752
  153.6798  135.3330  155.3176 H   0  0  0  0  0  0  0  0  0  0  0  0  # atno 10764 bound_to 10752
  154.8387  135.4520  154.1443 H   0  0  0  0  0  0  0  0  0  0  0  0  # atno 10765 bound_to 10752
  140.3232  134.7419  157.4080 H   0  0  0  0  0  0  0  0  0  0  0  0  # atno 11005 bound_to 11000
  144.9412  139.4187  143.6448 LP  0  0  0  0  0  0  0  0  0  0  0  0  # atno 17320 bound_to 7965
  146.3273  139.8373  142.8897 LP  0  0  0  0  0  0  0  0  0  0  0  0  # atno 17321 bound_to 7965
  140.5241  143.2258  151.8342 LP  0  0  0  0  0  0  0  0  0  0  0  0  # atno 17342 bound_to 10162
  139.4830  144.4801  151.9318 LP  0  0  0  0  0  0  0  0  0  0  0  0  # atno 17343 bound_to 10162
  156.3182  130.3782  149.7599 LP  0  0  0  0  0  0  0  0  0  0  0  0  # atno 17370 bound_to 10713
  156.5178  130.8201  151.3192 LP  0  0  0  0  0  0  0  0  0  0  0  0  # atno 17371 bound_to 10713
  140.0924  134.5583  155.8432 LP  0  0  0  0  0  0  0  0  0  0  0  0  # atno 17394 bound_to 11000
  141.2081  133.6671  156.6352 LP  0  0  0  0  0  0  0  0  0  0  0  0  # atno 17395 bound_to 11000

$$$$
