AV-unprocessed.smi:2976|AV-procd|sdf|11366|dock6
  -GOLD-   2272016283D 1   1.00000     0.00000
 Structure written by MMmdl.
 40 41  0  0  0  0  0  0  0  0  1 V2000
  145.6808  143.5097  153.5987 C   0  0  0  0  0  0  0  0  0  0  0  0
  146.3830  142.7676  154.7498 C   0  0  1  0  0  0  0  0  0  0  0  0
  145.6521  143.0574  156.0775 C   0  0  0  0  0  0  0  0  0  0  0  0
  146.3116  142.3507  157.2688 C   0  0  0  0  0  0  0  0  0  0  0  0
  146.3999  140.8370  157.0275 C   0  0  0  0  0  0  0  0  0  0  0  0
  147.1401  140.5115  155.7155 C   0  0  2  0  0  0  0  0  0  0  0  0
  148.5552  140.8569  155.8247 N   0  0  0  0  0  0  0  0  0  0  0  0
  149.5545  140.0390  156.1937 C   0  0  0  0  0  0  0  0  0  0  0  0
  149.3769  138.8607  156.4993 O   0  0  0  0  0  0  0  0  0  0  0  0
  150.9784  140.6222  156.2329 C   0  0  0  0  0  0  0  0  0  0  0  0
  151.2326  141.5382  157.3584 N   0  0  0  0  0  0  0  0  0  0  0  0
  150.4050  142.6476  157.3792 N   0  0  0  0  0  0  0  0  0  0  0  0
  150.5679  143.5436  158.2906 C   0  0  0  0  0  0  0  0  0  0  0  0
  151.5908  143.4316  159.3066 C   0  0  0  0  0  0  0  0  0  0  0  0
  151.7636  144.6670  160.5025 Cl  0  0  0  0  0  0  0  0  0  0  0  0
  152.3920  142.3370  159.2817 C   0  0  0  0  0  0  0  0  0  0  0  0
  153.6406  142.1343  160.4622 Cl  0  0  0  0  0  0  0  0  0  0  0  0
  152.2369  141.2960  158.2565 C   0  0  0  0  0  0  0  0  0  0  0  0
  152.9535  140.2966  158.1908 O   0  0  0  0  0  0  0  0  0  0  0  0
  146.4949  141.2356  154.5050 C   0  0  2  0  0  0  0  0  0  0  0  0
  147.2288  140.8884  153.1929 C   0  0  0  0  0  0  0  0  0  0  0  0
  144.6842  143.1067  153.4167 H   0  0  0  0  0  0  0  0  0  0  0  0
  146.2458  143.4439  152.6693 H   0  0  0  0  0  0  0  0  0  0  0  0
  145.5718  144.5703  153.8270 H   0  0  0  0  0  0  0  0  0  0  0  0
  147.3911  143.1771  154.8303 H   0  0  0  0  0  0  0  0  0  0  0  0
  145.6304  144.1317  156.2643 H   0  0  0  0  0  0  0  0  0  0  0  0
  144.6113  142.7394  156.0010 H   0  0  0  0  0  0  0  0  0  0  0  0
  147.3084  142.7612  157.4350 H   0  0  0  0  0  0  0  0  0  0  0  0
  145.7432  142.5478  158.1780 H   0  0  0  0  0  0  0  0  0  0  0  0
  146.8893  140.3519  157.8727 H   0  0  0  0  0  0  0  0  0  0  0  0
  145.3924  140.4214  156.9835 H   0  0  0  0  0  0  0  0  0  0  0  0
  147.0640  139.4364  155.5415 H   0  0  0  0  0  0  0  0  0  0  0  0
  148.7989  141.8092  155.5946 H   0  0  0  0  0  0  0  0  0  0  0  0
  151.6805  139.7874  156.2714 H   0  0  0  0  0  0  0  0  0  0  0  0
  151.1790  141.1211  155.2830 H   0  0  0  0  0  0  0  0  0  0  0  0
  149.9428  144.4350  158.3443 H   0  0  0  0  0  0  0  0  0  0  0  0
  145.4802  140.8456  154.4096 H   0  0  0  0  0  0  0  0  0  0  0  0
  148.2127  141.3565  153.1436 H   0  0  0  0  0  0  0  0  0  0  0  0
  146.6639  141.2109  152.3187 H   0  0  0  0  0  0  0  0  0  0  0  0
  147.3694  139.8114  153.0973 H   0  0  0  0  0  0  0  0  0  0  0  0
  1  2  1  0  0  0  0
  1 22  1  0  0  0  0
  1 23  1  0  0  0  0
  1 24  1  0  0  0  0
  2 20  1  0  0  0  0
  2  3  1  0  0  0  0
  2 25  1  0  0  0  0
  3  4  1  0  0  0  0
  3 26  1  0  0  0  0
  3 27  1  0  0  0  0
  4  5  1  0  0  0  0
  4 28  1  0  0  0  0
  4 29  1  0  0  0  0
  5  6  1  0  0  0  0
  5 30  1  0  0  0  0
  5 31  1  0  0  0  0
  6  7  1  0  0  0  0
  6 20  1  0  0  0  0
  6 32  1  0  0  0  0
  7  8  1  0  0  0  0
  7 33  1  0  0  0  0
  8  9  2  0  0  0  0
  8 10  1  0  0  0  0
 10 11  1  0  0  0  0
 10 34  1  0  0  0  0
 10 35  1  0  0  0  0
 11 18  1  0  0  0  0
 11 12  1  0  0  0  0
 12 13  2  0  0  0  0
 13 14  1  0  0  0  0
 13 36  1  0  0  0  0
 14 15  1  0  0  0  0
 14 16  2  0  0  0  0
 16 17  1  0  0  0  0
 16 18  1  0  0  0  0
 18 19  2  0  0  0  0
 20 21  1  0  0  0  0
 20 37  1  0  0  0  0
 21 38  1  0  0  0  0
 21 39  1  0  0  0  0
 21 40  1  0  0  0  0
M  END
> <s_m_source_file>
AV-unprocessed.smi

> <i_m_source_file_index>
2976

> <i_lp_mmshare_version>
43012

> <i_f3d_flags>
0

> <s_epik_input>
W0NIM11bQ0BASF0xW0NIMl1bQ0gyXVtDSDJdW0NASF0oW0NASF0xW0NIM10pW05IXUMoPU8pW0NIMl1uMm5bY0hdYyhDbCljKENsKWMyPU8=

> <s_epik_cmdline>
J2VwaWtfcHl0aG9uJywgJy1waCcsICc3LjAnLCAnLXRuJywgJzgnLCAnLW1hJywgJzIwMCcsICctbWV0YWxfYmluZGluZycsICctaW1hZScsICc8aW5maWxlLm1hZT4nLCAnLW9tYWUnLCAnPG91dGZpbGUubWFlPic=

> <r_lp_tautomer_probability>
1

> <r_epik_Ionization_Penalty>
1.90777e-08

> <r_epik_Ionization_Penalty_Charging>
3.07942e-11

> <r_epik_Ionization_Penalty_Neutral>
1.90469e-08

> <r_epik_State_Penalty>
-0

> <r_epik_Charging_Adjusted_Penalty>
3.07942e-11

> <i_epik_Tot_Q>
0

> <i_epik_Tot_abs_Q>
0

> <r_epik_Metal_State_Penalty>
-0

> <b_epik_Metal_Only>
0

> <s_lp_Force_Field>
OPLS_2005

> <r_lp_Energy>
24.1651

> <b_lp_Chiralities_Consistent>
1

> <s_lp_Variant>
AV-unprocessed.smi:2976-8

> <Gold.Version>
5.8.1

> <Gold.Id.Protein>
6NUR|6NUR_protein|mol2

> <Gold.PLP.Fitness>
39.8879

> <Gold.PLP.PLP>
-36.7270

> <Gold.PLP.part.hbond>
-1.0000

> <Gold.PLP.part.metal>
0.0000

> <Gold.PLP.part.buried>
-4.9241

> <Gold.PLP.part.nonpolar>
-31.8126

> <Gold.PLP.part.repulsive>
0.4465

> <Gold.PLP.ligand.clash>
0.0000

> <Gold.PLP.ligand.torsion>
0.4994

> <Gold.PLP.Chemscore.Hbond>
0.9280

> <Gold.PLP.Chemscore.CHOScore>
0.4551

> <Gold.PLP.Chemscore.Metal>
0.0000

> <Gold.Chemscore.Hbonds>
donor molecule, donor type, donor heavy atom, donor atom, acceptor molecule, acceptor atom, score
      P1  H  7997  8009       L1    19  0.93
      L1  C    13    36       P1  8028  0.05
      L1  C    13    36       P1  8029  0.39

> <Gold.PLP.Chemscore.Internal.Correction>
0.0105

> <Gold.Rescore>
     Score         DG    S(hbond)    S(metal)    S(lipo)     H(rot)  DE(clash)    DE(int)     intcor
     14.47     -15.14       0.97        0.00      87.39       1.49       0.07       0.61       ----

> <Gold.Chemscore.Fitness>
14.4662

> <Gold.Chemscore.DG>
-15.1427

> <Gold.Chemscore.ZeroCoef>
-5.4800

> <Gold.Chemscore.Hbond>
0.9710

> <Gold.Chemscore.Metal>
0.0000

> <Gold.Chemscore.Lipo>
87.3948

> <Gold.Chemscore.Internal_Hbond>
0.0000

> <Gold.Chemscore.DEClash>
0.0664

> <Gold.Chemscore.DEInternal>
0.6101

> <Gold.Chemscore.Rot>
1.4866

> <Gold.Chemscore.Internal.Correction>
   9.000000E+99

> <Gold.Chemscore.Hbonds>
donor molecule, donor type, donor heavy atom, donor atom, acceptor molecule, acceptor atom, score
      P1  H  7997  8009       L1    19  0.84

> <Gold.Chemscore.Hbond.Weighted>
-3.2432

> <Gold.Chemscore.Metal.Weighted>
-0.0000

> <Gold.Chemscore.Lipo.Weighted>
-10.2252

> <Gold.Chemscore.Internal_Hbond.Weighted>
0.0000

> <Gold.Chemscore.DEClash.Weighted>
0.0664

> <Gold.Chemscore.DEInternal.Weighted>
0.6101

> <Gold.Chemscore.Rot.Weighted>
3.8057

> <Gold.Chemscore.Internal.Correction.Weighted>
   9.000000E+99

> <Gold.Protein.RotatedTorsions>
[ 6907 6896 6895 6894 ] final  117.18 input  -60.11 | X-H torsion
[ 7974 7965 7964 7962 ] final   -3.51 input  175.53 | X-H torsion
[ 8008 7997 7996 7995 ] final  156.31 input   59.86 | X-H torsion
[ 10167 10162 10161 10158 ] final  -79.08 input  -65.29 | X-H torsion
[ 10718 10713 10712 10709 ] final -164.30 input   66.30 | X-H torsion
[ 10763 10752 10751 10750 ] final   37.31 input  -60.55 | X-H torsion
[ 11005 11000 10999 10996 ] final  -84.77 input  -57.11 | X-H torsion

> <Gold.Protein.ActiveResidues>
 VAL166  LYS551  ARG553  GLY616  TRP617  ASP618  TYR619  PRO620  LYS621  CYS622 
 ASP623  PHE694  ASN695  SER759  ASP760  ASP761  ALA762  ILE779  LEU786  VAL792 
 PHE793  MET794  SER795  GLU796  ALA797  LYS798  CYS799  TRP800  GLU811  SER814 

> <Gold.Protein.RotatedAtoms>
  152.4629  133.7860  159.6875 H   0  0  0  0  0  0  0  0  0  0  0  0  # atno 6907 bound_to 6896
  150.8580  133.7676  159.3008 H   0  0  0  0  0  0  0  0  0  0  0  0  # atno 6908 bound_to 6896
  151.5251  135.1071  159.9940 H   0  0  0  0  0  0  0  0  0  0  0  0  # atno 6909 bound_to 6896
  146.2388  140.1732  142.8332 H   0  0  0  0  0  0  0  0  0  0  0  0  # atno 7974 bound_to 7965
  156.2429  140.1916  156.6936 H   0  0  0  0  0  0  0  0  0  0  0  0  # atno 8008 bound_to 7997
  154.6234  140.0605  156.9669 H   0  0  0  0  0  0  0  0  0  0  0  0  # atno 8009 bound_to 7997
  155.1826  140.3277  155.4375 H   0  0  0  0  0  0  0  0  0  0  0  0  # atno 8010 bound_to 7997
  140.4625  143.2449  151.8327 H   0  0  0  0  0  0  0  0  0  0  0  0  # atno 10167 bound_to 10162
  156.6370  130.8953  151.2989 H   0  0  0  0  0  0  0  0  0  0  0  0  # atno 10718 bound_to 10713
  153.0042  135.6281  154.2125 H   0  0  0  0  0  0  0  0  0  0  0  0  # atno 10763 bound_to 10752
  154.1868  135.2810  155.3036 H   0  0  0  0  0  0  0  0  0  0  0  0  # atno 10764 bound_to 10752
  154.5791  135.5653  153.7227 H   0  0  0  0  0  0  0  0  0  0  0  0  # atno 10765 bound_to 10752
  141.1647  133.7363  156.8916 H   0  0  0  0  0  0  0  0  0  0  0  0  # atno 11005 bound_to 11000
  144.9995  140.8619  143.5290 LP  0  0  0  0  0  0  0  0  0  0  0  0  # atno 17320 bound_to 7965
  145.1749  139.2384  143.5323 LP  0  0  0  0  0  0  0  0  0  0  0  0  # atno 17321 bound_to 7965
  139.4808  144.4990  151.9086 LP  0  0  0  0  0  0  0  0  0  0  0  0  # atno 17342 bound_to 10162
  140.4075  144.2412  150.5890 LP  0  0  0  0  0  0  0  0  0  0  0  0  # atno 17343 bound_to 10162
  157.7182  130.9525  150.1337 LP  0  0  0  0  0  0  0  0  0  0  0  0  # atno 17370 bound_to 10713
  156.2189  130.3672  149.8580 LP  0  0  0  0  0  0  0  0  0  0  0  0  # atno 17371 bound_to 10713
  140.1644  134.9143  157.2756 LP  0  0  0  0  0  0  0  0  0  0  0  0  # atno 17394 bound_to 11000
  140.2573  134.3612  155.7419 LP  0  0  0  0  0  0  0  0  0  0  0  0  # atno 17395 bound_to 11000

$$$$
