AV-unprocessed.smi:2229|AV-procd|sdf|9030|dock1
  -GOLD-   2272012233D 1   1.00000     0.00000
 Structure written by MMmdl.
 44 45  0  0  0  0  0  0  0  0  1 V2000
  154.4991  138.5205  160.4352 C   0  0  0  0  0  0  0  0  0  0  0  0
  154.6728  140.0239  160.7095 C   0  0  0  0  0  0  0  0  0  0  0  0
  155.1112  140.2520  162.1645 C   0  0  0  0  0  0  0  0  0  0  0  0
  153.4003  140.8359  160.3900 C   0  0  0  0  0  0  0  0  0  0  0  0
  153.6707  142.2924  159.9682 C   0  0  0  0  0  0  0  0  0  0  0  0
  152.3885  143.0859  159.6537 C   0  0  1  0  0  0  0  0  0  0  0  0
  152.3977  144.5310  160.1661 C   0  0  0  0  0  0  0  0  0  0  0  0
  151.3599  145.2400  159.3032 C   0  0  0  0  0  0  0  0  0  0  0  0
  151.5404  144.6251  157.9155 C   0  0  0  0  0  0  0  0  0  0  0  0
  152.0956  143.2023  158.1414 C   0  0  2  0  0  0  0  0  0  0  0  0
  151.1456  142.1766  157.7172 N   0  0  0  0  0  0  0  0  0  0  0  0
  151.4349  140.8765  157.5567 C   0  0  0  0  0  0  0  0  0  0  0  0
  152.5524  140.4028  157.7668 O   0  0  0  0  0  0  0  0  0  0  0  0
  150.2767  139.9743  157.1126 C   0  0  0  0  0  0  0  0  0  0  0  0
  149.8662  140.2245  155.7299 N   0  0  0  0  0  0  0  0  0  0  0  0
  149.3720  141.4338  155.2887 C   0  0  0  0  0  0  0  0  0  0  0  0
  149.0725  141.4021  154.0349 N   0  0  0  0  0  0  0  0  0  0  0  0
  149.3891  140.1312  153.6884 N   0  0  0  0  0  0  0  0  0  0  0  0
  149.8692  139.3940  154.6911 C   0  0  0  0  0  0  0  0  0  0  0  0
  150.2314  138.2193  154.6567 O   0  0  0  0  0  0  0  0  0  0  0  0
  149.2476  139.8295  152.7351 H   0  0  0  0  0  0  0  0  0  0  0  0
  153.6819  138.1023  161.0237 H   0  0  0  0  0  0  0  0  0  0  0  0
  155.4052  137.9706  160.6899 H   0  0  0  0  0  0  0  0  0  0  0  0
  154.2911  138.3214  159.3844 H   0  0  0  0  0  0  0  0  0  0  0  0
  155.4766  140.3903  160.0697 H   0  0  0  0  0  0  0  0  0  0  0  0
  154.3485  139.9131  162.8661 H   0  0  0  0  0  0  0  0  0  0  0  0
  155.2976  141.3084  162.3600 H   0  0  0  0  0  0  0  0  0  0  0  0
  156.0321  139.7124  162.3878 H   0  0  0  0  0  0  0  0  0  0  0  0
  152.8257  140.3283  159.6142 H   0  0  0  0  0  0  0  0  0  0  0  0
  152.7655  140.8455  161.2765 H   0  0  0  0  0  0  0  0  0  0  0  0
  154.2362  142.8030  160.7488 H   0  0  0  0  0  0  0  0  0  0  0  0
  154.3024  142.3005  159.0802 H   0  0  0  0  0  0  0  0  0  0  0  0
  151.5456  142.5834  160.1326 H   0  0  0  0  0  0  0  0  0  0  0  0
  152.1680  144.6020  161.2297 H   0  0  0  0  0  0  0  0  0  0  0  0
  153.3775  144.9828  160.0054 H   0  0  0  0  0  0  0  0  0  0  0  0
  150.3594  145.0175  159.6763 H   0  0  0  0  0  0  0  0  0  0  0  0
  151.4826  146.3234  159.3017 H   0  0  0  0  0  0  0  0  0  0  0  0
  150.6106  144.6452  157.3450 H   0  0  0  0  0  0  0  0  0  0  0  0
  152.2704  145.2080  157.3526 H   0  0  0  0  0  0  0  0  0  0  0  0
  153.0223  143.0922  157.5744 H   0  0  0  0  0  0  0  0  0  0  0  0
  150.2012  142.4804  157.5288 H   0  0  0  0  0  0  0  0  0  0  0  0
  150.5772  138.9331  157.2412 H   0  0  0  0  0  0  0  0  0  0  0  0
  149.4169  140.1294  157.7668 H   0  0  0  0  0  0  0  0  0  0  0  0
  149.2767  142.2666  155.9874 H   0  0  0  0  0  0  0  0  0  0  0  0
  1  2  1  0  0  0  0
  1 22  1  0  0  0  0
  1 23  1  0  0  0  0
  1 24  1  0  0  0  0
  2  3  1  0  0  0  0
  2  4  1  0  0  0  0
  2 25  1  0  0  0  0
  3 26  1  0  0  0  0
  3 27  1  0  0  0  0
  3 28  1  0  0  0  0
  4  5  1  0  0  0  0
  4 29  1  0  0  0  0
  4 30  1  0  0  0  0
  5  6  1  0  0  0  0
  5 31  1  0  0  0  0
  5 32  1  0  0  0  0
  6 10  1  0  0  0  0
  6  7  1  0  0  0  0
  6 33  1  0  0  0  0
  7  8  1  0  0  0  0
  7 34  1  0  0  0  0
  7 35  1  0  0  0  0
  8  9  1  0  0  0  0
  8 36  1  0  0  0  0
  8 37  1  0  0  0  0
  9 10  1  0  0  0  0
  9 38  1  0  0  0  0
  9 39  1  0  0  0  0
 10 11  1  0  0  0  0
 10 40  1  0  0  0  0
 11 12  1  0  0  0  0
 11 41  1  0  0  0  0
 12 13  2  0  0  0  0
 12 14  1  0  0  0  0
 14 15  1  0  0  0  0
 14 42  1  0  0  0  0
 14 43  1  0  0  0  0
 15 19  1  0  0  0  0
 15 16  1  0  0  0  0
 16 17  2  0  0  0  0
 16 44  1  0  0  0  0
 17 18  1  0  0  0  0
 18 21  1  0  0  0  0
 18 19  1  0  0  0  0
 19 20  2  0  0  0  0
M  END
> <s_m_source_file>
AV-unprocessed.smi

> <i_m_source_file_index>
2229

> <i_lp_mmshare_version>
43012

> <i_f3d_flags>
0

> <s_epik_input>
W0NIM11bQ0hdKFtDSDNdKVtDSDJdW0NIMl1bQ0BASF0xW0NIMl1bQ0gyXVtDSDJdW0NASF0xW05IXUMoPU8pW0NIMl1uMltjSF1uW25IXWMyPU8=

> <s_epik_cmdline>
J2VwaWtfcHl0aG9uJywgJy1waCcsICc3LjAnLCAnLXRuJywgJzgnLCAnLW1hJywgJzIwMCcsICctbWV0YWxfYmluZGluZycsICctaW1hZScsICc8aW5maWxlLm1hZT4nLCAnLW9tYWUnLCAnPG91dGZpbGUubWFlPic=

> <r_lp_tautomer_probability>
1

> <r_epik_Ionization_Penalty>
4.14174e-05

> <r_epik_Ionization_Penalty_Charging>
4.13165e-05

> <r_epik_Ionization_Penalty_Neutral>
1.00911e-07

> <r_epik_State_Penalty>
-0

> <r_epik_Charging_Adjusted_Penalty>
4.13165e-05

> <i_epik_Tot_Q>
0

> <i_epik_Tot_abs_Q>
0

> <r_epik_Metal_State_Penalty>
0.0399369

> <b_epik_Metal_Only>
0

> <s_lp_Force_Field>
OPLS_2005

> <r_lp_Energy>
37.2399

> <b_lp_Chiralities_Consistent>
1

> <s_lp_Variant>
AV-unprocessed.smi:2229-4

> <Gold.Version>
5.8.1

> <Gold.Id.Protein>
6NUR|6NUR_protein|mol2

> <Gold.PLP.Fitness>
52.2705

> <Gold.PLP.PLP>
-43.7787

> <Gold.PLP.part.hbond>
-3.7566

> <Gold.PLP.part.metal>
0.0000

> <Gold.PLP.part.buried>
-6.7071

> <Gold.PLP.part.nonpolar>
-35.1402

> <Gold.PLP.part.repulsive>
1.7657

> <Gold.PLP.ligand.clash>
0.0000

> <Gold.PLP.ligand.torsion>
1.1360

> <Gold.PLP.Chemscore.Hbond>
2.5149

> <Gold.PLP.Chemscore.CHOScore>
1.0000

> <Gold.PLP.Chemscore.Metal>
0.0000

> <Gold.Chemscore.Hbonds>
donor molecule, donor type, donor heavy atom, donor atom, acceptor molecule, acceptor atom, score
      L1  H    18    21       P1  7957  0.96
      P1  H  7997  8009       L1    13  0.67
      P1  H  8011  8017       L1    17  0.58
      L1  C    16    44       P1  8028  1.00

> <Gold.PLP.Chemscore.Internal.Correction>
0.2191

> <Gold.Rescore>
     Score         DG    S(hbond)    S(metal)    S(lipo)     H(rot)  DE(clash)    DE(int)     intcor
     15.10     -18.06       2.10        0.00     105.12       2.64       0.39       2.57       ----

> <Gold.Chemscore.Fitness>
15.0956

> <Gold.Chemscore.DG>
-18.0582

> <Gold.Chemscore.ZeroCoef>
-5.4800

> <Gold.Chemscore.Hbond>
2.1046

> <Gold.Chemscore.Metal>
0.0000

> <Gold.Chemscore.Lipo>
105.1185

> <Gold.Chemscore.Internal_Hbond>
0.0000

> <Gold.Chemscore.DEClash>
0.3903

> <Gold.Chemscore.DEInternal>
2.5722

> <Gold.Chemscore.Rot>
2.6368

> <Gold.Chemscore.Internal.Correction>
   9.000000E+99

> <Gold.Chemscore.Hbonds>
donor molecule, donor type, donor heavy atom, donor atom, acceptor molecule, acceptor atom, score
      L1  H    18    21       P1  7957  0.92
      P1  H  7997  8009       L1    13  0.65
      P1  H  8011  8017       L1    17  0.15

> <Gold.Chemscore.Hbond.Weighted>
-7.0294

> <Gold.Chemscore.Metal.Weighted>
-0.0000

> <Gold.Chemscore.Lipo.Weighted>
-12.2989

> <Gold.Chemscore.Internal_Hbond.Weighted>
0.0000

> <Gold.Chemscore.DEClash.Weighted>
0.3903

> <Gold.Chemscore.DEInternal.Weighted>
2.5722

> <Gold.Chemscore.Rot.Weighted>
6.7501

> <Gold.Chemscore.Internal.Correction.Weighted>
   9.000000E+99

> <Gold.Protein.RotatedTorsions>
[ 6907 6896 6895 6894 ] final   34.24 input  -60.11 | X-H torsion
[ 7974 7965 7964 7962 ] final   97.65 input  175.53 | X-H torsion
[ 8008 7997 7996 7995 ] final  170.51 input   59.86 | X-H torsion
[ 10167 10162 10161 10158 ] final  -33.70 input  -65.29 | X-H torsion
[ 10718 10713 10712 10709 ] final -122.40 input   66.30 | X-H torsion
[ 10763 10752 10751 10750 ] final  -48.80 input  -60.55 | X-H torsion
[ 11005 11000 10999 10996 ] final -106.19 input  -57.11 | X-H torsion

> <Gold.Protein.ActiveResidues>
 VAL166  LYS551  ARG553  GLY616  TRP617  ASP618  TYR619  PRO620  LYS621  CYS622 
 ASP623  PHE694  ASN695  SER759  ASP760  ASP761  ALA762  ILE779  LEU786  VAL792 
 PHE793  MET794  SER795  GLU796  ALA797  LYS798  CYS799  TRP800  GLU811  SER814 

> <Gold.Protein.RotatedAtoms>
  152.0997  134.9350  160.0569 H   0  0  0  0  0  0  0  0  0  0  0  0  # atno 6907 bound_to 6896
  152.0569  133.4039  159.4409 H   0  0  0  0  0  0  0  0  0  0  0  0  # atno 6908 bound_to 6896
  150.6839  134.3164  159.4812 H   0  0  0  0  0  0  0  0  0  0  0  0  # atno 6909 bound_to 6896
  145.4227  139.2319  143.3187 H   0  0  0  0  0  0  0  0  0  0  0  0  # atno 7974 bound_to 7965
  156.1359  140.1536  156.8995 H   0  0  0  0  0  0  0  0  0  0  0  0  # atno 8008 bound_to 7997
  154.4947  140.0841  156.7709 H   0  0  0  0  0  0  0  0  0  0  0  0  # atno 8009 bound_to 7997
  155.4170  140.3421  155.4270 H   0  0  0  0  0  0  0  0  0  0  0  0  # atno 8010 bound_to 7997
  140.7199  143.3601  151.1980 H   0  0  0  0  0  0  0  0  0  0  0  0  # atno 10167 bound_to 10162
  156.1415  130.6469  150.9778 H   0  0  0  0  0  0  0  0  0  0  0  0  # atno 10718 bound_to 10713
  154.0836  135.6587  153.4841 H   0  0  0  0  0  0  0  0  0  0  0  0  # atno 10763 bound_to 10752
  153.0347  135.5186  154.7449 H   0  0  0  0  0  0  0  0  0  0  0  0  # atno 10764 bound_to 10752
  154.6552  135.3007  154.9905 H   0  0  0  0  0  0  0  0  0  0  0  0  # atno 10765 bound_to 10752
  141.1016  133.8873  157.1826 H   0  0  0  0  0  0  0  0  0  0  0  0  # atno 11005 bound_to 11000
  146.2648  140.4954  142.8838 LP  0  0  0  0  0  0  0  0  0  0  0  0  # atno 17320 bound_to 7965
  144.8234  140.6589  143.6338 LP  0  0  0  0  0  0  0  0  0  0  0  0  # atno 17321 bound_to 7965
  139.7151  143.9314  152.2963 LP  0  0  0  0  0  0  0  0  0  0  0  0  # atno 17342 bound_to 10162
  139.9052  144.6889  150.8622 LP  0  0  0  0  0  0  0  0  0  0  0  0  # atno 17343 bound_to 10162
  157.6580  131.0886  150.7904 LP  0  0  0  0  0  0  0  0  0  0  0  0  # atno 17370 bound_to 10713
  156.7979  130.4911  149.5374 LP  0  0  0  0  0  0  0  0  0  0  0  0  # atno 17371 bound_to 10713
  139.9870  135.0078  156.9886 LP  0  0  0  0  0  0  0  0  0  0  0  0  # atno 17394 bound_to 11000
  140.5006  134.1101  155.7250 LP  0  0  0  0  0  0  0  0  0  0  0  0  # atno 17395 bound_to 11000

$$$$
