AV-unprocessed.smi:2040|AV-procd|sdf|8289|dock6
  -GOLD-   2272010553D 1   1.00000     0.00000
 Structure written by MMmdl.
 38 39  0  0  0  0  0  0  0  0  1 V2000
  146.0832  129.3339  152.4826 C   0  0  0  0  0  0  0  0  0  0  0  0
  146.4876  130.7763  152.4009 C   0  0  0  0  0  0  0  0  0  0  0  0
  147.3736  131.4895  153.2599 C   0  0  0  0  0  0  0  0  0  0  0  0
  147.3686  132.7467  152.7205 C   0  0  0  0  0  0  0  0  0  0  0  0
  148.0341  133.8578  153.1341 N   0  0  0  0  0  0  0  0  0  0  0  0
  148.5468  134.1279  154.3469 C   0  0  0  0  0  0  0  0  0  0  0  0
  148.5231  133.3698  155.3166 O   0  0  0  0  0  0  0  0  0  0  0  0
  149.1022  135.3482  154.3717 N   0  0  0  0  0  0  0  0  0  0  0  0
  149.7442  135.9720  155.5273 C   0  0  1  0  0  0  0  0  0  0  0  0
  150.8777  135.0652  156.0303 C   0  0  0  0  0  0  0  0  0  0  0  0
  150.2504  137.3773  155.1486 C   0  0  1  0  0  0  0  0  0  0  0  0
  150.4585  138.3197  156.3373 C   0  0  0  0  0  0  0  0  0  0  0  0
  151.4934  139.2773  155.7942 C   0  0  0  0  0  0  0  0  0  0  0  0
  152.3819  138.3399  154.9840 C   0  0  0  0  0  0  0  0  0  0  0  0
  151.5280  137.2980  154.5184 O   0  0  0  0  0  0  0  0  0  0  0  0
  146.5334  132.7582  151.6259 N   0  0  0  0  0  0  0  0  0  0  0  0
  146.2018  133.8508  150.7324 C   0  0  0  0  0  0  0  0  0  0  0  0
  145.9923  131.5363  151.4305 N   0  0  0  0  0  0  0  0  0  0  0  0
  146.5014  128.8571  153.3693 H   0  0  0  0  0  0  0  0  0  0  0  0
  146.4324  128.7790  151.6118 H   0  0  0  0  0  0  0  0  0  0  0  0
  144.9988  129.2314  152.5321 H   0  0  0  0  0  0  0  0  0  0  0  0
  147.9095  131.1214  154.1218 H   0  0  0  0  0  0  0  0  0  0  0  0
  148.1533  134.5732  152.4324 H   0  0  0  0  0  0  0  0  0  0  0  0
  149.0746  135.8962  153.5245 H   0  0  0  0  0  0  0  0  0  0  0  0
  149.0196  136.0884  156.3353 H   0  0  0  0  0  0  0  0  0  0  0  0
  151.3608  135.4900  156.9105 H   0  0  0  0  0  0  0  0  0  0  0  0
  151.6432  134.9242  155.2667 H   0  0  0  0  0  0  0  0  0  0  0  0
  150.4989  134.0812  156.3088 H   0  0  0  0  0  0  0  0  0  0  0  0
  149.5639  137.8477  154.4422 H   0  0  0  0  0  0  0  0  0  0  0  0
  149.5411  138.8170  156.6538 H   0  0  0  0  0  0  0  0  0  0  0  0
  150.8657  137.7774  157.1922 H   0  0  0  0  0  0  0  0  0  0  0  0
  151.0196  140.0093  155.1387 H   0  0  0  0  0  0  0  0  0  0  0  0
  152.0360  139.8133  156.5733 H   0  0  0  0  0  0  0  0  0  0  0  0
  152.8790  138.8481  154.1576 H   0  0  0  0  0  0  0  0  0  0  0  0
  153.1492  137.8981  155.6209 H   0  0  0  0  0  0  0  0  0  0  0  0
  147.0965  134.1683  150.1966 H   0  0  0  0  0  0  0  0  0  0  0  0
  145.8138  134.6911  151.3088 H   0  0  0  0  0  0  0  0  0  0  0  0
  145.4467  133.5406  150.0089 H   0  0  0  0  0  0  0  0  0  0  0  0
  1  2  1  0  0  0  0
  1 19  1  0  0  0  0
  1 20  1  0  0  0  0
  1 21  1  0  0  0  0
  2 18  2  0  0  0  0
  2  3  1  0  0  0  0
  3  4  2  0  0  0  0
  3 22  1  0  0  0  0
  4  5  1  0  0  0  0
  4 16  1  0  0  0  0
  5  6  1  0  0  0  0
  5 23  1  0  0  0  0
  6  7  2  0  0  0  0
  6  8  1  0  0  0  0
  8  9  1  0  0  0  0
  8 24  1  0  0  0  0
  9 10  1  0  0  0  0
  9 11  1  0  0  0  0
  9 25  1  0  0  0  0
 10 26  1  0  0  0  0
 10 27  1  0  0  0  0
 10 28  1  0  0  0  0
 11 15  1  0  0  0  0
 11 12  1  0  0  0  0
 11 29  1  0  0  0  0
 12 13  1  0  0  0  0
 12 30  1  0  0  0  0
 12 31  1  0  0  0  0
 13 14  1  0  0  0  0
 13 32  1  0  0  0  0
 13 33  1  0  0  0  0
 14 15  1  0  0  0  0
 14 34  1  0  0  0  0
 14 35  1  0  0  0  0
 16 17  1  0  0  0  0
 16 18  1  0  0  0  0
 17 36  1  0  0  0  0
 17 37  1  0  0  0  0
 17 38  1  0  0  0  0
M  END
> <s_m_source_file>
AV-unprocessed.smi

> <i_m_source_file_index>
2040

> <i_lp_mmshare_version>
43012

> <i_f3d_flags>
0

> <s_epik_input>
W0NIM11jMVtjSF1jKG4objEpW0NIM10pW05IXUMoPU8pW05IXVtDQEhdKFtDSDNdKVtDQEBIXTJbQ0gyXVtDSDJdW0NIMl1PMg==

> <s_epik_cmdline>
J2VwaWtfcHl0aG9uJywgJy1waCcsICc3LjAnLCAnLXRuJywgJzgnLCAnLW1hJywgJzIwMCcsICctbWV0YWxfYmluZGluZycsICctaW1hZScsICc8aW5maWxlLm1hZT4nLCAnLW9tYWUnLCAnPG91dGZpbGUubWFlPic=

> <r_lp_tautomer_probability>
1

> <r_epik_Ionization_Penalty>
9.09088e-05

> <r_epik_Ionization_Penalty_Charging>
0

> <r_epik_Ionization_Penalty_Neutral>
9.09088e-05

> <r_epik_State_Penalty>
-0

> <r_epik_Charging_Adjusted_Penalty>
0

> <i_epik_Tot_Q>
0

> <i_epik_Tot_abs_Q>
0

> <r_epik_Metal_State_Penalty>
-0

> <b_epik_Metal_Only>
0

> <s_lp_Force_Field>
OPLS_2005

> <r_lp_Energy>
18.8774

> <b_lp_Chiralities_Consistent>
1

> <s_lp_Variant>
AV-unprocessed.smi:2040-4

> <Gold.Version>
5.8.1

> <Gold.Id.Protein>
6NUR|6NUR_protein|mol2

> <Gold.PLP.Fitness>
37.0484

> <Gold.PLP.PLP>
-29.1462

> <Gold.PLP.part.hbond>
-3.0000

> <Gold.PLP.part.metal>
0.0000

> <Gold.PLP.part.buried>
-2.9174

> <Gold.PLP.part.nonpolar>
-23.3776

> <Gold.PLP.part.repulsive>
0.3339

> <Gold.PLP.ligand.clash>
0.0000

> <Gold.PLP.ligand.torsion>
0.5410

> <Gold.PLP.Chemscore.Hbond>
2.9913

> <Gold.PLP.Chemscore.CHOScore>
0.0000

> <Gold.PLP.Chemscore.Metal>
0.0000

> <Gold.Chemscore.Hbonds>
donor molecule, donor type, donor heavy atom, donor atom, acceptor molecule, acceptor atom, score
      L1  H     5    23       P1  7948  1.00
      L1  H     8    24       P1  7948  1.00
      P1  H 10752 10765       L1    15  0.65

> <Gold.PLP.Chemscore.Internal.Correction>
0.0105

> <Gold.Rescore>
     Score         DG    S(hbond)    S(metal)    S(lipo)     H(rot)  DE(clash)    DE(int)     intcor
     13.82     -16.87       2.35        0.00      57.17       1.23       0.00       3.05       ----

> <Gold.Chemscore.Fitness>
13.8202

> <Gold.Chemscore.DG>
-16.8719

> <Gold.Chemscore.ZeroCoef>
-5.4800

> <Gold.Chemscore.Hbond>
2.3536

> <Gold.Chemscore.Metal>
0.0000

> <Gold.Chemscore.Lipo>
57.1737

> <Gold.Chemscore.Internal_Hbond>
0.0000

> <Gold.Chemscore.DEClash>
0.0024

> <Gold.Chemscore.DEInternal>
3.0494

> <Gold.Chemscore.Rot>
1.2338

> <Gold.Chemscore.Internal.Correction>
   9.000000E+99

> <Gold.Chemscore.Hbonds>
donor molecule, donor type, donor heavy atom, donor atom, acceptor molecule, acceptor atom, score
      L1  H     5    23       P1  7948  0.29
      L1  H     8    24       P1  7948  0.87
      P1  H 10752 10765       L1    15  0.16

> <Gold.Chemscore.Hbond.Weighted>
-7.8611

> <Gold.Chemscore.Metal.Weighted>
-0.0000

> <Gold.Chemscore.Lipo.Weighted>
-6.6893

> <Gold.Chemscore.Internal_Hbond.Weighted>
0.0000

> <Gold.Chemscore.DEClash.Weighted>
0.0024

> <Gold.Chemscore.DEInternal.Weighted>
3.0494

> <Gold.Chemscore.Rot.Weighted>
3.1584

> <Gold.Chemscore.Internal.Correction.Weighted>
   9.000000E+99

> <Gold.Protein.RotatedTorsions>
[ 6907 6896 6895 6894 ] final  -43.30 input  -60.11 | X-H torsion
[ 7974 7965 7964 7962 ] final  -73.88 input  175.53 | X-H torsion
[ 8008 7997 7996 7995 ] final   57.54 input   59.86 | X-H torsion
[ 10167 10162 10161 10158 ] final -118.60 input  -65.29 | X-H torsion
[ 10718 10713 10712 10709 ] final -132.56 input   66.30 | X-H torsion
[ 10763 10752 10751 10750 ] final  169.18 input  -60.55 | X-H torsion
[ 11005 11000 10999 10996 ] final -164.29 input  -57.11 | X-H torsion

> <Gold.Protein.ActiveResidues>
 VAL166  LYS551  ARG553  GLY616  TRP617  ASP618  TYR619  PRO620  LYS621  CYS622 
 ASP623  PHE694  ASN695  SER759  ASP760  ASP761  ALA762  ILE779  LEU786  VAL792 
 PHE793  MET794  SER795  GLU796  ALA797  LYS798  CYS799  TRP800  GLU811  SER814 

> <Gold.Protein.RotatedAtoms>
  150.9455  134.8860  159.7638 H   0  0  0  0  0  0  0  0  0  0  0  0  # atno 6907 bound_to 6896
  152.5098  134.3881  159.9384 H   0  0  0  0  0  0  0  0  0  0  0  0  # atno 6908 bound_to 6896
  151.3899  133.3752  159.2754 H   0  0  0  0  0  0  0  0  0  0  0  0  # atno 6909 bound_to 6896
  145.6464  140.9296  143.1008 H   0  0  0  0  0  0  0  0  0  0  0  0  # atno 7974 bound_to 7965
  155.5354  140.3483  155.4435 H   0  0  0  0  0  0  0  0  0  0  0  0  # atno 8008 bound_to 7997
  156.0689  140.1358  156.9879 H   0  0  0  0  0  0  0  0  0  0  0  0  # atno 8009 bound_to 7997
  154.4517  140.0970  156.6614 H   0  0  0  0  0  0  0  0  0  0  0  0  # atno 8010 bound_to 7997
  140.0557  143.5016  152.2058 H   0  0  0  0  0  0  0  0  0  0  0  0  # atno 10167 bound_to 10162
  156.2358  130.7066  151.0906 H   0  0  0  0  0  0  0  0  0  0  0  0  # atno 10718 bound_to 10713
  154.3794  135.2753  155.2220 H   0  0  0  0  0  0  0  0  0  0  0  0  # atno 10763 bound_to 10752
  154.4333  135.5972  153.6086 H   0  0  0  0  0  0  0  0  0  0  0  0  # atno 10764 bound_to 10752
  152.9835  135.6001  154.4035 H   0  0  0  0  0  0  0  0  0  0  0  0  # atno 10765 bound_to 10752
  140.5886  134.5068  157.5189 H   0  0  0  0  0  0  0  0  0  0  0  0  # atno 11005 bound_to 11000
  144.7138  139.8270  143.7405 LP  0  0  0  0  0  0  0  0  0  0  0  0  # atno 17320 bound_to 7965
  146.1239  139.4262  143.0211 LP  0  0  0  0  0  0  0  0  0  0  0  0  # atno 17321 bound_to 7965
  139.5925  144.7555  151.3366 LP  0  0  0  0  0  0  0  0  0  0  0  0  # atno 17342 bound_to 10162
  140.7196  143.7173  150.7723 LP  0  0  0  0  0  0  0  0  0  0  0  0  # atno 17343 bound_to 10162
  157.7154  131.0712  150.6347 LP  0  0  0  0  0  0  0  0  0  0  0  0  # atno 17370 bound_to 10713
  156.6418  130.4460  149.5750 LP  0  0  0  0  0  0  0  0  0  0  0  0  # atno 17371 bound_to 10713
  139.9284  134.8010  156.1000 LP  0  0  0  0  0  0  0  0  0  0  0  0  # atno 17394 bound_to 11000
  141.0950  133.6699  156.2625 LP  0  0  0  0  0  0  0  0  0  0  0  0  # atno 17395 bound_to 11000

$$$$
