AV-unprocessed.smi:3228|AV-procd|sdf|12321|dock3
  -GOLD-   2272018173D 1   1.00000     0.00000
 Structure written by MMmdl.
 31 32  0  0  0  0  0  0  0  0  1 V2000
  149.5384  142.2659  158.5360 O   0  0  0  0  0  0  0  0  0  0  0  0
  150.2804  142.8235  157.7268 C   0  0  0  0  0  0  0  0  0  0  0  0
  151.2646  143.6613  158.0835 N   0  0  0  0  0  0  0  0  0  0  0  0
  151.5898  144.0317  159.4573 C   0  0  0  0  0  0  0  0  0  0  0  0
  152.6872  143.1294  160.0616 C   0  0  2  0  0  0  0  0  0  0  0  0
  152.5551  141.6468  159.6954 C   0  0  0  0  0  0  0  0  0  0  0  0
  153.3322  140.8791  160.7761 C   0  0  0  0  0  0  0  0  0  0  0  0
  153.6578  141.8916  161.8857 C   0  0  0  0  0  0  0  0  0  0  0  0
  152.8012  143.1282  161.5945 C   0  0  2  0  0  0  0  0  0  0  0  0
  151.5358  142.9656  162.2086 O   0  0  0  0  0  0  0  0  0  0  0  0
  150.2217  142.6800  156.3911 N   0  0  0  0  0  0  0  0  0  0  0  0
  149.3119  141.8975  155.6323 C   0  0  0  0  0  0  0  0  0  0  0  0
  149.1725  141.9778  154.3038 N   0  0  0  0  0  0  0  0  0  0  0  0
  148.2083  141.0886  153.8226 C   0  0  0  0  0  0  0  0  0  0  0  0
  147.6188  140.3336  154.8058 C   0  0  0  0  0  0  0  0  0  0  0  0
  148.2548  140.7116  156.3845 S   0  0  0  0  0  0  0  0  0  0  0  0
  151.8249  144.0774  157.3541 H   0  0  0  0  0  0  0  0  0  0  0  0
  151.9073  145.0747  159.4617 H   0  0  0  0  0  0  0  0  0  0  0  0
  150.6899  143.9886  160.0730 H   0  0  0  0  0  0  0  0  0  0  0  0
  153.6501  143.4640  159.6711 H   0  0  0  0  0  0  0  0  0  0  0  0
  151.5065  141.3471  159.7220 H   0  0  0  0  0  0  0  0  0  0  0  0
  152.9280  141.4389  158.6920 H   0  0  0  0  0  0  0  0  0  0  0  0
  152.7285  140.0577  161.1630 H   0  0  0  0  0  0  0  0  0  0  0  0
  154.2484  140.4472  160.3726 H   0  0  0  0  0  0  0  0  0  0  0  0
  153.4975  141.4866  162.8859 H   0  0  0  0  0  0  0  0  0  0  0  0
  154.7114  142.1650  161.8160 H   0  0  0  0  0  0  0  0  0  0  0  0
  153.2635  144.0402  161.9733 H   0  0  0  0  0  0  0  0  0  0  0  0
  151.1570  143.8201  162.3458 H   0  0  0  0  0  0  0  0  0  0  0  0
  150.9023  143.1956  155.8530 H   0  0  0  0  0  0  0  0  0  0  0  0
  148.0040  141.0591  152.7624 H   0  0  0  0  0  0  0  0  0  0  0  0
  146.8523  139.5809  154.6973 H   0  0  0  0  0  0  0  0  0  0  0  0
  1  2  2  0  0  0  0
  2  3  1  0  0  0  0
  2 11  1  0  0  0  0
  3  4  1  0  0  0  0
  3 17  1  0  0  0  0
  4  5  1  0  0  0  0
  4 18  1  0  0  0  0
  4 19  1  0  0  0  0
  5  9  1  0  0  0  0
  5  6  1  0  0  0  0
  5 20  1  0  0  0  0
  6  7  1  0  0  0  0
  6 21  1  0  0  0  0
  6 22  1  0  0  0  0
  7  8  1  0  0  0  0
  7 23  1  0  0  0  0
  7 24  1  0  0  0  0
  8  9  1  0  0  0  0
  8 25  1  0  0  0  0
  8 26  1  0  0  0  0
  9 10  1  0  0  0  0
  9 27  1  0  0  0  0
 10 28  1  0  0  0  0
 11 12  1  0  0  0  0
 11 29  1  0  0  0  0
 12 16  1  0  0  0  0
 12 13  2  0  0  0  0
 13 14  1  0  0  0  0
 14 15  2  0  0  0  0
 14 30  1  0  0  0  0
 15 16  1  0  0  0  0
 15 31  1  0  0  0  0
M  END
> <s_m_source_file>
AV-unprocessed.smi

> <i_m_source_file_index>
3228

> <i_lp_mmshare_version>
43012

> <i_f3d_flags>
0

> <s_epik_input>
czFbY0hdW2NIXW5jMVtOSF1DKD1PKVtOSF1bQ0gyXVtDQEBIXTJbQ0gyXVtDSDJdW0NIMl1bQ0BIXTJbT0hd

> <s_epik_cmdline>
J2VwaWtfcHl0aG9uJywgJy1waCcsICc3LjAnLCAnLXRuJywgJzgnLCAnLW1hJywgJzIwMCcsICctbWV0YWxfYmluZGluZycsICctaW1hZScsICc8aW5maWxlLm1hZT4nLCAnLW9tYWUnLCAnPG91dGZpbGUubWFlPic=

> <r_lp_tautomer_probability>
0.999

> <r_epik_Ionization_Penalty>
0.000399498

> <r_epik_Ionization_Penalty_Charging>
0

> <r_epik_Ionization_Penalty_Neutral>
0.000399498

> <r_epik_State_Penalty>
0.000177984

> <r_epik_Charging_Adjusted_Penalty>
0.000177984

> <i_epik_Tot_Q>
0

> <i_epik_Tot_abs_Q>
0

> <r_epik_Metal_State_Penalty>
0.0060793

> <b_epik_Metal_Only>
0

> <s_lp_Force_Field>
OPLS_2005

> <r_lp_Energy>
23.3722

> <b_lp_Chiralities_Consistent>
1

> <s_lp_Variant>
AV-unprocessed.smi:3228-3

> <Gold.Version>
5.8.1

> <Gold.Id.Protein>
6NUR|6NUR_protein|mol2

> <Gold.PLP.Fitness>
39.8481

> <Gold.PLP.PLP>
-33.9992

> <Gold.PLP.part.hbond>
-5.1618

> <Gold.PLP.part.metal>
0.0000

> <Gold.PLP.part.buried>
-3.3584

> <Gold.PLP.part.nonpolar>
-25.7385

> <Gold.PLP.part.repulsive>
0.3440

> <Gold.PLP.ligand.clash>
0.0000

> <Gold.PLP.ligand.torsion>
0.3851

> <Gold.PLP.Chemscore.Hbond>
1.2060

> <Gold.PLP.Chemscore.CHOScore>
1.0000

> <Gold.PLP.Chemscore.Metal>
0.0000

> <Gold.Chemscore.Hbonds>
donor molecule, donor type, donor heavy atom, donor atom, acceptor molecule, acceptor atom, score
      P1  H  6933  6945       L1    10  0.85
      P1  H  8011  8017       L1    13  0.17
      L1  C    14    30       P1  7957  0.85

> <Gold.PLP.Chemscore.Internal.Correction>
0.0011

> <Gold.Rescore>
     Score         DG    S(hbond)    S(metal)    S(lipo)     H(rot)  DE(clash)    DE(int)     intcor
      8.92     -12.04       0.69        0.00      77.41       1.88       1.74       1.38       ----

> <Gold.Chemscore.Fitness>
8.9233

> <Gold.Chemscore.DG>
-12.0434

> <Gold.Chemscore.ZeroCoef>
-5.4800

> <Gold.Chemscore.Hbond>
0.6933

> <Gold.Chemscore.Metal>
0.0000

> <Gold.Chemscore.Lipo>
77.4108

> <Gold.Chemscore.Internal_Hbond>
0.0000

> <Gold.Chemscore.DEClash>
1.7355

> <Gold.Chemscore.DEInternal>
1.3847

> <Gold.Chemscore.Rot>
1.8786

> <Gold.Chemscore.Internal.Correction>
   9.000000E+99

> <Gold.Chemscore.Hbonds>
donor molecule, donor type, donor heavy atom, donor atom, acceptor molecule, acceptor atom, score
      P1  H  6933  6945       L1    10  0.38
      P1  H  8011  8017       L1    13  0.01

> <Gold.Chemscore.Hbond.Weighted>
-2.3155

> <Gold.Chemscore.Metal.Weighted>
-0.0000

> <Gold.Chemscore.Lipo.Weighted>
-9.0571

> <Gold.Chemscore.Internal_Hbond.Weighted>
0.0000

> <Gold.Chemscore.DEClash.Weighted>
1.7355

> <Gold.Chemscore.DEInternal.Weighted>
1.3847

> <Gold.Chemscore.Rot.Weighted>
4.8091

> <Gold.Chemscore.Internal.Correction.Weighted>
   9.000000E+99

> <Gold.Protein.RotatedTorsions>
[ 6907 6896 6895 6894 ] final  101.69 input  -60.11 | X-H torsion
[ 7974 7965 7964 7962 ] final  -36.34 input  175.53 | X-H torsion
[ 8008 7997 7996 7995 ] final   97.94 input   59.86 | X-H torsion
[ 10167 10162 10161 10158 ] final   18.27 input  -65.29 | X-H torsion
[ 10718 10713 10712 10709 ] final  113.12 input   66.30 | X-H torsion
[ 10763 10752 10751 10750 ] final  154.87 input  -60.55 | X-H torsion
[ 11005 11000 10999 10996 ] final  156.63 input  -57.11 | X-H torsion

> <Gold.Protein.ActiveResidues>
 VAL166  LYS551  ARG553  GLY616  TRP617  ASP618  TYR619  PRO620  LYS621  CYS622 
 ASP623  PHE694  ASN695  SER759  ASP760  ASP761  ALA762  ILE779  LEU786  VAL792 
 PHE793  MET794  SER795  GLU796  ALA797  LYS798  CYS799  TRP800  GLU811  SER814 

> <Gold.Protein.RotatedAtoms>
  152.5343  134.0088  159.7928 H   0  0  0  0  0  0  0  0  0  0  0  0  # atno 6907 bound_to 6896
  151.0294  133.5796  159.2669 H   0  0  0  0  0  0  0  0  0  0  0  0  # atno 6908 bound_to 6896
  151.2807  135.0720  159.9221 H   0  0  0  0  0  0  0  0  0  0  0  0  # atno 6909 bound_to 6896
  146.0670  140.6266  142.8970 H   0  0  0  0  0  0  0  0  0  0  0  0  # atno 7974 bound_to 7965
  156.0953  140.3251  155.7869 H   0  0  0  0  0  0  0  0  0  0  0  0  # atno 8008 bound_to 7997
  155.4928  140.0563  157.2968 H   0  0  0  0  0  0  0  0  0  0  0  0  # atno 8009 bound_to 7997
  154.4663  140.1990  156.0126 H   0  0  0  0  0  0  0  0  0  0  0  0  # atno 8010 bound_to 7997
  140.5665  143.9240  150.6681 H   0  0  0  0  0  0  0  0  0  0  0  0  # atno 10167 bound_to 10162
  157.6355  131.0978  150.6994 H   0  0  0  0  0  0  0  0  0  0  0  0  # atno 10718 bound_to 10713
  154.1592  135.2810  155.3113 H   0  0  0  0  0  0  0  0  0  0  0  0  # atno 10763 bound_to 10752
  154.6159  135.5483  153.7527 H   0  0  0  0  0  0  0  0  0  0  0  0  # atno 10764 bound_to 10752
  153.0197  135.6427  154.1734 H   0  0  0  0  0  0  0  0  0  0  0  0  # atno 10765 bound_to 10752
  140.1693  134.8554  157.2671 H   0  0  0  0  0  0  0  0  0  0  0  0  # atno 11005 bound_to 11000
  144.7208  140.4367  143.7009 LP  0  0  0  0  0  0  0  0  0  0  0  0  # atno 17320 bound_to 7965
  145.6459  139.1557  143.2889 LP  0  0  0  0  0  0  0  0  0  0  0  0  # atno 17321 bound_to 7965
  140.2705  143.3460  152.1242 LP  0  0  0  0  0  0  0  0  0  0  0  0  # atno 17342 bound_to 10162
  139.5096  144.6869  151.5862 LP  0  0  0  0  0  0  0  0  0  0  0  0  # atno 17343 bound_to 10162
  156.7326  130.4714  149.5496 LP  0  0  0  0  0  0  0  0  0  0  0  0  # atno 17370 bound_to 10713
  156.1592  130.6362  151.0696 LP  0  0  0  0  0  0  0  0  0  0  0  0  # atno 17371 bound_to 10713
  140.2396  134.3811  155.7486 LP  0  0  0  0  0  0  0  0  0  0  0  0  # atno 17394 bound_to 11000
  141.2216  133.7258  156.8768 LP  0  0  0  0  0  0  0  0  0  0  0  0  # atno 17395 bound_to 11000

$$$$
