AV-unprocessed.smi:849|AV-procd|sdf|3943|dock2
  -GOLD-   22720 1413D 1   1.00000     0.00000
 Structure written by MMmdl.
 36 38  0  0  0  0  0  0  0  0  1 V2000
  152.6514  139.1944  155.0899 O   0  0  0  0  0  0  0  0  0  0  0  0
  152.4378  138.7414  156.4099 C   0  0  0  0  0  0  0  0  0  0  0  0
  152.4381  139.8564  157.4171 C   0  0  0  0  0  0  0  0  0  0  0  0
  153.2945  139.8535  158.4402 N   0  0  0  0  0  0  0  0  0  0  0  0
  152.9938  141.0281  159.0983 C   0  0  0  0  0  0  0  0  0  0  0  0
  153.5574  141.5969  160.2629 C   0  0  0  0  0  0  0  0  0  0  0  0
  153.0866  142.8321  160.7539 C   0  0  0  0  0  0  0  0  0  0  0  0
  152.0493  143.5153  160.0872 C   0  0  0  0  0  0  0  0  0  0  0  0
  151.4747  142.9651  158.9253 C   0  0  0  0  0  0  0  0  0  0  0  0
  151.9447  141.7290  158.4408 C   0  0  0  0  0  0  0  0  0  0  0  0
  151.6024  140.9287  157.3529 N   0  0  0  0  0  0  0  0  0  0  0  0
  150.5670  141.2321  156.3673 C   0  0  0  0  0  0  0  0  0  0  0  0
  149.2203  140.5160  156.6281 C   0  0  2  0  0  0  0  0  0  0  0  0
  149.3869  139.1166  156.5021 O   0  0  0  0  0  0  0  0  0  0  0  0
  148.0750  141.0608  155.7739 C   0  0  0  0  0  0  0  0  0  0  0  0
  148.1333  140.9575  154.3639 C   0  0  0  0  0  0  0  0  0  0  0  0
  147.0911  141.4599  153.5625 C   0  0  0  0  0  0  0  0  0  0  0  0
  145.9777  142.0750  154.1618 C   0  0  0  0  0  0  0  0  0  0  0  0
  145.9112  142.1904  155.5623 C   0  0  0  0  0  0  0  0  0  0  0  0
  146.9520  141.6892  156.3698 C   0  0  0  0  0  0  0  0  0  0  0  0
  146.8257  141.8788  158.0838 Cl  0  0  0  0  0  0  0  0  0  0  0  0
  153.5634  139.0751  154.8753 H   0  0  0  0  0  0  0  0  0  0  0  0
  151.4741  138.2342  156.4535 H   0  0  0  0  0  0  0  0  0  0  0  0
  153.1956  137.9949  156.6311 H   0  0  0  0  0  0  0  0  0  0  0  0
  154.3545  141.0819  160.7783 H   0  0  0  0  0  0  0  0  0  0  0  0
  153.5246  143.2583  161.6444 H   0  0  0  0  0  0  0  0  0  0  0  0
  151.6943  144.4617  160.4683 H   0  0  0  0  0  0  0  0  0  0  0  0
  150.6784  143.4858  158.4144 H   0  0  0  0  0  0  0  0  0  0  0  0
  150.4058  142.3108  156.3776 H   0  0  0  0  0  0  0  0  0  0  0  0
  150.9363  141.0156  155.3664 H   0  0  0  0  0  0  0  0  0  0  0  0
  148.9590  140.6653  157.6755 H   0  0  0  0  0  0  0  0  0  0  0  0
  149.4002  138.7374  157.3676 H   0  0  0  0  0  0  0  0  0  0  0  0
  148.9856  140.5005  153.8823 H   0  0  0  0  0  0  0  0  0  0  0  0
  147.1493  141.3774  152.4872 H   0  0  0  0  0  0  0  0  0  0  0  0
  145.1782  142.4629  153.5479 H   0  0  0  0  0  0  0  0  0  0  0  0
  145.0578  142.6698  156.0188 H   0  0  0  0  0  0  0  0  0  0  0  0
  1  2  1  0  0  0  0
  1 22  1  0  0  0  0
  2  3  1  0  0  0  0
  2 23  1  0  0  0  0
  2 24  1  0  0  0  0
  3 11  1  0  0  0  0
  3  4  2  0  0  0  0
  4  5  1  0  0  0  0
  5 10  2  0  0  0  0
  5  6  1  0  0  0  0
  6  7  2  0  0  0  0
  6 25  1  0  0  0  0
  7  8  1  0  0  0  0
  7 26  1  0  0  0  0
  8  9  2  0  0  0  0
  8 27  1  0  0  0  0
  9 10  1  0  0  0  0
  9 28  1  0  0  0  0
 10 11  1  0  0  0  0
 11 12  1  0  0  0  0
 12 13  1  0  0  0  0
 12 29  1  0  0  0  0
 12 30  1  0  0  0  0
 13 14  1  0  0  0  0
 13 15  1  0  0  0  0
 13 31  1  0  0  0  0
 14 32  1  0  0  0  0
 15 20  1  0  0  0  0
 15 16  2  0  0  0  0
 16 17  1  0  0  0  0
 16 33  1  0  0  0  0
 17 18  2  0  0  0  0
 17 34  1  0  0  0  0
 18 19  1  0  0  0  0
 18 35  1  0  0  0  0
 19 20  2  0  0  0  0
 19 36  1  0  0  0  0
 20 21  1  0  0  0  0
M  END
> <s_m_source_file>
AV-unprocessed.smi

> <i_m_source_file_index>
849

> <i_lp_mmshare_version>
43012

> <i_f3d_flags>
0

> <s_epik_input>
W2NIXTFbY0hdW2NIXVtjSF1jKGMxMiluKGMobjIpW0NIMl1bT0hdKVtDSDJdW0NASF0oW09IXSljM1tjSF1bY0hdW2NIXVtjSF1jM0Ns

> <s_epik_cmdline>
J2VwaWtfcHl0aG9uJywgJy1waCcsICc3LjAnLCAnLXRuJywgJzgnLCAnLW1hJywgJzIwMCcsICctbWV0YWxfYmluZGluZycsICctaW1hZScsICc8aW5maWxlLm1hZT4nLCAnLW9tYWUnLCAnPG91dGZpbGUubWFlPic=

> <r_epik_Ionization_Penalty>
0.0634742

> <r_epik_Ionization_Penalty_Charging>
0

> <r_epik_Ionization_Penalty_Neutral>
0.0634742

> <r_epik_State_Penalty>
0.0551572

> <r_epik_Charging_Adjusted_Penalty>
0.0551572

> <i_epik_Tot_Q>
0

> <i_epik_Tot_abs_Q>
0

> <r_epik_Metal_State_Penalty>
5.78034e-05

> <b_epik_Metal_Only>
0

> <s_lp_Force_Field>
OPLS_2005

> <r_lp_Energy>
13.6996

> <b_lp_Chiralities_Consistent>
1

> <s_lp_Variant>
AV-unprocessed.smi:849-1

> <Gold.Version>
5.8.1

> <Gold.Id.Protein>
6NUR|6NUR_protein|mol2

> <Gold.PLP.Fitness>
47.9058

> <Gold.PLP.PLP>
-43.1577

> <Gold.PLP.part.hbond>
-2.0000

> <Gold.PLP.part.metal>
0.0000

> <Gold.PLP.part.buried>
-5.0456

> <Gold.PLP.part.nonpolar>
-35.5183

> <Gold.PLP.part.repulsive>
0.0000

> <Gold.PLP.ligand.clash>
0.0000

> <Gold.PLP.ligand.torsion>
0.3752

> <Gold.PLP.Chemscore.Hbond>
1.8000

> <Gold.PLP.Chemscore.CHOScore>
0.0000

> <Gold.PLP.Chemscore.Metal>
0.0000

> <Gold.Chemscore.Hbonds>
donor molecule, donor type, donor heavy atom, donor atom, acceptor molecule, acceptor atom, score
      P1  H  7997  8009       L1     4  0.20

> <Gold.PLP.Chemscore.Internal.Correction>
0.0985

> <Gold.Rescore>
     Score         DG    S(hbond)    S(metal)    S(lipo)     H(rot)  DE(clash)    DE(int)     intcor
     14.65     -15.55       1.27        0.00     107.19       2.62       0.22       0.67       ----

> <Gold.Chemscore.Fitness>
14.6527

> <Gold.Chemscore.DG>
-15.5482

> <Gold.Chemscore.ZeroCoef>
-5.4800

> <Gold.Chemscore.Hbond>
1.2702

> <Gold.Chemscore.Metal>
0.0000

> <Gold.Chemscore.Lipo>
107.1896

> <Gold.Chemscore.Internal_Hbond>
0.0000

> <Gold.Chemscore.DEClash>
0.2205

> <Gold.Chemscore.DEInternal>
0.6750

> <Gold.Chemscore.Rot>
2.6232

> <Gold.Chemscore.Internal.Correction>
   9.000000E+99

> <Gold.Chemscore.Hbonds>
donor molecule, donor type, donor heavy atom, donor atom, acceptor molecule, acceptor atom, score
      P1  H  7989  7998       L1     1  0.01

> <Gold.Chemscore.Hbond.Weighted>
-4.2425

> <Gold.Chemscore.Metal.Weighted>
-0.0000

> <Gold.Chemscore.Lipo.Weighted>
-12.5412

> <Gold.Chemscore.Internal_Hbond.Weighted>
0.0000

> <Gold.Chemscore.DEClash.Weighted>
0.2205

> <Gold.Chemscore.DEInternal.Weighted>
0.6750

> <Gold.Chemscore.Rot.Weighted>
6.7154

> <Gold.Chemscore.Internal.Correction.Weighted>
   9.000000E+99

> <Gold.Protein.RotatedTorsions>
[ 6907 6896 6895 6894 ] final  159.64 input  -60.11 | X-H torsion
[ 7974 7965 7964 7962 ] final   89.17 input  175.53 | X-H torsion
[ 8008 7997 7996 7995 ] final  152.95 input   59.86 | X-H torsion
[ 10167 10162 10161 10158 ] final  -32.39 input  -65.29 | X-H torsion
[ 10718 10713 10712 10709 ] final -169.55 input   66.30 | X-H torsion
[ 10763 10752 10751 10750 ] final   69.14 input  -60.55 | X-H torsion
[ 11005 11000 10999 10996 ] final  110.79 input  -57.11 | X-H torsion

> <Gold.Protein.ActiveResidues>
 VAL166  LYS551  ARG553  GLY616  TRP617  ASP618  TYR619  PRO620  LYS621  CYS622 
 ASP623  PHE694  ASN695  SER759  ASP760  ASP761  ALA762  ILE779  LEU786  VAL792 
 PHE793  MET794  SER795  GLU796  ALA797  LYS798  CYS799  TRP800  GLU811  SER814 

> <Gold.Protein.RotatedAtoms>
  151.9826  133.3763  159.4113 H   0  0  0  0  0  0  0  0  0  0  0  0  # atno 6907 bound_to 6896
  150.6932  134.4022  159.5133 H   0  0  0  0  0  0  0  0  0  0  0  0  # atno 6908 bound_to 6896
  152.1744  134.8807  160.0582 H   0  0  0  0  0  0  0  0  0  0  0  0  # atno 6909 bound_to 6896
  145.5360  139.2286  143.2592 H   0  0  0  0  0  0  0  0  0  0  0  0  # atno 7974 bound_to 7965
  156.2605  140.2007  156.6413 H   0  0  0  0  0  0  0  0  0  0  0  0  # atno 8008 bound_to 7997
  154.6607  140.0561  157.0083 H   0  0  0  0  0  0  0  0  0  0  0  0  # atno 8009 bound_to 7997
  155.1281  140.3231  155.4483 H   0  0  0  0  0  0  0  0  0  0  0  0  # atno 8010 bound_to 7997
  140.7222  143.3698  151.1800 H   0  0  0  0  0  0  0  0  0  0  0  0  # atno 10167 bound_to 10162
  156.7132  130.9241  151.3091 H   0  0  0  0  0  0  0  0  0  0  0  0  # atno 10718 bound_to 10713
  153.0271  135.5222  154.7242 H   0  0  0  0  0  0  0  0  0  0  0  0  # atno 10763 bound_to 10752
  154.6288  135.2898  155.0242 H   0  0  0  0  0  0  0  0  0  0  0  0  # atno 10764 bound_to 10752
  154.1202  135.6609  153.4954 H   0  0  0  0  0  0  0  0  0  0  0  0  # atno 10765 bound_to 10752
  139.8889  134.9492  156.6333 H   0  0  0  0  0  0  0  0  0  0  0  0  # atno 11005 bound_to 11000
  146.2013  140.6178  142.9101 LP  0  0  0  0  0  0  0  0  0  0  0  0  # atno 17320 bound_to 7965
  144.7601  140.5402  143.6741 LP  0  0  0  0  0  0  0  0  0  0  0  0  # atno 17321 bound_to 7965
  139.7267  143.9137  152.3005 LP  0  0  0  0  0  0  0  0  0  0  0  0  # atno 17342 bound_to 10162
  139.8912  144.6964  150.8768 LP  0  0  0  0  0  0  0  0  0  0  0  0  # atno 17343 bound_to 10162
  157.6927  130.9250  150.0559 LP  0  0  0  0  0  0  0  0  0  0  0  0  # atno 17370 bound_to 10713
  156.1646  130.3644  149.9250 LP  0  0  0  0  0  0  0  0  0  0  0  0  # atno 17371 bound_to 10713
  140.7650  133.8786  155.8447 LP  0  0  0  0  0  0  0  0  0  0  0  0  # atno 17394 bound_to 11000
  140.9890  134.1304  157.4425 LP  0  0  0  0  0  0  0  0  0  0  0  0  # atno 17395 bound_to 11000

$$$$
