AV-unprocessed.smi:3061|AV-procd|sdf|11679|dock9
  -GOLD-   2272017 83D 1   1.00000     0.00000
 Structure written by MMmdl.
 35 36  0  0  0  0  0  0  0  0  1 V2000
  147.5818  131.7465  152.7274 C   0  0  0  0  0  0  0  0  0  0  0  0
  147.2685  133.2447  152.8597 C   0  0  2  0  0  0  0  0  0  0  0  0
  146.8299  133.8518  151.5131 C   0  0  0  0  0  0  0  0  0  0  0  0
  145.7144  133.1346  150.9219 N   0  0  0  0  0  0  0  0  0  0  0  0
  145.6527  131.9149  150.3854 C   0  0  0  0  0  0  0  0  0  0  0  0
  144.4515  131.5920  149.9268 N   0  0  0  0  0  0  0  0  0  0  0  0
  143.7735  132.7368  150.2383 C   0  0  0  0  0  0  0  0  0  0  0  0
  144.4848  133.6933  150.8351 N   0  0  0  0  0  0  0  0  0  0  0  0
  148.4406  133.9544  153.3685 N   0  0  0  0  0  0  0  0  0  0  0  0
  149.0889  133.6725  154.5087 C   0  0  0  0  0  0  0  0  0  0  0  0
  148.7731  132.7462  155.2561 O   0  0  0  0  0  0  0  0  0  0  0  0
  150.2756  134.5826  154.8611 C   0  0  2  0  0  0  0  0  0  0  0  0
  150.8767  134.2237  156.2354 C   0  0  0  0  0  0  0  0  0  0  0  0
  150.5757  135.4372  157.0990 C   0  0  0  0  0  0  0  0  0  0  0  0
  150.8385  135.4848  158.2998 O   0  0  0  0  0  0  0  0  0  0  0  0
  149.9979  136.4040  156.3808 N   0  0  0  0  0  0  0  0  0  0  0  0
  149.5745  137.7026  156.8864 C   0  0  0  0  0  0  0  0  0  0  0  0
  149.8640  136.0673  154.9738 C   0  0  0  0  0  0  0  0  0  0  0  0
  146.7143  131.1963  152.3619 H   0  0  0  0  0  0  0  0  0  0  0  0
  147.8613  131.3148  153.6893 H   0  0  0  0  0  0  0  0  0  0  0  0
  148.4036  131.5719  152.0322 H   0  0  0  0  0  0  0  0  0  0  0  0
  146.4424  133.3558  153.5650 H   0  0  0  0  0  0  0  0  0  0  0  0
  146.5471  134.8982  151.6360 H   0  0  0  0  0  0  0  0  0  0  0  0
  147.6586  133.8346  150.8036 H   0  0  0  0  0  0  0  0  0  0  0  0
  146.5043  131.2532  150.3232 H   0  0  0  0  0  0  0  0  0  0  0  0
  142.7246  132.8694  150.0179 H   0  0  0  0  0  0  0  0  0  0  0  0
  148.7758  134.7302  152.8164 H   0  0  0  0  0  0  0  0  0  0  0  0
  151.0420  134.4805  154.0906 H   0  0  0  0  0  0  0  0  0  0  0  0
  150.4476  133.3250  156.6818 H   0  0  0  0  0  0  0  0  0  0  0  0
  151.9558  134.0831  156.1681 H   0  0  0  0  0  0  0  0  0  0  0  0
  150.4380  138.2876  157.2046 H   0  0  0  0  0  0  0  0  0  0  0  0
  148.9055  137.5841  157.7397 H   0  0  0  0  0  0  0  0  0  0  0  0
  149.0453  138.2688  156.1194 H   0  0  0  0  0  0  0  0  0  0  0  0
  150.5299  136.6998  154.3853 H   0  0  0  0  0  0  0  0  0  0  0  0
  148.8446  136.2562  154.6317 H   0  0  0  0  0  0  0  0  0  0  0  0
  1  2  1  0  0  0  0
  1 19  1  0  0  0  0
  1 20  1  0  0  0  0
  1 21  1  0  0  0  0
  2  3  1  0  0  0  0
  2  9  1  0  0  0  0
  2 22  1  0  0  0  0
  3  4  1  0  0  0  0
  3 23  1  0  0  0  0
  3 24  1  0  0  0  0
  4  8  1  0  0  0  0
  4  5  1  0  0  0  0
  5  6  2  0  0  0  0
  5 25  1  0  0  0  0
  6  7  1  0  0  0  0
  7  8  2  0  0  0  0
  7 26  1  0  0  0  0
  9 10  1  0  0  0  0
  9 27  1  0  0  0  0
 10 11  2  0  0  0  0
 10 12  1  0  0  0  0
 12 18  1  0  0  0  0
 12 13  1  0  0  0  0
 12 28  1  0  0  0  0
 13 14  1  0  0  0  0
 13 29  1  0  0  0  0
 13 30  1  0  0  0  0
 14 15  2  0  0  0  0
 14 16  1  0  0  0  0
 16 17  1  0  0  0  0
 16 18  1  0  0  0  0
 17 31  1  0  0  0  0
 17 32  1  0  0  0  0
 17 33  1  0  0  0  0
 18 34  1  0  0  0  0
 18 35  1  0  0  0  0
M  END
> <s_m_source_file>
AV-unprocessed.smi

> <i_m_source_file_index>
3061

> <i_lp_mmshare_version>
43012

> <i_f3d_flags>
0

> <s_epik_input>
bjFbY0hdbltjSF1uMVtDSDJdW0NAQEhdKFtDSDNdKVtOSF1DKD1PKVtDQEBIXTJbQ0gyXUMoPU8pTihbQ0gzXSlbQ0gyXTI=

> <s_epik_cmdline>
J2VwaWtfcHl0aG9uJywgJy1waCcsICc3LjAnLCAnLXRuJywgJzgnLCAnLW1hJywgJzIwMCcsICctbWV0YWxfYmluZGluZycsICctaW1hZScsICc8aW5maWxlLm1hZT4nLCAnLW9tYWUnLCAnPG91dGZpbGUubWFlPic=

> <r_lp_tautomer_probability>
1

> <r_epik_Ionization_Penalty>
4.97611e-05

> <r_epik_Ionization_Penalty_Charging>
0

> <r_epik_Ionization_Penalty_Neutral>
4.97611e-05

> <r_epik_State_Penalty>
-0

> <r_epik_Charging_Adjusted_Penalty>
0

> <i_epik_Tot_Q>
0

> <i_epik_Tot_abs_Q>
0

> <r_epik_Metal_State_Penalty>
-0

> <b_epik_Metal_Only>
0

> <s_lp_Force_Field>
OPLS_2005

> <r_lp_Energy>
14.0738

> <b_lp_Chiralities_Consistent>
1

> <s_lp_Variant>
AV-unprocessed.smi:3061-1

> <Gold.Version>
5.8.1

> <Gold.Id.Protein>
6NUR|6NUR_protein|mol2

> <Gold.PLP.Fitness>
36.8337

> <Gold.PLP.PLP>
-24.6498

> <Gold.PLP.part.hbond>
-3.0000

> <Gold.PLP.part.metal>
0.0000

> <Gold.PLP.part.buried>
-2.2889

> <Gold.PLP.part.nonpolar>
-19.0819

> <Gold.PLP.part.repulsive>
0.2806

> <Gold.PLP.ligand.clash>
0.0000

> <Gold.PLP.ligand.torsion>
0.1250

> <Gold.PLP.Chemscore.Hbond>
2.1378

> <Gold.PLP.Chemscore.CHOScore>
2.0000

> <Gold.PLP.Chemscore.Metal>
0.0000

> <Gold.Chemscore.Hbonds>
donor molecule, donor type, donor heavy atom, donor atom, acceptor molecule, acceptor atom, score
      L1  H     9    27       P1  7948  0.75
      P1  H  6896  6909       L1    15  0.41
      P1  H 10785 10796       L1     6  0.24
      L1  C     5    25       P1 10747  1.00
      L1  C     7    26       P1 10186  1.00

> <Gold.PLP.Chemscore.Internal.Correction>
0.0204

> <Gold.Rescore>
     Score         DG    S(hbond)    S(metal)    S(lipo)     H(rot)  DE(clash)    DE(int)     intcor
     10.50     -10.99       2.55        0.00      27.12       2.42       0.09       0.40       ----

> <Gold.Chemscore.Fitness>
10.4961

> <Gold.Chemscore.DG>
-10.9901

> <Gold.Chemscore.ZeroCoef>
-5.4800

> <Gold.Chemscore.Hbond>
2.5543

> <Gold.Chemscore.Metal>
0.0000

> <Gold.Chemscore.Lipo>
27.1215

> <Gold.Chemscore.Internal_Hbond>
0.0000

> <Gold.Chemscore.DEClash>
0.0917

> <Gold.Chemscore.DEInternal>
0.4023

> <Gold.Chemscore.Rot>
2.4197

> <Gold.Chemscore.Internal.Correction>
   9.000000E+99

> <Gold.Chemscore.Hbonds>
donor molecule, donor type, donor heavy atom, donor atom, acceptor molecule, acceptor atom, score
      L1  H     9    27       P1  7948  0.09
      P1  H  6896  6909       L1    15  0.39
      P1  H 10785 10796       L1     6  0.22

> <Gold.Chemscore.Hbond.Weighted>
-8.5314

> <Gold.Chemscore.Metal.Weighted>
-0.0000

> <Gold.Chemscore.Lipo.Weighted>
-3.1732

> <Gold.Chemscore.Internal_Hbond.Weighted>
0.0000

> <Gold.Chemscore.DEClash.Weighted>
0.0917

> <Gold.Chemscore.DEInternal.Weighted>
0.4023

> <Gold.Chemscore.Rot.Weighted>
6.1945

> <Gold.Chemscore.Internal.Correction.Weighted>
   9.000000E+99

> <Gold.Protein.RotatedTorsions>
[ 6907 6896 6895 6894 ] final   68.55 input  -60.11 | X-H torsion
[ 7974 7965 7964 7962 ] final  120.62 input  175.53 | X-H torsion
[ 8008 7997 7996 7995 ] final -116.14 input   59.86 | X-H torsion
[ 10167 10162 10161 10158 ] final -135.21 input  -65.29 | X-H torsion
[ 10718 10713 10712 10709 ] final   95.03 input   66.30 | X-H torsion
[ 10763 10752 10751 10750 ] final   72.79 input  -60.55 | X-H torsion
[ 11005 11000 10999 10996 ] final   14.36 input  -57.11 | X-H torsion

> <Gold.Protein.ActiveResidues>
 VAL166  LYS551  ARG553  GLY616  TRP617  ASP618  TYR619  PRO620  LYS621  CYS622 
 ASP623  PHE694  ASN695  SER759  ASP760  ASP761  ALA762  ILE779  LEU786  VAL792 
 PHE793  MET794  SER795  GLU796  ALA797  LYS798  CYS799  TRP800  GLU811  SER814 

> <Gold.Protein.RotatedAtoms>
  152.4628  134.5145  159.9763 H   0  0  0  0  0  0  0  0  0  0  0  0  # atno 6907 bound_to 6896
  151.5190  133.3464  159.2906 H   0  0  0  0  0  0  0  0  0  0  0  0  # atno 6908 bound_to 6896
  150.8598  134.7976  159.7136 H   0  0  0  0  0  0  0  0  0  0  0  0  # atno 6909 bound_to 6896
  145.1290  139.3339  143.4675 H   0  0  0  0  0  0  0  0  0  0  0  0  # atno 7974 bound_to 7965
  155.0632  140.0393  157.2584 H   0  0  0  0  0  0  0  0  0  0  0  0  # atno 8008 bound_to 7997
  154.7042  140.2679  155.6666 H   0  0  0  0  0  0  0  0  0  0  0  0  # atno 8009 bound_to 7997
  156.2770  140.2734  156.1663 H   0  0  0  0  0  0  0  0  0  0  0  0  # atno 8010 bound_to 7997
  139.8802  143.6849  152.2628 H   0  0  0  0  0  0  0  0  0  0  0  0  # atno 10167 bound_to 10162
  157.6943  131.0532  150.4276 H   0  0  0  0  0  0  0  0  0  0  0  0  # atno 10718 bound_to 10713
  153.0481  135.5087  154.7797 H   0  0  0  0  0  0  0  0  0  0  0  0  # atno 10763 bound_to 10752
  154.6681  135.2949  154.9781 H   0  0  0  0  0  0  0  0  0  0  0  0  # atno 10764 bound_to 10752
  154.0608  135.6691  153.4864 H   0  0  0  0  0  0  0  0  0  0  0  0  # atno 10765 bound_to 10752
  140.4703  134.1037  155.7731 H   0  0  0  0  0  0  0  0  0  0  0  0  # atno 11005 bound_to 11000
  146.3515  140.1281  142.8598 LP  0  0  0  0  0  0  0  0  0  0  0  0  # atno 17320 bound_to 7965
  145.0656  140.9119  143.4912 LP  0  0  0  0  0  0  0  0  0  0  0  0  # atno 17321 bound_to 7965
  139.7203  144.7604  151.0966 LP  0  0  0  0  0  0  0  0  0  0  0  0  # atno 17342 bound_to 10162
  140.7746  143.5216  150.9530 LP  0  0  0  0  0  0  0  0  0  0  0  0  # atno 17343 bound_to 10162
  156.4646  130.4039  149.6555 LP  0  0  0  0  0  0  0  0  0  0  0  0  # atno 17370 bound_to 10713
  156.3658  130.7505  151.2482 LP  0  0  0  0  0  0  0  0  0  0  0  0  # atno 17371 bound_to 10713
  141.1580  133.8847  157.1926 LP  0  0  0  0  0  0  0  0  0  0  0  0  # atno 17394 bound_to 11000
  139.9889  135.0072  156.9928 LP  0  0  0  0  0  0  0  0  0  0  0  0  # atno 17395 bound_to 11000

$$$$
