AV-unprocessed.smi:3011|AV-procd|sdf|11460|dock6
  -GOLD-   2272016393D 1   1.00000     0.00000
 Structure written by MMmdl.
 47 49  0  0  0  0  0  0  0  0  2 V2000
  147.1012  131.7263  160.9351 C   0  0  0  0  0  0  0  0  0  0  0  0
  147.4807  132.9382  160.3001 O   0  0  0  0  0  0  0  0  0  0  0  0
  147.1769  134.1290  160.9270 C   0  0  0  0  0  0  0  0  0  0  0  0
  146.3698  134.2205  162.0893 C   0  0  0  0  0  0  0  0  0  0  0  0
  146.1084  135.4694  162.6809 C   0  0  0  0  0  0  0  0  0  0  0  0
  146.6506  136.6387  162.1214 C   0  0  0  0  0  0  0  0  0  0  0  0
  147.4516  136.5600  160.9678 C   0  0  0  0  0  0  0  0  0  0  0  0
  147.7178  135.3066  160.3606 C   0  0  0  0  0  0  0  0  0  0  0  0
  148.4858  135.1554  159.2251 O   0  0  0  0  0  0  0  0  0  0  0  0
  148.8942  136.3195  158.5197 C   0  0  0  0  0  0  0  0  0  0  0  0
  147.7851  136.7200  157.5380 C   0  0  0  0  0  0  0  0  0  0  0  0
  148.3270  137.2263  156.2675 N   0  0  0  0  0  0  0  0  0  0  0  0
  148.1987  136.7562  154.9909 C   0  0  0  0  0  0  0  0  0  0  0  0
  147.4511  135.5340  154.5420 C   0  0  1  0  0  0  0  0  0  0  0  0
  146.2242  135.9170  153.7008 C   0  0  0  0  0  0  0  0  0  0  0  0
  148.3044  134.6358  153.7743 N   0  0  0  0  0  0  0  0  0  0  0  0
  148.6737  133.4145  154.1794 C   0  0  0  0  0  0  0  0  0  0  0  0
  148.3214  132.9284  155.2508 O   0  0  0  0  0  0  0  0  0  0  0  0
  148.9132  137.5927  154.1842 N   0  3  0  0  0  0  0  0  0  0  0  0
  149.4779  138.6180  154.9418 C   0  0  0  0  0  0  0  0  0  0  0  0
  150.2685  139.6996  154.5658 C   0  0  0  0  0  0  0  0  0  0  0  0
  150.6774  140.5723  155.5953 C   0  0  0  0  0  0  0  0  0  0  0  0
  150.3005  140.3532  156.9361 C   0  0  0  0  0  0  0  0  0  0  0  0
  149.5008  139.2512  157.3051 C   0  0  0  0  0  0  0  0  0  0  0  0
  149.1017  138.3923  156.2810 C   0  0  0  0  0  0  0  0  0  0  0  0
  147.4181  130.8847  160.3195 H   0  0  0  0  0  0  0  0  0  0  0  0
  146.0189  131.6597  161.0519 H   0  0  0  0  0  0  0  0  0  0  0  0
  147.5789  131.6194  161.9099 H   0  0  0  0  0  0  0  0  0  0  0  0
  145.9383  133.3447  162.5493 H   0  0  0  0  0  0  0  0  0  0  0  0
  145.4924  135.5298  163.5661 H   0  0  0  0  0  0  0  0  0  0  0  0
  146.4508  137.5975  162.5766 H   0  0  0  0  0  0  0  0  0  0  0  0
  147.8487  137.4797  160.5665 H   0  0  0  0  0  0  0  0  0  0  0  0
  149.0840  137.1411  159.2118 H   0  0  0  0  0  0  0  0  0  0  0  0
  149.8148  136.1197  157.9696 H   0  0  0  0  0  0  0  0  0  0  0  0
  147.1240  135.8782  157.3318 H   0  0  0  0  0  0  0  0  0  0  0  0
  147.1578  137.4964  157.9747 H   0  0  0  0  0  0  0  0  0  0  0  0
  147.0893  134.9997  155.4216 H   0  0  0  0  0  0  0  0  0  0  0  0
  145.5650  136.5872  154.2531 H   0  0  0  0  0  0  0  0  0  0  0  0
  145.6441  135.0342  153.4304 H   0  0  0  0  0  0  0  0  0  0  0  0
  146.5090  136.4211  152.7767 H   0  0  0  0  0  0  0  0  0  0  0  0
  148.6352  134.9623  152.8777 H   0  0  0  0  0  0  0  0  0  0  0  0
  149.3190  132.9125  153.4419 H   0  0  0  0  0  0  0  0  0  0  0  0
  150.5569  139.8702  153.5390 H   0  0  0  0  0  0  0  0  0  0  0  0
  151.2909  141.4276  155.3513 H   0  0  0  0  0  0  0  0  0  0  0  0
  150.6312  141.0447  157.6975 H   0  0  0  0  0  0  0  0  0  0  0  0
  149.2167  139.0946  158.3351 H   0  0  0  0  0  0  0  0  0  0  0  0
  148.9988  137.4709  153.1835 H   0  0  0  0  0  0  0  0  0  0  0  0
  1  2  1  0  0  0  0
  1 26  1  0  0  0  0
  1 27  1  0  0  0  0
  1 28  1  0  0  0  0
  2  3  1  0  0  0  0
  3  8  1  0  0  0  0
  3  4  2  0  0  0  0
  4  5  1  0  0  0  0
  4 29  1  0  0  0  0
  5  6  2  0  0  0  0
  5 30  1  0  0  0  0
  6  7  1  0  0  0  0
  6 31  1  0  0  0  0
  7  8  2  0  0  0  0
  7 32  1  0  0  0  0
  8  9  1  0  0  0  0
  9 10  1  0  0  0  0
 10 11  1  0  0  0  0
 10 33  1  0  0  0  0
 10 34  1  0  0  0  0
 11 12  1  0  0  0  0
 11 35  1  0  0  0  0
 11 36  1  0  0  0  0
 12 25  1  0  0  0  0
 12 13  1  0  0  0  0
 13 14  1  0  0  0  0
 13 19  2  0  0  0  0
 14 15  1  0  0  0  0
 14 16  1  0  0  0  0
 14 37  1  0  0  0  0
 15 38  1  0  0  0  0
 15 39  1  0  0  0  0
 15 40  1  0  0  0  0
 16 17  1  0  0  0  0
 16 41  1  0  0  0  0
 17 18  2  0  0  0  0
 17 42  1  0  0  0  0
 19 20  1  0  0  0  0
 19 47  1  0  0  0  0
 20 25  2  0  0  0  0
 20 21  1  0  0  0  0
 21 22  2  0  0  0  0
 21 43  1  0  0  0  0
 22 23  1  0  0  0  0
 22 44  1  0  0  0  0
 23 24  2  0  0  0  0
 23 45  1  0  0  0  0
 24 25  1  0  0  0  0
 24 46  1  0  0  0  0
M  CHG  1  19   1
M  END
> <s_m_source_file>
AV-unprocessed.smi

> <i_m_source_file_index>
3011

> <i_lp_mmshare_version>
43012

> <i_f3d_flags>
0

> <s_epik_input>
W0NIM11PYzFbY0hdW2NIXVtjSF1bY0hdYzFPW0NIMl1bQ0gyXW4oYyhuMilbQ0BIXShbQ0gzXSlbTkhdW0NIXT1PKWMoYzIzKVtjSF1bY0hdW2NIXVtjSF0z

> <s_epik_cmdline>
J2VwaWtfcHl0aG9uJywgJy1waCcsICc3LjAnLCAnLXRuJywgJzgnLCAnLW1hJywgJzIwMCcsICctbWV0YWxfYmluZGluZycsICctaW1hZScsICc8aW5maWxlLm1hZT4nLCAnLW9tYWUnLCAnPG91dGZpbGUubWFlPic=

> <r_lp_tautomer_probability>
1

> <r_epik_Ionization_Penalty>
1.14644

> <r_epik_Ionization_Penalty_Charging>
1.14644

> <r_epik_Ionization_Penalty_Neutral>
5.5802e-08

> <r_epik_State_Penalty>
1.20743

> <r_epik_Charging_Adjusted_Penalty>
2.35387

> <i_epik_Tot_Q>
1

> <i_epik_Tot_abs_Q>
1

> <r_epik_Metal_State_Penalty>
1.28856

> <b_epik_Metal_Only>
0

> <s_lp_Force_Field>
OPLS_2005

> <r_lp_Energy>
19.9928

> <b_lp_Chiralities_Consistent>
1

> <s_lp_Variant>
AV-unprocessed.smi:3011-4

> <Gold.Version>
5.8.1

> <Gold.Id.Protein>
6NUR|6NUR_protein|mol2

> <Gold.PLP.Fitness>
46.6938

> <Gold.PLP.PLP>
-36.0149

> <Gold.PLP.part.hbond>
-3.0000

> <Gold.PLP.part.metal>
0.0000

> <Gold.PLP.part.buried>
-1.8431

> <Gold.PLP.part.nonpolar>
-31.0454

> <Gold.PLP.part.repulsive>
0.0012

> <Gold.PLP.ligand.clash>
0.0000

> <Gold.PLP.ligand.torsion>
0.6755

> <Gold.PLP.Chemscore.Hbond>
3.9840

> <Gold.PLP.Chemscore.CHOScore>
0.0000

> <Gold.PLP.Chemscore.Metal>
0.0000

> <Gold.Chemscore.Hbonds>
donor molecule, donor type, donor heavy atom, donor atom, acceptor molecule, acceptor atom, score
      L1  H    16    41       P1  7948  1.00
      L1  H    19    47       P1  7948  1.76
      P1  H  6896  6909       L1     9  0.24

> <Gold.PLP.Chemscore.Internal.Correction>
0.0780

> <Gold.Rescore>
     Score         DG    S(hbond)    S(metal)    S(lipo)     H(rot)  DE(clash)    DE(int)     intcor
     15.80     -16.78       2.39        0.00      86.58       2.66       0.25       0.73       ----

> <Gold.Chemscore.Fitness>
15.7970

> <Gold.Chemscore.DG>
-16.7768

> <Gold.Chemscore.ZeroCoef>
-5.4800

> <Gold.Chemscore.Hbond>
2.3886

> <Gold.Chemscore.Metal>
0.0000

> <Gold.Chemscore.Lipo>
86.5765

> <Gold.Chemscore.Internal_Hbond>
0.0000

> <Gold.Chemscore.DEClash>
0.2522

> <Gold.Chemscore.DEInternal>
0.7276

> <Gold.Chemscore.Rot>
2.6604

> <Gold.Chemscore.Internal.Correction>
   9.000000E+99

> <Gold.Chemscore.Hbonds>
donor molecule, donor type, donor heavy atom, donor atom, acceptor molecule, acceptor atom, score
      L1  H    16    41       P1  7948  0.38
      L1  H    19    47       P1  7948  0.86
      P1  H  6896  6909       L1     9  0.02

> <Gold.Chemscore.Hbond.Weighted>
-7.9780

> <Gold.Chemscore.Metal.Weighted>
-0.0000

> <Gold.Chemscore.Lipo.Weighted>
-10.1294

> <Gold.Chemscore.Internal_Hbond.Weighted>
0.0000

> <Gold.Chemscore.DEClash.Weighted>
0.2522

> <Gold.Chemscore.DEInternal.Weighted>
0.7276

> <Gold.Chemscore.Rot.Weighted>
6.8106

> <Gold.Chemscore.Internal.Correction.Weighted>
   9.000000E+99

> <Gold.Protein.RotatedTorsions>
[ 6907 6896 6895 6894 ] final   35.39 input  -60.11 | X-H torsion
[ 7974 7965 7964 7962 ] final   91.80 input  175.53 | X-H torsion
[ 8008 7997 7996 7995 ] final  168.89 input   59.86 | X-H torsion
[ 10167 10162 10161 10158 ] final    1.97 input  -65.29 | X-H torsion
[ 10718 10713 10712 10709 ] final -154.36 input   66.30 | X-H torsion
[ 10763 10752 10751 10750 ] final -102.90 input  -60.55 | X-H torsion
[ 11005 11000 10999 10996 ] final  161.51 input  -57.11 | X-H torsion

> <Gold.Protein.ActiveResidues>
 VAL166  LYS551  ARG553  GLY616  TRP617  ASP618  TYR619  PRO620  LYS621  CYS622 
 ASP623  PHE694  ASN695  SER759  ASP760  ASP761  ALA762  ILE779  LEU786  VAL792 
 PHE793  MET794  SER795  GLU796  ALA797  LYS798  CYS799  TRP800  GLU811  SER814 

> <Gold.Protein.RotatedAtoms>
  152.1154  134.9244  160.0564 H   0  0  0  0  0  0  0  0  0  0  0  0  # atno 6907 bound_to 6896
  152.0405  133.3970  159.4343 H   0  0  0  0  0  0  0  0  0  0  0  0  # atno 6908 bound_to 6896
  150.6846  134.3341  159.4883 H   0  0  0  0  0  0  0  0  0  0  0  0  # atno 6909 bound_to 6896
  145.5008  139.2276  143.2778 H   0  0  0  0  0  0  0  0  0  0  0  0  # atno 7974 bound_to 7965
  156.1506  140.1578  156.8776 H   0  0  0  0  0  0  0  0  0  0  0  0  # atno 8008 bound_to 7997
  154.5068  140.0811  156.7947 H   0  0  0  0  0  0  0  0  0  0  0  0  # atno 8009 bound_to 7997
  155.3903  140.3409  155.4253 H   0  0  0  0  0  0  0  0  0  0  0  0  # atno 8010 bound_to 7997
  140.6658  143.7184  150.7824 H   0  0  0  0  0  0  0  0  0  0  0  0  # atno 10167 bound_to 10162
  156.4983  130.8379  151.2598 H   0  0  0  0  0  0  0  0  0  0  0  0  # atno 10718 bound_to 10713
  154.7768  135.4843  153.9760 H   0  0  0  0  0  0  0  0  0  0  0  0  # atno 10763 bound_to 10752
  153.1439  135.6778  153.8992 H   0  0  0  0  0  0  0  0  0  0  0  0  # atno 10764 bound_to 10752
  153.8657  135.3150  155.3418 H   0  0  0  0  0  0  0  0  0  0  0  0  # atno 10765 bound_to 10752
  140.2166  134.8228  157.3176 H   0  0  0  0  0  0  0  0  0  0  0  0  # atno 11005 bound_to 11000
  146.2227  140.5809  142.9010 LP  0  0  0  0  0  0  0  0  0  0  0  0  # atno 17320 bound_to 7965
  144.7781  140.5782  143.6624 LP  0  0  0  0  0  0  0  0  0  0  0  0  # atno 17321 bound_to 7965
  140.0861  143.4922  152.2504 LP  0  0  0  0  0  0  0  0  0  0  0  0  # atno 17342 bound_to 10162
  139.5906  144.7548  151.3410 LP  0  0  0  0  0  0  0  0  0  0  0  0  # atno 17343 bound_to 10162
  157.7466  130.9990  150.2874 LP  0  0  0  0  0  0  0  0  0  0  0  0  # atno 17370 bound_to 10713
  156.3358  130.3807  149.7451 LP  0  0  0  0  0  0  0  0  0  0  0  0  # atno 17371 bound_to 10713
  140.1894  134.4390  155.7724 LP  0  0  0  0  0  0  0  0  0  0  0  0  # atno 17394 bound_to 11000
  141.2224  133.7020  156.8002 LP  0  0  0  0  0  0  0  0  0  0  0  0  # atno 17395 bound_to 11000

$$$$
