AV-unprocessed.smi:3112|AV-procd|sdf|11850|dock3
  -GOLD-   2272017233D 1   1.00000     0.00000
 Structure written by MMmdl.
 36 36  0  0  0  0  0  0  0  0  1 V2000
  146.8255  142.5766  155.0082 C   0  0  0  0  0  0  0  0  0  0  0  0
  147.6081  141.5292  154.2046 C   0  0  0  0  0  0  0  0  0  0  0  0
  149.1040  141.4729  154.5736 C   0  0  2  0  0  0  0  0  0  0  0  0
  149.7527  140.4144  153.8976 O   0  0  0  0  0  0  0  0  0  0  0  0
  149.3828  141.3495  156.0835 C   0  0  0  0  0  0  0  0  0  0  0  0
  150.3145  142.3736  156.5641 N   0  0  0  0  0  0  0  0  0  0  0  0
  150.9602  142.0723  157.8453 C   0  0  1  0  0  0  0  0  0  0  0  0
  151.6659  140.7089  157.7187 C   0  0  0  0  0  0  0  0  0  0  0  0
  151.9386  143.2053  158.2793 C   0  0  1  0  0  0  0  0  0  0  0  0
  151.3621  144.6282  158.1587 C   0  0  0  0  0  0  0  0  0  0  0  0
  152.4432  142.9983  159.6317 N   0  0  0  0  0  0  0  0  0  0  0  0
  153.1975  141.9462  160.1097 C   0  0  0  0  0  0  0  0  0  0  0  0
  153.4347  142.1811  161.4337 C   0  0  0  0  0  0  0  0  0  0  0  0
  152.7779  143.4187  161.6799 C   0  0  0  0  0  0  0  0  0  0  0  0
  152.1861  143.9055  160.6016 N   0  0  0  0  0  0  0  0  0  0  0  0
  145.7692  142.5601  154.7393 H   0  0  0  0  0  0  0  0  0  0  0  0
  147.1982  143.5835  154.8185 H   0  0  0  0  0  0  0  0  0  0  0  0
  146.8981  142.3877  156.0795 H   0  0  0  0  0  0  0  0  0  0  0  0
  147.1599  140.5511  154.3839 H   0  0  0  0  0  0  0  0  0  0  0  0
  147.4877  141.7299  153.1393 H   0  0  0  0  0  0  0  0  0  0  0  0
  149.5770  142.3944  154.2318 H   0  0  0  0  0  0  0  0  0  0  0  0
  149.3758  140.3337  153.0349 H   0  0  0  0  0  0  0  0  0  0  0  0
  148.4426  141.3740  156.6310 H   0  0  0  0  0  0  0  0  0  0  0  0
  149.8115  140.3653  156.2757 H   0  0  0  0  0  0  0  0  0  0  0  0
  151.0244  142.5301  155.8560 H   0  0  0  0  0  0  0  0  0  0  0  0
  150.1958  141.9560  158.6152 H   0  0  0  0  0  0  0  0  0  0  0  0
  152.0569  140.3628  158.6756 H   0  0  0  0  0  0  0  0  0  0  0  0
  152.4981  140.7559  157.0155 H   0  0  0  0  0  0  0  0  0  0  0  0
  150.9759  139.9420  157.3654 H   0  0  0  0  0  0  0  0  0  0  0  0
  152.8072  143.1581  157.6202 H   0  0  0  0  0  0  0  0  0  0  0  0
  151.2089  144.9082  157.1170 H   0  0  0  0  0  0  0  0  0  0  0  0
  152.0470  145.3642  158.5816 H   0  0  0  0  0  0  0  0  0  0  0  0
  150.4103  144.7214  158.6823 H   0  0  0  0  0  0  0  0  0  0  0  0
  153.4986  141.1259  159.4752 H   0  0  0  0  0  0  0  0  0  0  0  0
  153.9923  141.5631  162.1213 H   0  0  0  0  0  0  0  0  0  0  0  0
  152.7139  143.9740  162.6039 H   0  0  0  0  0  0  0  0  0  0  0  0
  1  2  1  0  0  0  0
  1 16  1  0  0  0  0
  1 17  1  0  0  0  0
  1 18  1  0  0  0  0
  2  3  1  0  0  0  0
  2 19  1  0  0  0  0
  2 20  1  0  0  0  0
  3  4  1  0  0  0  0
  3  5  1  0  0  0  0
  3 21  1  0  0  0  0
  4 22  1  0  0  0  0
  5  6  1  0  0  0  0
  5 23  1  0  0  0  0
  5 24  1  0  0  0  0
  6  7  1  0  0  0  0
  6 25  1  0  0  0  0
  7  8  1  0  0  0  0
  7  9  1  0  0  0  0
  7 26  1  0  0  0  0
  8 27  1  0  0  0  0
  8 28  1  0  0  0  0
  8 29  1  0  0  0  0
  9 10  1  0  0  0  0
  9 11  1  0  0  0  0
  9 30  1  0  0  0  0
 10 31  1  0  0  0  0
 10 32  1  0  0  0  0
 10 33  1  0  0  0  0
 11 15  1  0  0  0  0
 11 12  1  0  0  0  0
 12 13  2  0  0  0  0
 12 34  1  0  0  0  0
 13 14  1  0  0  0  0
 13 35  1  0  0  0  0
 14 15  2  0  0  0  0
 14 36  1  0  0  0  0
M  END
> <s_m_source_file>
AV-unprocessed.smi

> <i_m_source_file_index>
3112

> <i_lp_mmshare_version>
43012

> <i_f3d_flags>
0

> <s_epik_input>
W0NIM11bQ0gyXVtDQEhdKFtPSF0pW0NIMl1bTkhdW0NASF0oW0NIM10pW0NASF0oW0NIM10pbjFbY0hdW2NIXVtjSF1uMQ==

> <s_epik_cmdline>
J2VwaWtfcHl0aG9uJywgJy1waCcsICc3LjAnLCAnLXRuJywgJzgnLCAnLW1hJywgJzIwMCcsICctbWV0YWxfYmluZGluZycsICctaW1hZScsICc8aW5maWxlLm1hZT4nLCAnLW9tYWUnLCAnPG91dGZpbGUubWFlPic=

> <r_lp_tautomer_probability>
1

> <r_epik_Ionization_Penalty>
2.16876

> <r_epik_Ionization_Penalty_Charging>
0

> <r_epik_Ionization_Penalty_Neutral>
2.16876

> <r_epik_State_Penalty>
2.30854

> <r_epik_Charging_Adjusted_Penalty>
2.30854

> <i_epik_Tot_Q>
0

> <i_epik_Tot_abs_Q>
0

> <r_epik_Metal_State_Penalty>
2.3073

> <b_epik_Metal_Only>
0

> <s_lp_Force_Field>
OPLS_2005

> <r_lp_Energy>
23.3331

> <b_lp_Chiralities_Consistent>
1

> <s_lp_Variant>
AV-unprocessed.smi:3112-15

> <Gold.Version>
5.8.1

> <Gold.Id.Protein>
6NUR|6NUR_protein|mol2

> <Gold.PLP.Fitness>
44.8946

> <Gold.PLP.PLP>
-41.6924

> <Gold.PLP.part.hbond>
-2.9950

> <Gold.PLP.part.metal>
0.0000

> <Gold.PLP.part.buried>
-5.1052

> <Gold.PLP.part.nonpolar>
-34.0513

> <Gold.PLP.part.repulsive>
0.1053

> <Gold.PLP.ligand.clash>
0.0000

> <Gold.PLP.ligand.torsion>
1.0079

> <Gold.PLP.Chemscore.Hbond>
1.6720

> <Gold.PLP.Chemscore.CHOScore>
0.0000

> <Gold.PLP.Chemscore.Metal>
0.0000

> <Gold.Chemscore.Hbonds>
donor molecule, donor type, donor heavy atom, donor atom, acceptor molecule, acceptor atom, score
      L1  H     4    22       P1  7957  0.98
      P1  H  7989  7998       L1     4  0.67

> <Gold.PLP.Chemscore.Internal.Correction>
0.2020

> <Gold.Rescore>
     Score         DG    S(hbond)    S(metal)    S(lipo)     H(rot)  DE(clash)    DE(int)     intcor
     14.32     -15.42       1.45        0.00      94.15       2.31       0.00       1.10       ----

> <Gold.Chemscore.Fitness>
14.3166

> <Gold.Chemscore.DG>
-15.4175

> <Gold.Chemscore.ZeroCoef>
-5.4800

> <Gold.Chemscore.Hbond>
1.4483

> <Gold.Chemscore.Metal>
0.0000

> <Gold.Chemscore.Lipo>
94.1521

> <Gold.Chemscore.Internal_Hbond>
0.0000

> <Gold.Chemscore.DEClash>
0.0000

> <Gold.Chemscore.DEInternal>
1.1009

> <Gold.Chemscore.Rot>
2.3108

> <Gold.Chemscore.Internal.Correction>
   9.000000E+99

> <Gold.Chemscore.Hbonds>
donor molecule, donor type, donor heavy atom, donor atom, acceptor molecule, acceptor atom, score
      L1  H     4    22       P1  7957  0.93
      P1  H  7989  7998       L1     4  0.15

> <Gold.Chemscore.Hbond.Weighted>
-4.8374

> <Gold.Chemscore.Metal.Weighted>
-0.0000

> <Gold.Chemscore.Lipo.Weighted>
-11.0158

> <Gold.Chemscore.Internal_Hbond.Weighted>
0.0000

> <Gold.Chemscore.DEClash.Weighted>
0.0000

> <Gold.Chemscore.DEInternal.Weighted>
1.1009

> <Gold.Chemscore.Rot.Weighted>
5.9157

> <Gold.Chemscore.Internal.Correction.Weighted>
   9.000000E+99

> <Gold.Protein.RotatedTorsions>
[ 6907 6896 6895 6894 ] final  141.62 input  -60.11 | X-H torsion
[ 7974 7965 7964 7962 ] final  138.09 input  175.53 | X-H torsion
[ 8008 7997 7996 7995 ] final -166.11 input   59.86 | X-H torsion
[ 10167 10162 10161 10158 ] final  162.92 input  -65.29 | X-H torsion
[ 10718 10713 10712 10709 ] final   34.03 input   66.30 | X-H torsion
[ 10763 10752 10751 10750 ] final  -62.95 input  -60.55 | X-H torsion
[ 11005 11000 10999 10996 ] final -108.39 input  -57.11 | X-H torsion

> <Gold.Protein.ActiveResidues>
 VAL166  LYS551  ARG553  GLY616  TRP617  ASP618  TYR619  PRO620  LYS621  CYS622 
 ASP623  PHE694  ASN695  SER759  ASP760  ASP761  ALA762  ILE779  LEU786  VAL792 
 PHE793  MET794  SER795  GLU796  ALA797  LYS798  CYS799  TRP800  GLU811  SER814 

> <Gold.Protein.RotatedAtoms>
  152.2287  133.5041  159.5203 H   0  0  0  0  0  0  0  0  0  0  0  0  # atno 6907 bound_to 6896
  150.7031  134.1246  159.4056 H   0  0  0  0  0  0  0  0  0  0  0  0  # atno 6908 bound_to 6896
  151.9167  135.0316  160.0569 H   0  0  0  0  0  0  0  0  0  0  0  0  # atno 6909 bound_to 6896
  144.9406  139.4936  143.5574 H   0  0  0  0  0  0  0  0  0  0  0  0  # atno 7974 bound_to 7965
  155.8592  140.0975  157.1624 H   0  0  0  0  0  0  0  0  0  0  0  0  # atno 8008 bound_to 7997
  154.3989  140.1368  156.4002 H   0  0  0  0  0  0  0  0  0  0  0  0  # atno 8009 bound_to 7997
  155.7876  140.3456  155.5334 H   0  0  0  0  0  0  0  0  0  0  0  0  # atno 8010 bound_to 7997
  139.4867  144.4389  151.8977 H   0  0  0  0  0  0  0  0  0  0  0  0  # atno 10167 bound_to 10162
  157.3052  130.7371  149.6691 H   0  0  0  0  0  0  0  0  0  0  0  0  # atno 10718 bound_to 10713
  154.3077  135.6222  153.5452 H   0  0  0  0  0  0  0  0  0  0  0  0  # atno 10763 bound_to 10752
  152.9833  135.5693  154.5212 H   0  0  0  0  0  0  0  0  0  0  0  0  # atno 10764 bound_to 10752
  154.4856  135.2865  155.1513 H   0  0  0  0  0  0  0  0  0  0  0  0  # atno 10765 bound_to 10752
  141.0904  133.9065  157.2088 H   0  0  0  0  0  0  0  0  0  0  0  0  # atno 11005 bound_to 11000
  146.3284  139.8422  142.8888 LP  0  0  0  0  0  0  0  0  0  0  0  0  # atno 17320 bound_to 7965
  145.2998  141.0191  143.3615 LP  0  0  0  0  0  0  0  0  0  0  0  0  # atno 17321 bound_to 7965
  140.3840  144.2700  150.5906 LP  0  0  0  0  0  0  0  0  0  0  0  0  # atno 17342 bound_to 10162
  140.5207  143.2266  151.8393 LP  0  0  0  0  0  0  0  0  0  0  0  0  # atno 17343 bound_to 10162
  155.9674  130.4268  150.4714 LP  0  0  0  0  0  0  0  0  0  0  0  0  # atno 17370 bound_to 10713
  157.2702  131.0585  151.2264 LP  0  0  0  0  0  0  0  0  0  0  0  0  # atno 17371 bound_to 10713
  139.9729  135.0123  156.9558 LP  0  0  0  0  0  0  0  0  0  0  0  0  # atno 17394 bound_to 11000
  140.5265  134.0856  155.7305 LP  0  0  0  0  0  0  0  0  0  0  0  0  # atno 17395 bound_to 11000

$$$$
