AV-unprocessed.smi:2083|AV-procd|sdf|8503|dock2
  -GOLD-   2272011213D 1   1.00000     0.00000
 Structure written by MMmdl.
 44 45  0  0  0  0  0  0  0  0  3 V2000
  149.1287  140.8795  154.0360 C   0  0  0  0  0  0  0  0  0  0  0  0
  150.0577  139.7296  154.2246 C   0  0  0  0  0  0  0  0  0  0  0  0
  149.8659  138.3774  154.2519 C   0  0  0  0  0  0  0  0  0  0  0  0
  151.1737  137.8689  154.4800 C   0  0  0  0  0  0  0  0  0  0  0  0
  151.5111  136.5741  154.5812 N   0  5  0  0  0  0  0  0  0  0  0  0
  150.6657  135.6959  155.1664 C   0  0  0  0  0  0  0  0  0  0  0  0
  150.7687  135.2249  156.3016 O   0  0  0  0  0  0  0  0  0  0  0  0
  149.6313  135.3437  154.3897 N   0  0  0  0  0  0  0  0  0  0  0  0
  148.5599  134.4248  154.7636 C   0  0  0  0  0  0  0  0  0  0  0  0
  147.9925  133.6334  153.5519 C   0  0  1  0  0  0  0  0  0  0  0  0
  147.3235  132.3261  154.0334 C   0  0  0  0  0  0  0  0  0  0  0  0
  147.0314  134.4102  152.7016 N   0  3  1  0  0  0  0  0  0  0  0  0
  146.3675  133.6528  151.6004 C   0  0  0  0  0  0  0  0  0  0  0  0
  145.5212  134.5755  150.7070 C   0  0  0  0  0  0  0  0  0  0  0  0
  144.4936  135.3652  151.5257 C   0  0  0  0  0  0  0  0  0  0  0  0
  145.1721  136.1114  152.6858 C   0  0  2  0  0  0  0  0  0  0  0  0
  145.9812  137.3362  152.2232 C   0  0  0  0  0  0  0  0  0  0  0  0
  146.0196  135.1349  153.5248 C   0  0  0  0  0  0  0  0  0  0  0  0
  152.0814  138.8268  154.5642 N   0  0  0  0  0  0  0  0  0  0  0  0
  151.3729  140.0239  154.4072 O   0  0  0  0  0  0  0  0  0  0  0  0
  148.7462  140.9011  153.0156 H   0  0  0  0  0  0  0  0  0  0  0  0
  149.6311  141.8275  154.2297 H   0  0  0  0  0  0  0  0  0  0  0  0
  148.2794  140.8034  154.7150 H   0  0  0  0  0  0  0  0  0  0  0  0
  148.9384  137.8376  154.1328 H   0  0  0  0  0  0  0  0  0  0  0  0
  149.5876  135.7483  153.4656 H   0  0  0  0  0  0  0  0  0  0  0  0
  148.9583  133.7369  155.5100 H   0  0  0  0  0  0  0  0  0  0  0  0
  147.7847  135.0132  155.2567 H   0  0  0  0  0  0  0  0  0  0  0  0
  148.8413  133.3690  152.9193 H   0  0  0  0  0  0  0  0  0  0  0  0
  148.0165  131.7003  154.5960 H   0  0  0  0  0  0  0  0  0  0  0  0
  146.9631  131.7111  153.2106 H   0  0  0  0  0  0  0  0  0  0  0  0
  146.4725  132.5382  154.6812 H   0  0  0  0  0  0  0  0  0  0  0  0
  147.1046  133.1825  150.9507 H   0  0  0  0  0  0  0  0  0  0  0  0
  145.7491  132.8584  152.0220 H   0  0  0  0  0  0  0  0  0  0  0  0
  146.1740  135.2629  150.1684 H   0  0  0  0  0  0  0  0  0  0  0  0
  145.0098  133.9854  149.9459 H   0  0  0  0  0  0  0  0  0  0  0  0
  143.9502  136.0614  150.8858 H   0  0  0  0  0  0  0  0  0  0  0  0
  143.7507  134.6743  151.9269 H   0  0  0  0  0  0  0  0  0  0  0  0
  144.3794  136.4933  153.3305 H   0  0  0  0  0  0  0  0  0  0  0  0
  146.8238  137.0546  151.5919 H   0  0  0  0  0  0  0  0  0  0  0  0
  146.3808  137.8838  153.0772 H   0  0  0  0  0  0  0  0  0  0  0  0
  145.3570  138.0268  151.6553 H   0  0  0  0  0  0  0  0  0  0  0  0
  145.3661  134.4027  154.0022 H   0  0  0  0  0  0  0  0  0  0  0  0
  146.4924  135.6884  154.3345 H   0  0  0  0  0  0  0  0  0  0  0  0
  147.5887  135.1152  152.2409 H   0  0  0  0  0  0  0  0  0  0  0  0
  1  2  1  0  0  0  0
  1 21  1  0  0  0  0
  1 22  1  0  0  0  0
  1 23  1  0  0  0  0
  2 20  1  0  0  0  0
  2  3  2  0  0  0  0
  3  4  1  0  0  0  0
  3 24  1  0  0  0  0
  4  5  1  0  0  0  0
  4 19  2  0  0  0  0
  5  6  1  0  0  0  0
  6  7  2  0  0  0  0
  6  8  1  0  0  0  0
  8  9  1  0  0  0  0
  8 25  1  0  0  0  0
  9 10  1  0  0  0  0
  9 26  1  0  0  0  0
  9 27  1  0  0  0  0
 10 11  1  0  0  0  0
 10 12  1  0  0  0  0
 10 28  1  0  0  0  0
 11 29  1  0  0  0  0
 11 30  1  0  0  0  0
 11 31  1  0  0  0  0
 12 18  1  0  0  0  0
 12 13  1  0  0  0  0
 12 44  1  0  0  0  0
 13 14  1  0  0  0  0
 13 32  1  0  0  0  0
 13 33  1  0  0  0  0
 14 15  1  0  0  0  0
 14 34  1  0  0  0  0
 14 35  1  0  0  0  0
 15 16  1  0  0  0  0
 15 36  1  0  0  0  0
 15 37  1  0  0  0  0
 16 17  1  0  0  0  0
 16 18  1  0  0  0  0
 16 38  1  0  0  0  0
 17 39  1  0  0  0  0
 17 40  1  0  0  0  0
 17 41  1  0  0  0  0
 18 42  1  0  0  0  0
 18 43  1  0  0  0  0
 19 20  1  0  0  0  0
M  CHG  1   5  -1
M  CHG  1  12   1
M  END
> <s_m_source_file>
AV-unprocessed.smi

> <i_m_source_file_index>
2083

> <i_lp_mmshare_version>
43012

> <i_f3d_flags>
0

> <s_epik_input>
W0NIM11jMVtjSF1jKG5vMSlbTkhdQyg9TylbTkhdW0NIMl1bQ0BIXShbQ0gzXSlOMltDSDJdW0NIMl1bQ0gyXVtDQEBIXShbQ0gzXSlbQ0gyXTI=

> <s_epik_cmdline>
J2VwaWtfcHl0aG9uJywgJy1waCcsICc3LjAnLCAnLXRuJywgJzgnLCAnLW1hJywgJzIwMCcsICctbWV0YWxfYmluZGluZycsICctaW1hZScsICc8aW5maWxlLm1hZT4nLCAnLW9tYWUnLCAnPG91dGZpbGUubWFlPic=

> <r_epik_Ionization_Penalty>
6.22434

> <r_epik_Ionization_Penalty_Charging>
6.22425

> <r_epik_Ionization_Penalty_Neutral>
9.62407e-05

> <r_epik_State_Penalty>
6.22423

> <r_epik_Charging_Adjusted_Penalty>
12.4485

> <i_epik_Tot_Q>
0

> <i_epik_Tot_abs_Q>
2

> <r_epik_Metal_State_Penalty>
2.16764

> <b_epik_Metal_Only>
1

> <s_lp_Force_Field>
OPLS_2005

> <r_lp_Energy>
12.2098

> <b_lp_Chiralities_Consistent>
1

> <s_lp_Variant>
AV-unprocessed.smi:2083-14

> <Gold.Version>
5.8.1

> <Gold.Id.Protein>
6NUR|6NUR_protein|mol2

> <Gold.PLP.Fitness>
48.0280

> <Gold.PLP.PLP>
-33.0896

> <Gold.PLP.part.hbond>
-4.1661

> <Gold.PLP.part.metal>
0.0000

> <Gold.PLP.part.buried>
-3.6069

> <Gold.PLP.part.nonpolar>
-25.6466

> <Gold.PLP.part.repulsive>
0.3380

> <Gold.PLP.ligand.clash>
0.0000

> <Gold.PLP.ligand.torsion>
1.4987

> <Gold.PLP.Chemscore.Hbond>
5.9413

> <Gold.PLP.Chemscore.CHOScore>
0.0000

> <Gold.PLP.Chemscore.Metal>
0.0000

> <Gold.Chemscore.Hbonds>
donor molecule, donor type, donor heavy atom, donor atom, acceptor molecule, acceptor atom, score
      L1  H     8    25       P1  7948  0.85
      L1  H    12    44       P1  7948  2.00
      P1  H  7989  7998       L1    20  0.34
      P1  H 10752 10764       L1     5  2.00

> <Gold.PLP.Chemscore.Internal.Correction>
0.1121

> <Gold.Rescore>
     Score         DG    S(hbond)    S(metal)    S(lipo)     H(rot)  DE(clash)    DE(int)     intcor
     17.79     -19.20       3.21        0.00      58.97       1.52       0.12       1.29       ----

> <Gold.Chemscore.Fitness>
17.7926

> <Gold.Chemscore.DG>
-19.2048

> <Gold.Chemscore.ZeroCoef>
-5.4800

> <Gold.Chemscore.Hbond>
3.2076

> <Gold.Chemscore.Metal>
0.0000

> <Gold.Chemscore.Lipo>
58.9748

> <Gold.Chemscore.Internal_Hbond>
0.0000

> <Gold.Chemscore.DEClash>
0.1236

> <Gold.Chemscore.DEInternal>
1.2886

> <Gold.Chemscore.Rot>
1.5190

> <Gold.Chemscore.Internal.Correction>
   9.000000E+99

> <Gold.Chemscore.Hbonds>
donor molecule, donor type, donor heavy atom, donor atom, acceptor molecule, acceptor atom, score
      L1  H     8    25       P1  7948  0.15
      L1  H    12    44       P1  7948  0.97
      P1  H  7989  7998       L1    20  0.16
      P1  H 10752 10764       L1     5  0.55

> <Gold.Chemscore.Hbond.Weighted>
-10.7134

> <Gold.Chemscore.Metal.Weighted>
-0.0000

> <Gold.Chemscore.Lipo.Weighted>
-6.9001

> <Gold.Chemscore.Internal_Hbond.Weighted>
0.0000

> <Gold.Chemscore.DEClash.Weighted>
0.1236

> <Gold.Chemscore.DEInternal.Weighted>
1.2886

> <Gold.Chemscore.Rot.Weighted>
3.8886

> <Gold.Chemscore.Internal.Correction.Weighted>
   9.000000E+99

> <Gold.Protein.RotatedTorsions>
[ 6907 6896 6895 6894 ] final  101.13 input  -60.11 | X-H torsion
[ 7974 7965 7964 7962 ] final  -37.71 input  175.53 | X-H torsion
[ 8008 7997 7996 7995 ] final -146.79 input   59.86 | X-H torsion
[ 10167 10162 10161 10158 ] final  159.80 input  -65.29 | X-H torsion
[ 10718 10713 10712 10709 ] final   68.87 input   66.30 | X-H torsion
[ 10763 10752 10751 10750 ] final  -82.42 input  -60.55 | X-H torsion
[ 11005 11000 10999 10996 ] final  105.45 input  -57.11 | X-H torsion

> <Gold.Protein.ActiveResidues>
 VAL166  LYS551  ARG553  GLY616  TRP617  ASP618  TYR619  PRO620  LYS621  CYS622 
 ASP623  PHE694  ASN695  SER759  ASP760  ASP761  ALA762  ILE779  LEU786  VAL792 
 PHE793  MET794  SER795  GLU796  ALA797  LYS798  CYS799  TRP800  GLU811  SER814 

> <Gold.Protein.RotatedAtoms>
  152.5356  134.0172  159.7964 H   0  0  0  0  0  0  0  0  0  0  0  0  # atno 6907 bound_to 6896
  151.0364  133.5737  159.2662 H   0  0  0  0  0  0  0  0  0  0  0  0  # atno 6908 bound_to 6896
  151.2723  135.0695  159.9192 H   0  0  0  0  0  0  0  0  0  0  0  0  # atno 6909 bound_to 6896
  146.0551  140.6428  142.9024 H   0  0  0  0  0  0  0  0  0  0  0  0  # atno 7974 bound_to 7965
  155.5651  140.0629  157.2820 H   0  0  0  0  0  0  0  0  0  0  0  0  # atno 8008 bound_to 7997
  154.4378  140.1879  156.0868 H   0  0  0  0  0  0  0  0  0  0  0  0  # atno 8009 bound_to 7997
  156.0418  140.3295  155.7256 H   0  0  0  0  0  0  0  0  0  0  0  0  # atno 8010 bound_to 7997
  139.4835  144.4696  151.8595 H   0  0  0  0  0  0  0  0  0  0  0  0  # atno 10167 bound_to 10162
  157.6314  130.9396  150.0436 H   0  0  0  0  0  0  0  0  0  0  0  0  # atno 10718 bound_to 10713
  154.5755  135.5592  153.7135 H   0  0  0  0  0  0  0  0  0  0  0  0  # atno 10763 bound_to 10752
  153.0063  135.6307  154.2055 H   0  0  0  0  0  0  0  0  0  0  0  0  # atno 10764 bound_to 10752
  154.1995  135.2878  155.2975 H   0  0  0  0  0  0  0  0  0  0  0  0  # atno 10765 bound_to 10752
  139.8802  134.9336  156.5516 H   0  0  0  0  0  0  0  0  0  0  0  0  # atno 11005 bound_to 11000
  144.7143  140.4154  143.7056 LP  0  0  0  0  0  0  0  0  0  0  0  0  # atno 17320 bound_to 7965
  145.6658  139.1590  143.2782 LP  0  0  0  0  0  0  0  0  0  0  0  0  # atno 17321 bound_to 7965
  140.4163  144.2302  150.5887 LP  0  0  0  0  0  0  0  0  0  0  0  0  # atno 17342 bound_to 10162
  140.4917  143.2345  151.8809 LP  0  0  0  0  0  0  0  0  0  0  0  0  # atno 17343 bound_to 10162
  156.1520  130.3642  149.9425 LP  0  0  0  0  0  0  0  0  0  0  0  0  # atno 17370 bound_to 10713
  156.7442  130.9091  151.3634 LP  0  0  0  0  0  0  0  0  0  0  0  0  # atno 17371 bound_to 10713
  140.8236  133.8334  155.8918 LP  0  0  0  0  0  0  0  0  0  0  0  0  # atno 17394 bound_to 11000
  140.9395  134.1919  157.4807 LP  0  0  0  0  0  0  0  0  0  0  0  0  # atno 17395 bound_to 11000

$$$$
