AV-unprocessed.smi:828|AV-procd|sdf|3859|dock5
  -GOLD-   22720 1313D 1   1.00000     0.00000
 Structure written by MMmdl.
 35 36  0  0  0  0  0  0  0  0  2 V2000
  150.9123  131.3509  156.6750 C   0  0  0  0  0  0  0  0  0  0  0  0
  149.9054  131.9070  155.7268 C   0  0  0  0  0  0  0  0  0  0  0  0
  148.7765  131.2621  155.4082 N   0  0  0  0  0  0  0  0  0  0  0  0
  147.9981  131.9767  154.5084 N   0  0  0  0  0  0  0  0  0  0  0  0
  148.5662  133.1432  154.1729 C   0  0  0  0  0  0  0  0  0  0  0  0
  147.9860  134.0721  153.2688 N   0  0  0  0  0  0  0  0  0  0  0  0
  146.7013  134.1679  152.8833 C   0  0  0  0  0  0  0  0  0  0  0  0
  145.7861  133.4394  153.2672 O   0  0  0  0  0  0  0  0  0  0  0  0
  146.5295  135.1711  152.0096 N   0  0  0  0  0  0  0  0  0  0  0  0
  145.2584  135.5584  151.4028 C   0  0  0  0  0  0  0  0  0  0  0  0
  144.6813  134.4387  150.5008 C   0  0  1  0  0  0  0  0  0  0  0  0
  145.6692  133.3010  150.1983 C   0  0  0  0  0  0  0  0  0  0  0  0
  144.7695  132.1137  149.8886 C   0  0  0  0  0  0  0  0  0  0  0  0
  143.6233  132.3102  150.8751 C   0  0  0  0  0  0  0  0  0  0  0  0
  143.4362  133.7742  150.9922 N   0  3  1  0  0  0  0  0  0  0  0  0
  142.9002  134.1889  152.3101 C   0  0  0  0  0  0  0  0  0  0  0  0
  150.1151  133.4638  154.9341 S   0  0  0  0  0  0  0  0  0  0  0  0
  150.4518  130.6137  157.3335 H   0  0  0  0  0  0  0  0  0  0  0  0
  151.3322  132.1491  157.2872 H   0  0  0  0  0  0  0  0  0  0  0  0
  151.7196  130.8715  156.1214 H   0  0  0  0  0  0  0  0  0  0  0  0
  148.6255  134.7455  152.8732 H   0  0  0  0  0  0  0  0  0  0  0  0
  147.3387  135.7176  151.7527 H   0  0  0  0  0  0  0  0  0  0  0  0
  144.5439  135.8470  152.1755 H   0  0  0  0  0  0  0  0  0  0  0  0
  145.4550  136.4527  150.8116 H   0  0  0  0  0  0  0  0  0  0  0  0
  144.4025  134.8910  149.5478 H   0  0  0  0  0  0  0  0  0  0  0  0
  146.3518  133.5378  149.3816 H   0  0  0  0  0  0  0  0  0  0  0  0
  146.2682  133.0750  151.0816 H   0  0  0  0  0  0  0  0  0  0  0  0
  144.4012  132.1785  148.8638 H   0  0  0  0  0  0  0  0  0  0  0  0
  145.2738  131.1545  150.0095 H   0  0  0  0  0  0  0  0  0  0  0  0
  142.7067  131.8131  150.5566 H   0  0  0  0  0  0  0  0  0  0  0  0
  143.9101  131.8952  151.8432 H   0  0  0  0  0  0  0  0  0  0  0  0
  143.6093  133.9848  153.1133 H   0  0  0  0  0  0  0  0  0  0  0  0
  141.9830  133.6409  152.5279 H   0  0  0  0  0  0  0  0  0  0  0  0
  142.6514  135.2500  152.3190 H   0  0  0  0  0  0  0  0  0  0  0  0
  142.7262  134.0173  150.3160 H   0  0  0  0  0  0  0  0  0  0  0  0
  1  2  1  0  0  0  0
  1 18  1  0  0  0  0
  1 19  1  0  0  0  0
  1 20  1  0  0  0  0
  2 17  1  0  0  0  0
  2  3  2  0  0  0  0
  3  4  1  0  0  0  0
  4  5  2  0  0  0  0
  5  6  1  0  0  0  0
  5 17  1  0  0  0  0
  6  7  1  0  0  0  0
  6 21  1  0  0  0  0
  7  8  2  0  0  0  0
  7  9  1  0  0  0  0
  9 10  1  0  0  0  0
  9 22  1  0  0  0  0
 10 11  1  0  0  0  0
 10 23  1  0  0  0  0
 10 24  1  0  0  0  0
 11 15  1  0  0  0  0
 11 12  1  0  0  0  0
 11 25  1  0  0  0  0
 12 13  1  0  0  0  0
 12 26  1  0  0  0  0
 12 27  1  0  0  0  0
 13 14  1  0  0  0  0
 13 28  1  0  0  0  0
 13 29  1  0  0  0  0
 14 15  1  0  0  0  0
 14 30  1  0  0  0  0
 14 31  1  0  0  0  0
 15 16  1  0  0  0  0
 15 35  1  0  0  0  0
 16 32  1  0  0  0  0
 16 33  1  0  0  0  0
 16 34  1  0  0  0  0
M  CHG  1  15   1
M  END
> <s_m_source_file>
AV-unprocessed.smi

> <i_m_source_file_index>
828

> <i_lp_mmshare_version>
43012

> <i_f3d_flags>
0

> <s_epik_input>
W0NIM11jMW5uYyhzMSlbTkhdQyg9TylbTkhdW0NIMl1bQ0BASF0yW0NIMl1bQ0gyXVtDSDJdTjJbQ0gzXQ==

> <s_epik_cmdline>
J2VwaWtfcHl0aG9uJywgJy1waCcsICc3LjAnLCAnLXRuJywgJzgnLCAnLW1hJywgJzIwMCcsICctbWV0YWxfYmluZGluZycsICctaW1hZScsICc8aW5maWxlLm1hZT4nLCAnLW9tYWUnLCAnPG91dGZpbGUubWFlPic=

> <r_lp_tautomer_probability>
1

> <r_epik_Ionization_Penalty>
0.00466477

> <r_epik_Ionization_Penalty_Charging>
0.00372199

> <r_epik_Ionization_Penalty_Neutral>
0.000942783

> <r_epik_State_Penalty>
-0

> <r_epik_Charging_Adjusted_Penalty>
0.00372199

> <i_epik_Tot_Q>
1

> <i_epik_Tot_abs_Q>
1

> <r_epik_Metal_State_Penalty>
0.28212

> <b_epik_Metal_Only>
0

> <s_lp_Force_Field>
OPLS_2005

> <r_lp_Energy>
28.4237

> <b_lp_Chiralities_Consistent>
1

> <s_lp_Variant>
AV-unprocessed.smi:828-2

> <Gold.Version>
5.8.1

> <Gold.Id.Protein>
6NUR|6NUR_protein|mol2

> <Gold.PLP.Fitness>
39.4628

> <Gold.PLP.PLP>
-29.3280

> <Gold.PLP.part.hbond>
-3.0000

> <Gold.PLP.part.metal>
0.0000

> <Gold.PLP.part.buried>
-2.3060

> <Gold.PLP.part.nonpolar>
-22.8196

> <Gold.PLP.part.repulsive>
0.1614

> <Gold.PLP.ligand.clash>
0.2945

> <Gold.PLP.ligand.torsion>
0.7870

> <Gold.PLP.Chemscore.Hbond>
4.0000

> <Gold.PLP.Chemscore.CHOScore>
0.0000

> <Gold.PLP.Chemscore.Metal>
0.0000

> <Gold.Chemscore.Hbonds>
donor molecule, donor type, donor heavy atom, donor atom, acceptor molecule, acceptor atom, score
      L1  H     6    21       P1  7948  0.95
      L1  H     9    22       P1  7948  1.00
      L1  H    15    35       P1 10186  2.00

> <Gold.PLP.Chemscore.Internal.Correction>
0.0034

> <Gold.Rescore>
     Score         DG    S(hbond)    S(metal)    S(lipo)     H(rot)  DE(clash)    DE(int)     intcor
     16.15     -18.35       2.75        0.00      60.64       1.33       0.11       2.09       ----

> <Gold.Chemscore.Fitness>
16.1524

> <Gold.Chemscore.DG>
-18.3542

> <Gold.Chemscore.ZeroCoef>
-5.4800

> <Gold.Chemscore.Hbond>
2.7492

> <Gold.Chemscore.Metal>
0.0000

> <Gold.Chemscore.Lipo>
60.6430

> <Gold.Chemscore.Internal_Hbond>
0.0000

> <Gold.Chemscore.DEClash>
0.1107

> <Gold.Chemscore.DEInternal>
2.0912

> <Gold.Chemscore.Rot>
1.3294

> <Gold.Chemscore.Internal.Correction>
   9.000000E+99

> <Gold.Chemscore.Hbonds>
donor molecule, donor type, donor heavy atom, donor atom, acceptor molecule, acceptor atom, score
      L1  H     6    21       P1  7948  0.21
      L1  H     9    22       P1  7948  0.98
      L1  H    15    35       P1 10186  0.94

> <Gold.Chemscore.Hbond.Weighted>
-9.1823

> <Gold.Chemscore.Metal.Weighted>
-0.0000

> <Gold.Chemscore.Lipo.Weighted>
-7.0952

> <Gold.Chemscore.Internal_Hbond.Weighted>
0.0000

> <Gold.Chemscore.DEClash.Weighted>
0.1107

> <Gold.Chemscore.DEInternal.Weighted>
2.0912

> <Gold.Chemscore.Rot.Weighted>
3.4033

> <Gold.Chemscore.Internal.Correction.Weighted>
   9.000000E+99

> <Gold.Protein.RotatedTorsions>
[ 6907 6896 6895 6894 ] final  134.63 input  -60.11 | X-H torsion
[ 7974 7965 7964 7962 ] final -162.19 input  175.53 | X-H torsion
[ 8008 7997 7996 7995 ] final   16.79 input   59.86 | X-H torsion
[ 10167 10162 10161 10158 ] final -170.79 input  -65.29 | X-H torsion
[ 10718 10713 10712 10709 ] final -139.93 input   66.30 | X-H torsion
[ 10763 10752 10751 10750 ] final  -21.79 input  -60.55 | X-H torsion
[ 11005 11000 10999 10996 ] final   32.75 input  -57.11 | X-H torsion

> <Gold.Protein.ActiveResidues>
 VAL166  LYS551  ARG553  GLY616  TRP617  ASP618  TYR619  PRO620  LYS621  CYS622 
 ASP623  PHE694  ASN695  SER759  ASP760  ASP761  ALA762  ILE779  LEU786  VAL792 
 PHE793  MET794  SER795  GLU796  ALA797  LYS798  CYS799  TRP800  GLU811  SER814 

> <Gold.Protein.RotatedAtoms>
  152.3092  133.5735  159.5669 H   0  0  0  0  0  0  0  0  0  0  0  0  # atno 6907 bound_to 6896
  150.7315  134.0177  159.3700 H   0  0  0  0  0  0  0  0  0  0  0  0  # atno 6908 bound_to 6896
  151.8071  135.0692  160.0459 H   0  0  0  0  0  0  0  0  0  0  0  0  # atno 6909 bound_to 6896
  144.7366  140.3289  143.6157 H   0  0  0  0  0  0  0  0  0  0  0  0  # atno 7974 bound_to 7965
  154.8821  140.2974  155.5419 H   0  0  0  0  0  0  0  0  0  0  0  0  # atno 8008 bound_to 7997
  156.3022  140.2440  156.3759 H   0  0  0  0  0  0  0  0  0  0  0  0  # atno 8009 bound_to 7997
  154.8706  140.0401  157.1711 H   0  0  0  0  0  0  0  0  0  0  0  0  # atno 8010 bound_to 7997
  139.5840  144.1359  152.1552 H   0  0  0  0  0  0  0  0  0  0  0  0  # atno 10167 bound_to 10162
  156.3164  130.7510  151.1598 H   0  0  0  0  0  0  0  0  0  0  0  0  # atno 10718 bound_to 10713
  153.6416  135.6985  153.5239 H   0  0  0  0  0  0  0  0  0  0  0  0  # atno 10763 bound_to 10752
  153.2778  135.4195  155.1049 H   0  0  0  0  0  0  0  0  0  0  0  0  # atno 10764 bound_to 10752
  154.8498  135.3594  154.5960 H   0  0  0  0  0  0  0  0  0  0  0  0  # atno 10765 bound_to 10752
  140.2703  134.3090  155.7830 H   0  0  0  0  0  0  0  0  0  0  0  0  # atno 11005 bound_to 11000
  145.7492  139.1788  143.2331 LP  0  0  0  0  0  0  0  0  0  0  0  0  # atno 17320 bound_to 7965
  146.1074  140.7471  142.9520 LP  0  0  0  0  0  0  0  0  0  0  0  0  # atno 17321 bound_to 7965
  140.0918  144.5614  150.7049 LP  0  0  0  0  0  0  0  0  0  0  0  0  # atno 17342 bound_to 10162
  140.7115  143.2509  151.4567 LP  0  0  0  0  0  0  0  0  0  0  0  0  # atno 17343 bound_to 10162
  157.7402  131.0519  150.5179 LP  0  0  0  0  0  0  0  0  0  0  0  0  # atno 17370 bound_to 10713
  156.5325  130.4188  149.6194 LP  0  0  0  0  0  0  0  0  0  0  0  0  # atno 17371 bound_to 10713
  141.2178  133.7462  156.9323 LP  0  0  0  0  0  0  0  0  0  0  0  0  # atno 17394 bound_to 11000
  140.1380  134.9312  157.2428 LP  0  0  0  0  0  0  0  0  0  0  0  0  # atno 17395 bound_to 11000

$$$$
