AV-unprocessed.smi:1356|AV-procd|sdf|5544|dock4
  -GOLD-   22720 5133D 1   1.00000     0.00000
 Structure written by MMmdl.
 42 43  0  0  0  0  0  0  0  0  2 V2000
  149.4678  130.9816  154.0337 C   0  0  0  0  0  0  0  0  0  0  0  0
  148.9518  132.3758  154.3165 C   0  0  2  0  0  0  0  0  0  0  0  0
  148.6839  133.3444  153.1902 C   0  0  0  0  0  0  0  0  0  0  0  0
  149.8531  133.5814  154.1244 C   0  0  1  0  0  0  0  0  0  0  0  0
  149.7353  134.7037  155.1033 C   0  0  0  0  0  0  0  0  0  0  0  0
  149.8440  134.5485  156.3206 O   0  0  0  0  0  0  0  0  0  0  0  0
  149.4940  135.8965  154.5381 N   0  0  0  0  0  0  0  0  0  0  0  0
  149.3210  137.1486  155.2657 C   0  0  0  0  0  0  0  0  0  0  0  0
  149.3160  138.3586  154.3118 C   0  0  0  0  0  0  0  0  0  0  0  0
  150.0782  139.5575  154.8807 C   0  0  0  0  0  0  0  0  0  0  0  0
  151.2667  139.7277  154.6069 O   0  0  0  0  0  0  0  0  0  0  0  0
  149.3782  140.3902  155.6667 N   0  0  0  0  0  0  0  0  0  0  0  0
  149.9133  141.5877  156.3032 C   0  0  0  0  0  0  0  0  0  0  0  0
  151.0800  141.2528  157.2471 C   0  0  0  0  0  0  0  0  0  0  0  0
  151.4772  142.4348  158.1093 C   0  0  0  0  0  0  0  0  0  0  0  0
  152.3817  142.3080  159.1857 C   0  0  0  0  0  0  0  0  0  0  0  0
  152.7041  143.4471  159.9526 C   0  0  0  0  0  0  0  0  0  0  0  0
  152.1153  144.6869  159.6281 C   0  0  0  0  0  0  0  0  0  0  0  0
  151.2174  144.7563  158.5434 C   0  0  0  0  0  0  0  0  0  0  0  0
  150.9338  143.6424  157.8330 N   0  3  0  0  0  0  0  0  0  0  0  0
  150.1542  130.9872  153.1864 H   0  0  0  0  0  0  0  0  0  0  0  0
  148.6366  130.3150  153.8030 H   0  0  0  0  0  0  0  0  0  0  0  0
  149.9945  130.5934  154.9056 H   0  0  0  0  0  0  0  0  0  0  0  0
  148.2491  132.4107  155.1476 H   0  0  0  0  0  0  0  0  0  0  0  0
  148.9213  133.0332  152.1750 H   0  0  0  0  0  0  0  0  0  0  0  0
  147.8071  133.9837  153.2795 H   0  0  0  0  0  0  0  0  0  0  0  0
  150.8462  133.3958  153.7172 H   0  0  0  0  0  0  0  0  0  0  0  0
  149.4214  135.9389  153.5318 H   0  0  0  0  0  0  0  0  0  0  0  0
  148.3999  137.1130  155.8507 H   0  0  0  0  0  0  0  0  0  0  0  0
  150.1398  137.2347  155.9809 H   0  0  0  0  0  0  0  0  0  0  0  0
  149.7679  138.0836  153.3581 H   0  0  0  0  0  0  0  0  0  0  0  0
  148.2893  138.6570  154.0946 H   0  0  0  0  0  0  0  0  0  0  0  0
  148.4073  140.1729  155.8408 H   0  0  0  0  0  0  0  0  0  0  0  0
  150.2496  142.2653  155.5179 H   0  0  0  0  0  0  0  0  0  0  0  0
  149.1208  142.1081  156.8443 H   0  0  0  0  0  0  0  0  0  0  0  0
  150.8135  140.4175  157.8963 H   0  0  0  0  0  0  0  0  0  0  0  0
  151.9476  140.9284  156.6706 H   0  0  0  0  0  0  0  0  0  0  0  0
  152.8228  141.3506  159.4234 H   0  0  0  0  0  0  0  0  0  0  0  0
  153.3945  143.3703  160.7799 H   0  0  0  0  0  0  0  0  0  0  0  0
  152.3487  145.5712  160.2030 H   0  0  0  0  0  0  0  0  0  0  0  0
  150.7213  145.6615  158.2252 H   0  0  0  0  0  0  0  0  0  0  0  0
  150.2804  143.7158  157.0527 H   0  0  0  0  0  0  0  0  0  0  0  0
  1  2  1  0  0  0  0
  1 21  1  0  0  0  0
  1 22  1  0  0  0  0
  1 23  1  0  0  0  0
  2  4  1  0  0  0  0
  2  3  1  0  0  0  0
  2 24  1  0  0  0  0
  3  4  1  0  0  0  0
  3 25  1  0  0  0  0
  3 26  1  0  0  0  0
  4  5  1  0  0  0  0
  4 27  1  0  0  0  0
  5  6  2  0  0  0  0
  5  7  1  0  0  0  0
  7  8  1  0  0  0  0
  7 28  1  0  0  0  0
  8  9  1  0  0  0  0
  8 29  1  0  0  0  0
  8 30  1  0  0  0  0
  9 10  1  0  0  0  0
  9 31  1  0  0  0  0
  9 32  1  0  0  0  0
 10 11  2  0  0  0  0
 10 12  1  0  0  0  0
 12 13  1  0  0  0  0
 12 33  1  0  0  0  0
 13 14  1  0  0  0  0
 13 34  1  0  0  0  0
 13 35  1  0  0  0  0
 14 15  1  0  0  0  0
 14 36  1  0  0  0  0
 14 37  1  0  0  0  0
 15 20  1  0  0  0  0
 15 16  2  0  0  0  0
 16 17  1  0  0  0  0
 16 38  1  0  0  0  0
 17 18  2  0  0  0  0
 17 39  1  0  0  0  0
 18 19  1  0  0  0  0
 18 40  1  0  0  0  0
 19 20  2  0  0  0  0
 19 41  1  0  0  0  0
 20 42  1  0  0  0  0
M  CHG  1  20   1
M  END
> <s_m_source_file>
AV-unprocessed.smi

> <i_m_source_file_index>
1356

> <i_lp_mmshare_version>
43012

> <i_f3d_flags>
0

> <s_epik_input>
W0NIM11bQ0BASF0xW0NIMl1bQ0BIXTFDKD1PKVtOSF1bQ0gyXVtDSDJdQyg9TylbTkhdW0NIMl1bQ0gyXWMyW2NIXVtjSF1bY0hdW2NIXW4y

> <s_epik_cmdline>
J2VwaWtfcHl0aG9uJywgJy1waCcsICc3LjAnLCAnLXRuJywgJzgnLCAnLW1hJywgJzIwMCcsICctbWV0YWxfYmluZGluZycsICctaW1hZScsICc8aW5maWxlLm1hZT4nLCAnLW9tYWUnLCAnPG91dGZpbGUubWFlPic=

> <r_epik_Ionization_Penalty>
1.86966

> <r_epik_Ionization_Penalty_Charging>
1.86966

> <r_epik_Ionization_Penalty_Neutral>
5.0403e-08

> <r_epik_State_Penalty>
1.98858

> <r_epik_Charging_Adjusted_Penalty>
3.85824

> <i_epik_Tot_Q>
1

> <i_epik_Tot_abs_Q>
1

> <r_epik_Metal_State_Penalty>
2.01347

> <b_epik_Metal_Only>
0

> <s_lp_Force_Field>
OPLS_2005

> <r_lp_Energy>
11.3302

> <b_lp_Chiralities_Consistent>
1

> <s_lp_Variant>
AV-unprocessed.smi:1356-5

> <Gold.Version>
5.8.1

> <Gold.Id.Protein>
6NUR|6NUR_protein|mol2

> <Gold.PLP.Fitness>
52.7459

> <Gold.PLP.PLP>
-42.2594

> <Gold.PLP.part.hbond>
-3.0000

> <Gold.PLP.part.metal>
0.0000

> <Gold.PLP.part.buried>
-5.2881

> <Gold.PLP.part.nonpolar>
-34.0848

> <Gold.PLP.part.repulsive>
0.1969

> <Gold.PLP.ligand.clash>
0.0000

> <Gold.PLP.ligand.torsion>
0.8479

> <Gold.PLP.Chemscore.Hbond>
4.0000

> <Gold.PLP.Chemscore.CHOScore>
0.0000

> <Gold.PLP.Chemscore.Metal>
0.0000

> <Gold.Chemscore.Hbonds>
donor molecule, donor type, donor heavy atom, donor atom, acceptor molecule, acceptor atom, score
      L1  H     7    28       P1  7948  1.00
      L1  H    20    42       P1  8028  1.17
      P1  H  7989  7998       L1    11  1.00

> <Gold.PLP.Chemscore.Internal.Correction>
0.1822

> <Gold.Rescore>
     Score         DG    S(hbond)    S(metal)    S(lipo)     H(rot)  DE(clash)    DE(int)     intcor
     19.56     -21.32       2.94        0.00     101.99       2.31       0.11       1.66       ----

> <Gold.Chemscore.Fitness>
19.5552

> <Gold.Chemscore.DG>
-21.3215

> <Gold.Chemscore.ZeroCoef>
-5.4800

> <Gold.Chemscore.Hbond>
2.9439

> <Gold.Chemscore.Metal>
0.0000

> <Gold.Chemscore.Lipo>
101.9878

> <Gold.Chemscore.Internal_Hbond>
0.0000

> <Gold.Chemscore.DEClash>
0.1096

> <Gold.Chemscore.DEInternal>
1.6568

> <Gold.Chemscore.Rot>
2.3140

> <Gold.Chemscore.Internal.Correction>
   9.000000E+99

> <Gold.Chemscore.Hbonds>
donor molecule, donor type, donor heavy atom, donor atom, acceptor molecule, acceptor atom, score
      L1  H     7    28       P1  7948  0.50
      L1  H    20    42       P1  8028  0.57
      P1  H  7989  7998       L1    11  0.95

> <Gold.Chemscore.Hbond.Weighted>
-9.8327

> <Gold.Chemscore.Metal.Weighted>
-0.0000

> <Gold.Chemscore.Lipo.Weighted>
-11.9326

> <Gold.Chemscore.Internal_Hbond.Weighted>
0.0000

> <Gold.Chemscore.DEClash.Weighted>
0.1096

> <Gold.Chemscore.DEInternal.Weighted>
1.6568

> <Gold.Chemscore.Rot.Weighted>
5.9238

> <Gold.Chemscore.Internal.Correction.Weighted>
   9.000000E+99

> <Gold.Protein.RotatedTorsions>
[ 6907 6896 6895 6894 ] final  -57.65 input  -60.11 | X-H torsion
[ 7974 7965 7964 7962 ] final  159.07 input  175.53 | X-H torsion
[ 8008 7997 7996 7995 ] final   13.68 input   59.86 | X-H torsion
[ 10167 10162 10161 10158 ] final  118.89 input  -65.29 | X-H torsion
[ 10718 10713 10712 10709 ] final  125.45 input   66.30 | X-H torsion
[ 10763 10752 10751 10750 ] final  -32.37 input  -60.55 | X-H torsion
[ 11005 11000 10999 10996 ] final -166.27 input  -57.11 | X-H torsion

> <Gold.Protein.ActiveResidues>
 VAL166  LYS551  ARG553  GLY616  TRP617  ASP618  TYR619  PRO620  LYS621  CYS622 
 ASP623  PHE694  ASN695  SER759  ASP760  ASP761  ALA762  ILE779  LEU786  VAL792 
 PHE793  MET794  SER795  GLU796  ALA797  LYS798  CYS799  TRP800  GLU811  SER814 

> <Gold.Protein.RotatedAtoms>
  150.8069  134.7200  159.6652 H   0  0  0  0  0  0  0  0  0  0  0  0  # atno 6907 bound_to 6896
  152.4189  134.5988  160.0004 H   0  0  0  0  0  0  0  0  0  0  0  0  # atno 6908 bound_to 6896
  151.6209  133.3302  159.3124 H   0  0  0  0  0  0  0  0  0  0  0  0  # atno 6909 bound_to 6896
  144.7811  139.7565  143.6259 H   0  0  0  0  0  0  0  0  0  0  0  0  # atno 7974 bound_to 7965
  154.8378  140.2910  155.5679 H   0  0  0  0  0  0  0  0  0  0  0  0  # atno 8008 bound_to 7997
  156.3010  140.2520  156.3246 H   0  0  0  0  0  0  0  0  0  0  0  0  # atno 8009 bound_to 7997
  154.9159  140.0387  157.1961 H   0  0  0  0  0  0  0  0  0  0  0  0  # atno 8010 bound_to 7997
  139.6082  144.7075  151.2906 H   0  0  0  0  0  0  0  0  0  0  0  0  # atno 10167 bound_to 10162
  157.5502  131.1094  150.8715 H   0  0  0  0  0  0  0  0  0  0  0  0  # atno 10718 bound_to 10713
  153.8126  135.6881  153.4838 H   0  0  0  0  0  0  0  0  0  0  0  0  # atno 10763 bound_to 10752
  153.1619  135.4576  154.9782 H   0  0  0  0  0  0  0  0  0  0  0  0  # atno 10764 bound_to 10752
  154.7961  135.3319  154.7605 H   0  0  0  0  0  0  0  0  0  0  0  0  # atno 10765 bound_to 10752
  140.5664  134.5282  157.5153 H   0  0  0  0  0  0  0  0  0  0  0  0  # atno 11005 bound_to 11000
  146.2019  139.5319  142.9738 LP  0  0  0  0  0  0  0  0  0  0  0  0  # atno 17320 bound_to 7965
  145.6049  141.0349  143.1998 LP  0  0  0  0  0  0  0  0  0  0  0  0  # atno 17321 bound_to 7965
  140.7300  143.6893  150.7936 LP  0  0  0  0  0  0  0  0  0  0  0  0  # atno 17342 bound_to 10162
  140.0482  143.5276  152.2686 LP  0  0  0  0  0  0  0  0  0  0  0  0  # atno 17343 bound_to 10162
  156.9242  130.5326  149.5279 LP  0  0  0  0  0  0  0  0  0  0  0  0  # atno 17370 bound_to 10713
  156.0570  130.5629  150.9112 LP  0  0  0  0  0  0  0  0  0  0  0  0  # atno 17371 bound_to 10713
  139.9383  134.7834  156.0745 LP  0  0  0  0  0  0  0  0  0  0  0  0  # atno 17394 bound_to 11000
  141.1083  133.6652  156.2917 LP  0  0  0  0  0  0  0  0  0  0  0  0  # atno 17395 bound_to 11000

$$$$
