AV-unprocessed.smi:174|AV-procd|sdf|1427|dock7
  -GOLD-   2262019203D 1   1.00000     0.00000
 Structure written by MMmdl.
 51 54  0  0  0  0  0  0  0  0  1 V2000
  147.8052  131.0112  152.8525 N   0  0  0  0  0  0  0  0  0  0  0  0
  147.9823  131.8526  153.8734 C   0  0  0  0  0  0  0  0  0  0  0  0
  147.1763  131.9352  154.7990 O   0  0  0  0  0  0  0  0  0  0  0  0
  149.2372  132.7361  153.8261 C   0  0  0  0  0  0  0  0  0  0  0  0
  149.2413  133.7962  154.8449 N   0  0  0  0  0  0  0  0  0  0  0  0
  148.2206  134.8426  154.6731 C   0  0  0  0  0  0  0  0  0  0  0  0
  147.9976  135.7028  155.9283 C   0  0  0  0  0  0  0  0  0  0  0  0
  149.2795  136.0731  156.5132 N   0  0  0  0  0  0  0  0  0  0  0  0
  149.8757  137.1509  155.9372 C   0  0  0  0  0  0  0  0  0  0  0  0
  150.3658  137.0659  154.6709 N   0  0  0  0  0  0  0  0  0  0  0  0
  150.9375  138.1265  154.0939 C   0  0  0  0  0  0  0  0  0  0  0  0
  151.1206  139.3502  154.5930 N   0  0  0  0  0  0  0  0  0  0  0  0
  150.6330  139.4423  155.8630 C   0  0  0  0  0  0  0  0  0  0  0  0
  150.0024  138.4023  156.6029 C   0  0  0  0  0  0  0  0  0  0  0  0
  149.6503  138.8671  157.8650 N   0  0  0  0  0  0  0  0  0  0  0  0
  150.0498  140.1095  157.8709 C   0  0  0  0  0  0  0  0  0  0  0  0
  150.6545  140.5356  156.7108 N   0  0  0  0  0  0  0  0  0  0  0  0
  151.2042  141.8541  156.4543 C   0  0  0  0  0  0  0  0  0  0  0  0
  151.1730  142.7704  157.6956 C   0  0  2  0  0  0  0  0  0  0  0  0
  151.1601  144.1051  157.2303 O   0  0  0  0  0  0  0  0  0  0  0  0
  152.3671  142.5826  158.6584 C   0  0  1  0  0  0  0  0  0  0  0  0
  152.2685  143.3831  159.9603 C   0  0  0  0  0  0  0  0  0  0  0  0
  153.1081  142.5859  160.9482 C   0  0  0  0  0  0  0  0  0  0  0  0
  153.3427  141.2496  160.2415 C   0  0  0  0  0  0  0  0  0  0  0  0
  152.4260  141.2549  159.1590 O   0  0  0  0  0  0  0  0  0  0  0  0
  150.1167  134.9303  156.8985 C   0  0  0  0  0  0  0  0  0  0  0  0
  150.1474  133.7950  155.8570 C   0  0  0  0  0  0  0  0  0  0  0  0
  151.0016  132.9173  155.9836 O   0  0  0  0  0  0  0  0  0  0  0  0
  146.9976  130.4056  152.8384 H   0  0  0  0  0  0  0  0  0  0  0  0
  148.4786  130.9788  152.1009 H   0  0  0  0  0  0  0  0  0  0  0  0
  150.1283  132.1134  153.9273 H   0  0  0  0  0  0  0  0  0  0  0  0
  149.3025  133.1800  152.8317 H   0  0  0  0  0  0  0  0  0  0  0  0
  148.5403  135.4826  153.8497 H   0  0  0  0  0  0  0  0  0  0  0  0
  147.2736  134.3949  154.3682 H   0  0  0  0  0  0  0  0  0  0  0  0
  147.3787  136.5673  155.6893 H   0  0  0  0  0  0  0  0  0  0  0  0
  147.4396  135.1303  156.6707 H   0  0  0  0  0  0  0  0  0  0  0  0
  151.2995  137.9719  153.0882 H   0  0  0  0  0  0  0  0  0  0  0  0
  149.9218  140.7518  158.7300 H   0  0  0  0  0  0  0  0  0  0  0  0
  152.2269  141.7402  156.0921 H   0  0  0  0  0  0  0  0  0  0  0  0
  150.6356  142.3033  155.6388 H   0  0  0  0  0  0  0  0  0  0  0  0
  150.2432  142.6059  158.2416 H   0  0  0  0  0  0  0  0  0  0  0  0
  150.4846  144.1871  156.5744 H   0  0  0  0  0  0  0  0  0  0  0  0
  153.3055  142.8151  158.1507 H   0  0  0  0  0  0  0  0  0  0  0  0
  152.6134  144.4113  159.8467 H   0  0  0  0  0  0  0  0  0  0  0  0
  151.2342  143.4138  160.3061 H   0  0  0  0  0  0  0  0  0  0  0  0
  154.0550  143.0802  161.1677 H   0  0  0  0  0  0  0  0  0  0  0  0
  152.5717  142.4521  161.8883 H   0  0  0  0  0  0  0  0  0  0  0  0
  154.3593  141.1935  159.8493 H   0  0  0  0  0  0  0  0  0  0  0  0
  153.1803  140.3920  160.8944 H   0  0  0  0  0  0  0  0  0  0  0  0
  151.1348  135.2375  157.1426 H   0  0  0  0  0  0  0  0  0  0  0  0
  149.7074  134.5186  157.8214 H   0  0  0  0  0  0  0  0  0  0  0  0
  1  2  1  0  0  0  0
  1 29  1  0  0  0  0
  1 30  1  0  0  0  0
  2  3  2  0  0  0  0
  2  4  1  0  0  0  0
  4  5  1  0  0  0  0
  4 31  1  0  0  0  0
  4 32  1  0  0  0  0
  5 27  1  0  0  0  0
  5  6  1  0  0  0  0
  6  7  1  0  0  0  0
  6 33  1  0  0  0  0
  6 34  1  0  0  0  0
  7  8  1  0  0  0  0
  7 35  1  0  0  0  0
  7 36  1  0  0  0  0
  8  9  1  0  0  0  0
  8 26  1  0  0  0  0
  9 14  1  0  0  0  0
  9 10  2  0  0  0  0
 10 11  1  0  0  0  0
 11 12  2  0  0  0  0
 11 37  1  0  0  0  0
 12 13  1  0  0  0  0
 13 17  1  0  0  0  0
 13 14  2  0  0  0  0
 14 15  1  0  0  0  0
 15 16  2  0  0  0  0
 16 17  1  0  0  0  0
 16 38  1  0  0  0  0
 17 18  1  0  0  0  0
 18 19  1  0  0  0  0
 18 39  1  0  0  0  0
 18 40  1  0  0  0  0
 19 20  1  0  0  0  0
 19 21  1  0  0  0  0
 19 41  1  0  0  0  0
 20 42  1  0  0  0  0
 21 25  1  0  0  0  0
 21 22  1  0  0  0  0
 21 43  1  0  0  0  0
 22 23  1  0  0  0  0
 22 44  1  0  0  0  0
 22 45  1  0  0  0  0
 23 24  1  0  0  0  0
 23 46  1  0  0  0  0
 23 47  1  0  0  0  0
 24 25  1  0  0  0  0
 24 48  1  0  0  0  0
 24 49  1  0  0  0  0
 26 27  1  0  0  0  0
 26 50  1  0  0  0  0
 26 51  1  0  0  0  0
 27 28  2  0  0  0  0
M  END
> <s_m_source_file>
AV-unprocessed.smi

> <i_m_source_file_index>
174

> <i_lp_mmshare_version>
43012

> <i_f3d_flags>
0

> <s_epik_input>
W05IMl1DKD1PKVtDSDJdTjFbQ0gyXVtDSDJdTihbQ0gyXUMxPU8pYyhuW2NIXW4yKWMoYzIzKW5bY0hdbjNbQ0gyXVtDQEhdKFtPSF0pW0NAQEhdNFtDSDJdW0NIMl1bQ0gyXU80

> <s_epik_cmdline>
J2VwaWtfcHl0aG9uJywgJy1waCcsICc3LjAnLCAnLXRuJywgJzgnLCAnLW1hJywgJzIwMCcsICctbWV0YWxfYmluZGluZycsICctaW1hZScsICc8aW5maWxlLm1hZT4nLCAnLW9tYWUnLCAnPG91dGZpbGUubWFlPic=

> <r_lp_tautomer_probability>
1

> <r_epik_Ionization_Penalty>
0.000250477

> <r_epik_Ionization_Penalty_Charging>
0

> <r_epik_Ionization_Penalty_Neutral>
0.000250477

> <r_epik_State_Penalty>
-0

> <r_epik_Charging_Adjusted_Penalty>
0

> <i_epik_Tot_Q>
0

> <i_epik_Tot_abs_Q>
0

> <r_epik_Metal_State_Penalty>
-0

> <b_epik_Metal_Only>
0

> <s_lp_Force_Field>
OPLS_2005

> <r_lp_Energy>
34.8675

> <b_lp_Chiralities_Consistent>
1

> <s_lp_Variant>
AV-unprocessed.smi:174-3

> <Gold.Version>
5.8.1

> <Gold.Id.Protein>
6NUR|6NUR_protein|mol2

> <Gold.PLP.Fitness>
52.9899

> <Gold.PLP.PLP>
-41.9031

> <Gold.PLP.part.hbond>
-3.0000

> <Gold.PLP.part.metal>
0.0000

> <Gold.PLP.part.buried>
-7.4410

> <Gold.PLP.part.nonpolar>
-32.6479

> <Gold.PLP.part.repulsive>
0.3474

> <Gold.PLP.ligand.clash>
0.0000

> <Gold.PLP.ligand.torsion>
0.6338

> <Gold.PLP.Chemscore.Hbond>
3.0000

> <Gold.PLP.Chemscore.CHOScore>
0.9506

> <Gold.PLP.Chemscore.Metal>
0.0000

> <Gold.Chemscore.Hbonds>
donor molecule, donor type, donor heavy atom, donor atom, acceptor molecule, acceptor atom, score
      L1  H     1    30       P1 10747  1.00
      L1  H    20    42       P1  8028  1.00
      P1  H  7989  7998       L1    12  1.00
      L1  C    11    37       P1  7949  0.96

> <Gold.PLP.Chemscore.Internal.Correction>
0.5024

> <Gold.Rescore>
     Score         DG    S(hbond)    S(metal)    S(lipo)     H(rot)  DE(clash)    DE(int)     intcor
     13.69     -14.77       2.98        0.00      79.70       3.90       0.21       0.86       ----

> <Gold.Chemscore.Fitness>
13.6928

> <Gold.Chemscore.DG>
-14.7682

> <Gold.Chemscore.ZeroCoef>
-5.4800

> <Gold.Chemscore.Hbond>
2.9773

> <Gold.Chemscore.Metal>
0.0000

> <Gold.Chemscore.Lipo>
79.6986

> <Gold.Chemscore.Internal_Hbond>
0.0000

> <Gold.Chemscore.DEClash>
0.2133

> <Gold.Chemscore.DEInternal>
0.8622

> <Gold.Chemscore.Rot>
3.8988

> <Gold.Chemscore.Internal.Correction>
   9.000000E+99

> <Gold.Chemscore.Hbonds>
donor molecule, donor type, donor heavy atom, donor atom, acceptor molecule, acceptor atom, score
      L1  H     1    30       P1 10747  0.95
      L1  H    20    42       P1  8028  0.99
      P1  H  7989  7998       L1    12  0.98

> <Gold.Chemscore.Hbond.Weighted>
-9.9443

> <Gold.Chemscore.Metal.Weighted>
-0.0000

> <Gold.Chemscore.Lipo.Weighted>
-9.3247

> <Gold.Chemscore.Internal_Hbond.Weighted>
0.0000

> <Gold.Chemscore.DEClash.Weighted>
0.2133

> <Gold.Chemscore.DEInternal.Weighted>
0.8622

> <Gold.Chemscore.Rot.Weighted>
9.9808

> <Gold.Chemscore.Internal.Correction.Weighted>
   9.000000E+99

> <Gold.Protein.RotatedTorsions>
[ 6907 6896 6895 6894 ] final -120.90 input  -60.11 | X-H torsion
[ 7974 7965 7964 7962 ] final  -40.90 input  175.53 | X-H torsion
[ 8008 7997 7996 7995 ] final   86.84 input   59.86 | X-H torsion
[ 10167 10162 10161 10158 ] final  124.96 input  -65.29 | X-H torsion
[ 10718 10713 10712 10709 ] final  -11.98 input   66.30 | X-H torsion
[ 10763 10752 10751 10750 ] final  -94.72 input  -60.55 | X-H torsion
[ 11005 11000 10999 10996 ] final -147.29 input  -57.11 | X-H torsion

> <Gold.Protein.ActiveResidues>
 VAL166  LYS551  ARG553  GLY616  TRP617  ASP618  TYR619  PRO620  LYS621  CYS622 
 ASP623  PHE694  ASN695  SER759  ASP760  ASP761  ALA762  ILE779  LEU786  VAL792 
 PHE793  MET794  SER795  GLU796  ALA797  LYS798  CYS799  TRP800  GLU811  SER814 

> <Gold.Protein.RotatedAtoms>
  150.8435  133.7899  159.3051 H   0  0  0  0  0  0  0  0  0  0  0  0  # atno 6907 bound_to 6896
  151.5593  135.1064  159.9978 H   0  0  0  0  0  0  0  0  0  0  0  0  # atno 6908 bound_to 6896
  152.4494  133.7556  159.6774 H   0  0  0  0  0  0  0  0  0  0  0  0  # atno 6909 bound_to 6896
  146.0261  140.6790  142.9155 H   0  0  0  0  0  0  0  0  0  0  0  0  # atno 7974 bound_to 7965
  155.9679  140.3388  155.6549 H   0  0  0  0  0  0  0  0  0  0  0  0  # atno 8008 bound_to 7997
  155.6713  140.0727  157.2537 H   0  0  0  0  0  0  0  0  0  0  0  0  # atno 8009 bound_to 7997
  154.4159  140.1691  156.1869 H   0  0  0  0  0  0  0  0  0  0  0  0  # atno 8010 bound_to 7997
  139.5712  144.6940  151.3773 H   0  0  0  0  0  0  0  0  0  0  0  0  # atno 10167 bound_to 10162
  156.6512  130.4955  149.6061 H   0  0  0  0  0  0  0  0  0  0  0  0  # atno 10718 bound_to 10713
  154.7082  135.5147  153.8626 H   0  0  0  0  0  0  0  0  0  0  0  0  # atno 10763 bound_to 10752
  153.0758  135.6616  154.0157 H   0  0  0  0  0  0  0  0  0  0  0  0  # atno 10764 bound_to 10752
  154.0004  135.3011  155.3383 H   0  0  0  0  0  0  0  0  0  0  0  0  # atno 10765 bound_to 10752
  140.7732  134.3165  157.5068 H   0  0  0  0  0  0  0  0  0  0  0  0  # atno 11005 bound_to 11000
  144.7010  140.3652  143.7156 LP  0  0  0  0  0  0  0  0  0  0  0  0  # atno 17320 bound_to 7965
  145.7115  139.1686  143.2536 LP  0  0  0  0  0  0  0  0  0  0  0  0  # atno 17321 bound_to 7965
  140.6996  143.7663  150.7382 LP  0  0  0  0  0  0  0  0  0  0  0  0  # atno 17342 bound_to 10162
  140.1170  143.4647  152.2336 LP  0  0  0  0  0  0  0  0  0  0  0  0  # atno 17343 bound_to 10162
  156.2083  130.6663  151.1242 LP  0  0  0  0  0  0  0  0  0  0  0  0  # atno 17370 bound_to 10713
  157.7140  131.0719  150.6396 LP  0  0  0  0  0  0  0  0  0  0  0  0  # atno 17371 bound_to 10713
  139.8753  134.9273  156.3422 LP  0  0  0  0  0  0  0  0  0  0  0  0  # atno 17394 bound_to 11000
  140.9554  133.7423  156.0328 LP  0  0  0  0  0  0  0  0  0  0  0  0  # atno 17395 bound_to 11000

$$$$
