AV-unprocessed.smi:2272|AV-procd|sdf|9162|dock7
  -GOLD-   2272012373D 1   1.00000     0.00000
 Structure written by MMmdl.
 41 42  0  0  0  0  0  0  0  0  1 V2000
  146.3019  136.0654  151.5398 C   0  0  0  0  0  0  0  0  0  0  0  0
  146.6286  137.2674  152.4082 C   0  0  0  0  0  0  0  0  0  0  0  0
  146.9184  138.4487  151.7201 N   0  0  0  0  0  0  0  0  0  0  0  0
  147.1928  139.5267  152.3784 C   0  0  0  0  0  0  0  0  0  0  0  0
  147.2061  139.5534  153.7832 N   0  0  0  0  0  0  0  0  0  0  0  0
  147.5117  140.8565  154.4013 C   0  0  0  0  0  0  0  0  0  0  0  0
  149.0253  141.0590  154.6409 C   0  0  2  0  0  0  0  0  0  0  0  0
  149.7455  140.8136  153.4516 O   0  0  0  0  0  0  0  0  0  0  0  0
  149.6332  140.2220  155.7795 C   0  0  0  0  0  0  0  0  0  0  0  0
  149.9900  141.0597  156.8708 O   0  0  0  0  0  0  0  0  0  0  0  0
  151.0428  141.9695  156.5810 C   0  0  0  0  0  0  0  0  0  0  0  0
  151.5933  142.6616  157.8174 C   0  0  0  0  0  0  0  0  0  0  0  0
  151.4620  144.0591  157.9628 C   0  0  0  0  0  0  0  0  0  0  0  0
  151.9670  144.7043  159.1082 C   0  0  0  0  0  0  0  0  0  0  0  0
  152.6123  143.9560  160.1109 C   0  0  0  0  0  0  0  0  0  0  0  0
  152.7513  142.5621  159.9676 C   0  0  0  0  0  0  0  0  0  0  0  0
  152.2439  141.9147  158.8243 C   0  0  0  0  0  0  0  0  0  0  0  0
  152.3815  140.5726  158.7010 F   0  0  0  0  0  0  0  0  0  0  0  0
  146.9598  138.4384  154.5309 C   0  0  0  0  0  0  0  0  0  0  0  0
  147.0008  138.4603  155.7614 O   0  0  0  0  0  0  0  0  0  0  0  0
  146.6426  137.2200  153.7681 C   0  0  0  0  0  0  0  0  0  0  0  0
  146.3295  135.9626  154.5690 C   0  0  0  0  0  0  0  0  0  0  0  0
  145.3131  135.6749  151.7822 H   0  0  0  0  0  0  0  0  0  0  0  0
  147.0367  135.2743  151.6916 H   0  0  0  0  0  0  0  0  0  0  0  0
  146.3068  136.3271  150.4808 H   0  0  0  0  0  0  0  0  0  0  0  0
  147.4248  140.4754  151.8905 H   0  0  0  0  0  0  0  0  0  0  0  0
  147.1133  141.6858  153.8146 H   0  0  0  0  0  0  0  0  0  0  0  0
  146.9845  140.9255  155.3551 H   0  0  0  0  0  0  0  0  0  0  0  0
  149.2055  142.1095  154.8711 H   0  0  0  0  0  0  0  0  0  0  0  0
  149.2392  140.2234  152.9142 H   0  0  0  0  0  0  0  0  0  0  0  0
  148.9283  139.4526  156.0990 H   0  0  0  0  0  0  0  0  0  0  0  0
  150.5198  139.7070  155.4091 H   0  0  0  0  0  0  0  0  0  0  0  0
  151.8490  141.4055  156.1118 H   0  0  0  0  0  0  0  0  0  0  0  0
  150.7270  142.7064  155.8405 H   0  0  0  0  0  0  0  0  0  0  0  0
  150.9678  144.6392  157.1972 H   0  0  0  0  0  0  0  0  0  0  0  0
  151.8591  145.7735  159.2174 H   0  0  0  0  0  0  0  0  0  0  0  0
  152.9992  144.4496  160.9901 H   0  0  0  0  0  0  0  0  0  0  0  0
  153.2443  141.9873  160.7377 H   0  0  0  0  0  0  0  0  0  0  0  0
  145.4083  136.1016  155.1338 H   0  0  0  0  0  0  0  0  0  0  0  0
  147.1328  135.7510  155.2757 H   0  0  0  0  0  0  0  0  0  0  0  0
  146.2044  135.0777  153.9473 H   0  0  0  0  0  0  0  0  0  0  0  0
  1  2  1  0  0  0  0
  1 23  1  0  0  0  0
  1 24  1  0  0  0  0
  1 25  1  0  0  0  0
  2 21  2  0  0  0  0
  2  3  1  0  0  0  0
  3  4  2  0  0  0  0
  4  5  1  0  0  0  0
  4 26  1  0  0  0  0
  5  6  1  0  0  0  0
  5 19  1  0  0  0  0
  6  7  1  0  0  0  0
  6 27  1  0  0  0  0
  6 28  1  0  0  0  0
  7  8  1  0  0  0  0
  7  9  1  0  0  0  0
  7 29  1  0  0  0  0
  8 30  1  0  0  0  0
  9 10  1  0  0  0  0
  9 31  1  0  0  0  0
  9 32  1  0  0  0  0
 10 11  1  0  0  0  0
 11 12  1  0  0  0  0
 11 33  1  0  0  0  0
 11 34  1  0  0  0  0
 12 17  1  0  0  0  0
 12 13  2  0  0  0  0
 13 14  1  0  0  0  0
 13 35  1  0  0  0  0
 14 15  2  0  0  0  0
 14 36  1  0  0  0  0
 15 16  1  0  0  0  0
 15 37  1  0  0  0  0
 16 17  2  0  0  0  0
 16 38  1  0  0  0  0
 17 18  1  0  0  0  0
 19 20  2  0  0  0  0
 19 21  1  0  0  0  0
 21 22  1  0  0  0  0
 22 39  1  0  0  0  0
 22 40  1  0  0  0  0
 22 41  1  0  0  0  0
M  END
> <s_m_source_file>
AV-unprocessed.smi

> <i_m_source_file_index>
2272

> <i_lp_mmshare_version>
43012

> <i_f3d_flags>
0

> <s_epik_input>
W0NIM11jMW5bY0hdbihjKD1PKWMxW0NIM10pW0NIMl1bQ0BIXShbT0hdKVtDSDJdT1tDSDJdYzJbY0hdW2NIXVtjSF1bY0hdYzJG

> <s_epik_cmdline>
J2VwaWtfcHl0aG9uJywgJy1waCcsICc3LjAnLCAnLXRuJywgJzgnLCAnLW1hJywgJzIwMCcsICctbWV0YWxfYmluZGluZycsICctaW1hZScsICc8aW5maWxlLm1hZT4nLCAnLW9tYWUnLCAnPG91dGZpbGUubWFlPic=

> <r_lp_tautomer_probability>
1

> <r_epik_Ionization_Penalty>
5.35985e-05

> <r_epik_Ionization_Penalty_Charging>
1.17753e-07

> <r_epik_Ionization_Penalty_Neutral>
5.34808e-05

> <r_epik_State_Penalty>
-0

> <r_epik_Charging_Adjusted_Penalty>
1.17753e-07

> <i_epik_Tot_Q>
0

> <i_epik_Tot_abs_Q>
0

> <r_epik_Metal_State_Penalty>
-0

> <b_epik_Metal_Only>
0

> <s_lp_Force_Field>
OPLS_2005

> <r_lp_Energy>
20.6286

> <b_lp_Chiralities_Consistent>
1

> <s_lp_Variant>
AV-unprocessed.smi:2272-1

> <Gold.Version>
5.8.1

> <Gold.Id.Protein>
6NUR|6NUR_protein|mol2

> <Gold.PLP.Fitness>
50.1110

> <Gold.PLP.PLP>
-46.1283

> <Gold.PLP.part.hbond>
-2.3319

> <Gold.PLP.part.metal>
0.0000

> <Gold.PLP.part.buried>
-2.9358

> <Gold.PLP.part.nonpolar>
-41.3648

> <Gold.PLP.part.repulsive>
0.4759

> <Gold.PLP.ligand.clash>
0.0000

> <Gold.PLP.ligand.torsion>
1.2077

> <Gold.PLP.Chemscore.Hbond>
1.5040

> <Gold.PLP.Chemscore.CHOScore>
0.5796

> <Gold.PLP.Chemscore.Metal>
0.0000

> <Gold.Chemscore.Hbonds>
donor molecule, donor type, donor heavy atom, donor atom, acceptor molecule, acceptor atom, score
      L1  H     8    30       P1  7957  0.40
      P1  H  7954  7966       L1     3  0.37
      P1  H  7989  7998       L1     8  0.32
      P1  H  8011  8017       L1     8  1.00
      L1  C     4    26       P1  7957  0.42

> <Gold.PLP.Chemscore.Internal.Correction>
0.1474

> <Gold.Rescore>
     Score         DG    S(hbond)    S(metal)    S(lipo)     H(rot)  DE(clash)    DE(int)     intcor
     12.40     -14.98       1.02        0.00     110.92       2.69       1.28       1.30       ----

> <Gold.Chemscore.Fitness>
12.4006

> <Gold.Chemscore.DG>
-14.9776

> <Gold.Chemscore.ZeroCoef>
-5.4800

> <Gold.Chemscore.Hbond>
1.0165

> <Gold.Chemscore.Metal>
0.0000

> <Gold.Chemscore.Lipo>
110.9234

> <Gold.Chemscore.Internal_Hbond>
0.0000

> <Gold.Chemscore.DEClash>
1.2775

> <Gold.Chemscore.DEInternal>
1.2996

> <Gold.Chemscore.Rot>
2.6857

> <Gold.Chemscore.Internal.Correction>
   9.000000E+99

> <Gold.Chemscore.Hbonds>
donor molecule, donor type, donor heavy atom, donor atom, acceptor molecule, acceptor atom, score
      L1  H     8    30       P1  7957  0.40
      P1  H  7954  7966       L1     3  0.22
      P1  H  7989  7998       L1     8  0.31
      P1  H  8011  8017       L1     8  0.27

> <Gold.Chemscore.Hbond.Weighted>
-3.3951

> <Gold.Chemscore.Metal.Weighted>
-0.0000

> <Gold.Chemscore.Lipo.Weighted>
-12.9780

> <Gold.Chemscore.Internal_Hbond.Weighted>
0.0000

> <Gold.Chemscore.DEClash.Weighted>
1.2775

> <Gold.Chemscore.DEInternal.Weighted>
1.2996

> <Gold.Chemscore.Rot.Weighted>
6.8755

> <Gold.Chemscore.Internal.Correction.Weighted>
   9.000000E+99

> <Gold.Protein.RotatedTorsions>
[ 6907 6896 6895 6894 ] final   76.68 input  -60.11 | X-H torsion
[ 7974 7965 7964 7962 ] final  108.73 input  175.53 | X-H torsion
[ 8008 7997 7996 7995 ] final -149.93 input   59.86 | X-H torsion
[ 10167 10162 10161 10158 ] final -172.01 input  -65.29 | X-H torsion
[ 10718 10713 10712 10709 ] final -100.13 input   66.30 | X-H torsion
[ 10763 10752 10751 10750 ] final    5.62 input  -60.55 | X-H torsion
[ 11005 11000 10999 10996 ] final  172.34 input  -57.11 | X-H torsion

> <Gold.Protein.ActiveResidues>
 VAL166  LYS551  ARG553  GLY616  TRP617  ASP618  TYR619  PRO620  LYS621  CYS622 
 ASP623  PHE694  ASN695  SER759  ASP760  ASP761  ALA762  ILE779  LEU786  VAL792 
 PHE793  MET794  SER795  GLU796  ALA797  LYS798  CYS799  TRP800  GLU811  SER814 

> <Gold.Protein.RotatedAtoms>
  152.5084  134.3932  159.9391 H   0  0  0  0  0  0  0  0  0  0  0  0  # atno 6907 bound_to 6896
  151.3893  133.3788  159.2727 H   0  0  0  0  0  0  0  0  0  0  0  0  # atno 6908 bound_to 6896
  150.9444  134.8871  159.7692 H   0  0  0  0  0  0  0  0  0  0  0  0  # atno 6909 bound_to 6896
  145.2769  139.2646  143.3936 H   0  0  0  0  0  0  0  0  0  0  0  0  # atno 7974 bound_to 7965
  155.6155  140.0676  157.2693 H   0  0  0  0  0  0  0  0  0  0  0  0  # atno 8008 bound_to 7997
  154.4242  140.1794  156.1365 H   0  0  0  0  0  0  0  0  0  0  0  0  # atno 8009 bound_to 7997
  156.0051  140.3332  155.6887 H   0  0  0  0  0  0  0  0  0  0  0  0  # atno 8010 bound_to 7997
  139.5769  144.1512  152.1462 H   0  0  0  0  0  0  0  0  0  0  0  0  # atno 10167 bound_to 10162
  156.0154  130.5313  150.6772 H   0  0  0  0  0  0  0  0  0  0  0  0  # atno 10718 bound_to 10713
  153.2572  135.6919  153.7616 H   0  0  0  0  0  0  0  0  0  0  0  0  # atno 10763 bound_to 10752
  153.6689  135.3348  155.3148 H   0  0  0  0  0  0  0  0  0  0  0  0  # atno 10764 bound_to 10752
  154.8417  135.4495  154.1550 H   0  0  0  0  0  0  0  0  0  0  0  0  # atno 10765 bound_to 10752
  140.3287  134.7376  157.4118 H   0  0  0  0  0  0  0  0  0  0  0  0  # atno 11005 bound_to 11000
  146.3229  140.3227  142.8634 LP  0  0  0  0  0  0  0  0  0  0  0  0  # atno 17320 bound_to 7965
  144.9286  140.7950  143.5703 LP  0  0  0  0  0  0  0  0  0  0  0  0  # atno 17321 bound_to 7965
  140.1057  144.5501  150.6959 LP  0  0  0  0  0  0  0  0  0  0  0  0  # atno 17342 bound_to 10162
  140.7051  143.2462  151.4751 LP  0  0  0  0  0  0  0  0  0  0  0  0  # atno 17343 bound_to 10162
  157.4482  131.0869  151.0874 LP  0  0  0  0  0  0  0  0  0  0  0  0  # atno 17370 bound_to 10713
  157.1397  130.6138  149.5552 LP  0  0  0  0  0  0  0  0  0  0  0  0  # atno 17371 bound_to 10713
  140.0879  134.5641  155.8473 LP  0  0  0  0  0  0  0  0  0  0  0  0  # atno 17394 bound_to 11000
  141.2069  133.6659  156.6270 LP  0  0  0  0  0  0  0  0  0  0  0  0  # atno 17395 bound_to 11000

$$$$
