AV-unprocessed.smi:34|AV-procd|sdf|235|dock1
  -GOLD-   2262015573D 1   1.00000     0.00000
 Structure written by MMmdl.
 54 58  0  0  0  0  0  0  0  0  2 V2000
  146.9898  131.2277  153.9301 O   0  0  0  0  0  0  0  0  0  0  0  0
  146.5129  132.3442  153.7146 C   0  0  0  0  0  0  0  0  0  0  0  0
  146.5044  133.4212  154.5407 N   0  5  0  0  0  0  0  0  0  0  0  0
  147.5984  134.1918  154.6400 C   0  0  0  0  0  0  0  0  0  0  0  0
  148.8354  133.6511  154.4938 N   0  0  0  0  0  0  0  0  0  0  0  0
  149.9258  134.4213  154.5859 C   0  0  0  0  0  0  0  0  0  0  0  0
  150.0101  135.7350  154.8182 N   0  0  0  0  0  0  0  0  0  0  0  0
  148.7722  136.2872  154.9803 C   0  0  0  0  0  0  0  0  0  0  0  0
  147.5334  135.5858  154.9120 C   0  0  0  0  0  0  0  0  0  0  0  0
  146.4681  136.4475  155.1309 N   0  0  0  0  0  0  0  0  0  0  0  0
  147.0944  137.6082  155.3143 C   0  0  0  0  0  0  0  0  0  0  0  0
  148.4405  137.6069  155.2310 N   0  0  0  0  0  0  0  0  0  0  0  0
  149.3801  138.7555  155.3848 C   0  0  2  0  0  0  0  0  0  0  0  0
  149.2252  139.2463  156.6823 O   0  0  0  0  0  0  0  0  0  0  0  0
  149.2494  140.6683  156.6730 C   0  0  1  0  0  0  0  0  0  0  0  0
  150.7047  141.1546  156.7745 C   0  0  0  0  0  0  0  0  0  0  0  0
  151.0708  141.2663  158.1399 O   0  0  0  0  0  0  0  0  0  0  0  0
  152.2991  140.8813  158.5409 C   0  0  0  0  0  0  0  0  0  0  0  0
  153.0187  140.1165  157.8949 O   0  0  0  0  0  0  0  0  0  0  0  0
  152.6950  141.4720  159.8519 C   0  0  0  0  0  0  0  0  0  0  0  0
  153.6775  140.8228  160.6355 C   0  0  0  0  0  0  0  0  0  0  0  0
  154.0696  141.3546  161.8793 C   0  0  0  0  0  0  0  0  0  0  0  0
  153.4852  142.5433  162.3539 C   0  0  0  0  0  0  0  0  0  0  0  0
  152.5080  143.1996  161.5831 C   0  0  0  0  0  0  0  0  0  0  0  0
  152.1136  142.6685  160.3395 C   0  0  0  0  0  0  0  0  0  0  0  0
  148.5962  141.0179  155.3354 C   0  0  2  0  0  0  0  0  0  0  0  0
  147.2701  141.0105  155.4784 F   0  0  0  0  0  0  0  0  0  0  0  0
  149.0135  139.8852  154.4065 C   0  0  1  0  0  0  0  0  0  0  0  0
  150.1160  140.2786  153.6140 O   0  0  0  0  0  0  0  0  0  0  0  0
  145.7813  132.5807  152.4209 C   0  0  0  0  0  0  0  0  0  0  0  0
  145.4889  133.9025  152.0139 C   0  0  0  0  0  0  0  0  0  0  0  0
  144.7815  134.1445  150.8202 C   0  0  0  0  0  0  0  0  0  0  0  0
  144.3495  133.0661  150.0257 C   0  0  0  0  0  0  0  0  0  0  0  0
  144.6230  131.7453  150.4275 C   0  0  0  0  0  0  0  0  0  0  0  0
  145.3318  131.5023  151.6204 C   0  0  0  0  0  0  0  0  0  0  0  0
  150.8679  133.9105  154.4527 H   0  0  0  0  0  0  0  0  0  0  0  0
  146.5424  138.5141  155.5167 H   0  0  0  0  0  0  0  0  0  0  0  0
  150.3799  138.3454  155.2358 H   0  0  0  0  0  0  0  0  0  0  0  0
  148.6700  141.0682  157.5064 H   0  0  0  0  0  0  0  0  0  0  0  0
  151.3761  140.4723  156.2513 H   0  0  0  0  0  0  0  0  0  0  0  0
  150.8047  142.1346  156.3065 H   0  0  0  0  0  0  0  0  0  0  0  0
  154.1398  139.9085  160.2921 H   0  0  0  0  0  0  0  0  0  0  0  0
  154.8200  140.8492  162.4694 H   0  0  0  0  0  0  0  0  0  0  0  0
  153.7862  142.9510  163.3078 H   0  0  0  0  0  0  0  0  0  0  0  0
  152.0594  144.1127  161.9459 H   0  0  0  0  0  0  0  0  0  0  0  0
  151.3610  143.1972  159.7730 H   0  0  0  0  0  0  0  0  0  0  0  0
  148.8614  142.0104  154.9685 H   0  0  0  0  0  0  0  0  0  0  0  0
  148.2018  139.5891  153.7399 H   0  0  0  0  0  0  0  0  0  0  0  0
  149.8324  140.3486  152.7154 H   0  0  0  0  0  0  0  0  0  0  0  0
  145.8113  134.7408  152.6143 H   0  0  0  0  0  0  0  0  0  0  0  0
  144.5690  135.1585  150.5159 H   0  0  0  0  0  0  0  0  0  0  0  0
  143.8052  133.2516  149.1117 H   0  0  0  0  0  0  0  0  0  0  0  0
  144.2860  130.9165  149.8226 H   0  0  0  0  0  0  0  0  0  0  0  0
  145.5222  130.4808  151.9169 H   0  0  0  0  0  0  0  0  0  0  0  0
  1  2  2  0  0  0  0
  2  3  1  0  0  0  0
  2 30  1  0  0  0  0
  3  4  1  0  0  0  0
  4  9  1  0  0  0  0
  4  5  2  0  0  0  0
  5  6  1  0  0  0  0
  6  7  2  0  0  0  0
  6 36  1  0  0  0  0
  7  8  1  0  0  0  0
  8 12  1  0  0  0  0
  8  9  2  0  0  0  0
  9 10  1  0  0  0  0
 10 11  2  0  0  0  0
 11 12  1  0  0  0  0
 11 37  1  0  0  0  0
 12 13  1  0  0  0  0
 13 28  1  0  0  0  0
 13 14  1  0  0  0  0
 13 38  1  0  0  0  0
 14 15  1  0  0  0  0
 15 16  1  0  0  0  0
 15 26  1  0  0  0  0
 15 39  1  0  0  0  0
 16 17  1  0  0  0  0
 16 40  1  0  0  0  0
 16 41  1  0  0  0  0
 17 18  1  0  0  0  0
 18 19  2  0  0  0  0
 18 20  1  0  0  0  0
 20 25  1  0  0  0  0
 20 21  2  0  0  0  0
 21 22  1  0  0  0  0
 21 42  1  0  0  0  0
 22 23  2  0  0  0  0
 22 43  1  0  0  0  0
 23 24  1  0  0  0  0
 23 44  1  0  0  0  0
 24 25  2  0  0  0  0
 24 45  1  0  0  0  0
 25 46  1  0  0  0  0
 26 27  1  0  0  0  0
 26 28  1  0  0  0  0
 26 47  1  0  0  0  0
 28 29  1  0  0  0  0
 28 48  1  0  0  0  0
 29 49  1  0  0  0  0
 30 35  1  0  0  0  0
 30 31  2  0  0  0  0
 31 32  1  0  0  0  0
 31 50  1  0  0  0  0
 32 33  2  0  0  0  0
 32 51  1  0  0  0  0
 33 34  1  0  0  0  0
 33 52  1  0  0  0  0
 34 35  2  0  0  0  0
 34 53  1  0  0  0  0
 35 54  1  0  0  0  0
M  CHG  1   3  -1
M  END
> <s_m_source_file>
AV-unprocessed.smi

> <i_m_source_file_index>
34

> <i_lp_mmshare_version>
43012

> <i_f3d_flags>
0

> <s_epik_input>
W2NIXTFbY0hdW2NIXVtjSF1bY0hdYzFDKD1PKVtOSF1jKG5bY0hdbjIpYyhjMjMpbltjSF1uM1tDQEBIXTRPW0NASF0oW0NAQEhdKEYpW0NASF00W09IXSlbQ0gyXU9DKD1PKWM1W2NIXVtjSF1bY0hdW2NIXVtjSF01

> <s_epik_cmdline>
J2VwaWtfcHl0aG9uJywgJy1waCcsICc3LjAnLCAnLXRuJywgJzgnLCAnLW1hJywgJzIwMCcsICctbWV0YWxfYmluZGluZycsICctaW1hZScsICc8aW5maWxlLm1hZT4nLCAnLW9tYWUnLCAnPG91dGZpbGUubWFlPic=

> <r_lp_tautomer_probability>
1

> <r_epik_Ionization_Penalty>
4.33227

> <r_epik_Ionization_Penalty_Charging>
3.41027

> <r_epik_Ionization_Penalty_Neutral>
0.922001

> <r_epik_State_Penalty>
3.41358

> <r_epik_Charging_Adjusted_Penalty>
6.82385

> <i_epik_Tot_Q>
-1

> <i_epik_Tot_abs_Q>
1

> <r_epik_Metal_State_Penalty>
0.496292

> <b_epik_Metal_Only>
1

> <s_epik_Chemistry_Notes>
This compound has an ester and may undergo hydrolysis at high or low pH. This compound contains an acetal/aminal-like group ( X-CH(R)-Y where X, Y are N, S, or O) that may be acid/base labile, releasing an aldehyde.

> <s_lp_Force_Field>
OPLS_2005

> <r_lp_Energy>
42.8672

> <b_lp_Chiralities_Consistent>
1

> <s_lp_Variant>
AV-unprocessed.smi:34-21

> <Gold.Version>
5.8.1

> <Gold.Id.Protein>
6NUR|6NUR_protein|mol2

> <Gold.PLP.Fitness>
56.7427

> <Gold.PLP.PLP>
-52.4526

> <Gold.PLP.part.hbond>
-2.6051

> <Gold.PLP.part.metal>
0.0000

> <Gold.PLP.part.buried>
-6.7732

> <Gold.PLP.part.nonpolar>
-42.5167

> <Gold.PLP.part.repulsive>
0.5031

> <Gold.PLP.ligand.clash>
0.0000

> <Gold.PLP.ligand.torsion>
2.1485

> <Gold.PLP.Chemscore.Hbond>
2.6384

> <Gold.PLP.Chemscore.CHOScore>
0.0000

> <Gold.PLP.Chemscore.Metal>
0.0000

> <Gold.Chemscore.Hbonds>
donor molecule, donor type, donor heavy atom, donor atom, acceptor molecule, acceptor atom, score
      L1  H    29    49       P1  7957  1.00
      P1  H  7989  7998       L1    29  0.64
      P1  H  7997  8009       L1    19  1.00

> <Gold.PLP.Chemscore.Internal.Correction>
0.6719

> <Gold.Rescore>
     Score         DG    S(hbond)    S(metal)    S(lipo)     H(rot)  DE(clash)    DE(int)     intcor
     18.69     -20.81       2.06        0.00     131.24       2.69       0.09       2.03       ----

> <Gold.Chemscore.Fitness>
18.6936

> <Gold.Chemscore.DG>
-20.8087

> <Gold.Chemscore.ZeroCoef>
-5.4800

> <Gold.Chemscore.Hbond>
2.0572

> <Gold.Chemscore.Metal>
0.0000

> <Gold.Chemscore.Lipo>
131.2395

> <Gold.Chemscore.Internal_Hbond>
0.0000

> <Gold.Chemscore.DEClash>
0.0870

> <Gold.Chemscore.DEInternal>
2.0282

> <Gold.Chemscore.Rot>
2.6944

> <Gold.Chemscore.Internal.Correction>
   9.000000E+99

> <Gold.Chemscore.Hbonds>
donor molecule, donor type, donor heavy atom, donor atom, acceptor molecule, acceptor atom, score
      L1  H    29    49       P1  7957  0.98
      P1  H  7989  7998       L1    29  0.14
      P1  H  7997  8009       L1    19  0.96

> <Gold.Chemscore.Hbond.Weighted>
-6.8712

> <Gold.Chemscore.Metal.Weighted>
-0.0000

> <Gold.Chemscore.Lipo.Weighted>
-15.3550

> <Gold.Chemscore.Internal_Hbond.Weighted>
0.0000

> <Gold.Chemscore.DEClash.Weighted>
0.0870

> <Gold.Chemscore.DEInternal.Weighted>
2.0282

> <Gold.Chemscore.Rot.Weighted>
6.8975

> <Gold.Chemscore.Internal.Correction.Weighted>
   9.000000E+99

> <Gold.Protein.RotatedTorsions>
[ 6907 6896 6895 6894 ] final -145.48 input  -60.11 | X-H torsion
[ 7974 7965 7964 7962 ] final   54.64 input  175.53 | X-H torsion
[ 8008 7997 7996 7995 ] final  161.74 input   59.86 | X-H torsion
[ 10167 10162 10161 10158 ] final   20.81 input  -65.29 | X-H torsion
[ 10718 10713 10712 10709 ] final  126.77 input   66.30 | X-H torsion
[ 10763 10752 10751 10750 ] final -167.27 input  -60.55 | X-H torsion
[ 11005 11000 10999 10996 ] final   71.62 input  -57.11 | X-H torsion

> <Gold.Protein.ActiveResidues>
 VAL166  LYS551  ARG553  GLY616  TRP617  ASP618  TYR619  PRO620  LYS621  CYS622 
 ASP623  PHE694  ASN695  SER759  ASP760  ASP761  ALA762  ILE779  LEU786  VAL792 
 PHE793  MET794  SER795  GLU796  ALA797  LYS798  CYS799  TRP800  GLU811  SER814 

> <Gold.Protein.RotatedAtoms>
  151.1284  133.5054  159.2599 H   0  0  0  0  0  0  0  0  0  0  0  0  # atno 6907 bound_to 6896
  151.1785  135.0350  159.8792 H   0  0  0  0  0  0  0  0  0  0  0  0  # atno 6908 bound_to 6896
  152.5459  134.1138  159.8423 H   0  0  0  0  0  0  0  0  0  0  0  0  # atno 6909 bound_to 6896
  145.9588  139.4040  143.0261 H   0  0  0  0  0  0  0  0  0  0  0  0  # atno 7974 bound_to 7965
  156.2081  140.1769  156.7755 H   0  0  0  0  0  0  0  0  0  0  0  0  # atno 8008 bound_to 7997
  154.5684  140.0687  156.8956 H   0  0  0  0  0  0  0  0  0  0  0  0  # atno 8009 bound_to 7997
  155.2719  140.3343  155.4267 H   0  0  0  0  0  0  0  0  0  0  0  0  # atno 8010 bound_to 7997
  140.5475  143.9569  150.6557 H   0  0  0  0  0  0  0  0  0  0  0  0  # atno 10167 bound_to 10162
  157.5390  131.1097  150.8888 H   0  0  0  0  0  0  0  0  0  0  0  0  # atno 10718 bound_to 10713
  154.6749  135.2945  154.9692 H   0  0  0  0  0  0  0  0  0  0  0  0  # atno 10763 bound_to 10752
  154.0706  135.6618  153.4828 H   0  0  0  0  0  0  0  0  0  0  0  0  # atno 10764 bound_to 10752
  153.0510  135.5174  154.7764 H   0  0  0  0  0  0  0  0  0  0  0  0  # atno 10765 bound_to 10752
  139.9534  134.7187  156.0809 H   0  0  0  0  0  0  0  0  0  0  0  0  # atno 11005 bound_to 11000
  145.8069  140.9744  143.0969 LP  0  0  0  0  0  0  0  0  0  0  0  0  # atno 17320 bound_to 7965
  144.6810  139.9872  143.7484 LP  0  0  0  0  0  0  0  0  0  0  0  0  # atno 17321 bound_to 7965
  140.2986  143.3276  152.0994 LP  0  0  0  0  0  0  0  0  0  0  0  0  # atno 17342 bound_to 10162
  139.5013  144.6711  151.6240 LP  0  0  0  0  0  0  0  0  0  0  0  0  # atno 17343 bound_to 10162
  156.9447  130.5397  149.5281 LP  0  0  0  0  0  0  0  0  0  0  0  0  # atno 17370 bound_to 10713
  156.0482  130.5555  150.8929 LP  0  0  0  0  0  0  0  0  0  0  0  0  # atno 17371 bound_to 10713
  141.1201  133.6615  156.3193 LP  0  0  0  0  0  0  0  0  0  0  0  0  # atno 17394 bound_to 11000
  140.5666  134.5882  157.5447 LP  0  0  0  0  0  0  0  0  0  0  0  0  # atno 17395 bound_to 11000

$$$$
