#       Name:                AV-unprocessed.smi:1187
#       Creating user name   scv26
#       Creation time:       Fri Mar 27 03:57:05 2020


#       File generated by GOLD software.
#

@<TRIPOS>MOLECULE
AV-unprocessed.smi:1187
    45    46     1
SMALL
NO_CHARGES


@<TRIPOS>ATOM
      1 ****        -7.2871   3.1982  -0.0378 C.3            1 S1                 0.0000
      2 ****        -6.7123   1.8962  -0.0647 O.3            1 S1                 0.0000
      3 ****        -5.3368   1.7872  -0.0504 C.ar           1 S1                 0.0000
      4 ****        -4.7612   0.5011  -0.0639 C.ar           1 S1                 0.0000
      5 ****        -3.3582   0.3813  -0.0463 C.ar           1 S1                 0.0000
      6 ****        -2.5725   1.5579  -0.0074 C.ar           1 S1                 0.0000
      7 ****        -1.1516   1.5740  -0.0016 N.am           1 S1                 0.0000
      8 ****        -0.3030   0.6000   0.3693 C.2            1 S1                 0.0000
      9 ****        -0.6291  -0.5137   0.7796 O.2            1 S1                 0.0000
     10 ****         0.9719   1.0001   0.2535 N.am           1 S1                 0.0000
     11 ****         2.1432   0.1858   0.5724 C.3            1 S1                 0.0000
     12 ****         2.5735  -0.7449  -0.5766 C.2            1 S1                 0.0000
     13 ****         2.0454  -0.6390  -1.6852 O.2            1 S1                 0.0000
     14 ****         3.5420  -1.6513  -0.3302 N.am           1 S1                 0.0000
     15 ****         4.2381  -1.8326   0.9432 C.3            1 S1                 0.0000
     16 ****         5.4018  -2.7791   0.6469 C.3            1 S1                 0.0000
     17 ****         4.9406  -3.5679  -0.5706 C.3            1 S1                 0.0000
     18 ****         4.0445  -2.5902  -1.3315 C.3            1 S1                 0.0000
     19 ****        -3.2458   2.7969  -0.0125 C.ar           1 S1                 0.0000
     20 ****        -4.5897   2.9185  -0.0283 N.ar           1 S1                 0.0000
     21 ****        -8.3736   3.1139  -0.0546 H              1 S1                 0.0000
     22 ****        -6.9879   3.7857  -0.9069 H              1 S1                 0.0000
     23 ****        -7.0113   3.7361   0.8705 H              1 S1                 0.0000
     24 ****        -5.3858  -0.3796  -0.0901 H              1 S1                 0.0000
     25 ****        -2.9185  -0.6035  -0.0760 H              1 S1                 0.0000
     26 ****        -0.7300   2.4573  -0.2487 H              1 S1                 0.0000
     27 ****         1.1488   1.9313  -0.0930 H              1 S1                 0.0000
     28 ****         2.9674   0.8612   0.8023 H              1 S1                 0.0000
     29 ****         1.9504  -0.3962   1.4750 H              1 S1                 0.0000
     30 ****         4.5978  -0.8903   1.3585 H              1 S1                 0.0000
     31 ****         3.5535  -2.2849   1.6624 H              1 S1                 0.0000
     32 ****         6.2880  -2.1976   0.3890 H              1 S1                 0.0000
     33 ****         5.6555  -3.4169   1.4941 H              1 S1                 0.0000
     34 ****         5.7700  -3.9384  -1.1737 H              1 S1                 0.0000
     35 ****         4.3519  -4.4272  -0.2470 H              1 S1                 0.0000
     36 ****         3.2374  -3.1118  -1.8486 H              1 S1                 0.0000
     37 ****         4.6238  -2.0393  -2.0741 H              1 S1                 0.0000
     38 ****        -2.6899   3.7233   0.0024 H              1 S1                 0.0000
     39 ****        -7.0362   1.4469  -0.8973 LP             1 S1                 0.0000
     40 ****        -7.0565   1.4041   0.7350 LP             1 S1                 0.0000
     41 ****        -1.5966  -0.7540   0.8586 LP             1 S1                 0.0000
     42 ****         0.0734  -1.1783   1.0340 LP             1 S1                 0.0000
     43 ****         1.3379   0.0509  -1.8381 LP             1 S1                 0.0000
     44 ****         2.3244  -1.2431  -2.4317 LP             1 S1                 0.0000
     45 ****        -5.0234   3.8195  -0.0238 LP             1 S1                 0.0000
@<TRIPOS>BOND
    1    1    2 1     
    2    1   21 1     
    3    1   22 1     
    4    1   23 1     
    5    2    3 1     
    6    3   20 ar    
    7    3    4 ar    
    8    4    5 ar    
    9    4   24 1     
   10    5    6 ar    
   11    5   25 1     
   12    6    7 1     
   13    6   19 ar    
   14    7    8 am    
   15    7   26 1     
   16    8    9 2     
   17    8   10 am    
   18   10   11 1     
   19   10   27 1     
   20   11   12 1     
   21   11   28 1     
   22   11   29 1     
   23   12   13 2     
   24   12   14 am    
   25   14   18 1     
   26   14   15 1     
   27   15   16 1     
   28   15   30 1     
   29   15   31 1     
   30   16   17 1     
   31   16   32 1     
   32   16   33 1     
   33   17   18 1     
   34   17   34 1     
   35   17   35 1     
   36   18   36 1     
   37   18   37 1     
   38   19   20 ar    
   39   19   38 1     
   40    2   39 1     
   41    2   40 1     
   42    9   41 1     
   43    9   42 1     
   44   13   43 1     
   45   13   44 1     
   46   20   45 1     
@<TRIPOS>SUBSTRUCTURE
      1 S1             1
@<TRIPOS>SET
LONE_PAIRS      STATIC     ATOMS    <user>   **** ""
7 39 40 41 42 43 44 45
DONOR_HYDROGENS      STATIC     ATOMS    <user>   **** ""
2 26 27
ATOM$BLUE        STATIC     ATOMS    COLORGROUP SYSTEM
7 39 40 41 42 43 44 45
ATOM$RED        STATIC     ATOMS    COLORGROUP SYSTEM
2 26 27
