AV-unprocessed.smi:1565|AV-procd|sdf|6302|dock4
  -GOLD-   22720 6503D 1   1.00000     0.00000
 Structure written by MMmdl.
 39 40  0  0  0  0  0  0  0  0  2 V2000
  151.3296  144.8404  159.7817 C   0  0  0  0  0  0  0  0  0  0  0  0
  152.2314  144.4125  158.6101 C   0  0  1  0  0  0  0  0  0  0  0  0
  153.3985  143.5014  159.0373 C   0  0  0  0  0  0  0  0  0  0  0  0
  152.9312  142.1466  159.3161 N   0  0  0  0  0  0  0  0  0  0  0  0
  153.8571  141.3154  159.9815 C   0  0  0  0  0  0  0  0  0  0  0  0
  153.7708  141.1402  161.3821 C   0  0  0  0  0  0  0  0  0  0  0  0
  154.7092  140.3142  162.0303 C   0  0  0  0  0  0  0  0  0  0  0  0
  155.7093  139.6725  161.2646 C   0  0  0  0  0  0  0  0  0  0  0  0
  156.7685  138.8083  161.8940 C   0  0  0  0  0  0  0  0  0  0  0  0
  157.8288  138.6516  161.2783 O   0  0  0  0  0  0  0  0  0  0  0  0
  156.3637  138.2670  163.0778 N   0  5  0  0  0  0  0  0  0  0  0  0
  156.1588  136.8334  163.3004 C   0  0  0  0  0  0  0  0  0  0  0  0
  154.6786  136.5159  163.5950 C   0  0  0  0  0  0  0  0  0  0  0  0
  154.2938  137.2042  164.6698 F   0  0  0  0  0  0  0  0  0  0  0  0
  153.9055  136.8725  162.5682 F   0  0  0  0  0  0  0  0  0  0  0  0
  154.5045  135.2173  163.8447 F   0  0  0  0  0  0  0  0  0  0  0  0
  155.7160  139.9135  159.8739 C   0  0  0  0  0  0  0  0  0  0  0  0
  154.8175  140.7029  159.2469 N   0  0  0  0  0  0  0  0  0  0  0  0
  152.1562  141.5703  158.2213 C   0  0  0  0  0  0  0  0  0  0  0  0
  150.9887  142.4994  157.8451 C   0  0  2  0  0  0  0  0  0  0  0  0
  150.2311  141.9939  156.6131 C   0  0  0  0  0  0  0  0  0  0  0  0
  151.4897  143.8030  157.5512 O   0  0  0  0  0  0  0  0  0  0  0  0
  151.8951  145.4216  160.5102 H   0  0  0  0  0  0  0  0  0  0  0  0
  150.9051  143.9872  160.3101 H   0  0  0  0  0  0  0  0  0  0  0  0
  150.5057  145.4626  159.4318 H   0  0  0  0  0  0  0  0  0  0  0  0
  152.6593  145.3247  158.1936 H   0  0  0  0  0  0  0  0  0  0  0  0
  154.1325  143.4478  158.2322 H   0  0  0  0  0  0  0  0  0  0  0  0
  153.9082  143.9424  159.8932 H   0  0  0  0  0  0  0  0  0  0  0  0
  152.9959  141.6191  161.9619 H   0  0  0  0  0  0  0  0  0  0  0  0
  154.6546  140.1859  163.1016 H   0  0  0  0  0  0  0  0  0  0  0  0
  156.4918  136.2333  162.4520 H   0  0  0  0  0  0  0  0  0  0  0  0
  156.7616  136.4893  164.1415 H   0  0  0  0  0  0  0  0  0  0  0  0
  156.4614  139.4599  159.2368 H   0  0  0  0  0  0  0  0  0  0  0  0
  152.8099  141.4169  157.3613 H   0  0  0  0  0  0  0  0  0  0  0  0
  151.7630  140.5949  158.5110 H   0  0  0  0  0  0  0  0  0  0  0  0
  150.2839  142.5549  158.6746 H   0  0  0  0  0  0  0  0  0  0  0  0
  149.8171  141.0005  156.7871 H   0  0  0  0  0  0  0  0  0  0  0  0
  150.8860  141.9366  155.7433 H   0  0  0  0  0  0  0  0  0  0  0  0
  149.4041  142.6596  156.3646 H   0  0  0  0  0  0  0  0  0  0  0  0
  1  2  1  0  0  0  0
  1 23  1  0  0  0  0
  1 24  1  0  0  0  0
  1 25  1  0  0  0  0
  2 22  1  0  0  0  0
  2  3  1  0  0  0  0
  2 26  1  0  0  0  0
  3  4  1  0  0  0  0
  3 27  1  0  0  0  0
  3 28  1  0  0  0  0
  4  5  1  0  0  0  0
  4 19  1  0  0  0  0
  5 18  1  0  0  0  0
  5  6  2  0  0  0  0
  6  7  1  0  0  0  0
  6 29  1  0  0  0  0
  7  8  2  0  0  0  0
  7 30  1  0  0  0  0
  8  9  1  0  0  0  0
  8 17  1  0  0  0  0
  9 10  2  0  0  0  0
  9 11  1  0  0  0  0
 11 12  1  0  0  0  0
 12 13  1  0  0  0  0
 12 31  1  0  0  0  0
 12 32  1  0  0  0  0
 13 14  1  0  0  0  0
 13 15  1  0  0  0  0
 13 16  1  0  0  0  0
 17 18  2  0  0  0  0
 17 33  1  0  0  0  0
 19 20  1  0  0  0  0
 19 34  1  0  0  0  0
 19 35  1  0  0  0  0
 20 21  1  0  0  0  0
 20 22  1  0  0  0  0
 20 36  1  0  0  0  0
 21 37  1  0  0  0  0
 21 38  1  0  0  0  0
 21 39  1  0  0  0  0
M  CHG  1  11  -1
M  END
> <s_m_source_file>
AV-unprocessed.smi

> <i_m_source_file_index>
1565

> <i_lp_mmshare_version>
43012

> <i_f3d_flags>
0

> <s_epik_input>
W0NIM11bQ0BASF0xW0NIMl1OKFtDSDJdW0NASF0oTzEpW0NIM10pYzJbY0hdW2NIXWMoW2NIXW4yKUMoPU8pW05IXVtDSDJdQyhGKShGKUY=

> <s_epik_cmdline>
J2VwaWtfcHl0aG9uJywgJy1waCcsICc3LjAnLCAnLXRuJywgJzgnLCAnLW1hJywgJzIwMCcsICctbWV0YWxfYmluZGluZycsICctaW1hZScsICc8aW5maWxlLm1hZT4nLCAnLW9tYWUnLCAnPG91dGZpbGUubWFlPic=

> <r_lp_tautomer_probability>
1

> <r_epik_Ionization_Penalty>
6.78525

> <r_epik_Ionization_Penalty_Charging>
6.78469

> <r_epik_Ionization_Penalty_Neutral>
0.000559052

> <r_epik_State_Penalty>
6.78469

> <r_epik_Charging_Adjusted_Penalty>
13.5694

> <i_epik_Tot_Q>
-1

> <i_epik_Tot_abs_Q>
1

> <r_epik_Metal_State_Penalty>
2.70441

> <b_epik_Metal_Only>
1

> <s_lp_Force_Field>
OPLS_2005

> <r_lp_Energy>
29.3503

> <b_lp_Chiralities_Consistent>
1

> <s_lp_Variant>
AV-unprocessed.smi:1565-6

> <Gold.Version>
5.8.1

> <Gold.Id.Protein>
6NUR|6NUR_protein|mol2

> <Gold.PLP.Fitness>
42.5705

> <Gold.PLP.PLP>
-42.7258

> <Gold.PLP.part.hbond>
-1.0000

> <Gold.PLP.part.metal>
0.0000

> <Gold.PLP.part.buried>
-2.9093

> <Gold.PLP.part.nonpolar>
-38.0337

> <Gold.PLP.part.repulsive>
0.1567

> <Gold.PLP.ligand.clash>
0.0000

> <Gold.PLP.ligand.torsion>
1.1918

> <Gold.PLP.Chemscore.Hbond>
0.6344

> <Gold.PLP.Chemscore.CHOScore>
0.0000

> <Gold.PLP.Chemscore.Metal>
0.0000

> <Gold.Chemscore.Hbonds>
donor molecule, donor type, donor heavy atom, donor atom, acceptor molecule, acceptor atom, score
      P1  H  7997  8008       L1    18  0.63

> <Gold.PLP.Chemscore.Internal.Correction>
0.3250

> <Gold.Rescore>
     Score         DG    S(hbond)    S(metal)    S(lipo)     H(rot)  DE(clash)    DE(int)     intcor
     14.89     -16.30       0.62        0.00     103.08       1.29       0.19       1.22       ----

> <Gold.Chemscore.Fitness>
14.8936

> <Gold.Chemscore.DG>
-16.2999

> <Gold.Chemscore.ZeroCoef>
-5.4800

> <Gold.Chemscore.Hbond>
0.6190

> <Gold.Chemscore.Metal>
0.0000

> <Gold.Chemscore.Lipo>
103.0787

> <Gold.Chemscore.Internal_Hbond>
0.0000

> <Gold.Chemscore.DEClash>
0.1897

> <Gold.Chemscore.DEInternal>
1.2166

> <Gold.Chemscore.Rot>
1.2921

> <Gold.Chemscore.Internal.Correction>
   9.000000E+99

> <Gold.Chemscore.Hbonds>
donor molecule, donor type, donor heavy atom, donor atom, acceptor molecule, acceptor atom, score
      P1  H  7997  8008       L1    18  0.15

> <Gold.Chemscore.Hbond.Weighted>
-2.0675

> <Gold.Chemscore.Metal.Weighted>
-0.0000

> <Gold.Chemscore.Lipo.Weighted>
-12.0602

> <Gold.Chemscore.Internal_Hbond.Weighted>
0.0000

> <Gold.Chemscore.DEClash.Weighted>
0.1897

> <Gold.Chemscore.DEInternal.Weighted>
1.2166

> <Gold.Chemscore.Rot.Weighted>
3.3078

> <Gold.Chemscore.Internal.Correction.Weighted>
   9.000000E+99

> <Gold.Protein.RotatedTorsions>
[ 6907 6896 6895 6894 ] final   53.51 input  -60.11 | X-H torsion
[ 7974 7965 7964 7962 ] final  173.83 input  175.53 | X-H torsion
[ 8008 7997 7996 7995 ] final -117.68 input   59.86 | X-H torsion
[ 10167 10162 10161 10158 ] final -153.40 input  -65.29 | X-H torsion
[ 10718 10713 10712 10709 ] final  159.84 input   66.30 | X-H torsion
[ 10763 10752 10751 10750 ] final   51.71 input  -60.55 | X-H torsion
[ 11005 11000 10999 10996 ] final -151.60 input  -57.11 | X-H torsion

> <Gold.Protein.ActiveResidues>
 VAL166  LYS551  ARG553  GLY616  TRP617  ASP618  TYR619  PRO620  LYS621  CYS622 
 ASP623  PHE694  ASN695  SER759  ASP760  ASP761  ALA762  ILE779  LEU786  VAL792 
 PHE793  MET794  SER795  GLU796  ALA797  LYS798  CYS799  TRP800  GLU811  SER814 

> <Gold.Protein.RotatedAtoms>
  152.3344  134.7217  160.0280 H   0  0  0  0  0  0  0  0  0  0  0  0  # atno 6907 bound_to 6896
  151.7623  133.3329  159.3429 H   0  0  0  0  0  0  0  0  0  0  0  0  # atno 6908 bound_to 6896
  150.7442  134.6026  159.6089 H   0  0  0  0  0  0  0  0  0  0  0  0  # atno 6909 bound_to 6896
  144.7235  139.9707  143.6437 H   0  0  0  0  0  0  0  0  0  0  0  0  # atno 7974 bound_to 7965
  155.0877  140.0394  157.2659 H   0  0  0  0  0  0  0  0  0  0  0  0  # atno 8008 bound_to 7997
  154.6857  140.2642  155.6838 H   0  0  0  0  0  0  0  0  0  0  0  0  # atno 8009 bound_to 7997
  156.2711  140.2769  156.1417 H   0  0  0  0  0  0  0  0  0  0  0  0  # atno 8010 bound_to 7997
  139.7100  143.9124  152.2464 H   0  0  0  0  0  0  0  0  0  0  0  0  # atno 10167 bound_to 10162
  157.1587  131.0582  151.2243 H   0  0  0  0  0  0  0  0  0  0  0  0  # atno 10718 bound_to 10713
  152.9786  135.5837  154.4460 H   0  0  0  0  0  0  0  0  0  0  0  0  # atno 10763 bound_to 10752
  154.4055  135.2769  155.2072 H   0  0  0  0  0  0  0  0  0  0  0  0  # atno 10764 bound_to 10752
  154.3884  135.6131  153.5883 H   0  0  0  0  0  0  0  0  0  0  0  0  # atno 10765 bound_to 10752
  140.7279  134.3654  157.5172 H   0  0  0  0  0  0  0  0  0  0  0  0  # atno 11005 bound_to 11000
  146.0565  139.3562  143.0607 LP  0  0  0  0  0  0  0  0  0  0  0  0  # atno 17320 bound_to 7965
  145.8148  140.9708  143.0930 LP  0  0  0  0  0  0  0  0  0  0  0  0  # atno 17321 bound_to 7965
  139.8991  144.6922  150.8685 LP  0  0  0  0  0  0  0  0  0  0  0  0  # atno 17342 bound_to 10162
  140.7731  143.3528  151.1981 LP  0  0  0  0  0  0  0  0  0  0  0  0  # atno 17343 bound_to 10162
  157.4153  130.7407  149.6870 LP  0  0  0  0  0  0  0  0  0  0  0  0  # atno 17370 bound_to 10713
  155.9757  130.4085  150.3827 LP  0  0  0  0  0  0  0  0  0  0  0  0  # atno 17371 bound_to 10713
  139.8833  134.8998  156.2776 LP  0  0  0  0  0  0  0  0  0  0  0  0  # atno 17394 bound_to 11000
  140.9947  133.7187  156.0867 LP  0  0  0  0  0  0  0  0  0  0  0  0  # atno 17395 bound_to 11000

$$$$
