AV-unprocessed.smi:830|AV-procd|sdf|3873|dock2
  -GOLD-   22720 1323D 1   1.00000     0.00000
 Structure written by MMmdl.
 53 55  0  0  0  0  0  0  0  0  2 V2000
  142.1480  131.9270  158.6613 C   0  0  0  0  0  0  0  0  0  0  0  0
  143.5356  131.2715  158.7548 C   0  0  1  0  0  0  0  0  0  0  0  0
  144.1184  131.2496  157.4136 N   0  0  0  0  0  0  0  0  0  0  0  0
  145.3857  130.9181  157.1260 C   0  0  0  0  0  0  0  0  0  0  0  0
  146.2018  130.5466  157.9695 O   0  0  0  0  0  0  0  0  0  0  0  0
  145.6434  131.0698  155.8169 N   0  0  0  0  0  0  0  0  0  0  0  0
  146.8979  130.9362  155.1587 C   0  0  0  0  0  0  0  0  0  0  0  0
  148.0613  130.5115  155.8494 C   0  0  0  0  0  0  0  0  0  0  0  0
  149.2727  130.3558  155.1488 C   0  0  0  0  0  0  0  0  0  0  0  0
  149.2999  130.6160  153.7672 C   0  0  0  0  0  0  0  0  0  0  0  0
  148.1717  131.0041  153.1368 N   0  3  0  0  0  0  0  0  0  0  0  0
  146.9780  131.1710  153.7586 C   0  0  0  0  0  0  0  0  0  0  0  0
  145.8686  131.6065  153.0025 N   0  0  0  0  0  0  0  0  0  0  0  0
  145.9928  132.9651  152.4792 C   0  0  0  0  0  0  0  0  0  0  0  0
  145.3266  132.9621  151.1018 C   0  0  0  0  0  0  0  0  0  0  0  0
  145.4673  131.5133  150.6515 C   0  0  0  0  0  0  0  0  0  0  0  0
  145.3102  130.7444  151.9620 C   0  0  0  0  0  0  0  0  0  0  0  0
  144.3994  132.1079  159.7134 C   0  0  0  0  0  0  0  0  0  0  0  0
  144.6299  133.2955  159.4779 O   0  0  0  0  0  0  0  0  0  0  0  0
  144.8581  131.4722  160.8020 N   0  0  0  0  0  0  0  0  0  0  0  0
  145.6982  132.0722  161.8349 C   0  0  0  0  0  0  0  0  0  0  0  0
  145.0712  133.3775  162.3609 C   0  0  0  0  0  0  0  0  0  0  0  0
  146.2003  134.4088  162.3840 C   0  0  0  0  0  0  0  0  0  0  0  0
  147.1219  133.9828  161.2459 C   0  0  0  0  0  0  0  0  0  0  0  0
  147.0891  132.4547  161.2888 C   0  0  0  0  0  0  0  0  0  0  0  0
  141.6597  131.9629  159.6361 H   0  0  0  0  0  0  0  0  0  0  0  0
  141.4954  131.3635  157.9937 H   0  0  0  0  0  0  0  0  0  0  0  0
  142.2059  132.9484  158.2813 H   0  0  0  0  0  0  0  0  0  0  0  0
  143.4351  130.2516  159.1316 H   0  0  0  0  0  0  0  0  0  0  0  0
  143.5195  131.5477  156.6577 H   0  0  0  0  0  0  0  0  0  0  0  0
  144.8972  131.4600  155.2598 H   0  0  0  0  0  0  0  0  0  0  0  0
  148.0388  130.2876  156.9053 H   0  0  0  0  0  0  0  0  0  0  0  0
  150.1662  130.0355  155.6646 H   0  0  0  0  0  0  0  0  0  0  0  0
  150.1818  130.5232  153.1500 H   0  0  0  0  0  0  0  0  0  0  0  0
  145.5208  133.6902  153.1426 H   0  0  0  0  0  0  0  0  0  0  0  0
  147.0458  133.2354  152.3832 H   0  0  0  0  0  0  0  0  0  0  0  0
  144.2701  133.2156  151.2004 H   0  0  0  0  0  0  0  0  0  0  0  0
  145.7807  133.6715  150.4094 H   0  0  0  0  0  0  0  0  0  0  0  0
  144.7327  131.2254  149.8987 H   0  0  0  0  0  0  0  0  0  0  0  0
  146.4629  131.3470  150.2376 H   0  0  0  0  0  0  0  0  0  0  0  0
  145.7546  129.7512  151.9026 H   0  0  0  0  0  0  0  0  0  0  0  0
  144.2519  130.6028  152.1834 H   0  0  0  0  0  0  0  0  0  0  0  0
  144.6163  130.4988  160.9192 H   0  0  0  0  0  0  0  0  0  0  0  0
  145.8141  131.3692  162.6619 H   0  0  0  0  0  0  0  0  0  0  0  0
  144.2881  133.7274  161.6860 H   0  0  0  0  0  0  0  0  0  0  0  0
  144.6151  133.2492  163.3431 H   0  0  0  0  0  0  0  0  0  0  0  0
  145.8382  135.4312  162.2718 H   0  0  0  0  0  0  0  0  0  0  0  0
  146.7360  134.3469  163.3322 H   0  0  0  0  0  0  0  0  0  0  0  0
  146.7176  134.3330  160.2953 H   0  0  0  0  0  0  0  0  0  0  0  0
  148.1305  134.3842  161.3482 H   0  0  0  0  0  0  0  0  0  0  0  0
  147.8541  132.0982  161.9795 H   0  0  0  0  0  0  0  0  0  0  0  0
  147.3114  132.0167  160.3147 H   0  0  0  0  0  0  0  0  0  0  0  0
  148.2218  131.1873  152.1345 H   0  0  0  0  0  0  0  0  0  0  0  0
  1  2  1  0  0  0  0
  1 26  1  0  0  0  0
  1 27  1  0  0  0  0
  1 28  1  0  0  0  0
  2  3  1  0  0  0  0
  2 18  1  0  0  0  0
  2 29  1  0  0  0  0
  3  4  1  0  0  0  0
  3 30  1  0  0  0  0
  4  5  2  0  0  0  0
  4  6  1  0  0  0  0
  6  7  1  0  0  0  0
  6 31  1  0  0  0  0
  7 12  1  0  0  0  0
  7  8  2  0  0  0  0
  8  9  1  0  0  0  0
  8 32  1  0  0  0  0
  9 10  2  0  0  0  0
  9 33  1  0  0  0  0
 10 11  1  0  0  0  0
 10 34  1  0  0  0  0
 11 12  2  0  0  0  0
 11 53  1  0  0  0  0
 12 13  1  0  0  0  0
 13 17  1  0  0  0  0
 13 14  1  0  0  0  0
 14 15  1  0  0  0  0
 14 35  1  0  0  0  0
 14 36  1  0  0  0  0
 15 16  1  0  0  0  0
 15 37  1  0  0  0  0
 15 38  1  0  0  0  0
 16 17  1  0  0  0  0
 16 39  1  0  0  0  0
 16 40  1  0  0  0  0
 17 41  1  0  0  0  0
 17 42  1  0  0  0  0
 18 19  2  0  0  0  0
 18 20  1  0  0  0  0
 20 21  1  0  0  0  0
 20 43  1  0  0  0  0
 21 25  1  0  0  0  0
 21 22  1  0  0  0  0
 21 44  1  0  0  0  0
 22 23  1  0  0  0  0
 22 45  1  0  0  0  0
 22 46  1  0  0  0  0
 23 24  1  0  0  0  0
 23 47  1  0  0  0  0
 23 48  1  0  0  0  0
 24 25  1  0  0  0  0
 24 49  1  0  0  0  0
 24 50  1  0  0  0  0
 25 51  1  0  0  0  0
 25 52  1  0  0  0  0
M  CHG  1  11   1
M  END
> <s_m_source_file>
AV-unprocessed.smi

> <i_m_source_file_index>
830

> <i_lp_mmshare_version>
43012

> <i_f3d_flags>
0

> <s_epik_input>
W0NIMl0xW0NIMl1bQ0gyXVtDSDJdW0NIXTFbTkhdQyg9TylbQ0BIXShbQ0gzXSlbTkhdQyg9TylbTkhdYzJbY0hdW2NIXVtjSF1uYzJOM1tDSDJdW0NIMl1bQ0gyXVtDSDJdMw==

> <s_epik_cmdline>
J2VwaWtfcHl0aG9uJywgJy1waCcsICc3LjAnLCAnLXRuJywgJzgnLCAnLW1hJywgJzIwMCcsICctbWV0YWxfYmluZGluZycsICctaW1hZScsICc8aW5maWxlLm1hZT4nLCAnLW9tYWUnLCAnPG91dGZpbGUubWFlPic=

> <r_lp_tautomer_probability>
0.999994

> <r_epik_Ionization_Penalty>
1.21091

> <r_epik_Ionization_Penalty_Charging>
1.21089

> <r_epik_Ionization_Penalty_Neutral>
1.88713e-05

> <r_epik_State_Penalty>
1.27732

> <r_epik_Charging_Adjusted_Penalty>
2.48821

> <i_epik_Tot_Q>
1

> <i_epik_Tot_abs_Q>
1

> <r_epik_Metal_State_Penalty>
1.3505

> <b_epik_Metal_Only>
0

> <s_lp_Force_Field>
OPLS_2005

> <r_lp_Energy>
52.3557

> <b_lp_Chiralities_Consistent>
1

> <s_lp_Variant>
AV-unprocessed.smi:830-4

> <Gold.Version>
5.8.1

> <Gold.Id.Protein>
6NUR|6NUR_protein|mol2

> <Gold.PLP.Fitness>
39.7852

> <Gold.PLP.PLP>
-33.1999

> <Gold.PLP.part.hbond>
-4.0830

> <Gold.PLP.part.metal>
0.0000

> <Gold.PLP.part.buried>
-5.9834

> <Gold.PLP.part.nonpolar>
-24.7416

> <Gold.PLP.part.repulsive>
0.2145

> <Gold.PLP.ligand.clash>
0.0000

> <Gold.PLP.ligand.torsion>
0.2009

> <Gold.PLP.Chemscore.Hbond>
2.2633

> <Gold.PLP.Chemscore.CHOScore>
0.0000

> <Gold.PLP.Chemscore.Metal>
0.0000

> <Gold.Chemscore.Hbonds>
donor molecule, donor type, donor heavy atom, donor atom, acceptor molecule, acceptor atom, score
      L1  H     3    30       P1 10957  1.00
      L1  H     6    31       P1 10957  0.27
      L1  H    11    53       P1 10747  1.00

> <Gold.PLP.Chemscore.Internal.Correction>
0.1975

> <Gold.Rescore>
     Score         DG    S(hbond)    S(metal)    S(lipo)     H(rot)  DE(clash)    DE(int)     intcor
     14.55     -17.27       1.87        0.00      83.77       1.67       0.02       2.70       ----

> <Gold.Chemscore.Fitness>
14.5489

> <Gold.Chemscore.DG>
-17.2692

> <Gold.Chemscore.ZeroCoef>
-5.4800

> <Gold.Chemscore.Hbond>
1.8734

> <Gold.Chemscore.Metal>
0.0000

> <Gold.Chemscore.Lipo>
83.7691

> <Gold.Chemscore.Internal_Hbond>
0.0000

> <Gold.Chemscore.DEClash>
0.0243

> <Gold.Chemscore.DEInternal>
2.6959

> <Gold.Chemscore.Rot>
1.6676

> <Gold.Chemscore.Internal.Correction>
   9.000000E+99

> <Gold.Chemscore.Hbonds>
donor molecule, donor type, donor heavy atom, donor atom, acceptor molecule, acceptor atom, score
      L1  H     3    30       P1 10957  0.53
      L1  H     6    31       P1 10957  0.02
      L1  H    11    53       P1 10747  0.90

> <Gold.Chemscore.Hbond.Weighted>
-6.2573

> <Gold.Chemscore.Metal.Weighted>
-0.0000

> <Gold.Chemscore.Lipo.Weighted>
-9.8010

> <Gold.Chemscore.Internal_Hbond.Weighted>
0.0000

> <Gold.Chemscore.DEClash.Weighted>
0.0243

> <Gold.Chemscore.DEInternal.Weighted>
2.6959

> <Gold.Chemscore.Rot.Weighted>
4.2691

> <Gold.Chemscore.Internal.Correction.Weighted>
   9.000000E+99

> <Gold.Protein.RotatedTorsions>
[ 6907 6896 6895 6894 ] final   70.64 input  -60.11 | X-H torsion
[ 7974 7965 7964 7962 ] final -148.69 input  175.53 | X-H torsion
[ 8008 7997 7996 7995 ] final  133.74 input   59.86 | X-H torsion
[ 10167 10162 10161 10158 ] final   98.98 input  -65.29 | X-H torsion
[ 10718 10713 10712 10709 ] final  -34.84 input   66.30 | X-H torsion
[ 10763 10752 10751 10750 ] final   68.24 input  -60.55 | X-H torsion
[ 11005 11000 10999 10996 ] final -135.71 input  -57.11 | X-H torsion

> <Gold.Protein.ActiveResidues>
 VAL166  LYS551  ARG553  GLY616  TRP617  ASP618  TYR619  PRO620  LYS621  CYS622 
 ASP623  PHE694  ASN695  SER759  ASP760  ASP761  ALA762  ILE779  LEU786  VAL792 
 PHE793  MET794  SER795  GLU796  ALA797  LYS798  CYS799  TRP800  GLU811  SER814 

> <Gold.Protein.RotatedAtoms>
  152.4761  134.4839  159.9673 H   0  0  0  0  0  0  0  0  0  0  0  0  # atno 6907 bound_to 6896
  151.4855  133.3531  159.2853 H   0  0  0  0  0  0  0  0  0  0  0  0  # atno 6908 bound_to 6896
  150.8801  134.8218  159.7280 H   0  0  0  0  0  0  0  0  0  0  0  0  # atno 6909 bound_to 6896
  144.8014  140.5163  143.5705 H   0  0  0  0  0  0  0  0  0  0  0  0  # atno 7974 bound_to 7965
  156.2994  140.2514  156.3302 H   0  0  0  0  0  0  0  0  0  0  0  0  # atno 8008 bound_to 7997
  154.9152  140.0402  157.1987 H   0  0  0  0  0  0  0  0  0  0  0  0  # atno 8009 bound_to 7997
  154.8366  140.2884  155.5691 H   0  0  0  0  0  0  0  0  0  0  0  0  # atno 8010 bound_to 7997
  139.7659  144.6939  151.0225 H   0  0  0  0  0  0  0  0  0  0  0  0  # atno 10167 bound_to 10162
  156.3457  130.4300  149.7748 H   0  0  0  0  0  0  0  0  0  0  0  0  # atno 10718 bound_to 10713
  153.0225  135.5255  154.7103 H   0  0  0  0  0  0  0  0  0  0  0  0  # atno 10763 bound_to 10752
  154.6187  135.2886  155.0352 H   0  0  0  0  0  0  0  0  0  0  0  0  # atno 10764 bound_to 10752
  154.1347  135.6587  153.4982 H   0  0  0  0  0  0  0  0  0  0  0  0  # atno 10765 bound_to 10752
  140.8872  134.1857  157.4552 H   0  0  0  0  0  0  0  0  0  0  0  0  # atno 11005 bound_to 11000
  145.5545  139.1477  143.3376 LP  0  0  0  0  0  0  0  0  0  0  0  0  # atno 17320 bound_to 7965
  146.2296  140.5682  142.8981 LP  0  0  0  0  0  0  0  0  0  0  0  0  # atno 17321 bound_to 7965
  140.7811  143.4643  151.0233 LP  0  0  0  0  0  0  0  0  0  0  0  0  # atno 17342 bound_to 10162
  139.8328  143.7667  152.3180 LP  0  0  0  0  0  0  0  0  0  0  0  0  # atno 17343 bound_to 10162
  156.4968  130.8110  151.3116 LP  0  0  0  0  0  0  0  0  0  0  0  0  # atno 17370 bound_to 10713
  157.7454  130.9958  150.2755 LP  0  0  0  0  0  0  0  0  0  0  0  0  # atno 17371 bound_to 10713
  139.8725  134.9843  156.5234 LP  0  0  0  0  0  0  0  0  0  0  0  0  # atno 17394 bound_to 11000
  140.8390  133.8220  155.9056 LP  0  0  0  0  0  0  0  0  0  0  0  0  # atno 17395 bound_to 11000

$$$$
