#       Name:                AV-unprocessed.smi:2873
#       Creating user name   scv26
#       Creation time:       Fri Mar 27 15:50:13 2020


#       File generated by GOLD software.
#

@<TRIPOS>MOLECULE
AV-unprocessed.smi:2873
    44    46     1
SMALL
NO_CHARGES


@<TRIPOS>ATOM
      1 ****        -2.7441   1.4693   3.0586 C.3            1 S1                 0.0000
      2 ****        -3.3133   0.7519   1.8170 C.3            1 S1                 0.0000
      3 ****        -2.7411  -0.6815   1.7011 C.3            1 S1                 0.0000
      4 ****        -1.2822  -0.7073   1.6186 N.am           1 S1                 0.0000
      5 ****        -0.5630  -0.8213   0.4935 C.2            1 S1                 0.0000
      6 ****        -1.0614  -0.9511  -0.6238 O.2            1 S1                 0.0000
      7 ****         0.7534  -0.7833   0.7590 N.am           1 S1                 0.0000
      8 ****         1.8445  -0.8143  -0.1505 C.ar           1 S1                 0.0000
      9 ****         3.1431  -1.0325   0.3551 C.ar           1 S1                 0.0000
     10 ****         4.2297  -1.0577  -0.4455 N.ar           1 S1                 0.0000
     11 ****         4.0202  -0.8700  -1.7514 C.ar           1 S1                 0.0000
     12 ****         5.2314  -0.8580  -2.6315 C.3            1 S1                 0.0000
     13 ****         5.3231  -1.7692  -3.8385 C.3            1 S1                 0.0000
     14 ****         6.1951  -2.0270  -2.6415 C.3            1 S1                 0.0000
     15 ****         2.8461  -0.6329  -2.3428 N.ar           1 S1                 0.0000
     16 ****         1.7533  -0.6065  -1.5494 C.ar           1 S1                 0.0000
     17 ****        -3.0456   1.5821   0.5429 C.3            1 S1                 0.0000
     18 ****        -4.1544   2.6277   0.4148 C.3            1 S1                 0.0000
     19 ****        -5.4636   1.8950   0.6973 C.3            1 S1                 0.0000
     20 ****        -5.1229   0.6662   1.9822 S.3            1 S1                 0.0000
     21 ****        -1.6664   1.6156   2.9823 H              1 S1                 0.0000
     22 ****        -2.9355   0.8960   3.9662 H              1 S1                 0.0000
     23 ****        -3.1942   2.4527   3.1962 H              1 S1                 0.0000
     24 ****        -3.0254  -1.2601   2.5805 H              1 S1                 0.0000
     25 ****        -3.1851  -1.2016   0.8504 H              1 S1                 0.0000
     26 ****        -0.7821  -0.6114   2.4903 H              1 S1                 0.0000
     27 ****         1.0069  -0.7438   1.7353 H              1 S1                 0.0000
     28 ****         3.3143  -1.1866   1.4105 H              1 S1                 0.0000
     29 ****         5.6476   0.1440  -2.7180 H              1 S1                 0.0000
     30 ****         4.5022  -2.4610  -4.0172 H              1 S1                 0.0000
     31 ****         5.7997  -1.3709  -4.7318 H              1 S1                 0.0000
     32 ****         7.2554  -1.8007  -2.7329 H              1 S1                 0.0000
     33 ****         5.9544  -2.8897  -2.0233 H              1 S1                 0.0000
     34 ****         0.8229  -0.3975  -2.0528 H              1 S1                 0.0000
     35 ****        -2.0559   2.0400   0.5485 H              1 S1                 0.0000
     36 ****        -3.0866   0.9366  -0.3355 H              1 S1                 0.0000
     37 ****        -4.0054   3.4187   1.1504 H              1 S1                 0.0000
     38 ****        -4.1589   3.0979  -0.5689 H              1 S1                 0.0000
     39 ****        -6.2596   2.5745   1.0026 H              1 S1                 0.0000
     40 ****        -5.7976   1.3682  -0.1971 H              1 S1                 0.0000
     41 ****        -2.0556  -0.9762  -0.7280 LP             1 S1                 0.0000
     42 ****        -0.4722  -1.0316  -1.4278 LP             1 S1                 0.0000
     43 ****         5.1475  -1.2096  -0.0786 LP             1 S1                 0.0000
     44 ****         2.7792  -0.4817  -3.3291 LP             1 S1                 0.0000
@<TRIPOS>BOND
    1    1    2 1     
    2    1   21 1     
    3    1   22 1     
    4    1   23 1     
    5    2   20 1     
    6    2    3 1     
    7    2   17 1     
    8    3    4 1     
    9    3   24 1     
   10    3   25 1     
   11    4    5 am    
   12    4   26 1     
   13    5    6 2     
   14    5    7 am    
   15    7    8 1     
   16    7   27 1     
   17    8   16 ar    
   18    8    9 ar    
   19    9   10 ar    
   20    9   28 1     
   21   10   11 ar    
   22   11   12 1     
   23   11   15 ar    
   24   12   14 1     
   25   12   13 1     
   26   12   29 1     
   27   13   14 1     
   28   13   30 1     
   29   13   31 1     
   30   14   32 1     
   31   14   33 1     
   32   15   16 ar    
   33   16   34 1     
   34   17   18 1     
   35   17   35 1     
   36   17   36 1     
   37   18   19 1     
   38   18   37 1     
   39   18   38 1     
   40   19   20 1     
   41   19   39 1     
   42   19   40 1     
   43    6   41 1     
   44    6   42 1     
   45   10   43 1     
   46   15   44 1     
@<TRIPOS>SUBSTRUCTURE
      1 S1             1
@<TRIPOS>SET
LONE_PAIRS      STATIC     ATOMS    <user>   **** ""
4 41 42 43 44
DONOR_HYDROGENS      STATIC     ATOMS    <user>   **** ""
2 26 27
ATOM$BLUE        STATIC     ATOMS    COLORGROUP SYSTEM
4 41 42 43 44
ATOM$RED        STATIC     ATOMS    COLORGROUP SYSTEM
2 26 27
