AV-unprocessed.smi:2178|AV-procd|sdf|8854|dock7
  -GOLD-   2272012 53D 1   1.00000     0.00000
 Structure written by MMmdl.
 47 49  0  0  0  0  0  0  0  0  2 V2000
  140.5110  137.0520  157.8976 C   0  0  0  0  0  0  0  0  0  0  0  0
  139.3791  137.4833  156.9832 C   0  0  0  0  0  0  0  0  0  0  0  0
  138.2981  138.2125  157.5203 C   0  0  0  0  0  0  0  0  0  0  0  0
  137.2273  138.6050  156.6964 C   0  0  0  0  0  0  0  0  0  0  0  0
  137.2295  138.2656  155.3309 C   0  0  0  0  0  0  0  0  0  0  0  0
  138.3065  137.5396  154.7816 C   0  0  0  0  0  0  0  0  0  0  0  0
  138.2929  137.1737  153.3093 C   0  0  0  0  0  0  0  0  0  0  0  0
  139.3920  137.1591  155.6050 C   0  0  0  0  0  0  0  0  0  0  0  0
  140.4367  136.4535  155.0653 O   0  0  0  0  0  0  0  0  0  0  0  0
  141.3035  137.2415  154.2625 C   0  0  0  0  0  0  0  0  0  0  0  0
  142.3303  136.3205  153.5863 C   0  0  2  0  0  0  0  0  0  0  0  0
  143.1656  135.7675  154.5842 O   0  0  0  0  0  0  0  0  0  0  0  0
  143.1971  137.0792  152.5617 C   0  0  0  0  0  0  0  0  0  0  0  0
  144.4109  136.3377  152.1818 N   0  0  0  0  0  0  0  0  0  0  0  0
  145.7081  136.7567  152.1261 C   0  0  0  0  0  0  0  0  0  0  0  0
  146.2243  138.1187  152.4543 C   0  0  0  0  0  0  0  0  0  0  0  0
  147.1701  138.5749  151.5127 O   0  0  0  0  0  0  0  0  0  0  0  0
  146.4591  135.6941  151.7217 N   0  3  0  0  0  0  0  0  0  0  0  0
  145.6370  134.5866  151.5126 C   0  0  0  0  0  0  0  0  0  0  0  0
  145.9409  133.2936  151.0979 C   0  0  0  0  0  0  0  0  0  0  0  0
  144.8596  132.3957  150.9817 C   0  0  0  0  0  0  0  0  0  0  0  0
  143.5395  132.7952  151.2742 C   0  0  0  0  0  0  0  0  0  0  0  0
  143.2440  134.1084  151.6956 C   0  0  0  0  0  0  0  0  0  0  0  0
  144.3185  134.9913  151.8071 C   0  0  0  0  0  0  0  0  0  0  0  0
  140.1612  136.9454  158.9248 H   0  0  0  0  0  0  0  0  0  0  0  0
  141.3095  137.7936  157.8857 H   0  0  0  0  0  0  0  0  0  0  0  0
  140.9251  136.0923  157.5870 H   0  0  0  0  0  0  0  0  0  0  0  0
  138.2844  138.4699  158.5694 H   0  0  0  0  0  0  0  0  0  0  0  0
  136.4008  139.1611  157.1132 H   0  0  0  0  0  0  0  0  0  0  0  0
  136.3995  138.5641  154.7073 H   0  0  0  0  0  0  0  0  0  0  0  0
  138.5544  136.1241  153.1722 H   0  0  0  0  0  0  0  0  0  0  0  0
  139.0123  137.7821  152.7614 H   0  0  0  0  0  0  0  0  0  0  0  0
  137.3077  137.3337  152.8702 H   0  0  0  0  0  0  0  0  0  0  0  0
  140.7021  137.7399  153.5007 H   0  0  0  0  0  0  0  0  0  0  0  0
  141.7959  138.0259  154.8392 H   0  0  0  0  0  0  0  0  0  0  0  0
  141.8085  135.5095  153.0768 H   0  0  0  0  0  0  0  0  0  0  0  0
  143.7445  135.1412  154.1777 H   0  0  0  0  0  0  0  0  0  0  0  0
  142.6280  137.2458  151.6463 H   0  0  0  0  0  0  0  0  0  0  0  0
  143.4728  138.0687  152.9270 H   0  0  0  0  0  0  0  0  0  0  0  0
  145.3932  138.8232  152.4930 H   0  0  0  0  0  0  0  0  0  0  0  0
  146.6812  138.1078  153.4439 H   0  0  0  0  0  0  0  0  0  0  0  0
  147.7758  139.1536  151.9505 H   0  0  0  0  0  0  0  0  0  0  0  0
  146.9517  132.9858  150.8731 H   0  0  0  0  0  0  0  0  0  0  0  0
  145.0465  131.3809  150.6615 H   0  0  0  0  0  0  0  0  0  0  0  0
  142.7362  132.0799  151.1727 H   0  0  0  0  0  0  0  0  0  0  0  0
  142.2281  134.4021  151.9126 H   0  0  0  0  0  0  0  0  0  0  0  0
  147.4630  135.7274  151.6004 H   0  0  0  0  0  0  0  0  0  0  0  0
  1  2  1  0  0  0  0
  1 25  1  0  0  0  0
  1 26  1  0  0  0  0
  1 27  1  0  0  0  0
  2  8  1  0  0  0  0
  2  3  2  0  0  0  0
  3  4  1  0  0  0  0
  3 28  1  0  0  0  0
  4  5  2  0  0  0  0
  4 29  1  0  0  0  0
  5  6  1  0  0  0  0
  5 30  1  0  0  0  0
  6  7  1  0  0  0  0
  6  8  2  0  0  0  0
  7 31  1  0  0  0  0
  7 32  1  0  0  0  0
  7 33  1  0  0  0  0
  8  9  1  0  0  0  0
  9 10  1  0  0  0  0
 10 11  1  0  0  0  0
 10 34  1  0  0  0  0
 10 35  1  0  0  0  0
 11 12  1  0  0  0  0
 11 13  1  0  0  0  0
 11 36  1  0  0  0  0
 12 37  1  0  0  0  0
 13 14  1  0  0  0  0
 13 38  1  0  0  0  0
 13 39  1  0  0  0  0
 14 24  1  0  0  0  0
 14 15  1  0  0  0  0
 15 16  1  0  0  0  0
 15 18  2  0  0  0  0
 16 17  1  0  0  0  0
 16 40  1  0  0  0  0
 16 41  1  0  0  0  0
 17 42  1  0  0  0  0
 18 19  1  0  0  0  0
 18 47  1  0  0  0  0
 19 24  2  0  0  0  0
 19 20  1  0  0  0  0
 20 21  2  0  0  0  0
 20 43  1  0  0  0  0
 21 22  1  0  0  0  0
 21 44  1  0  0  0  0
 22 23  2  0  0  0  0
 22 45  1  0  0  0  0
 23 24  1  0  0  0  0
 23 46  1  0  0  0  0
M  CHG  1  18   1
M  END
> <s_m_source_file>
AV-unprocessed.smi

> <i_m_source_file_index>
2178

> <i_lp_mmshare_version>
43012

> <i_f3d_flags>
0

> <s_epik_input>
W0NIM11jMVtjSF1bY0hdW2NIXWMoW0NIM10pYzFPW0NIMl1bQ0BIXShbT0hdKVtDSDJdbihjKG4yKVtDSDJdW09IXSljKGMyMylbY0hdW2NIXVtjSF1bY0hdMw==

> <s_epik_cmdline>
J2VwaWtfcHl0aG9uJywgJy1waCcsICc3LjAnLCAnLXRuJywgJzgnLCAnLW1hJywgJzIwMCcsICctbWV0YWxfYmluZGluZycsICctaW1hZScsICc8aW5maWxlLm1hZT4nLCAnLW9tYWUnLCAnPG91dGZpbGUubWFlPic=

> <r_lp_tautomer_probability>
1

> <r_epik_Ionization_Penalty>
1.43125

> <r_epik_Ionization_Penalty_Charging>
1.43039

> <r_epik_Ionization_Penalty_Neutral>
0.000858184

> <r_epik_State_Penalty>
1.51493

> <r_epik_Charging_Adjusted_Penalty>
2.94531

> <i_epik_Tot_Q>
1

> <i_epik_Tot_abs_Q>
1

> <r_epik_Metal_State_Penalty>
5.5599

> <b_epik_Metal_Only>
0

> <s_lp_Force_Field>
OPLS_2005

> <r_lp_Energy>
23.8242

> <b_lp_Chiralities_Consistent>
1

> <s_lp_Variant>
AV-unprocessed.smi:2178-3

> <Gold.Version>
5.8.1

> <Gold.Id.Protein>
6NUR|6NUR_protein|mol2

> <Gold.PLP.Fitness>
49.8570

> <Gold.PLP.PLP>
-38.5230

> <Gold.PLP.part.hbond>
-5.0000

> <Gold.PLP.part.metal>
0.0000

> <Gold.PLP.part.buried>
-6.3332

> <Gold.PLP.part.nonpolar>
-28.9091

> <Gold.PLP.part.repulsive>
0.0862

> <Gold.PLP.ligand.clash>
0.0000

> <Gold.PLP.ligand.torsion>
0.6561

> <Gold.PLP.Chemscore.Hbond>
4.1660

> <Gold.PLP.Chemscore.CHOScore>
0.0000

> <Gold.PLP.Chemscore.Metal>
0.0000

> <Gold.Chemscore.Hbonds>
donor molecule, donor type, donor heavy atom, donor atom, acceptor molecule, acceptor atom, score
      L1  H    17    42       P1  7957  0.37
      L1  H    18    47       P1  7948  2.00
      P1  H  7954  7966       L1    17  1.00
      P1  H 11000 11005       L1     9  0.69

> <Gold.PLP.Chemscore.Internal.Correction>
0.1483

> <Gold.Rescore>
     Score         DG    S(hbond)    S(metal)    S(lipo)     H(rot)  DE(clash)    DE(int)     intcor
     13.90     -14.82       2.08        0.00      87.08       3.05       0.05       0.86       ----

> <Gold.Chemscore.Fitness>
13.9042

> <Gold.Chemscore.DG>
-14.8161

> <Gold.Chemscore.ZeroCoef>
-5.4800

> <Gold.Chemscore.Hbond>
2.0808

> <Gold.Chemscore.Metal>
0.0000

> <Gold.Chemscore.Lipo>
87.0770

> <Gold.Chemscore.Internal_Hbond>
0.0000

> <Gold.Chemscore.DEClash>
0.0522

> <Gold.Chemscore.DEInternal>
0.8597

> <Gold.Chemscore.Rot>
3.0476

> <Gold.Chemscore.Internal.Correction>
   9.000000E+99

> <Gold.Chemscore.Hbonds>
donor molecule, donor type, donor heavy atom, donor atom, acceptor molecule, acceptor atom, score
      L1  H    17    42       P1  7957  0.37
      L1  H    18    47       P1  7948  0.94
      P1  H  7954  7966       L1    17  0.46
      P1  H 11000 11005       L1     9  0.13

> <Gold.Chemscore.Hbond.Weighted>
-6.9498

> <Gold.Chemscore.Metal.Weighted>
-0.0000

> <Gold.Chemscore.Lipo.Weighted>
-10.1880

> <Gold.Chemscore.Internal_Hbond.Weighted>
0.0000

> <Gold.Chemscore.DEClash.Weighted>
0.0522

> <Gold.Chemscore.DEInternal.Weighted>
0.8597

> <Gold.Chemscore.Rot.Weighted>
7.8018

> <Gold.Chemscore.Internal.Correction.Weighted>
   9.000000E+99

> <Gold.Protein.RotatedTorsions>
[ 6907 6896 6895 6894 ] final   -1.06 input  -60.11 | X-H torsion
[ 7974 7965 7964 7962 ] final  -54.54 input  175.53 | X-H torsion
[ 8008 7997 7996 7995 ] final   94.74 input   59.86 | X-H torsion
[ 10167 10162 10161 10158 ] final  -20.64 input  -65.29 | X-H torsion
[ 10718 10713 10712 10709 ] final -171.62 input   66.30 | X-H torsion
[ 10763 10752 10751 10750 ] final  -56.69 input  -60.55 | X-H torsion
[ 11005 11000 10999 10996 ] final   59.89 input  -57.11 | X-H torsion

> <Gold.Protein.ActiveResidues>
 VAL166  LYS551  ARG553  GLY616  TRP617  ASP618  TYR619  PRO620  LYS621  CYS622 
 ASP623  PHE694  ASN695  SER759  ASP760  ASP761  ALA762  ILE779  LEU786  VAL792 
 PHE793  MET794  SER795  GLU796  ALA797  LYS798  CYS799  TRP800  GLU811  SER814 

> <Gold.Protein.RotatedAtoms>
  151.5522  135.1067  159.9952 H   0  0  0  0  0  0  0  0  0  0  0  0  # atno 6907 bound_to 6896
  152.4486  133.7580  159.6742 H   0  0  0  0  0  0  0  0  0  0  0  0  # atno 6908 bound_to 6896
  150.8408  133.7872  159.3086 H   0  0  0  0  0  0  0  0  0  0  0  0  # atno 6909 bound_to 6896
  145.8844  140.8120  142.9823 H   0  0  0  0  0  0  0  0  0  0  0  0  # atno 7974 bound_to 7965
  156.0612  140.3296  155.7464 H   0  0  0  0  0  0  0  0  0  0  0  0  # atno 8008 bound_to 7997
  155.5451  140.0605  157.2879 H   0  0  0  0  0  0  0  0  0  0  0  0  # atno 8009 bound_to 7997
  154.4482  140.1904  156.0619 H   0  0  0  0  0  0  0  0  0  0  0  0  # atno 8010 bound_to 7997
  140.7277  143.4704  151.0255 H   0  0  0  0  0  0  0  0  0  0  0  0  # atno 10167 bound_to 10162
  156.7435  130.9351  151.3111 H   0  0  0  0  0  0  0  0  0  0  0  0  # atno 10718 bound_to 10713
  154.2106  135.6395  153.5114 H   0  0  0  0  0  0  0  0  0  0  0  0  # atno 10763 bound_to 10752
  152.9991  135.5473  154.6219 H   0  0  0  0  0  0  0  0  0  0  0  0  # atno 10764 bound_to 10752
  154.5655  135.2912  155.0852 H   0  0  0  0  0  0  0  0  0  0  0  0  # atno 10765 bound_to 10752
  140.0271  134.6067  155.9558 H   0  0  0  0  0  0  0  0  0  0  0  0  # atno 11005 bound_to 11000
  144.6728  140.1433  143.7435 LP  0  0  0  0  0  0  0  0  0  0  0  0  # atno 17320 bound_to 7965
  145.8985  139.2416  143.1508 LP  0  0  0  0  0  0  0  0  0  0  0  0  # atno 17321 bound_to 7965
  139.8395  143.7583  152.3180 LP  0  0  0  0  0  0  0  0  0  0  0  0  # atno 17342 bound_to 10162
  139.7727  144.7471  151.0202 LP  0  0  0  0  0  0  0  0  0  0  0  0  # atno 17343 bound_to 10162
  157.6808  130.9138  150.0262 LP  0  0  0  0  0  0  0  0  0  0  0  0  # atno 17370 bound_to 10713
  156.1448  130.3642  149.9526 LP  0  0  0  0  0  0  0  0  0  0  0  0  # atno 17371 bound_to 10713
  141.1809  133.6546  156.5016 LP  0  0  0  0  0  0  0  0  0  0  0  0  # atno 17394 bound_to 11000
  140.4288  134.7120  157.4931 LP  0  0  0  0  0  0  0  0  0  0  0  0  # atno 17395 bound_to 11000

$$$$
