AV-unprocessed.smi:2743|AV-procd|sdf|10567|dock9
  -GOLD-   2272015 23D 1   1.00000     0.00000
 Structure written by MMmdl.
 39 40  0  0  0  0  0  0  0  0  2 V2000
  150.3634  132.6161  157.3743 N   0  0  0  0  0  0  0  0  0  0  0  0
  150.1410  133.3614  156.5172 C   0  0  0  0  0  0  0  0  0  0  0  0
  149.8541  134.3091  155.4291 C   0  0  0  0  0  0  0  0  0  0  0  0
  150.3501  135.7113  155.7661 C   0  0  0  0  0  0  0  0  0  0  0  0
  151.5328  135.8933  156.0532 O   0  0  0  0  0  0  0  0  0  0  0  0
  149.4267  136.6856  155.7594 N   0  0  0  0  0  0  0  0  0  0  0  0
  149.6430  138.0751  156.1634 C   0  0  0  0  0  0  0  0  0  0  0  0
  149.9584  139.0115  154.9574 C   0  0  0  0  0  0  0  0  0  0  0  0
  148.6229  139.4725  154.3277 C   0  0  0  0  0  0  0  0  0  0  0  0
  147.6828  138.5102  153.8779 C   0  0  0  0  0  0  0  0  0  0  0  0
  146.4821  138.9242  153.2679 C   0  0  0  0  0  0  0  0  0  0  0  0
  146.2286  140.2388  153.1079 N   0  3  0  0  0  0  0  0  0  0  0  0
  147.0866  141.1980  153.5106 C   0  0  0  0  0  0  0  0  0  0  0  0
  148.3026  140.8418  154.1276 C   0  0  0  0  0  0  0  0  0  0  0  0
  150.7452  140.2645  155.4460 C   0  0  0  0  0  0  0  0  0  0  0  0
  152.1755  139.9690  155.9347 C   0  0  0  0  0  0  0  0  0  0  0  0
  152.9971  139.2429  154.8649 C   0  0  0  0  0  0  0  0  0  0  0  0
  152.2844  137.9663  154.4078 C   0  0  0  0  0  0  0  0  0  0  0  0
  150.8579  138.2714  153.9163 C   0  0  0  0  0  0  0  0  0  0  0  0
  150.3354  133.9472  154.5199 H   0  0  0  0  0  0  0  0  0  0  0  0
  148.7783  134.3205  155.2510 H   0  0  0  0  0  0  0  0  0  0  0  0
  148.4835  136.4360  155.4980 H   0  0  0  0  0  0  0  0  0  0  0  0
  148.7779  138.4481  156.7139 H   0  0  0  0  0  0  0  0  0  0  0  0
  150.4565  138.0733  156.8869 H   0  0  0  0  0  0  0  0  0  0  0  0
  147.8782  137.4530  153.9754 H   0  0  0  0  0  0  0  0  0  0  0  0
  145.7266  138.2464  152.8978 H   0  0  0  0  0  0  0  0  0  0  0  0
  146.7816  142.2171  153.3219 H   0  0  0  0  0  0  0  0  0  0  0  0
  148.9697  141.6372  154.4203 H   0  0  0  0  0  0  0  0  0  0  0  0
  150.8098  140.9833  154.6275 H   0  0  0  0  0  0  0  0  0  0  0  0
  150.2126  140.7734  156.2489 H   0  0  0  0  0  0  0  0  0  0  0  0
  152.6703  140.9031  156.2022 H   0  0  0  0  0  0  0  0  0  0  0  0
  152.1471  139.3731  156.8469 H   0  0  0  0  0  0  0  0  0  0  0  0
  153.1511  139.9029  154.0101 H   0  0  0  0  0  0  0  0  0  0  0  0
  153.9871  139.0013  155.2526 H   0  0  0  0  0  0  0  0  0  0  0  0
  152.8554  137.4986  153.6050 H   0  0  0  0  0  0  0  0  0  0  0  0
  152.2614  137.2406  155.2206 H   0  0  0  0  0  0  0  0  0  0  0  0
  150.3959  137.3385  153.5920 H   0  0  0  0  0  0  0  0  0  0  0  0
  150.9537  138.8902  153.0229 H   0  0  0  0  0  0  0  0  0  0  0  0
  145.3557  140.5186  152.6594 H   0  0  0  0  0  0  0  0  0  0  0  0
  1  2  3  0  0  0  0
  2  3  1  0  0  0  0
  3  4  1  0  0  0  0
  3 20  1  0  0  0  0
  3 21  1  0  0  0  0
  4  5  2  0  0  0  0
  4  6  1  0  0  0  0
  6  7  1  0  0  0  0
  6 22  1  0  0  0  0
  7  8  1  0  0  0  0
  7 23  1  0  0  0  0
  7 24  1  0  0  0  0
  8 19  1  0  0  0  0
  8  9  1  0  0  0  0
  8 15  1  0  0  0  0
  9 14  1  0  0  0  0
  9 10  2  0  0  0  0
 10 11  1  0  0  0  0
 10 25  1  0  0  0  0
 11 12  2  0  0  0  0
 11 26  1  0  0  0  0
 12 13  1  0  0  0  0
 12 39  1  0  0  0  0
 13 14  2  0  0  0  0
 13 27  1  0  0  0  0
 14 28  1  0  0  0  0
 15 16  1  0  0  0  0
 15 29  1  0  0  0  0
 15 30  1  0  0  0  0
 16 17  1  0  0  0  0
 16 31  1  0  0  0  0
 16 32  1  0  0  0  0
 17 18  1  0  0  0  0
 17 33  1  0  0  0  0
 17 34  1  0  0  0  0
 18 19  1  0  0  0  0
 18 35  1  0  0  0  0
 18 36  1  0  0  0  0
 19 37  1  0  0  0  0
 19 38  1  0  0  0  0
M  CHG  1  12   1
M  END
> <s_m_source_file>
AV-unprocessed.smi

> <i_m_source_file_index>
2743

> <i_lp_mmshare_version>
43012

> <i_f3d_flags>
0

> <s_epik_input>
TiNDW0NIMl1DKD1PKVtOSF1bQ0gyXUMxKFtDSDJdW0NIMl1bQ0gyXVtDSDJdW0NIMl0xKWMyW2NIXVtjSF1uW2NIXVtjSF0y

> <s_epik_cmdline>
J2VwaWtfcHl0aG9uJywgJy1waCcsICc3LjAnLCAnLXRuJywgJzgnLCAnLW1hJywgJzIwMCcsICctbWV0YWxfYmluZGluZycsICctaW1hZScsICc8aW5maWxlLm1hZT4nLCAnLW9tYWUnLCAnPG91dGZpbGUubWFlPic=

> <r_epik_Ionization_Penalty>
1.44483

> <r_epik_Ionization_Penalty_Charging>
1.44483

> <r_epik_Ionization_Penalty_Neutral>
8.95364e-07

> <r_epik_State_Penalty>
1.53054

> <r_epik_Charging_Adjusted_Penalty>
2.97537

> <i_epik_Tot_Q>
1

> <i_epik_Tot_abs_Q>
1

> <r_epik_Metal_State_Penalty>
1.58148

> <b_epik_Metal_Only>
0

> <s_lp_Force_Field>
OPLS_2005

> <r_lp_Energy>
24.9332

> <b_lp_Chiralities_Consistent>
1

> <s_lp_Variant>
AV-unprocessed.smi:2743-2

> <Gold.Version>
5.8.1

> <Gold.Id.Protein>
6NUR|6NUR_protein|mol2

> <Gold.PLP.Fitness>
40.5267

> <Gold.PLP.PLP>
-29.8123

> <Gold.PLP.part.hbond>
-3.0000

> <Gold.PLP.part.metal>
0.0000

> <Gold.PLP.part.buried>
0.0341

> <Gold.PLP.part.nonpolar>
-27.5711

> <Gold.PLP.part.repulsive>
0.0210

> <Gold.PLP.ligand.clash>
0.0000

> <Gold.PLP.ligand.torsion>
0.6541

> <Gold.PLP.Chemscore.Hbond>
4.0000

> <Gold.PLP.Chemscore.CHOScore>
0.0000

> <Gold.PLP.Chemscore.Metal>
0.0000

> <Gold.Chemscore.Hbonds>
donor molecule, donor type, donor heavy atom, donor atom, acceptor molecule, acceptor atom, score
      L1  H    12    39       P1 10175  2.00
      P1  H  6896  6907       L1     1  0.70
      P1  H 10752 10763       L1     5  1.00

> <Gold.PLP.Chemscore.Internal.Correction>
0.0226

> <Gold.Rescore>
     Score         DG    S(hbond)    S(metal)    S(lipo)     H(rot)  DE(clash)    DE(int)     intcor
     17.78     -20.13       2.93        0.00      82.19       1.85       0.45       1.91       ----

> <Gold.Chemscore.Fitness>
17.7794

> <Gold.Chemscore.DG>
-20.1316

> <Gold.Chemscore.ZeroCoef>
-5.4800

> <Gold.Chemscore.Hbond>
2.9295

> <Gold.Chemscore.Metal>
0.0000

> <Gold.Chemscore.Lipo>
82.1880

> <Gold.Chemscore.Internal_Hbond>
0.0000

> <Gold.Chemscore.DEClash>
0.4460

> <Gold.Chemscore.DEInternal>
1.9062

> <Gold.Chemscore.Rot>
1.8550

> <Gold.Chemscore.Internal.Correction>
   9.000000E+99

> <Gold.Chemscore.Hbonds>
donor molecule, donor type, donor heavy atom, donor atom, acceptor molecule, acceptor atom, score
      L1  H    12    39       P1 10175  0.64
      P1  H  6896  6907       L1     1  0.64
      P1  H 10752 10763       L1     5  0.99

> <Gold.Chemscore.Hbond.Weighted>
-9.7844

> <Gold.Chemscore.Metal.Weighted>
-0.0000

> <Gold.Chemscore.Lipo.Weighted>
-9.6160

> <Gold.Chemscore.Internal_Hbond.Weighted>
0.0000

> <Gold.Chemscore.DEClash.Weighted>
0.4460

> <Gold.Chemscore.DEInternal.Weighted>
1.9062

> <Gold.Chemscore.Rot.Weighted>
4.7488

> <Gold.Chemscore.Internal.Correction.Weighted>
   9.000000E+99

> <Gold.Protein.RotatedTorsions>
[ 6907 6896 6895 6894 ] final -144.70 input  -60.11 | X-H torsion
[ 7974 7965 7964 7962 ] final   61.16 input  175.53 | X-H torsion
[ 8008 7997 7996 7995 ] final   56.92 input   59.86 | X-H torsion
[ 10167 10162 10161 10158 ] final  -17.79 input  -65.29 | X-H torsion
[ 10718 10713 10712 10709 ] final   72.81 input   66.30 | X-H torsion
[ 10763 10752 10751 10750 ] final   81.54 input  -60.55 | X-H torsion
[ 11005 11000 10999 10996 ] final  -55.47 input  -57.11 | X-H torsion

> <Gold.Protein.ActiveResidues>
 VAL166  LYS551  ARG553  GLY616  TRP617  ASP618  TYR619  PRO620  LYS621  CYS622 
 ASP623  PHE694  ASN695  SER759  ASP760  ASP761  ALA762  ILE779  LEU786  VAL792 
 PHE793  MET794  SER795  GLU796  ALA797  LYS798  CYS799  TRP800  GLU811  SER814 

> <Gold.Protein.RotatedAtoms>
  151.1176  133.5127  159.2603 H   0  0  0  0  0  0  0  0  0  0  0  0  # atno 6907 bound_to 6896
  151.1897  135.0396  159.8837 H   0  0  0  0  0  0  0  0  0  0  0  0  # atno 6908 bound_to 6896
  152.5454  134.1018  159.8374 H   0  0  0  0  0  0  0  0  0  0  0  0  # atno 6909 bound_to 6896
  145.8879  139.3489  143.0667 H   0  0  0  0  0  0  0  0  0  0  0  0  # atno 7974 bound_to 7965
  155.5253  140.3480  155.4415 H   0  0  0  0  0  0  0  0  0  0  0  0  # atno 8008 bound_to 7997
  156.0756  140.1374  156.9802 H   0  0  0  0  0  0  0  0  0  0  0  0  # atno 8009 bound_to 7997
  154.4551  140.0956  156.6710 H   0  0  0  0  0  0  0  0  0  0  0  0  # atno 8010 bound_to 7997
  140.7251  143.4981  150.9905 H   0  0  0  0  0  0  0  0  0  0  0  0  # atno 10167 bound_to 10162
  157.6519  130.9597  150.0982 H   0  0  0  0  0  0  0  0  0  0  0  0  # atno 10718 bound_to 10713
  153.1126  135.4761  154.9060 H   0  0  0  0  0  0  0  0  0  0  0  0  # atno 10763 bound_to 10752
  154.7496  135.3102  154.8585 H   0  0  0  0  0  0  0  0  0  0  0  0  # atno 10764 bound_to 10752
  153.9170  135.6859  153.4802 H   0  0  0  0  0  0  0  0  0  0  0  0  # atno 10765 bound_to 10752
  141.1075  133.6612  156.4474 H   0  0  0  0  0  0  0  0  0  0  0  0  # atno 11005 bound_to 11000
  145.8945  140.9283  143.0535 LP  0  0  0  0  0  0  0  0  0  0  0  0  # atno 17320 bound_to 7965
  144.6729  140.0949  143.7463 LP  0  0  0  0  0  0  0  0  0  0  0  0  # atno 17321 bound_to 7965
  139.8689  143.7218  152.3168 LP  0  0  0  0  0  0  0  0  0  0  0  0  # atno 17342 bound_to 10162
  139.7460  144.7547  151.0579 LP  0  0  0  0  0  0  0  0  0  0  0  0  # atno 17343 bound_to 10162
  156.1912  130.3655  149.8908 LP  0  0  0  0  0  0  0  0  0  0  0  0  # atno 17370 bound_to 10713
  156.6836  130.8868  151.3579 LP  0  0  0  0  0  0  0  0  0  0  0  0  # atno 17371 bound_to 10713
  140.4863  134.6617  157.5192 LP  0  0  0  0  0  0  0  0  0  0  0  0  # atno 17394 bound_to 11000
  139.9952  134.6922  155.9621 LP  0  0  0  0  0  0  0  0  0  0  0  0  # atno 17395 bound_to 11000

$$$$
