AV-unprocessed.smi:1196|AV-procd|sdf|5000|dock5
  -GOLD-   22720 4 03D 1   1.00000     0.00000
 Structure written by MMmdl.
 36 37  0  0  0  0  0  0  0  0  2 V2000
  152.0856  139.9716  158.2938 C   0  0  0  0  0  0  0  0  0  0  0  0
  151.8688  140.8682  157.0650 C   0  0  2  0  0  0  0  0  0  0  0  0
  150.8992  142.0251  157.3764 C   0  0  0  0  0  0  0  0  0  0  0  0
  151.4886  143.0223  158.2520 N   0  0  0  0  0  0  0  0  0  0  0  0
  151.3947  144.3960  158.1731 C   0  0  0  0  0  0  0  0  0  0  0  0
  152.1190  144.9128  159.2087 C   0  0  0  0  0  0  0  0  0  0  0  0
  152.6244  143.7615  159.8746 C   0  0  0  0  0  0  0  0  0  0  0  0
  152.2435  142.6314  159.3014 N   0  0  0  0  0  0  0  0  0  0  0  0
  151.3564  140.0711  155.9520 N   0  0  0  0  0  0  0  0  0  0  0  0
  152.0407  139.1273  155.2876 C   0  0  0  0  0  0  0  0  0  0  0  0
  153.2022  138.8183  155.5551 O   0  0  0  0  0  0  0  0  0  0  0  0
  151.3009  138.4333  154.1418 C   0  0  0  0  0  0  0  0  0  0  0  0
  151.1185  136.9234  154.3874 C   0  0  0  0  0  0  0  0  0  0  0  0
  149.8221  136.5916  155.1561 C   0  0  2  0  0  0  0  0  0  0  0  0
  149.8202  137.1879  156.4812 N   0  5  0  0  0  0  0  0  0  0  0  0
  149.6864  136.1992  157.3967 C   0  0  0  0  0  0  0  0  0  0  0  0
  149.6328  136.3093  158.6195 O   0  0  0  0  0  0  0  0  0  0  0  0
  149.6169  135.0059  156.7977 N   0  0  0  0  0  0  0  0  0  0  0  0
  149.7022  135.1136  155.4758 C   0  0  0  0  0  0  0  0  0  0  0  0
  149.6869  134.2028  154.6490 O   0  0  0  0  0  0  0  0  0  0  0  0
  152.4818  140.5454  159.1320 H   0  0  0  0  0  0  0  0  0  0  0  0
  152.7964  139.1727  158.0799 H   0  0  0  0  0  0  0  0  0  0  0  0
  151.1525  139.5097  158.6177 H   0  0  0  0  0  0  0  0  0  0  0  0
  152.8325  141.2992  156.7870 H   0  0  0  0  0  0  0  0  0  0  0  0
  150.5755  142.5138  156.4561 H   0  0  0  0  0  0  0  0  0  0  0  0
  149.9980  141.6421  157.8577 H   0  0  0  0  0  0  0  0  0  0  0  0
  150.8296  144.8853  157.3937 H   0  0  0  0  0  0  0  0  0  0  0  0
  152.2667  145.9544  159.4522 H   0  0  0  0  0  0  0  0  0  0  0  0
  153.2520  143.7137  160.7521 H   0  0  0  0  0  0  0  0  0  0  0  0
  150.4064  140.2519  155.6615 H   0  0  0  0  0  0  0  0  0  0  0  0
  150.3283  138.9063  153.9975 H   0  0  0  0  0  0  0  0  0  0  0  0
  151.8635  138.5948  153.2220 H   0  0  0  0  0  0  0  0  0  0  0  0
  151.1018  136.4091  153.4249 H   0  0  0  0  0  0  0  0  0  0  0  0
  151.9833  136.5280  154.9242 H   0  0  0  0  0  0  0  0  0  0  0  0
  148.9530  136.8843  154.5654 H   0  0  0  0  0  0  0  0  0  0  0  0
  149.5227  134.1307  157.2907 H   0  0  0  0  0  0  0  0  0  0  0  0
  1  2  1  0  0  0  0
  1 21  1  0  0  0  0
  1 22  1  0  0  0  0
  1 23  1  0  0  0  0
  2  3  1  0  0  0  0
  2  9  1  0  0  0  0
  2 24  1  0  0  0  0
  3  4  1  0  0  0  0
  3 25  1  0  0  0  0
  3 26  1  0  0  0  0
  4  8  1  0  0  0  0
  4  5  1  0  0  0  0
  5  6  2  0  0  0  0
  5 27  1  0  0  0  0
  6  7  1  0  0  0  0
  6 28  1  0  0  0  0
  7  8  2  0  0  0  0
  7 29  1  0  0  0  0
  9 10  1  0  0  0  0
  9 30  1  0  0  0  0
 10 11  2  0  0  0  0
 10 12  1  0  0  0  0
 12 13  1  0  0  0  0
 12 31  1  0  0  0  0
 12 32  1  0  0  0  0
 13 14  1  0  0  0  0
 13 33  1  0  0  0  0
 13 34  1  0  0  0  0
 14 19  1  0  0  0  0
 14 15  1  0  0  0  0
 14 35  1  0  0  0  0
 15 16  1  0  0  0  0
 16 17  2  0  0  0  0
 16 18  1  0  0  0  0
 18 19  1  0  0  0  0
 18 36  1  0  0  0  0
 19 20  2  0  0  0  0
M  CHG  1  15  -1
M  END
> <s_m_source_file>
AV-unprocessed.smi

> <i_m_source_file_index>
1196

> <i_lp_mmshare_version>
43012

> <i_f3d_flags>
0

> <s_epik_input>
bjFbY0hdW2NIXVtjSF1uMVtDSDJdW0NAQEhdKFtDSDNdKVtOSF1DKD1PKVtDSDJdW0NIMl1bQ0BASF0yW05IXUMoPU8pW05IXUMyPU8=

> <s_epik_cmdline>
J2VwaWtfcHl0aG9uJywgJy1waCcsICc3LjAnLCAnLXRuJywgJzgnLCAnLW1hJywgJzIwMCcsICctbWV0YWxfYmluZGluZycsICctaW1hZScsICc8aW5maWxlLm1hZT4nLCAnLW9tYWUnLCAnPG91dGZpbGUubWFlPic=

> <r_lp_tautomer_probability>
1

> <r_epik_Ionization_Penalty>
5.79547

> <r_epik_Ionization_Penalty_Charging>
5.79516

> <r_epik_Ionization_Penalty_Neutral>
0.000313087

> <r_epik_State_Penalty>
5.80096

> <r_epik_Charging_Adjusted_Penalty>
11.5961

> <i_epik_Tot_Q>
-1

> <i_epik_Tot_abs_Q>
1

> <r_epik_Metal_State_Penalty>
2.14443

> <b_epik_Metal_Only>
1

> <s_lp_Force_Field>
OPLS_2005

> <r_lp_Energy>
13.4847

> <b_lp_Chiralities_Consistent>
1

> <s_lp_Variant>
AV-unprocessed.smi:1196-5

> <Gold.Version>
5.8.1

> <Gold.Id.Protein>
6NUR|6NUR_protein|mol2

> <Gold.PLP.Fitness>
43.9263

> <Gold.PLP.PLP>
-36.0156

> <Gold.PLP.part.hbond>
-2.0000

> <Gold.PLP.part.metal>
0.0000

> <Gold.PLP.part.buried>
-6.4419

> <Gold.PLP.part.nonpolar>
-28.3823

> <Gold.PLP.part.repulsive>
0.2916

> <Gold.PLP.ligand.clash>
0.0000

> <Gold.PLP.ligand.torsion>
0.6058

> <Gold.PLP.Chemscore.Hbond>
2.0000

> <Gold.PLP.Chemscore.CHOScore>
1.0000

> <Gold.PLP.Chemscore.Metal>
0.0000

> <Gold.Chemscore.Hbonds>
donor molecule, donor type, donor heavy atom, donor atom, acceptor molecule, acceptor atom, score
      P1  H  6896  6908       L1    17  0.63
      P1  H  7997  8008       L1    11  1.00
      L1  C     5    27       P1  8028  0.91

> <Gold.PLP.Chemscore.Internal.Correction>
0.1223

> <Gold.Rescore>
     Score         DG    S(hbond)    S(metal)    S(lipo)     H(rot)  DE(clash)    DE(int)     intcor
     11.91     -13.84       1.98        0.00      78.22       2.89       0.10       1.83       ----

> <Gold.Chemscore.Fitness>
11.9133

> <Gold.Chemscore.DG>
-13.8423

> <Gold.Chemscore.ZeroCoef>
-5.4800

> <Gold.Chemscore.Hbond>
1.9821

> <Gold.Chemscore.Metal>
0.0000

> <Gold.Chemscore.Lipo>
78.2229

> <Gold.Chemscore.Internal_Hbond>
0.0000

> <Gold.Chemscore.DEClash>
0.1004

> <Gold.Chemscore.DEInternal>
1.8286

> <Gold.Chemscore.Rot>
2.8946

> <Gold.Chemscore.Internal.Correction>
   9.000000E+99

> <Gold.Chemscore.Hbonds>
donor molecule, donor type, donor heavy atom, donor atom, acceptor molecule, acceptor atom, score
      P1  H  6896  6908       L1    17  0.51
      P1  H  7997  8008       L1    11  0.94

> <Gold.Chemscore.Hbond.Weighted>
-6.6204

> <Gold.Chemscore.Metal.Weighted>
-0.0000

> <Gold.Chemscore.Lipo.Weighted>
-9.1521

> <Gold.Chemscore.Internal_Hbond.Weighted>
0.0000

> <Gold.Chemscore.DEClash.Weighted>
0.1004

> <Gold.Chemscore.DEInternal.Weighted>
1.8286

> <Gold.Chemscore.Rot.Weighted>
7.4101

> <Gold.Chemscore.Internal.Correction.Weighted>
   9.000000E+99

> <Gold.Protein.RotatedTorsions>
[ 6907 6896 6895 6894 ] final  178.61 input  -60.11 | X-H torsion
[ 7974 7965 7964 7962 ] final -141.09 input  175.53 | X-H torsion
[ 8008 7997 7996 7995 ] final  -23.25 input   59.86 | X-H torsion
[ 10167 10162 10161 10158 ] final   33.33 input  -65.29 | X-H torsion
[ 10718 10713 10712 10709 ] final -173.13 input   66.30 | X-H torsion
[ 10763 10752 10751 10750 ] final   27.09 input  -60.55 | X-H torsion
[ 11005 11000 10999 10996 ] final  -20.21 input  -57.11 | X-H torsion

> <Gold.Protein.ActiveResidues>
 VAL166  LYS551  ARG553  GLY616  TRP617  ASP618  TYR619  PRO620  LYS621  CYS622 
 ASP623  PHE694  ASN695  SER759  ASP760  ASP761  ALA762  ILE779  LEU786  VAL792 
 PHE793  MET794  SER795  GLU796  ALA797  LYS798  CYS799  TRP800  GLU811  SER814 

> <Gold.Protein.RotatedAtoms>
  151.6851  133.3311  159.3228 H   0  0  0  0  0  0  0  0  0  0  0  0  # atno 6907 bound_to 6896
  150.7805  134.6747  159.6420 H   0  0  0  0  0  0  0  0  0  0  0  0  # atno 6908 bound_to 6896
  152.3860  134.6519  160.0177 H   0  0  0  0  0  0  0  0  0  0  0  0  # atno 6909 bound_to 6896
  144.8546  140.6122  143.5368 H   0  0  0  0  0  0  0  0  0  0  0  0  # atno 7974 bound_to 7965
  154.4596  140.1986  156.0282 H   0  0  0  0  0  0  0  0  0  0  0  0  # atno 8008 bound_to 7997
  156.0814  140.3271  155.7670 H   0  0  0  0  0  0  0  0  0  0  0  0  # atno 8009 bound_to 7997
  155.5105  140.0561  157.2915 H   0  0  0  0  0  0  0  0  0  0  0  0  # atno 8010 bound_to 7997
  140.4417  144.1178  150.6175 H   0  0  0  0  0  0  0  0  0  0  0  0  # atno 10167 bound_to 10162
  156.7657  130.9430  151.3119 H   0  0  0  0  0  0  0  0  0  0  0  0  # atno 10718 bound_to 10713
  153.0579  135.6545  154.0533 H   0  0  0  0  0  0  0  0  0  0  0  0  # atno 10763 bound_to 10752
  154.0207  135.2920  155.3382 H   0  0  0  0  0  0  0  0  0  0  0  0  # atno 10764 bound_to 10752
  154.6903  135.5285  153.8451 H   0  0  0  0  0  0  0  0  0  0  0  0  # atno 10765 bound_to 10752
  140.8442  133.7904  155.9894 H   0  0  0  0  0  0  0  0  0  0  0  0  # atno 11005 bound_to 11000
  145.4431  139.1533  143.3959 LP  0  0  0  0  0  0  0  0  0  0  0  0  # atno 17320 bound_to 7965
  146.2813  140.4554  142.8775 LP  0  0  0  0  0  0  0  0  0  0  0  0  # atno 17321 bound_to 7965
  140.4310  143.2568  151.9595 LP  0  0  0  0  0  0  0  0  0  0  0  0  # atno 17342 bound_to 10162
  139.4790  144.5743  151.8037 LP  0  0  0  0  0  0  0  0  0  0  0  0  # atno 17343 bound_to 10162
  157.6714  130.9054  150.0049 LP  0  0  0  0  0  0  0  0  0  0  0  0  # atno 17370 bound_to 10713
  156.1310  130.3643  149.9732 LP  0  0  0  0  0  0  0  0  0  0  0  0  # atno 17371 bound_to 10713
  140.8861  134.2552  157.5119 LP  0  0  0  0  0  0  0  0  0  0  0  0  # atno 17394 bound_to 11000
  139.8703  134.9639  156.4477 LP  0  0  0  0  0  0  0  0  0  0  0  0  # atno 17395 bound_to 11000

$$$$
