AV-unprocessed.smi:155|AV-procd|sdf|1272|dock4
  -GOLD-   2262018533D 1   1.00000     0.00000
 Structure written by MMmdl.
 63 66  0  0  0  0  0  0  0  0  2 V2000
  145.8098  132.1448  149.4142 C   0  0  0  0  0  0  0  0  0  0  0  0
  145.4357  132.9231  150.5877 N   0  0  0  0  0  0  0  0  0  0  0  0
  144.7050  132.0501  151.5005 C   0  0  0  0  0  0  0  0  0  0  0  0
  146.6457  133.4630  151.2087 C   0  0  0  0  0  0  0  0  0  0  0  0
  146.3691  134.0635  152.6027 C   0  0  0  0  0  0  0  0  0  0  0  0
  146.3146  135.5465  152.5607 N   0  3  1  0  0  0  0  0  0  0  0  0
  145.5219  136.0477  151.4082 C   0  0  0  0  0  0  0  0  0  0  0  0
  145.2909  137.5720  151.3962 C   0  0  0  0  0  0  0  0  0  0  0  0
  146.4981  138.4109  151.8431 C   0  0  0  0  0  0  0  0  0  0  0  0
  146.5449  138.5510  153.2974 N   0  0  0  0  0  0  0  0  0  0  0  0
  147.1885  139.6623  153.7121 C   0  0  0  0  0  0  0  0  0  0  0  0
  146.6438  140.8590  153.3836 N   0  0  0  0  0  0  0  0  0  0  0  0
  147.2403  141.9909  153.7719 C   0  0  0  0  0  0  0  0  0  0  0  0
  148.3598  142.1440  154.4839 N   0  0  0  0  0  0  0  0  0  0  0  0
  148.9017  140.9388  154.8221 C   0  0  0  0  0  0  0  0  0  0  0  0
  148.3856  139.6579  154.4808 C   0  0  0  0  0  0  0  0  0  0  0  0
  149.2003  138.6609  155.0044 N   0  0  0  0  0  0  0  0  0  0  0  0
  150.1482  139.3166  155.6180 C   0  0  0  0  0  0  0  0  0  0  0  0
  150.0475  140.6882  155.5547 N   0  0  0  0  0  0  0  0  0  0  0  0
  150.9553  141.6580  156.1414 C   0  0  0  0  0  0  0  0  0  0  0  0
  150.5524  142.0482  157.5768 C   0  0  2  0  0  0  0  0  0  0  0  0
  149.3082  142.7213  157.5428 O   0  0  0  0  0  0  0  0  0  0  0  0
  151.5959  142.9614  158.2459 C   0  0  1  0  0  0  0  0  0  0  0  0
  151.5987  144.4037  157.7365 C   0  0  0  0  0  0  0  0  0  0  0  0
  152.1798  145.1932  158.8991 C   0  0  0  0  0  0  0  0  0  0  0  0
  152.0689  144.2378  160.0905 C   0  0  0  0  0  0  0  0  0  0  0  0
  151.2934  143.1441  159.6205 O   0  0  0  0  0  0  0  0  0  0  0  0
  146.8783  137.3913  154.1199 C   0  0  0  0  0  0  0  0  0  0  0  0
  145.9741  136.1752  153.8621 C   0  0  0  0  0  0  0  0  0  0  0  0
  146.3266  132.7711  148.6860 H   0  0  0  0  0  0  0  0  0  0  0  0
  144.9250  131.7360  148.9248 H   0  0  0  0  0  0  0  0  0  0  0  0
  146.4676  131.3155  149.6790 H   0  0  0  0  0  0  0  0  0  0  0  0
  144.3405  132.5933  152.3713 H   0  0  0  0  0  0  0  0  0  0  0  0
  145.3291  131.2254  151.8481 H   0  0  0  0  0  0  0  0  0  0  0  0
  143.8325  131.6258  151.0024 H   0  0  0  0  0  0  0  0  0  0  0  0
  147.4007  132.6787  151.2807 H   0  0  0  0  0  0  0  0  0  0  0  0
  147.0710  134.2321  150.5635 H   0  0  0  0  0  0  0  0  0  0  0  0
  145.4401  133.6608  153.0057 H   0  0  0  0  0  0  0  0  0  0  0  0
  147.1461  133.7559  153.3040 H   0  0  0  0  0  0  0  0  0  0  0  0
  146.0487  135.7616  150.4968 H   0  0  0  0  0  0  0  0  0  0  0  0
  144.5555  135.5418  151.3797 H   0  0  0  0  0  0  0  0  0  0  0  0
  145.0209  137.8587  150.3793 H   0  0  0  0  0  0  0  0  0  0  0  0
  144.4223  137.8287  152.0047 H   0  0  0  0  0  0  0  0  0  0  0  0
  147.4269  137.9796  151.4675 H   0  0  0  0  0  0  0  0  0  0  0  0
  146.4133  139.4040  151.3982 H   0  0  0  0  0  0  0  0  0  0  0  0
  146.7508  142.9050  153.4692 H   0  0  0  0  0  0  0  0  0  0  0  0
  150.9542  138.8150  156.1342 H   0  0  0  0  0  0  0  0  0  0  0  0
  151.9586  141.2305  156.1316 H   0  0  0  0  0  0  0  0  0  0  0  0
  150.9864  142.5400  155.5001 H   0  0  0  0  0  0  0  0  0  0  0  0
  150.4289  141.1448  158.1759 H   0  0  0  0  0  0  0  0  0  0  0  0
  149.3314  143.3554  156.8426 H   0  0  0  0  0  0  0  0  0  0  0  0
  152.5959  142.5315  158.1578 H   0  0  0  0  0  0  0  0  0  0  0  0
  152.1699  144.5239  156.8155 H   0  0  0  0  0  0  0  0  0  0  0  0
  150.5782  144.7372  157.5445 H   0  0  0  0  0  0  0  0  0  0  0  0
  153.2214  145.4597  158.7181 H   0  0  0  0  0  0  0  0  0  0  0  0
  151.6215  146.1151  159.0642 H   0  0  0  0  0  0  0  0  0  0  0  0
  153.0552  143.8773  160.3864 H   0  0  0  0  0  0  0  0  0  0  0  0
  151.6022  144.7032  160.9589 H   0  0  0  0  0  0  0  0  0  0  0  0
  147.9240  137.1186  153.9682 H   0  0  0  0  0  0  0  0  0  0  0  0
  146.7834  137.6757  155.1694 H   0  0  0  0  0  0  0  0  0  0  0  0
  144.9154  136.4326  153.9193 H   0  0  0  0  0  0  0  0  0  0  0  0
  146.1438  135.4664  154.6725 H   0  0  0  0  0  0  0  0  0  0  0  0
  147.2653  135.8311  152.3705 H   0  0  0  0  0  0  0  0  0  0  0  0
  1  2  1  0  0  0  0
  1 30  1  0  0  0  0
  1 31  1  0  0  0  0
  1 32  1  0  0  0  0
  2  3  1  0  0  0  0
  2  4  1  0  0  0  0
  3 33  1  0  0  0  0
  3 34  1  0  0  0  0
  3 35  1  0  0  0  0
  4  5  1  0  0  0  0
  4 36  1  0  0  0  0
  4 37  1  0  0  0  0
  5  6  1  0  0  0  0
  5 38  1  0  0  0  0
  5 39  1  0  0  0  0
  6 29  1  0  0  0  0
  6  7  1  0  0  0  0
  6 63  1  0  0  0  0
  7  8  1  0  0  0  0
  7 40  1  0  0  0  0
  7 41  1  0  0  0  0
  8  9  1  0  0  0  0
  8 42  1  0  0  0  0
  8 43  1  0  0  0  0
  9 10  1  0  0  0  0
  9 44  1  0  0  0  0
  9 45  1  0  0  0  0
 10 11  1  0  0  0  0
 10 28  1  0  0  0  0
 11 16  1  0  0  0  0
 11 12  2  0  0  0  0
 12 13  1  0  0  0  0
 13 14  2  0  0  0  0
 13 46  1  0  0  0  0
 14 15  1  0  0  0  0
 15 19  1  0  0  0  0
 15 16  2  0  0  0  0
 16 17  1  0  0  0  0
 17 18  2  0  0  0  0
 18 19  1  0  0  0  0
 18 47  1  0  0  0  0
 19 20  1  0  0  0  0
 20 21  1  0  0  0  0
 20 48  1  0  0  0  0
 20 49  1  0  0  0  0
 21 22  1  0  0  0  0
 21 23  1  0  0  0  0
 21 50  1  0  0  0  0
 22 51  1  0  0  0  0
 23 27  1  0  0  0  0
 23 24  1  0  0  0  0
 23 52  1  0  0  0  0
 24 25  1  0  0  0  0
 24 53  1  0  0  0  0
 24 54  1  0  0  0  0
 25 26  1  0  0  0  0
 25 55  1  0  0  0  0
 25 56  1  0  0  0  0
 26 27  1  0  0  0  0
 26 57  1  0  0  0  0
 26 58  1  0  0  0  0
 28 29  1  0  0  0  0
 28 59  1  0  0  0  0
 28 60  1  0  0  0  0
 29 61  1  0  0  0  0
 29 62  1  0  0  0  0
M  CHG  1   6   1
M  END
> <s_m_source_file>
AV-unprocessed.smi

> <i_m_source_file_index>
155

> <i_lp_mmshare_version>
43012

> <i_f3d_flags>
0

> <s_epik_input>
W0NIM11OKFtDSDNdKVtDSDJdW0NIMl1OMVtDSDJdW0NIMl1bQ0gyXU4oW0NIMl1bQ0gyXTEpYyhuW2NIXW4yKWMoYzIzKW5bY0hdbjNbQ0gyXVtDQEhdKFtPSF0pW0NAQEhdNFtDSDJdW0NIMl1bQ0gyXU80

> <s_epik_cmdline>
J2VwaWtfcHl0aG9uJywgJy1waCcsICc3LjAnLCAnLXRuJywgJzgnLCAnLW1hJywgJzIwMCcsICctbWV0YWxfYmluZGluZycsICctaW1hZScsICc8aW5maWxlLm1hZT4nLCAnLW9tYWUnLCAnPG91dGZpbGUubWFlPic=

> <r_epik_Ionization_Penalty>
0.0619615

> <r_epik_Ionization_Penalty_Charging>
0.0161638

> <r_epik_Ionization_Penalty_Neutral>
0.0457976

> <r_epik_State_Penalty>
0.403408

> <r_epik_Charging_Adjusted_Penalty>
0.419572

> <i_epik_Tot_Q>
1

> <i_epik_Tot_abs_Q>
1

> <r_epik_Metal_State_Penalty>
0.404222

> <b_epik_Metal_Only>
0

> <s_lp_Force_Field>
OPLS_2005

> <r_lp_Energy>
54.952

> <b_lp_Chiralities_Consistent>
1

> <s_lp_Variant>
AV-unprocessed.smi:155-6

> <Gold.Version>
5.8.1

> <Gold.Id.Protein>
6NUR|6NUR_protein|mol2

> <Gold.PLP.Fitness>
57.8270

> <Gold.PLP.PLP>
-51.0364

> <Gold.PLP.part.hbond>
-2.7635

> <Gold.PLP.part.metal>
0.0000

> <Gold.PLP.part.buried>
-4.4914

> <Gold.PLP.part.nonpolar>
-47.7307

> <Gold.PLP.part.repulsive>
2.4116

> <Gold.PLP.ligand.clash>
0.1509

> <Gold.PLP.ligand.torsion>
1.2770

> <Gold.PLP.Chemscore.Hbond>
3.0000

> <Gold.PLP.Chemscore.CHOScore>
0.0000

> <Gold.PLP.Chemscore.Metal>
0.0000

> <Gold.Chemscore.Hbonds>
donor molecule, donor type, donor heavy atom, donor atom, acceptor molecule, acceptor atom, score
      L1  H     6    63       P1  7948  2.00
      L1  H    22    51       P1  8028  1.00

> <Gold.PLP.Chemscore.Internal.Correction>
0.4956

> <Gold.Rescore>
     Score         DG    S(hbond)    S(metal)    S(lipo)     H(rot)  DE(clash)    DE(int)     intcor
     14.49     -19.35       1.98        0.00     125.76       2.91       2.14       2.73       ----

> <Gold.Chemscore.Fitness>
14.4858

> <Gold.Chemscore.DG>
-19.3528

> <Gold.Chemscore.ZeroCoef>
-5.4800

> <Gold.Chemscore.Hbond>
1.9778

> <Gold.Chemscore.Metal>
0.0000

> <Gold.Chemscore.Lipo>
125.7603

> <Gold.Chemscore.Internal_Hbond>
0.0000

> <Gold.Chemscore.DEClash>
2.1415

> <Gold.Chemscore.DEInternal>
2.7256

> <Gold.Chemscore.Rot>
2.9090

> <Gold.Chemscore.Internal.Correction>
   9.000000E+99

> <Gold.Chemscore.Hbonds>
donor molecule, donor type, donor heavy atom, donor atom, acceptor molecule, acceptor atom, score
      L1  H     6    63       P1  7948  1.00
      L1  H    22    51       P1  8028  0.97

> <Gold.Chemscore.Hbond.Weighted>
-6.6059

> <Gold.Chemscore.Metal.Weighted>
-0.0000

> <Gold.Chemscore.Lipo.Weighted>
-14.7140

> <Gold.Chemscore.Internal_Hbond.Weighted>
0.0000

> <Gold.Chemscore.DEClash.Weighted>
2.1415

> <Gold.Chemscore.DEInternal.Weighted>
2.7256

> <Gold.Chemscore.Rot.Weighted>
7.4470

> <Gold.Chemscore.Internal.Correction.Weighted>
   9.000000E+99

> <Gold.Protein.RotatedTorsions>
[ 6907 6896 6895 6894 ] final  -22.08 input  -60.11 | X-H torsion
[ 7974 7965 7964 7962 ] final  170.21 input  175.53 | X-H torsion
[ 8008 7997 7996 7995 ] final  147.17 input   59.86 | X-H torsion
[ 10167 10162 10161 10158 ] final   56.39 input  -65.29 | X-H torsion
[ 10718 10713 10712 10709 ] final   26.86 input   66.30 | X-H torsion
[ 10763 10752 10751 10750 ] final  115.70 input  -60.55 | X-H torsion
[ 11005 11000 10999 10996 ] final  -98.35 input  -57.11 | X-H torsion

> <Gold.Protein.ActiveResidues>
 VAL166  LYS551  ARG553  GLY616  TRP617  ASP618  TYR619  PRO620  LYS621  CYS622 
 ASP623  PHE694  ASN695  SER759  ASP760  ASP761  ALA762  ILE779  LEU786  VAL792 
 PHE793  MET794  SER795  GLU796  ALA797  LYS798  CYS799  TRP800  GLU811  SER814 

> <Gold.Protein.RotatedAtoms>
  151.2239  135.0529  159.8960 H   0  0  0  0  0  0  0  0  0  0  0  0  # atno 6907 bound_to 6896
  152.5412  134.0611  159.8162 H   0  0  0  0  0  0  0  0  0  0  0  0  # atno 6908 bound_to 6896
  151.0781  133.5364  159.2654 H   0  0  0  0  0  0  0  0  0  0  0  0  # atno 6909 bound_to 6896
  144.7330  139.9169  143.6418 H   0  0  0  0  0  0  0  0  0  0  0  0  # atno 7974 bound_to 7965
  156.2833  140.2163  156.5495 H   0  0  0  0  0  0  0  0  0  0  0  0  # atno 8008 bound_to 7997
  154.7303  140.0496  157.0743 H   0  0  0  0  0  0  0  0  0  0  0  0  # atno 8009 bound_to 7997
  155.0362  140.3140  155.4744 H   0  0  0  0  0  0  0  0  0  0  0  0  # atno 8010 bound_to 7997
  140.2092  144.3907  150.6496 H   0  0  0  0  0  0  0  0  0  0  0  0  # atno 10167 bound_to 10162
  157.2125  130.6941  149.6235 H   0  0  0  0  0  0  0  0  0  0  0  0  # atno 10718 bound_to 10713
  153.5261  135.3588  155.2654 H   0  0  0  0  0  0  0  0  0  0  0  0  # atno 10763 bound_to 10752
  154.8731  135.4057  154.3205 H   0  0  0  0  0  0  0  0  0  0  0  0  # atno 10764 bound_to 10752
  153.3884  135.7071  153.6580 H   0  0  0  0  0  0  0  0  0  0  0  0  # atno 10765 bound_to 10752
  141.1348  133.8239  157.0828 H   0  0  0  0  0  0  0  0  0  0  0  0  # atno 11005 bound_to 11000
  146.0959  139.3951  143.0377 LP  0  0  0  0  0  0  0  0  0  0  0  0  # atno 17320 bound_to 7965
  145.7647  140.9921  143.1181 LP  0  0  0  0  0  0  0  0  0  0  0  0  # atno 17321 bound_to 7965
  140.6335  143.2191  151.6444 LP  0  0  0  0  0  0  0  0  0  0  0  0  # atno 17342 bound_to 10162
  139.5186  144.3278  152.0853 LP  0  0  0  0  0  0  0  0  0  0  0  0  # atno 17343 bound_to 10162
  155.9689  130.4546  150.5857 LP  0  0  0  0  0  0  0  0  0  0  0  0  # atno 17370 bound_to 10713
  157.3657  131.0757  151.1599 LP  0  0  0  0  0  0  0  0  0  0  0  0  # atno 17371 bound_to 10713
  140.0441  134.9839  157.1016 LP  0  0  0  0  0  0  0  0  0  0  0  0  # atno 17394 bound_to 11000
  140.4090  134.2001  155.7163 LP  0  0  0  0  0  0  0  0  0  0  0  0  # atno 17395 bound_to 11000

$$$$
