#       Name:                AV-unprocessed.smi:2252
#       Creating user name   scv26
#       Creation time:       Fri Mar 27 12:31:49 2020


#       File generated by GOLD software.
#

@<TRIPOS>MOLECULE
AV-unprocessed.smi:2252
    48    50     1
SMALL
NO_CHARGES


@<TRIPOS>ATOM
      1 ****        -4.1400   1.9387  -0.9307 C.3            1 S1                 0.0000
      2 ****        -4.7230   1.0485   0.0548 N.pl3          1 S1                 0.0000
      3 ****        -6.0762   0.7792   0.2120 C.2            1 S1                 0.0000
      4 ****        -6.1816  -0.1172   1.2479 C.2            1 S1                 0.0000
      5 ****        -4.9128  -0.4073   1.7383 N.2            1 S1                 0.0000
      6 ****        -4.0868   0.3222   0.9943 C.2            1 S1                 0.0000
      7 ****        -2.5986   0.3164   1.1546 C.3            1 S1                 0.0000
      8 ****        -1.9249  -0.8042   0.3456 C.3            1 S1                 0.0000
      9 ****        -0.4761  -0.7787   0.5037 N.am           1 S1                 0.0000
     10 ****         0.3506   0.0612  -0.1389 C.2            1 S1                 0.0000
     11 ****        -0.0391   0.8955  -0.9571 O.2            1 S1                 0.0000
     12 ****         1.8503  -0.0640   0.1837 C.3            1 S1                 0.0000
     13 ****         2.3767   1.2881   0.7128 C.3            1 S1                 0.0000
     14 ****         3.2031   1.3601   1.9798 C.3            1 S1                 0.0000
     15 ****         1.7999   1.9032   1.9729 C.3            1 S1                 0.0000
     16 ****         2.6510  -0.5266  -0.9768 N.3            1 S1                 0.0000
     17 ****         2.1907  -1.7726  -1.5882 C.3            1 S1                 0.0000
     18 ****         3.3579  -2.2018  -2.4790 C.3            1 S1                 0.0000
     19 ****         4.5817  -1.5214  -1.8732 C.3            1 S1                 0.0000
     20 ****         4.0471  -0.7906  -0.6422 C.3            1 S1                 0.0000
     21 ****        -4.8981   2.2519  -1.6490 H              1 S1                 0.0000
     22 ****        -3.3382   1.4293  -1.4659 H              1 S1                 0.0000
     23 ****        -3.7363   2.8218  -0.4353 H              1 S1                 0.0000
     24 ****        -6.8325   1.2332  -0.4113 H              1 S1                 0.0000
     25 ****        -7.0636  -0.5717   1.6742 H              1 S1                 0.0000
     26 ****        -2.2015   1.2909   0.8687 H              1 S1                 0.0000
     27 ****        -2.3664   0.1964   2.2136 H              1 S1                 0.0000
     28 ****        -2.2887  -1.7756   0.6817 H              1 S1                 0.0000
     29 ****        -2.1844  -0.7248  -0.7117 H              1 S1                 0.0000
     30 ****        -0.0739  -1.4380   1.1544 H              1 S1                 0.0000
     31 ****         1.9466  -0.8047   0.9805 H              1 S1                 0.0000
     32 ****         2.6293   2.0004  -0.0713 H              1 S1                 0.0000
     33 ****         3.3801   0.4346   2.5241 H              1 S1                 0.0000
     34 ****         4.0213   2.0769   2.0027 H              1 S1                 0.0000
     35 ****         1.6770   2.9842   1.9907 H              1 S1                 0.0000
     36 ****         1.0449   1.3399   2.5181 H              1 S1                 0.0000
     37 ****         2.0140  -2.5247  -0.8169 H              1 S1                 0.0000
     38 ****         1.2700  -1.6460  -2.1589 H              1 S1                 0.0000
     39 ****         3.4608  -3.2870  -2.5047 H              1 S1                 0.0000
     40 ****         3.2064  -1.8581  -3.5030 H              1 S1                 0.0000
     41 ****         5.3662  -2.2323  -1.6118 H              1 S1                 0.0000
     42 ****         5.0022  -0.8088  -2.5841 H              1 S1                 0.0000
     43 ****         4.6055   0.1227  -0.4342 H              1 S1                 0.0000
     44 ****         4.1115  -1.4379   0.2346 H              1 S1                 0.0000
     45 ****        -4.6744  -1.0277   2.4855 LP             1 S1                 0.0000
     46 ****        -1.0134   0.9700  -1.1698 LP             1 S1                 0.0000
     47 ****         0.6188   1.4982  -1.4086 LP             1 S1                 0.0000
     48 ****         2.5423   0.2411  -1.6083 LP             1 S1                 0.0000
@<TRIPOS>BOND
    1    1    2 1     
    2    1   21 1     
    3    1   22 1     
    4    1   23 1     
    5    2    6 1     
    6    2    3 1     
    7    3    4 2     
    8    3   24 1     
    9    4    5 1     
   10    4   25 1     
   11    5    6 2     
   12    6    7 1     
   13    7    8 1     
   14    7   26 1     
   15    7   27 1     
   16    8    9 1     
   17    8   28 1     
   18    8   29 1     
   19    9   10 am    
   20    9   30 1     
   21   10   11 2     
   22   10   12 1     
   23   12   13 1     
   24   12   16 1     
   25   12   31 1     
   26   13   15 1     
   27   13   14 1     
   28   13   32 1     
   29   14   15 1     
   30   14   33 1     
   31   14   34 1     
   32   15   35 1     
   33   15   36 1     
   34   16   20 1     
   35   16   17 1     
   36   17   18 1     
   37   17   37 1     
   38   17   38 1     
   39   18   19 1     
   40   18   39 1     
   41   18   40 1     
   42   19   20 1     
   43   19   41 1     
   44   19   42 1     
   45   20   43 1     
   46   20   44 1     
   47    5   45 1     
   48   11   46 1     
   49   11   47 1     
   50   16   48 1     
@<TRIPOS>SUBSTRUCTURE
      1 S1             1
@<TRIPOS>SET
LONE_PAIRS      STATIC     ATOMS    <user>   **** ""
4 45 46 47 48
DONOR_HYDROGENS      STATIC     ATOMS    <user>   **** ""
1 30
ATOM$BLUE        STATIC     ATOMS    COLORGROUP SYSTEM
4 45 46 47 48
ATOM$RED        STATIC     ATOMS    COLORGROUP SYSTEM
1 30
