#       Name:                AV-unprocessed.smi:3287
#       Creating user name   scv26
#       Creation time:       Fri Mar 27 18:52:48 2020


#       File generated by GOLD software.
#

@<TRIPOS>MOLECULE
AV-unprocessed.smi:3287
    46    47     1
SMALL
NO_CHARGES


@<TRIPOS>ATOM
      1 ****        -3.2287   3.9660  -0.8203 C.3            1 S1                 0.0000
      2 ****        -2.6583   2.5367  -0.8421 C.3            1 S1                 0.0000
      3 ****        -1.1467   2.5817  -1.1441 C.3            1 S1                 0.0000
      4 ****        -0.5223   1.1801  -1.1904 C.3            1 S1                 0.0000
      5 ****        -0.7731   0.4182   0.1239 C.3            1 S1                 0.0000
      6 ****        -0.2163  -0.9516   0.0728 N.4            1 S1                 1.0000
      7 ****         1.2511  -1.0426   0.2323 C.3            1 S1                 0.0000
      8 ****         1.7257  -2.5060   0.2516 C.3            1 S1                 0.0000
      9 ****         1.1393  -3.1618   1.3592 O.3            1 S1                 0.0000
     10 ****         3.2438  -2.5881   0.2872 C.ar           1 S1                 0.0000
     11 ****         3.9711  -2.9070  -0.8786 C.ar           1 S1                 0.0000
     12 ****         5.3774  -2.9629  -0.8015 C.ar           1 S1                 0.0000
     13 ****         6.0678  -2.7234   0.3337 N.ar           1 S1                 0.0000
     14 ****         5.3675  -2.4170   1.4464 C.ar           1 S1                 0.0000
     15 ****         3.9611  -2.3351   1.4767 C.ar           1 S1                 0.0000
     16 ****        -2.2825   0.3560   0.4141 C.3            1 S1                 0.0000
     17 ****        -2.9284   1.7560   0.4714 C.3            1 S1                 0.0000
     18 ****        -4.4277   1.6263   0.7947 C.3            1 S1                 0.0000
     19 ****        -2.8323   4.5387   0.0185 H              1 S1                 0.0000
     20 ****        -4.3158   3.9683  -0.7452 H              1 S1                 0.0000
     21 ****        -2.9750   4.5016  -1.7355 H              1 S1                 0.0000
     22 ****        -3.1437   2.0026  -1.6606 H              1 S1                 0.0000
     23 ****        -0.9728   3.0847  -2.0962 H              1 S1                 0.0000
     24 ****        -0.6379   3.1787  -0.3857 H              1 S1                 0.0000
     25 ****        -0.9405   0.6229  -2.0300 H              1 S1                 0.0000
     26 ****         0.5461   1.2755  -1.3837 H              1 S1                 0.0000
     27 ****        -0.2939   0.9520   0.9463 H              1 S1                 0.0000
     28 ****        -0.6256  -1.4772   0.8324 H              1 S1                 0.0000
     29 ****         1.7325  -0.5189  -0.5937 H              1 S1                 0.0000
     30 ****         1.5517  -0.5364   1.1511 H              1 S1                 0.0000
     31 ****         1.3738  -3.0108  -0.6494 H              1 S1                 0.0000
     32 ****         1.4033  -4.0697   1.3443 H              1 S1                 0.0000
     33 ****         3.4691  -3.1049  -1.8143 H              1 S1                 0.0000
     34 ****         5.9629  -3.2046  -1.6761 H              1 S1                 0.0000
     35 ****         5.9450  -2.2292   2.3395 H              1 S1                 0.0000
     36 ****         3.4503  -2.0816   2.3940 H              1 S1                 0.0000
     37 ****        -2.7796  -0.2427  -0.3511 H              1 S1                 0.0000
     38 ****        -2.4473  -0.1602   1.3611 H              1 S1                 0.0000
     39 ****        -2.4626   2.3021   1.2933 H              1 S1                 0.0000
     40 ****        -4.9720   1.1584  -0.0261 H              1 S1                 0.0000
     41 ****        -4.8848   2.5955   0.9916 H              1 S1                 0.0000
     42 ****        -4.5851   1.0176   1.6856 H              1 S1                 0.0000
     43 ****        -0.4876  -1.3859  -0.7977 H              1 S1                 0.0000
     44 ****         0.1431  -3.0992   1.2997 LP             1 S1                 0.0000
     45 ****         1.4501  -2.7340   2.2079 LP             1 S1                 0.0000
     46 ****         7.0665  -2.7715   0.3498 LP             1 S1                 0.0000
@<TRIPOS>BOND
    1    1    2 1     
    2    1   19 1     
    3    1   20 1     
    4    1   21 1     
    5    2   17 1     
    6    2    3 1     
    7    2   22 1     
    8    3    4 1     
    9    3   23 1     
   10    3   24 1     
   11    4    5 1     
   12    4   25 1     
   13    4   26 1     
   14    5    6 1     
   15    5   16 1     
   16    5   27 1     
   17    6    7 1     
   18    6   28 1     
   19    6   43 1     
   20    7    8 1     
   21    7   29 1     
   22    7   30 1     
   23    8    9 1     
   24    8   10 1     
   25    8   31 1     
   26    9   32 1     
   27   10   15 ar    
   28   10   11 ar    
   29   11   12 ar    
   30   11   33 1     
   31   12   13 ar    
   32   12   34 1     
   33   13   14 ar    
   34   14   15 ar    
   35   14   35 1     
   36   15   36 1     
   37   16   17 1     
   38   16   37 1     
   39   16   38 1     
   40   17   18 1     
   41   17   39 1     
   42   18   40 1     
   43   18   41 1     
   44   18   42 1     
   45    9   44 1     
   46    9   45 1     
   47   13   46 1     
@<TRIPOS>SUBSTRUCTURE
      1 S1             1
@<TRIPOS>SET
LONE_PAIRS      STATIC     ATOMS    <user>   **** ""
3 44 45 46
DONOR_HYDROGENS      STATIC     ATOMS    <user>   **** ""
3 28 43 32
ATOM$BLUE        STATIC     ATOMS    COLORGROUP SYSTEM
3 44 45 46
ATOM$RED        STATIC     ATOMS    COLORGROUP SYSTEM
3 28 43 32
