AV-unprocessed.smi:832|AV-procd|sdf|3876|dock3
  -GOLD-   22720 1333D 1   1.00000     0.00000
 Structure written by MMmdl.
 42 43  0  0  0  0  0  0  0  0  2 V2000
  150.8379  142.2216  156.5652 C   0  0  0  0  0  0  0  0  0  0  0  0
  150.4231  141.1349  155.6337 C   0  0  0  0  0  0  0  0  0  0  0  0
  149.2392  140.8378  155.0196 C   0  0  0  0  0  0  0  0  0  0  0  0
  149.5537  139.6669  154.2703 C   0  0  0  0  0  0  0  0  0  0  0  0
  148.6671  138.9398  153.4349 N   0  0  0  0  0  0  0  0  0  0  0  0
  147.5357  138.2996  153.7747 C   0  0  0  0  0  0  0  0  0  0  0  0
  147.0679  138.2297  154.9112 O   0  0  0  0  0  0  0  0  0  0  0  0
  146.9646  137.7242  152.7068 N   0  0  0  0  0  0  0  0  0  0  0  0
  145.7278  136.9505  152.7337 C   0  0  0  0  0  0  0  0  0  0  0  0
  145.5426  136.1043  151.4590 C   0  0  2  0  0  0  0  0  0  0  0  0
  144.1067  135.6608  151.1842 C   0  0  0  0  0  0  0  0  0  0  0  0
  144.2487  134.3926  150.3320 C   0  0  0  0  0  0  0  0  0  0  0  0
  145.6651  133.9558  150.4267 N   0  3  2  0  0  0  0  0  0  0  0  0
  145.8689  132.4840  150.5446 C   0  0  0  0  0  0  0  0  0  0  0  0
  146.0040  131.8127  149.1641 C   0  0  0  0  0  0  0  0  0  0  0  0
  144.7150  131.8254  151.3244 C   0  0  0  0  0  0  0  0  0  0  0  0
  146.2923  134.7747  151.4872 C   0  0  0  0  0  0  0  0  0  0  0  0
  150.8113  139.2923  154.4156 N   0  0  0  0  0  0  0  0  0  0  0  0
  151.3762  140.2275  155.2904 O   0  0  0  0  0  0  0  0  0  0  0  0
  150.0090  142.9009  156.7652 H   0  0  0  0  0  0  0  0  0  0  0  0
  151.6561  142.8031  156.1404 H   0  0  0  0  0  0  0  0  0  0  0  0
  151.1733  141.8077  157.5161 H   0  0  0  0  0  0  0  0  0  0  0  0
  148.3110  141.3823  155.1032 H   0  0  0  0  0  0  0  0  0  0  0  0
  148.9315  138.8986  152.4616 H   0  0  0  0  0  0  0  0  0  0  0  0
  147.4145  137.8340  151.8096 H   0  0  0  0  0  0  0  0  0  0  0  0
  145.7115  136.3109  153.6177 H   0  0  0  0  0  0  0  0  0  0  0  0
  144.8971  137.6481  152.8449 H   0  0  0  0  0  0  0  0  0  0  0  0
  145.8963  136.6700  150.5952 H   0  0  0  0  0  0  0  0  0  0  0  0
  143.6053  135.4144  152.1215 H   0  0  0  0  0  0  0  0  0  0  0  0
  143.5184  136.4337  150.6884 H   0  0  0  0  0  0  0  0  0  0  0  0
  143.5583  133.6288  150.6925 H   0  0  0  0  0  0  0  0  0  0  0  0
  144.0096  134.5899  149.2864 H   0  0  0  0  0  0  0  0  0  0  0  0
  146.7963  132.3133  151.0938 H   0  0  0  0  0  0  0  0  0  0  0  0
  146.1129  130.7325  149.2654 H   0  0  0  0  0  0  0  0  0  0  0  0
  146.8800  132.1656  148.6198 H   0  0  0  0  0  0  0  0  0  0  0  0
  145.1258  131.9985  148.5446 H   0  0  0  0  0  0  0  0  0  0  0  0
  144.8530  130.7458  151.3881 H   0  0  0  0  0  0  0  0  0  0  0  0
  143.7555  132.0064  150.8388 H   0  0  0  0  0  0  0  0  0  0  0  0
  144.6446  132.1952  152.3470 H   0  0  0  0  0  0  0  0  0  0  0  0
  147.3616  134.9061  151.3183 H   0  0  0  0  0  0  0  0  0  0  0  0
  146.1563  134.2885  152.4549 H   0  0  0  0  0  0  0  0  0  0  0  0
  146.1024  134.2459  149.5637 H   0  0  0  0  0  0  0  0  0  0  0  0
  1  2  1  0  0  0  0
  1 20  1  0  0  0  0
  1 21  1  0  0  0  0
  1 22  1  0  0  0  0
  2 19  1  0  0  0  0
  2  3  2  0  0  0  0
  3  4  1  0  0  0  0
  3 23  1  0  0  0  0
  4  5  1  0  0  0  0
  4 18  2  0  0  0  0
  5  6  1  0  0  0  0
  5 24  1  0  0  0  0
  6  7  2  0  0  0  0
  6  8  1  0  0  0  0
  8  9  1  0  0  0  0
  8 25  1  0  0  0  0
  9 10  1  0  0  0  0
  9 26  1  0  0  0  0
  9 27  1  0  0  0  0
 10 17  1  0  0  0  0
 10 11  1  0  0  0  0
 10 28  1  0  0  0  0
 11 12  1  0  0  0  0
 11 29  1  0  0  0  0
 11 30  1  0  0  0  0
 12 13  1  0  0  0  0
 12 31  1  0  0  0  0
 12 32  1  0  0  0  0
 13 14  1  0  0  0  0
 13 17  1  0  0  0  0
 13 42  1  0  0  0  0
 14 15  1  0  0  0  0
 14 16  1  0  0  0  0
 14 33  1  0  0  0  0
 15 34  1  0  0  0  0
 15 35  1  0  0  0  0
 15 36  1  0  0  0  0
 16 37  1  0  0  0  0
 16 38  1  0  0  0  0
 16 39  1  0  0  0  0
 17 40  1  0  0  0  0
 17 41  1  0  0  0  0
 18 19  1  0  0  0  0
M  CHG  1  13   1
M  END
> <s_m_source_file>
AV-unprocessed.smi

> <i_m_source_file_index>
832

> <i_lp_mmshare_version>
43012

> <i_f3d_flags>
0

> <s_epik_input>
W0NIM11jMVtjSF1jKG5vMSlbTkhdQyg9TylbTkhdW0NIMl1bQ0BASF0yW0NIMl1bQ0gyXU4oW0NIMl0yKVtDSF0oW0NIM10pW0NIM10=

> <s_epik_cmdline>
J2VwaWtfcHl0aG9uJywgJy1waCcsICc3LjAnLCAnLXRuJywgJzgnLCAnLW1hJywgJzIwMCcsICctbWV0YWxfYmluZGluZycsICctaW1hZScsICc8aW5maWxlLm1hZT4nLCAnLW9tYWUnLCAnPG91dGZpbGUubWFlPic=

> <r_lp_tautomer_probability>
1

> <r_epik_Ionization_Penalty>
0.000242791

> <r_epik_Ionization_Penalty_Charging>
0.000220876

> <r_epik_Ionization_Penalty_Neutral>
2.19143e-05

> <r_epik_State_Penalty>
-0

> <r_epik_Charging_Adjusted_Penalty>
0.000220876

> <i_epik_Tot_Q>
1

> <i_epik_Tot_abs_Q>
1

> <r_epik_Metal_State_Penalty>
-0

> <b_epik_Metal_Only>
0

> <s_lp_Force_Field>
OPLS_2005

> <r_lp_Energy>
29.381

> <b_lp_Chiralities_Consistent>
1

> <s_lp_Variant>
AV-unprocessed.smi:832-1

> <Gold.Version>
5.8.1

> <Gold.Id.Protein>
6NUR|6NUR_protein|mol2

> <Gold.PLP.Fitness>
38.1008

> <Gold.PLP.PLP>
-35.9895

> <Gold.PLP.part.hbond>
-5.7461

> <Gold.PLP.part.metal>
0.0000

> <Gold.PLP.part.buried>
-2.4512

> <Gold.PLP.part.nonpolar>
-28.7738

> <Gold.PLP.part.repulsive>
0.4294

> <Gold.PLP.ligand.clash>
0.0000

> <Gold.PLP.ligand.torsion>
1.6893

> <Gold.PLP.Chemscore.Hbond>
1.8174

> <Gold.PLP.Chemscore.CHOScore>
0.0000

> <Gold.PLP.Chemscore.Metal>
0.0000

> <Gold.Chemscore.Hbonds>
donor molecule, donor type, donor heavy atom, donor atom, acceptor molecule, acceptor atom, score
      L1  H     5    24       P1  7957  0.78
      L1  H     8    25       P1  7948  0.04
      L1  H    13    42       P1  7921  0.95

> <Gold.PLP.Chemscore.Internal.Correction>
0.0378

> <Gold.Rescore>
     Score         DG    S(hbond)    S(metal)    S(lipo)     H(rot)  DE(clash)    DE(int)     intcor
     14.31     -16.24       1.62        0.00      78.76       1.51       0.20       1.74       ----

> <Gold.Chemscore.Fitness>
14.3111

> <Gold.Chemscore.DG>
-16.2447

> <Gold.Chemscore.ZeroCoef>
-5.4800

> <Gold.Chemscore.Hbond>
1.6249

> <Gold.Chemscore.Metal>
0.0000

> <Gold.Chemscore.Lipo>
78.7606

> <Gold.Chemscore.Internal_Hbond>
0.0000

> <Gold.Chemscore.DEClash>
0.1960

> <Gold.Chemscore.DEInternal>
1.7376

> <Gold.Chemscore.Rot>
1.5146

> <Gold.Chemscore.Internal.Correction>
   9.000000E+99

> <Gold.Chemscore.Hbonds>
donor molecule, donor type, donor heavy atom, donor atom, acceptor molecule, acceptor atom, score
      L1  H     5    24       P1  7957  0.78
      L1  H     8    25       P1  7948  0.06
      L1  H    13    42       P1  7921  0.20

> <Gold.Chemscore.Hbond.Weighted>
-5.4271

> <Gold.Chemscore.Metal.Weighted>
-0.0000

> <Gold.Chemscore.Lipo.Weighted>
-9.2150

> <Gold.Chemscore.Internal_Hbond.Weighted>
0.0000

> <Gold.Chemscore.DEClash.Weighted>
0.1960

> <Gold.Chemscore.DEInternal.Weighted>
1.7376

> <Gold.Chemscore.Rot.Weighted>
3.8774

> <Gold.Chemscore.Internal.Correction.Weighted>
   9.000000E+99

> <Gold.Protein.RotatedTorsions>
[ 6907 6896 6895 6894 ] final  -54.22 input  -60.11 | X-H torsion
[ 7974 7965 7964 7962 ] final   -9.81 input  175.53 | X-H torsion
[ 8008 7997 7996 7995 ] final   72.28 input   59.86 | X-H torsion
[ 10167 10162 10161 10158 ] final   58.83 input  -65.29 | X-H torsion
[ 10718 10713 10712 10709 ] final -124.90 input   66.30 | X-H torsion
[ 10763 10752 10751 10750 ] final   75.96 input  -60.55 | X-H torsion
[ 11005 11000 10999 10996 ] final -143.04 input  -57.11 | X-H torsion

> <Gold.Protein.ActiveResidues>
 VAL166  LYS551  ARG553  GLY616  TRP617  ASP618  TYR619  PRO620  LYS621  CYS622 
 ASP623  PHE694  ASN695  SER759  ASP760  ASP761  ALA762  ILE779  LEU786  VAL792 
 PHE793  MET794  SER795  GLU796  ALA797  LYS798  CYS799  TRP800  GLU811  SER814 

> <Gold.Protein.RotatedAtoms>
  150.8358  134.7630  159.6890 H   0  0  0  0  0  0  0  0  0  0  0  0  # atno 6907 bound_to 6896
  152.4454  134.5501  159.9874 H   0  0  0  0  0  0  0  0  0  0  0  0  # atno 6908 bound_to 6896
  151.5652  133.3360  159.3014 H   0  0  0  0  0  0  0  0  0  0  0  0  # atno 6909 bound_to 6896
  146.2240  140.2671  142.8355 H   0  0  0  0  0  0  0  0  0  0  0  0  # atno 7974 bound_to 7965
  155.7664  140.3485  155.5224 H   0  0  0  0  0  0  0  0  0  0  0  0  # atno 8008 bound_to 7997
  155.8864  140.1010  157.1470 H   0  0  0  0  0  0  0  0  0  0  0  0  # atno 8009 bound_to 7997
  154.4029  140.1312  156.4248 H   0  0  0  0  0  0  0  0  0  0  0  0  # atno 8010 bound_to 7997
  140.1830  144.4163  150.6606 H   0  0  0  0  0  0  0  0  0  0  0  0  # atno 10167 bound_to 10162
  156.1628  130.6614  151.0073 H   0  0  0  0  0  0  0  0  0  0  0  0  # atno 10718 bound_to 10713
  153.0691  135.4969  154.8266 H   0  0  0  0  0  0  0  0  0  0  0  0  # atno 10763 bound_to 10752
  154.6997  135.2999  154.9362 H   0  0  0  0  0  0  0  0  0  0  0  0  # atno 10764 bound_to 10752
  154.0090  135.6757  153.4817 H   0  0  0  0  0  0  0  0  0  0  0  0  # atno 10765 bound_to 10752
  140.8165  134.2682  157.4919 H   0  0  0  0  0  0  0  0  0  0  0  0  # atno 11005 bound_to 11000
  144.9296  140.7960  143.5698 LP  0  0  0  0  0  0  0  0  0  0  0  0  # atno 17320 bound_to 7965
  145.2614  139.1991  143.4890 LP  0  0  0  0  0  0  0  0  0  0  0  0  # atno 17321 bound_to 7965
  140.6507  143.2224  151.6084 LP  0  0  0  0  0  0  0  0  0  0  0  0  # atno 17342 bound_to 10162
  139.5288  144.2978  152.1099 LP  0  0  0  0  0  0  0  0  0  0  0  0  # atno 17343 bound_to 10162
  157.6745  131.0853  150.7528 LP  0  0  0  0  0  0  0  0  0  0  0  0  # atno 17370 bound_to 10713
  156.7590  130.4792  149.5441 LP  0  0  0  0  0  0  0  0  0  0  0  0  # atno 17371 bound_to 10713
  139.8711  134.9512  156.4077 LP  0  0  0  0  0  0  0  0  0  0  0  0  # atno 17394 bound_to 11000
  140.9144  133.7689  155.9830 LP  0  0  0  0  0  0  0  0  0  0  0  0  # atno 17395 bound_to 11000

$$$$
