#       Name:                AV-unprocessed.smi:1702
#       Creating user name   scv26
#       Creation time:       Fri Mar 27 08:02:32 2020


#       File generated by GOLD software.
#

@<TRIPOS>MOLECULE
AV-unprocessed.smi:1702
    47    49     1
SMALL
NO_CHARGES


@<TRIPOS>ATOM
      1 ****        -2.3734   4.9548  -0.1323 C.3            1 S1                 0.0000
      2 ****        -1.9254   3.4868  -0.1503 C.3            1 S1                 0.0000
      3 ****        -2.0614   2.8332   1.2348 C.3            1 S1                 0.0000
      4 ****        -1.5795   1.3729   1.2135 C.3            1 S1                 0.0000
      5 ****        -0.1771   1.2761   0.7325 N.4            1 S1                 1.0000
      6 ****         0.3544  -0.1075   0.8305 C.3            1 S1                 0.0000
      7 ****         1.8972  -0.1573   0.9181 C.3            1 S1                 0.0000
      8 ****         2.3122   0.4527   2.1238 O.3            1 S1                 0.0000
      9 ****         2.4612  -1.5918   0.9109 C.3            1 S1                 0.0000
     10 ****         2.1315  -2.3144  -0.3042 N.pl3          1 S1                 0.0000
     11 ****         2.7456  -2.2091  -1.4984 C.2            1 S1                 0.0000
     12 ****         2.2790  -2.9605  -2.4914 N.2            1 S1                 0.0000
     13 ****         1.2459  -3.6390  -1.8684 C.ar           1 S1                 0.0000
     14 ****         0.3411  -4.5984  -2.3758 C.ar           1 S1                 0.0000
     15 ****        -0.6496  -5.1580  -1.5423 C.ar           1 S1                 0.0000
     16 ****        -1.5103  -6.0744  -2.0452 F              1 S1                 0.0000
     17 ****        -0.7497  -4.7672  -0.1903 C.ar           1 S1                 0.0000
     18 ****        -1.7055  -5.3064   0.6026 F              1 S1                 0.0000
     19 ****         0.1418  -3.8141   0.3381 C.ar           1 S1                 0.0000
     20 ****         1.1281  -3.2584  -0.4975 C.ar           1 S1                 0.0000
     21 ****        -0.0266   1.8687  -0.6234 C.3            1 S1                 0.0000
     22 ****        -0.4747   3.3396  -0.6387 C.3            1 S1                 0.0000
     23 ****        -1.7645   5.5476   0.5510 H              1 S1                 0.0000
     24 ****        -3.4128   5.0441   0.1852 H              1 S1                 0.0000
     25 ****        -2.2925   5.4021  -1.1234 H              1 S1                 0.0000
     26 ****        -2.5743   2.9508  -0.8447 H              1 S1                 0.0000
     27 ****        -1.4835   3.3964   1.9693 H              1 S1                 0.0000
     28 ****        -3.1001   2.8711   1.5652 H              1 S1                 0.0000
     29 ****        -1.6539   0.9600   2.2202 H              1 S1                 0.0000
     30 ****        -2.2274   0.7706   0.5745 H              1 S1                 0.0000
     31 ****        -0.0539  -0.6005   1.7142 H              1 S1                 0.0000
     32 ****        -0.0104  -0.6758  -0.0257 H              1 S1                 0.0000
     33 ****         2.3494   0.3901   0.0919 H              1 S1                 0.0000
     34 ****         2.1471   1.3817   2.0728 H              1 S1                 0.0000
     35 ****         3.5480  -1.5712   1.0071 H              1 S1                 0.0000
     36 ****         2.0857  -2.1560   1.7656 H              1 S1                 0.0000
     37 ****         3.5794  -1.5386  -1.6482 H              1 S1                 0.0000
     38 ****         0.4079  -4.9047  -3.4093 H              1 S1                 0.0000
     39 ****         0.0657  -3.5143   1.3726 H              1 S1                 0.0000
     40 ****         1.0105   1.8147  -0.9515 H              1 S1                 0.0000
     41 ****        -0.6128   1.2926  -1.3413 H              1 S1                 0.0000
     42 ****        -0.3788   3.7408  -1.6483 H              1 S1                 0.0000
     43 ****         0.1917   3.9296  -0.0076 H              1 S1                 0.0000
     44 ****         0.3731   1.8385   1.3657 H              1 S1                 0.0000
     45 ****         3.2899   0.2933   2.2606 LP             1 S1                 0.0000
     46 ****         1.8006   0.0632   2.8896 LP             1 S1                 0.0000
     47 ****         2.5923  -3.0197  -3.4393 LP             1 S1                 0.0000
@<TRIPOS>BOND
    1    1    2 1     
    2    1   23 1     
    3    1   24 1     
    4    1   25 1     
    5    2   22 1     
    6    2    3 1     
    7    2   26 1     
    8    3    4 1     
    9    3   27 1     
   10    3   28 1     
   11    4    5 1     
   12    4   29 1     
   13    4   30 1     
   14    5    6 1     
   15    5   21 1     
   16    5   44 1     
   17    6    7 1     
   18    6   31 1     
   19    6   32 1     
   20    7    8 1     
   21    7    9 1     
   22    7   33 1     
   23    8   34 1     
   24    9   10 1     
   25    9   35 1     
   26    9   36 1     
   27   10   20 1     
   28   10   11 1     
   29   11   12 2     
   30   11   37 1     
   31   12   13 1     
   32   13   20 ar    
   33   13   14 ar    
   34   14   15 ar    
   35   14   38 1     
   36   15   16 1     
   37   15   17 ar    
   38   17   18 1     
   39   17   19 ar    
   40   19   20 ar    
   41   19   39 1     
   42   21   22 1     
   43   21   40 1     
   44   21   41 1     
   45   22   42 1     
   46   22   43 1     
   47    8   45 1     
   48    8   46 1     
   49   12   47 1     
@<TRIPOS>SUBSTRUCTURE
      1 S1             1
@<TRIPOS>SET
LONE_PAIRS      STATIC     ATOMS    <user>   **** ""
3 45 46 47
DONOR_HYDROGENS      STATIC     ATOMS    <user>   **** ""
2 44 34
ATOM$BLUE        STATIC     ATOMS    COLORGROUP SYSTEM
3 45 46 47
ATOM$RED        STATIC     ATOMS    COLORGROUP SYSTEM
2 44 34
