AV-unprocessed.smi:626|AV-procd|sdf|3110|dock6
  -GOLD-   22720 0 33D 1   1.00000     0.00000
 Structure written by MMmdl.
 34 36  0  0  0  0  0  0  0  0  1 V2000
  149.4273  136.0404  156.4078 C   0  0  0  0  0  0  0  0  0  0  0  0
  149.8323  137.3817  156.0170 N   0  0  0  0  0  0  0  0  0  0  0  0
  150.8758  137.6536  155.2192 C   0  0  0  0  0  0  0  0  0  0  0  0
  151.5974  136.7843  154.7302 O   0  0  0  0  0  0  0  0  0  0  0  0
  151.1453  139.1299  154.9212 C   0  0  0  0  0  0  0  0  0  0  0  0
  151.4426  139.8788  156.1810 C   0  0  0  0  0  0  0  0  0  0  0  0
  152.4504  139.5288  156.9713 N   0  0  0  0  0  0  0  0  0  0  0  0
  152.3709  140.4511  158.0242 O   0  0  0  0  0  0  0  0  0  0  0  0
  151.3382  141.2758  157.7236 C   0  0  0  0  0  0  0  0  0  0  0  0
  150.9443  142.3142  158.7333 C   0  0  1  0  0  0  0  0  0  0  0  0
  151.9593  142.5451  159.8758 C   0  0  0  0  0  0  0  0  0  0  0  0
  152.1427  144.0751  159.8569 C   0  0  1  0  0  0  0  0  0  0  0  0
  152.9697  144.4739  158.6192 C   0  0  0  0  0  0  0  0  0  0  0  0
  151.9693  144.2823  157.4632 C   0  0  0  0  0  0  0  0  0  0  0  0
  150.7175  143.7429  158.1850 C   0  0  2  0  0  0  0  0  0  0  0  0
  150.7493  144.5611  159.4726 C   0  0  0  0  0  0  0  0  0  0  0  0
  150.6972  140.9356  156.6055 N   0  0  0  0  0  0  0  0  0  0  0  0
  148.5563  136.0904  157.0612 H   0  0  0  0  0  0  0  0  0  0  0  0
  150.2291  135.5340  156.9467 H   0  0  0  0  0  0  0  0  0  0  0  0
  149.1641  135.4441  155.5331 H   0  0  0  0  0  0  0  0  0  0  0  0
  149.2909  138.1525  156.3810 H   0  0  0  0  0  0  0  0  0  0  0  0
  151.9898  139.2191  154.2362 H   0  0  0  0  0  0  0  0  0  0  0  0
  150.2836  139.5725  154.4194 H   0  0  0  0  0  0  0  0  0  0  0  0
  150.0091  141.9759  159.1827 H   0  0  0  0  0  0  0  0  0  0  0  0
  151.5455  142.2100  160.8275 H   0  0  0  0  0  0  0  0  0  0  0  0
  152.9086  142.0276  159.7326 H   0  0  0  0  0  0  0  0  0  0  0  0
  152.5322  144.4805  160.7911 H   0  0  0  0  0  0  0  0  0  0  0  0
  153.2889  145.5150  158.6802 H   0  0  0  0  0  0  0  0  0  0  0  0
  153.8615  143.8569  158.5029 H   0  0  0  0  0  0  0  0  0  0  0  0
  151.7502  145.2415  156.9925 H   0  0  0  0  0  0  0  0  0  0  0  0
  152.3426  143.6203  156.6830 H   0  0  0  0  0  0  0  0  0  0  0  0
  149.8039  143.8431  157.5983 H   0  0  0  0  0  0  0  0  0  0  0  0
  149.9781  144.2746  160.1902 H   0  0  0  0  0  0  0  0  0  0  0  0
  150.6975  145.6384  159.3044 H   0  0  0  0  0  0  0  0  0  0  0  0
  1  2  1  0  0  0  0
  1 18  1  0  0  0  0
  1 19  1  0  0  0  0
  1 20  1  0  0  0  0
  2  3  1  0  0  0  0
  2 21  1  0  0  0  0
  3  4  2  0  0  0  0
  3  5  1  0  0  0  0
  5  6  1  0  0  0  0
  5 22  1  0  0  0  0
  5 23  1  0  0  0  0
  6 17  1  0  0  0  0
  6  7  2  0  0  0  0
  7  8  1  0  0  0  0
  8  9  1  0  0  0  0
  9 10  1  0  0  0  0
  9 17  2  0  0  0  0
 10 15  1  0  0  0  0
 10 11  1  0  0  0  0
 10 24  1  0  0  0  0
 11 12  1  0  0  0  0
 11 25  1  0  0  0  0
 11 26  1  0  0  0  0
 12 16  1  0  0  0  0
 12 13  1  0  0  0  0
 12 27  1  0  0  0  0
 13 14  1  0  0  0  0
 13 28  1  0  0  0  0
 13 29  1  0  0  0  0
 14 15  1  0  0  0  0
 14 30  1  0  0  0  0
 14 31  1  0  0  0  0
 15 16  1  0  0  0  0
 15 32  1  0  0  0  0
 16 33  1  0  0  0  0
 16 34  1  0  0  0  0
M  END
> <s_m_source_file>
AV-unprocessed.smi

> <i_m_source_file_index>
626

> <i_lp_mmshare_version>
43012

> <i_f3d_flags>
0

> <s_epik_input>
W0NIM11bTkhdQyg9TylbQ0gyXWMxbm9jKG4xKVtDQEhdKFtDSDJdW0NAQEhdMjMpW0NAQEhdKFtDSDJdMylbQ0gyXVtDSDJdMg==

> <s_epik_cmdline>
J2VwaWtfcHl0aG9uJywgJy1waCcsICc3LjAnLCAnLXRuJywgJzgnLCAnLW1hJywgJzIwMCcsICctbWV0YWxfYmluZGluZycsICctaW1hZScsICc8aW5maWxlLm1hZT4nLCAnLW9tYWUnLCAnPG91dGZpbGUubWFlPic=

> <r_lp_tautomer_probability>
1

> <r_epik_Ionization_Penalty>
1.02916e-07

> <r_epik_Ionization_Penalty_Charging>
0

> <r_epik_Ionization_Penalty_Neutral>
1.02916e-07

> <r_epik_State_Penalty>
-0

> <r_epik_Charging_Adjusted_Penalty>
0

> <i_epik_Tot_Q>
0

> <i_epik_Tot_abs_Q>
0

> <r_epik_Metal_State_Penalty>
-0

> <b_epik_Metal_Only>
0

> <s_lp_Force_Field>
OPLS_2005

> <r_lp_Energy>
49.0627

> <b_lp_Chiralities_Consistent>
1

> <s_lp_Variant>
AV-unprocessed.smi:626-2

> <Gold.Version>
5.8.1

> <Gold.Id.Protein>
6NUR|6NUR_protein|mol2

> <Gold.PLP.Fitness>
41.1874

> <Gold.PLP.PLP>
-35.7604

> <Gold.PLP.part.hbond>
-3.0000

> <Gold.PLP.part.metal>
0.0000

> <Gold.PLP.part.buried>
-2.3641

> <Gold.PLP.part.nonpolar>
-30.5520

> <Gold.PLP.part.repulsive>
0.2164

> <Gold.PLP.ligand.clash>
0.0000

> <Gold.PLP.ligand.torsion>
0.1780

> <Gold.PLP.Chemscore.Hbond>
1.9000

> <Gold.PLP.Chemscore.CHOScore>
0.0000

> <Gold.PLP.Chemscore.Metal>
0.0000

> <Gold.Chemscore.Hbonds>
donor molecule, donor type, donor heavy atom, donor atom, acceptor molecule, acceptor atom, score
      P1  H  7997  8010       L1     7  0.55
      P1  H 10752 10764       L1     4  0.98

> <Gold.PLP.Chemscore.Internal.Correction>
0.0828

> <Gold.Rescore>
     Score         DG    S(hbond)    S(metal)    S(lipo)     H(rot)  DE(clash)    DE(int)     intcor
     15.09     -15.50       1.19        0.00      86.88       1.61       0.22       0.19       ----

> <Gold.Chemscore.Fitness>
15.0913

> <Gold.Chemscore.DG>
-15.5014

> <Gold.Chemscore.ZeroCoef>
-5.4800

> <Gold.Chemscore.Hbond>
1.1927

> <Gold.Chemscore.Metal>
0.0000

> <Gold.Chemscore.Lipo>
86.8754

> <Gold.Chemscore.Internal_Hbond>
0.0000

> <Gold.Chemscore.DEClash>
0.2201

> <Gold.Chemscore.DEInternal>
0.1899

> <Gold.Chemscore.Rot>
1.6119

> <Gold.Chemscore.Internal.Correction>
   9.000000E+99

> <Gold.Chemscore.Hbonds>
donor molecule, donor type, donor heavy atom, donor atom, acceptor molecule, acceptor atom, score
      P1  H  7997  8010       L1     7  0.08
      P1  H 10752 10764       L1     4  0.93

> <Gold.Chemscore.Hbond.Weighted>
-3.9836

> <Gold.Chemscore.Metal.Weighted>
-0.0000

> <Gold.Chemscore.Lipo.Weighted>
-10.1644

> <Gold.Chemscore.Internal_Hbond.Weighted>
0.0000

> <Gold.Chemscore.DEClash.Weighted>
0.2201

> <Gold.Chemscore.DEInternal.Weighted>
0.1899

> <Gold.Chemscore.Rot.Weighted>
4.1266

> <Gold.Chemscore.Internal.Correction.Weighted>
   9.000000E+99

> <Gold.Protein.RotatedTorsions>
[ 6907 6896 6895 6894 ] final   23.01 input  -60.11 | X-H torsion
[ 7974 7965 7964 7962 ] final  -90.88 input  175.53 | X-H torsion
[ 8008 7997 7996 7995 ] final   87.20 input   59.86 | X-H torsion
[ 10167 10162 10161 10158 ] final  -19.17 input  -65.29 | X-H torsion
[ 10718 10713 10712 10709 ] final  -71.20 input   66.30 | X-H torsion
[ 10763 10752 10751 10750 ] final  -86.62 input  -60.55 | X-H torsion
[ 11005 11000 10999 10996 ] final  112.21 input  -57.11 | X-H torsion

> <Gold.Protein.ActiveResidues>
 VAL166  LYS551  ARG553  GLY616  TRP617  ASP618  TYR619  PRO620  LYS621  CYS622 
 ASP623  PHE694  ASN695  SER759  ASP760  ASP761  ALA762  ILE779  LEU786  VAL792 
 PHE793  MET794  SER795  GLU796  ALA797  LYS798  CYS799  TRP800  GLU811  SER814 

> <Gold.Protein.RotatedAtoms>
  151.9358  135.0236  160.0532 H   0  0  0  0  0  0  0  0  0  0  0  0  # atno 6907 bound_to 6896
  152.2079  133.4884  159.5102 H   0  0  0  0  0  0  0  0  0  0  0  0  # atno 6908 bound_to 6896
  150.6969  134.1423  159.4152 H   0  0  0  0  0  0  0  0  0  0  0  0  # atno 6909 bound_to 6896
  145.4206  140.9551  143.2183 H   0  0  0  0  0  0  0  0  0  0  0  0  # atno 7974 bound_to 7965
  155.9724  140.3384  155.6588 H   0  0  0  0  0  0  0  0  0  0  0  0  # atno 8008 bound_to 7997
  155.6657  140.0721  157.2556 H   0  0  0  0  0  0  0  0  0  0  0  0  # atno 8009 bound_to 7997
  154.4170  140.1700  156.1812 H   0  0  0  0  0  0  0  0  0  0  0  0  # atno 8010 bound_to 7997
  140.7266  143.4845  151.0074 H   0  0  0  0  0  0  0  0  0  0  0  0  # atno 10167 bound_to 10162
  156.0373  130.4346  150.2409 H   0  0  0  0  0  0  0  0  0  0  0  0  # atno 10718 bound_to 10713
  154.6244  135.5443  153.7611 H   0  0  0  0  0  0  0  0  0  0  0  0  # atno 10763 bound_to 10752
  153.0254  135.6420  154.1393 H   0  0  0  0  0  0  0  0  0  0  0  0  # atno 10764 bound_to 10752
  154.1325  135.2913  155.3161 H   0  0  0  0  0  0  0  0  0  0  0  0  # atno 10765 bound_to 10752
  139.8922  134.9525  156.6551 H   0  0  0  0  0  0  0  0  0  0  0  0  # atno 11005 bound_to 11000
  144.8248  139.5729  143.6970 LP  0  0  0  0  0  0  0  0  0  0  0  0  # atno 17320 bound_to 7965
  146.2658  139.6517  142.9330 LP  0  0  0  0  0  0  0  0  0  0  0  0  # atno 17321 bound_to 7965
  139.8545  143.7395  152.3176 LP  0  0  0  0  0  0  0  0  0  0  0  0  # atno 17342 bound_to 10162
  139.7588  144.7512  151.0395 LP  0  0  0  0  0  0  0  0  0  0  0  0  # atno 17343 bound_to 10162
  157.0507  131.0062  151.3254 LP  0  0  0  0  0  0  0  0  0  0  0  0  # atno 17370 bound_to 10713
  157.5142  130.7958  149.7738 LP  0  0  0  0  0  0  0  0  0  0  0  0  # atno 17371 bound_to 10713
  140.7491  133.8913  155.8333 LP  0  0  0  0  0  0  0  0  0  0  0  0  # atno 17394 bound_to 11000
  141.0015  134.1143  157.4312 LP  0  0  0  0  0  0  0  0  0  0  0  0  # atno 17395 bound_to 11000

$$$$
