#       Name:                AV-unprocessed.smi:670
#       Creating user name   scv26
#       Creation time:       Fri Mar 27 00:21:58 2020


#       File generated by GOLD software.
#

@<TRIPOS>MOLECULE
AV-unprocessed.smi:670
    53    54     1
SMALL
NO_CHARGES


@<TRIPOS>ATOM
      1 ****        -1.9859  -0.7327   3.3270 C.3            1 S1                 0.0000
      2 ****        -1.8781   0.3383   2.2303 C.3            1 S1                 0.0000
      3 ****        -0.4755   0.9810   2.1945 C.3            1 S1                 0.0000
      4 ****        -0.3819   2.0774   1.1217 C.3            1 S1                 0.0000
      5 ****        -0.7892   1.5430  -0.2587 C.3            1 S1                 0.0000
      6 ****        -2.1875   0.9077  -0.2214 C.3            1 S1                 0.0000
      7 ****        -2.2728  -0.2106   0.8405 C.3            1 S1                 0.0000
      8 ****        -1.3861  -1.2784   0.5290 O.3            1 S1                 0.0000
      9 ****        -1.8202  -2.1635  -0.4918 C.3            1 S1                 0.0000
     10 ****        -0.7212  -3.2073  -0.7425 C.3            1 S1                 0.0000
     11 ****         0.4469  -2.6129  -1.3840 N.am           1 S1                 0.0000
     12 ****         1.4532  -1.9961  -0.7448 C.2            1 S1                 0.0000
     13 ****         1.5212  -1.9079   0.4816 O.2            1 S1                 0.0000
     14 ****         2.5680  -1.4181  -1.6264 C.3            1 S1                 0.0000
     15 ****         2.6049   0.0502  -1.5911 N.am           1 S1                 0.0000
     16 ****         1.9392   0.6750  -2.7318 N.pl3          1 S1                -1.0000
     17 ****         1.8560   2.0305  -2.7905 C.2            1 S1                 0.0000
     18 ****         1.2854   2.6239  -3.7026 O.2            1 S1                 0.0000
     19 ****         2.4731   2.8004  -1.7236 C.2            1 S1                 0.0000
     20 ****         3.1107   2.1984  -0.7004 C.2            1 S1                 0.0000
     21 ****         3.2151   0.7486  -0.5907 C.2            1 S1                 0.0000
     22 ****         3.8043   0.1959   0.3378 O.2            1 S1                 0.0000
     23 ****        -1.2789  -1.5463   3.1615 H              1 S1                 0.0000
     24 ****        -2.9873  -1.1624   3.3597 H              1 S1                 0.0000
     25 ****        -1.7769  -0.3085   4.3093 H              1 S1                 0.0000
     26 ****        -2.5910   1.1239   2.4851 H              1 S1                 0.0000
     27 ****        -0.2344   1.4056   3.1694 H              1 S1                 0.0000
     28 ****         0.2788   0.2175   1.9985 H              1 S1                 0.0000
     29 ****        -1.0277   2.9126   1.3949 H              1 S1                 0.0000
     30 ****         0.6337   2.4715   1.0816 H              1 S1                 0.0000
     31 ****        -0.7634   2.3485  -0.9926 H              1 S1                 0.0000
     32 ****        -0.0633   0.8005  -0.5895 H              1 S1                 0.0000
     33 ****        -2.9237   1.6783   0.0106 H              1 S1                 0.0000
     34 ****        -2.4519   0.5362  -1.2103 H              1 S1                 0.0000
     35 ****        -3.2946  -0.5907   0.8905 H              1 S1                 0.0000
     36 ****        -2.7364  -2.6607  -0.1709 H              1 S1                 0.0000
     37 ****        -2.0442  -1.6340  -1.4174 H              1 S1                 0.0000
     38 ****        -0.4437  -3.7070   0.1871 H              1 S1                 0.0000
     39 ****        -1.1026  -3.9820  -1.4076 H              1 S1                 0.0000
     40 ****         0.4770  -2.6371  -2.3930 H              1 S1                 0.0000
     41 ****         3.5233  -1.8268  -1.2932 H              1 S1                 0.0000
     42 ****         2.4478  -1.7709  -2.6529 H              1 S1                 0.0000
     43 ****         2.4217   3.8786  -1.7537 H              1 S1                 0.0000
     44 ****         3.5569   2.8097   0.0697 H              1 S1                 0.0000
     45 ****        -1.2471  -1.8147   1.3615 LP             1 S1                 0.0000
     46 ****        -0.5156  -0.8800   0.2400 LP             1 S1                 0.0000
     47 ****         0.8037  -2.3073   1.0522 LP             1 S1                 0.0000
     48 ****         2.2940  -1.4368   0.9070 LP             1 S1                 0.0000
     49 ****         1.5494   0.1122  -3.4606 LP             1 S1                 0.0000
     50 ****         0.8569   2.1075  -4.4440 LP             1 S1                 0.0000
     51 ****         1.2496   3.6233  -3.7035 LP             1 S1                 0.0000
     52 ****         3.8486  -0.8023   0.3783 LP             1 S1                 0.0000
     53 ****         4.2388   0.7450   1.0517 LP             1 S1                 0.0000
@<TRIPOS>BOND
    1    1    2 1     
    2    1   23 1     
    3    1   24 1     
    4    1   25 1     
    5    2    7 1     
    6    2    3 1     
    7    2   26 1     
    8    3    4 1     
    9    3   27 1     
   10    3   28 1     
   11    4    5 1     
   12    4   29 1     
   13    4   30 1     
   14    5    6 1     
   15    5   31 1     
   16    5   32 1     
   17    6    7 1     
   18    6   33 1     
   19    6   34 1     
   20    7    8 1     
   21    7   35 1     
   22    8    9 1     
   23    9   10 1     
   24    9   36 1     
   25    9   37 1     
   26   10   11 1     
   27   10   38 1     
   28   10   39 1     
   29   11   12 am    
   30   11   40 1     
   31   12   13 2     
   32   12   14 1     
   33   14   41 1     
   34   14   42 1     
   35   14   15 1     
   36   15   16 1     
   37   15   21 am    
   38   16   17 1     
   39   17   18 2     
   40   17   19 1     
   41   19   43 1     
   42   19   20 2     
   43   20   44 1     
   44   20   21 1     
   45   21   22 2     
   46    8   45 1     
   47    8   46 1     
   48   13   47 1     
   49   13   48 1     
   50   16   49 1     
   51   18   50 1     
   52   18   51 1     
   53   22   52 1     
   54   22   53 1     
@<TRIPOS>SUBSTRUCTURE
      1 S1             1
@<TRIPOS>SET
LONE_PAIRS      STATIC     ATOMS    <user>   **** ""
9 45 46 47 48 49 50 51 52 53
DONOR_HYDROGENS      STATIC     ATOMS    <user>   **** ""
1 40
ATOM$BLUE        STATIC     ATOMS    COLORGROUP SYSTEM
9 45 46 47 48 49 50 51 52 53
ATOM$RED        STATIC     ATOMS    COLORGROUP SYSTEM
1 40
