#       Name:                AV-unprocessed.smi:1744
#       Creating user name   scv26
#       Creation time:       Fri Mar 27 08:24:18 2020


#       File generated by GOLD software.
#

@<TRIPOS>MOLECULE
AV-unprocessed.smi:1744
    49    50     1
SMALL
NO_CHARGES


@<TRIPOS>ATOM
      1 ****        -7.3905  -2.8919  -0.0464 C.3            1 S1                 0.0000
      2 ****        -6.8496  -2.2645   1.2439 C.3            1 S1                 0.0000
      3 ****        -5.6454  -1.4944   1.0017 N.pl3          1 S1                 0.0000
      4 ****        -4.3335  -1.8812   1.1893 C.2            1 S1                 0.0000
      5 ****        -3.5741  -0.8154   0.8110 C.2            1 S1                 0.0000
      6 ****        -2.1578  -0.7816   0.8405 N.am           1 S1                 0.0000
      7 ****        -1.3599   0.2217   0.4411 C.2            1 S1                 0.0000
      8 ****        -1.7467   1.2970  -0.0162 O.2            1 S1                 0.0000
      9 ****        -0.0663  -0.0945   0.5965 N.am           1 S1                 0.0000
     10 ****         1.0588   0.7687   0.2504 C.3            1 S1                 0.0000
     11 ****         1.3601   0.6978  -1.2586 C.3            1 S1                 0.0000
     12 ****         2.6171   1.5078  -1.6175 C.3            1 S1                 0.0000
     13 ****         3.7895   1.0546  -0.8266 N.4            1 S1                 1.0000
     14 ****         5.0520   1.7119  -1.2523 C.3            1 S1                 0.0000
     15 ****         6.2995   0.8908  -0.9086 C.2            1 S1                 0.0000
     16 ****         7.4618   1.5466  -0.8726 N.am           1 S1                 0.0000
     17 ****         6.2219  -0.3174  -0.6923 O.2            1 S1                 0.0000
     18 ****         3.5353   1.1660   0.6347 C.3            1 S1                 0.0000
     19 ****         2.3038   0.3425   1.0452 C.3            1 S1                 0.0000
     20 ****        -4.4936   0.1929   0.4052 C.2            1 S1                 0.0000
     21 ****        -5.7437  -0.2292   0.5236 N.2            1 S1                 0.0000
     22 ****        -8.2876  -3.4780   0.1540 H              1 S1                 0.0000
     23 ****        -6.6537  -3.5555  -0.5001 H              1 S1                 0.0000
     24 ****        -7.6498  -2.1272  -0.7792 H              1 S1                 0.0000
     25 ****        -7.6002  -1.6140   1.6950 H              1 S1                 0.0000
     26 ****        -6.6243  -3.0426   1.9741 H              1 S1                 0.0000
     27 ****        -4.0638  -2.8583   1.5626 H              1 S1                 0.0000
     28 ****        -1.7055  -1.6130   1.1915 H              1 S1                 0.0000
     29 ****         0.1559  -1.0007   0.9823 H              1 S1                 0.0000
     30 ****         0.8161   1.7990   0.5190 H              1 S1                 0.0000
     31 ****         1.5024  -0.3412  -1.5596 H              1 S1                 0.0000
     32 ****         0.5104   1.0707  -1.8318 H              1 S1                 0.0000
     33 ****         2.8229   1.3923  -2.6823 H              1 S1                 0.0000
     34 ****         2.4450   2.5707  -1.4405 H              1 S1                 0.0000
     35 ****         5.0521   1.8385  -2.3357 H              1 S1                 0.0000
     36 ****         5.1186   2.7115  -0.8196 H              1 S1                 0.0000
     37 ****         8.3162   1.0575  -0.6465 H              1 S1                 0.0000
     38 ****         7.4827   2.5376  -1.0678 H              1 S1                 0.0000
     39 ****         4.4014   0.8150   1.1963 H              1 S1                 0.0000
     40 ****         3.3914   2.2141   0.9020 H              1 S1                 0.0000
     41 ****         2.1229   0.4588   2.1146 H              1 S1                 0.0000
     42 ****         2.5072  -0.7167   0.8794 H              1 S1                 0.0000
     43 ****        -4.3121   1.1915   0.0368 H              1 S1                 0.0000
     44 ****         3.9064   0.0719  -1.0309 H              1 S1                 0.0000
     45 ****        -2.7258   1.4757  -0.1137 LP             1 S1                 0.0000
     46 ****        -1.0819   1.9920  -0.2902 LP             1 S1                 0.0000
     47 ****         5.3355  -0.7778  -0.7394 LP             1 S1                 0.0000
     48 ****         7.0452  -0.8393  -0.4692 LP             1 S1                 0.0000
     49 ****        -6.5792   0.2760   0.3073 LP             1 S1                 0.0000
@<TRIPOS>BOND
    1    1    2 1     
    2    1   22 1     
    3    1   23 1     
    4    1   24 1     
    5    2    3 1     
    6    2   25 1     
    7    2   26 1     
    8    3   21 1     
    9    3    4 1     
   10    4    5 2     
   11    4   27 1     
   12    5    6 1     
   13    5   20 1     
   14    6    7 am    
   15    6   28 1     
   16    7    8 2     
   17    7    9 am    
   18    9   10 1     
   19    9   29 1     
   20   10   19 1     
   21   10   11 1     
   22   10   30 1     
   23   11   12 1     
   24   11   31 1     
   25   11   32 1     
   26   12   13 1     
   27   12   33 1     
   28   12   34 1     
   29   13   14 1     
   30   13   18 1     
   31   13   44 1     
   32   14   15 1     
   33   14   35 1     
   34   14   36 1     
   35   15   16 am    
   36   15   17 2     
   37   16   37 1     
   38   16   38 1     
   39   18   19 1     
   40   18   39 1     
   41   18   40 1     
   42   19   41 1     
   43   19   42 1     
   44   20   21 2     
   45   20   43 1     
   46    8   45 1     
   47    8   46 1     
   48   17   47 1     
   49   17   48 1     
   50   21   49 1     
@<TRIPOS>SUBSTRUCTURE
      1 S1             1
@<TRIPOS>SET
LONE_PAIRS      STATIC     ATOMS    <user>   **** ""
5 45 46 47 48 49
DONOR_HYDROGENS      STATIC     ATOMS    <user>   **** ""
5 28 29 44 37 38
ATOM$BLUE        STATIC     ATOMS    COLORGROUP SYSTEM
5 45 46 47 48 49
ATOM$RED        STATIC     ATOMS    COLORGROUP SYSTEM
5 28 29 44 37 38
