AV-unprocessed.smi:1802|AV-procd|sdf|7272|dock7
  -GOLD-   22720 8533D 1   1.00000     0.00000
 Structure written by MMmdl.
 41 42  0  0  0  0  0  0  0  0  2 V2000
  146.0783  136.3501  151.0161 C   0  0  0  0  0  0  0  0  0  0  0  0
  145.2583  135.1974  151.6216 C   0  0  1  0  0  0  0  0  0  0  0  0
  145.2702  133.9300  150.7463 C   0  0  0  0  0  0  0  0  0  0  0  0
  146.6215  133.2057  150.8318 C   0  0  0  0  0  0  0  0  0  0  0  0
  147.0099  132.9299  152.2931 C   0  0  0  0  0  0  0  0  0  0  0  0
  147.0238  134.1848  153.0879 N   0  3  2  0  0  0  0  0  0  0  0  0
  147.5472  133.9808  154.4620 C   0  0  0  0  0  0  0  0  0  0  0  0
  148.8354  133.1409  154.4714 C   0  0  0  0  0  0  0  0  0  0  0  0
  150.0907  133.9986  154.7030 C   0  0  0  0  0  0  0  0  0  0  0  0
  149.9434  135.3339  154.1346 N   0  0  0  0  0  0  0  0  0  0  0  0
  150.3110  136.4699  154.7458 C   0  0  0  0  0  0  0  0  0  0  0  0
  150.8267  136.4990  155.8638 O   0  0  0  0  0  0  0  0  0  0  0  0
  150.0478  137.5447  153.9815 N   0  0  0  0  0  0  0  0  0  0  0  0
  150.2938  138.9126  154.2740 C   0  0  0  0  0  0  0  0  0  0  0  0
  151.3885  139.3512  154.9151 N   0  0  0  0  0  0  0  0  0  0  0  0
  151.3816  140.7313  155.0709 N   0  0  0  0  0  0  0  0  0  0  0  0
  150.2836  141.2786  154.5420 C   0  0  0  0  0  0  0  0  0  0  0  0
  149.1489  140.1613  153.8042 S   0  0  0  0  0  0  0  0  0  0  0  0
  145.7002  134.8645  153.0613 C   0  0  0  0  0  0  0  0  0  0  0  0
  147.1381  136.1050  150.9470 H   0  0  0  0  0  0  0  0  0  0  0  0
  145.9893  137.2520  151.6223 H   0  0  0  0  0  0  0  0  0  0  0  0
  145.7289  136.5953  150.0128 H   0  0  0  0  0  0  0  0  0  0  0  0
  144.2263  135.5478  151.6693 H   0  0  0  0  0  0  0  0  0  0  0  0
  144.4834  133.2539  151.0837 H   0  0  0  0  0  0  0  0  0  0  0  0
  145.0364  134.1766  149.7101 H   0  0  0  0  0  0  0  0  0  0  0  0
  146.5742  132.2678  150.2772 H   0  0  0  0  0  0  0  0  0  0  0  0
  147.3964  133.8043  150.3516 H   0  0  0  0  0  0  0  0  0  0  0  0
  146.3149  132.2189  152.7429 H   0  0  0  0  0  0  0  0  0  0  0  0
  147.9972  132.4666  152.3148 H   0  0  0  0  0  0  0  0  0  0  0  0
  147.7031  134.9434  154.9516 H   0  0  0  0  0  0  0  0  0  0  0  0
  146.8004  133.4516  155.0557 H   0  0  0  0  0  0  0  0  0  0  0  0
  148.7586  132.3854  155.2544 H   0  0  0  0  0  0  0  0  0  0  0  0
  148.9456  132.6001  153.5317 H   0  0  0  0  0  0  0  0  0  0  0  0
  150.2777  134.1027  155.7722 H   0  0  0  0  0  0  0  0  0  0  0  0
  150.9715  133.5119  154.2806 H   0  0  0  0  0  0  0  0  0  0  0  0
  149.5252  135.3975  153.2177 H   0  0  0  0  0  0  0  0  0  0  0  0
  149.6254  137.3644  153.0828 H   0  0  0  0  0  0  0  0  0  0  0  0
  150.1408  142.3479  154.5873 H   0  0  0  0  0  0  0  0  0  0  0  0
  145.7269  135.7806  153.6510 H   0  0  0  0  0  0  0  0  0  0  0  0
  144.9596  134.2165  153.5330 H   0  0  0  0  0  0  0  0  0  0  0  0
  147.6789  134.7988  152.6248 H   0  0  0  0  0  0  0  0  0  0  0  0
  1  2  1  0  0  0  0
  1 20  1  0  0  0  0
  1 21  1  0  0  0  0
  1 22  1  0  0  0  0
  2 19  1  0  0  0  0
  2  3  1  0  0  0  0
  2 23  1  0  0  0  0
  3  4  1  0  0  0  0
  3 24  1  0  0  0  0
  3 25  1  0  0  0  0
  4  5  1  0  0  0  0
  4 26  1  0  0  0  0
  4 27  1  0  0  0  0
  5  6  1  0  0  0  0
  5 28  1  0  0  0  0
  5 29  1  0  0  0  0
  6  7  1  0  0  0  0
  6 19  1  0  0  0  0
  6 41  1  0  0  0  0
  7  8  1  0  0  0  0
  7 30  1  0  0  0  0
  7 31  1  0  0  0  0
  8  9  1  0  0  0  0
  8 32  1  0  0  0  0
  8 33  1  0  0  0  0
  9 10  1  0  0  0  0
  9 34  1  0  0  0  0
  9 35  1  0  0  0  0
 10 11  1  0  0  0  0
 10 36  1  0  0  0  0
 11 12  2  0  0  0  0
 11 13  1  0  0  0  0
 13 14  1  0  0  0  0
 13 37  1  0  0  0  0
 14 18  1  0  0  0  0
 14 15  2  0  0  0  0
 15 16  1  0  0  0  0
 16 17  2  0  0  0  0
 17 18  1  0  0  0  0
 17 38  1  0  0  0  0
 19 39  1  0  0  0  0
 19 40  1  0  0  0  0
M  CHG  1   6   1
M  END
> <s_m_source_file>
AV-unprocessed.smi

> <i_m_source_file_index>
1802

> <i_lp_mmshare_version>
43012

> <i_f3d_flags>
0

> <s_epik_input>
W0NIM11bQ0BASF0xW0NIMl1bQ0gyXVtDSDJdTihbQ0gyXTEpW0NIMl1bQ0gyXVtDSDJdW05IXUMoPU8pW05IXWMybm5bY0hdczI=

> <s_epik_cmdline>
J2VwaWtfcHl0aG9uJywgJy1waCcsICc3LjAnLCAnLXRuJywgJzgnLCAnLW1hJywgJzIwMCcsICctbWV0YWxfYmluZGluZycsICctaW1hZScsICc8aW5maWxlLm1hZT4nLCAnLW9tYWUnLCAnPG91dGZpbGUubWFlPic=

> <r_lp_tautomer_probability>
1

> <r_epik_Ionization_Penalty>
0.00272894

> <r_epik_Ionization_Penalty_Charging>
0.000288442

> <r_epik_Ionization_Penalty_Neutral>
0.0024405

> <r_epik_State_Penalty>
-0

> <r_epik_Charging_Adjusted_Penalty>
0.000288442

> <i_epik_Tot_Q>
1

> <i_epik_Tot_abs_Q>
1

> <r_epik_Metal_State_Penalty>
0.350525

> <b_epik_Metal_Only>
0

> <s_lp_Force_Field>
OPLS_2005

> <r_lp_Energy>
17.5372

> <b_lp_Chiralities_Consistent>
1

> <s_lp_Variant>
AV-unprocessed.smi:1802-2

> <Gold.Version>
5.8.1

> <Gold.Id.Protein>
6NUR|6NUR_protein|mol2

> <Gold.PLP.Fitness>
43.1745

> <Gold.PLP.PLP>
-30.2651

> <Gold.PLP.part.hbond>
-5.2517

> <Gold.PLP.part.metal>
0.0000

> <Gold.PLP.part.buried>
-0.2283

> <Gold.PLP.part.nonpolar>
-25.0072

> <Gold.PLP.part.repulsive>
0.2232

> <Gold.PLP.ligand.clash>
0.0000

> <Gold.PLP.ligand.torsion>
0.9320

> <Gold.PLP.Chemscore.Hbond>
3.9120

> <Gold.PLP.Chemscore.CHOScore>
1.0000

> <Gold.PLP.Chemscore.Metal>
0.0000

> <Gold.Chemscore.Hbonds>
donor molecule, donor type, donor heavy atom, donor atom, acceptor molecule, acceptor atom, score
      L1  H     6    41       P1  7948  2.00
      L1  H    10    36       P1  7948  0.55
      L1  H    13    37       P1  7948  1.00
      L1  C    17    38       P1  8028  0.13

> <Gold.PLP.Chemscore.Internal.Correction>
0.0375

> <Gold.Rescore>
     Score         DG    S(hbond)    S(metal)    S(lipo)     H(rot)  DE(clash)    DE(int)     intcor
     13.26     -14.83       2.31        0.00      57.28       1.98       0.56       1.01       ----

> <Gold.Chemscore.Fitness>
13.2614

> <Gold.Chemscore.DG>
-14.8323

> <Gold.Chemscore.ZeroCoef>
-5.4800

> <Gold.Chemscore.Hbond>
2.3105

> <Gold.Chemscore.Metal>
0.0000

> <Gold.Chemscore.Lipo>
57.2833

> <Gold.Chemscore.Internal_Hbond>
0.0000

> <Gold.Chemscore.DEClash>
0.5572

> <Gold.Chemscore.DEInternal>
1.0137

> <Gold.Chemscore.Rot>
1.9793

> <Gold.Chemscore.Internal.Correction>
   9.000000E+99

> <Gold.Chemscore.Hbonds>
donor molecule, donor type, donor heavy atom, donor atom, acceptor molecule, acceptor atom, score
      L1  H     6    41       P1  7948  0.87
      L1  H    10    36       P1  7948  0.03
      L1  H    13    37       P1  7948  0.67

> <Gold.Chemscore.Hbond.Weighted>
-7.7172

> <Gold.Chemscore.Metal.Weighted>
-0.0000

> <Gold.Chemscore.Lipo.Weighted>
-6.7021

> <Gold.Chemscore.Internal_Hbond.Weighted>
0.0000

> <Gold.Chemscore.DEClash.Weighted>
0.5572

> <Gold.Chemscore.DEInternal.Weighted>
1.0137

> <Gold.Chemscore.Rot.Weighted>
5.0670

> <Gold.Chemscore.Internal.Correction.Weighted>
   9.000000E+99

> <Gold.Protein.RotatedTorsions>
[ 6907 6896 6895 6894 ] final   91.26 input  -60.11 | X-H torsion
[ 7974 7965 7964 7962 ] final -169.83 input  175.53 | X-H torsion
[ 8008 7997 7996 7995 ] final   61.87 input   59.86 | X-H torsion
[ 10167 10162 10161 10158 ] final  -96.12 input  -65.29 | X-H torsion
[ 10718 10713 10712 10709 ] final   86.54 input   66.30 | X-H torsion
[ 10763 10752 10751 10750 ] final -168.58 input  -60.55 | X-H torsion
[ 11005 11000 10999 10996 ] final  163.41 input  -57.11 | X-H torsion

> <Gold.Protein.ActiveResidues>
 VAL166  LYS551  ARG553  GLY616  TRP617  ASP618  TYR619  PRO620  LYS621  CYS622 
 ASP623  PHE694  ASN695  SER759  ASP760  ASP761  ALA762  ILE779  LEU786  VAL792 
 PHE793  MET794  SER795  GLU796  ALA797  LYS798  CYS799  TRP800  GLU811  SER814 

> <Gold.Protein.RotatedAtoms>
  152.5449  134.1684  159.8586 H   0  0  0  0  0  0  0  0  0  0  0  0  # atno 6907 bound_to 6896
  151.1696  133.4786  159.2601 H   0  0  0  0  0  0  0  0  0  0  0  0  # atno 6908 bound_to 6896
  151.1288  135.0130  159.8628 H   0  0  0  0  0  0  0  0  0  0  0  0  # atno 6909 bound_to 6896
  144.7179  140.2162  143.6321 H   0  0  0  0  0  0  0  0  0  0  0  0  # atno 7974 bound_to 7965
  155.6053  140.3494  155.4606 H   0  0  0  0  0  0  0  0  0  0  0  0  # atno 8008 bound_to 7997
  156.0197  140.1251  157.0395 H   0  0  0  0  0  0  0  0  0  0  0  0  # atno 8009 bound_to 7997
  154.4310  140.1065  156.5932 H   0  0  0  0  0  0  0  0  0  0  0  0  # atno 8010 bound_to 7997
  140.2971  143.3185  152.0286 H   0  0  0  0  0  0  0  0  0  0  0  0  # atno 10167 bound_to 10162
  157.6930  131.0219  150.2988 H   0  0  0  0  0  0  0  0  0  0  0  0  # atno 10718 bound_to 10713
  154.6613  135.2925  154.9862 H   0  0  0  0  0  0  0  0  0  0  0  0  # atno 10763 bound_to 10752
  154.0921  135.6589  153.4858 H   0  0  0  0  0  0  0  0  0  0  0  0  # atno 10764 bound_to 10752
  153.0431  135.5222  154.7566 H   0  0  0  0  0  0  0  0  0  0  0  0  # atno 10765 bound_to 10752
  140.2355  134.8091  157.3359 H   0  0  0  0  0  0  0  0  0  0  0  0  # atno 11005 bound_to 11000
  145.8544  139.2191  143.1753 LP  0  0  0  0  0  0  0  0  0  0  0  0  # atno 17320 bound_to 7965
  146.0231  140.8329  142.9913 LP  0  0  0  0  0  0  0  0  0  0  0  0  # atno 17321 bound_to 7965
  139.4924  144.6483  151.6731 LP  0  0  0  0  0  0  0  0  0  0  0  0  # atno 17342 bound_to 10162
  140.5683  144.0153  150.6203 LP  0  0  0  0  0  0  0  0  0  0  0  0  # atno 17343 bound_to 10162
  156.3507  130.3830  149.7331 LP  0  0  0  0  0  0  0  0  0  0  0  0  # atno 17370 bound_to 10713
  156.4810  130.8041  151.3055 LP  0  0  0  0  0  0  0  0  0  0  0  0  # atno 17371 bound_to 10713
  140.1707  134.4613  155.7834 LP  0  0  0  0  0  0  0  0  0  0  0  0  # atno 17394 bound_to 11000
  141.2214  133.6940  156.7702 LP  0  0  0  0  0  0  0  0  0  0  0  0  # atno 17395 bound_to 11000

$$$$
