AV-unprocessed.smi:2057|AV-procd|sdf|8342|dock2
  -GOLD-   2272011 13D 1   1.00000     0.00000
 Structure written by MMmdl.
 45 47  0  0  0  0  0  0  0  0  2 V2000
  150.0654  136.9262  156.2323 C   0  0  0  0  0  0  0  0  0  0  0  0
  150.0695  135.7716  157.0593 O   0  0  0  0  0  0  0  0  0  0  0  0
  149.3009  134.6937  156.6751 C   0  0  0  0  0  0  0  0  0  0  0  0
  149.3218  133.5621  157.5109 C   0  0  0  0  0  0  0  0  0  0  0  0
  148.5588  132.4219  157.2013 C   0  0  0  0  0  0  0  0  0  0  0  0
  147.7555  132.3849  156.0348 C   0  0  0  0  0  0  0  0  0  0  0  0
  146.9708  131.3031  155.6880 O   0  0  0  0  0  0  0  0  0  0  0  0
  147.0684  130.1189  156.4655 C   0  0  0  0  0  0  0  0  0  0  0  0
  147.7428  133.5131  155.1785 C   0  0  0  0  0  0  0  0  0  0  0  0
  146.8842  133.5029  153.9172 C   0  0  2  0  0  0  0  0  0  0  0  0
  147.6461  133.3925  152.7294 O   0  0  0  0  0  0  0  0  0  0  0  0
  145.9841  134.7523  153.8539 C   0  0  0  0  0  0  0  0  0  0  0  0
  145.4850  135.0283  152.4984 N   0  0  0  0  0  0  0  0  0  0  0  0
  145.5114  136.1867  151.7797 C   0  0  0  0  0  0  0  0  0  0  0  0
  146.0815  137.4952  152.2284 C   0  0  0  0  0  0  0  0  0  0  0  0
  147.1488  137.9464  151.4209 O   0  0  0  0  0  0  0  0  0  0  0  0
  144.9265  135.9253  150.5756 N   0  3  0  0  0  0  0  0  0  0  0  0
  144.5206  134.5913  150.5253 C   0  0  0  0  0  0  0  0  0  0  0  0
  143.8853  133.8695  149.5197 C   0  0  0  0  0  0  0  0  0  0  0  0
  143.6064  132.5142  149.7930 C   0  0  0  0  0  0  0  0  0  0  0  0
  143.9558  131.9271  151.0264 C   0  0  0  0  0  0  0  0  0  0  0  0
  144.6007  132.6689  152.0378 C   0  0  0  0  0  0  0  0  0  0  0  0
  144.8749  134.0079  151.7591 C   0  0  0  0  0  0  0  0  0  0  0  0
  148.5020  134.6596  155.5071 C   0  0  0  0  0  0  0  0  0  0  0  0
  150.7152  137.6843  156.6695 H   0  0  0  0  0  0  0  0  0  0  0  0
  149.0658  137.3554  156.1525 H   0  0  0  0  0  0  0  0  0  0  0  0
  150.4446  136.7041  155.2338 H   0  0  0  0  0  0  0  0  0  0  0  0
  149.9265  133.5696  158.4059 H   0  0  0  0  0  0  0  0  0  0  0  0
  148.6062  131.5863  157.8826 H   0  0  0  0  0  0  0  0  0  0  0  0
  146.3750  129.3748  156.0740 H   0  0  0  0  0  0  0  0  0  0  0  0
  146.8009  130.3019  157.5071 H   0  0  0  0  0  0  0  0  0  0  0  0
  148.0714  129.6925  156.4180 H   0  0  0  0  0  0  0  0  0  0  0  0
  146.2535  132.6140  153.9360 H   0  0  0  0  0  0  0  0  0  0  0  0
  147.7609  134.2581  152.3677 H   0  0  0  0  0  0  0  0  0  0  0  0
  145.1095  134.6103  154.4900 H   0  0  0  0  0  0  0  0  0  0  0  0
  146.4972  135.6328  154.2411 H   0  0  0  0  0  0  0  0  0  0  0  0
  145.2953  138.2507  152.2255 H   0  0  0  0  0  0  0  0  0  0  0  0
  146.4321  137.3968  153.2561 H   0  0  0  0  0  0  0  0  0  0  0  0
  147.9069  137.4104  151.5994 H   0  0  0  0  0  0  0  0  0  0  0  0
  143.6150  134.3178  148.5748 H   0  0  0  0  0  0  0  0  0  0  0  0
  143.1131  131.9135  149.0425 H   0  0  0  0  0  0  0  0  0  0  0  0
  143.7234  130.8867  151.2017 H   0  0  0  0  0  0  0  0  0  0  0  0
  144.8576  132.2104  152.9811 H   0  0  0  0  0  0  0  0  0  0  0  0
  148.4570  135.5138  154.8493 H   0  0  0  0  0  0  0  0  0  0  0  0
  144.8147  136.6169  149.8454 H   0  0  0  0  0  0  0  0  0  0  0  0
  1  2  1  0  0  0  0
  1 25  1  0  0  0  0
  1 26  1  0  0  0  0
  1 27  1  0  0  0  0
  2  3  1  0  0  0  0
  3 24  1  0  0  0  0
  3  4  2  0  0  0  0
  4  5  1  0  0  0  0
  4 28  1  0  0  0  0
  5  6  2  0  0  0  0
  5 29  1  0  0  0  0
  6  7  1  0  0  0  0
  6  9  1  0  0  0  0
  7  8  1  0  0  0  0
  8 30  1  0  0  0  0
  8 31  1  0  0  0  0
  8 32  1  0  0  0  0
  9 10  1  0  0  0  0
  9 24  2  0  0  0  0
 10 11  1  0  0  0  0
 10 12  1  0  0  0  0
 10 33  1  0  0  0  0
 11 34  1  0  0  0  0
 12 13  1  0  0  0  0
 12 35  1  0  0  0  0
 12 36  1  0  0  0  0
 13 23  1  0  0  0  0
 13 14  1  0  0  0  0
 14 15  1  0  0  0  0
 14 17  2  0  0  0  0
 15 16  1  0  0  0  0
 15 37  1  0  0  0  0
 15 38  1  0  0  0  0
 16 39  1  0  0  0  0
 17 18  1  0  0  0  0
 17 45  1  0  0  0  0
 18 23  2  0  0  0  0
 18 19  1  0  0  0  0
 19 20  2  0  0  0  0
 19 40  1  0  0  0  0
 20 21  1  0  0  0  0
 20 41  1  0  0  0  0
 21 22  2  0  0  0  0
 21 42  1  0  0  0  0
 22 23  1  0  0  0  0
 22 43  1  0  0  0  0
 24 44  1  0  0  0  0
M  CHG  1  17   1
M  END
> <s_m_source_file>
AV-unprocessed.smi

> <i_m_source_file_index>
2057

> <i_lp_mmshare_version>
43012

> <i_f3d_flags>
0

> <s_epik_input>
W0NIM11PYzFbY0hdW2NIXWMoT1tDSDNdKWMoW2NIXTEpW0NASF0oW09IXSlbQ0gyXW4oYyhuMilbQ0gyXVtPSF0pYyhjMjMpW2NIXVtjSF1bY0hdW2NIXTM=

> <s_epik_cmdline>
J2VwaWtfcHl0aG9uJywgJy1waCcsICc3LjAnLCAnLXRuJywgJzgnLCAnLW1hJywgJzIwMCcsICctbWV0YWxfYmluZGluZycsICctaW1hZScsICc8aW5maWxlLm1hZT4nLCAnLW9tYWUnLCAnPG91dGZpbGUubWFlPic=

> <r_lp_tautomer_probability>
1

> <r_epik_Ionization_Penalty>
1.35643

> <r_epik_Ionization_Penalty_Charging>
1.35557

> <r_epik_Ionization_Penalty_Neutral>
0.000857128

> <r_epik_State_Penalty>
1.43401

> <r_epik_Charging_Adjusted_Penalty>
2.78958

> <i_epik_Tot_Q>
1

> <i_epik_Tot_abs_Q>
1

> <r_epik_Metal_State_Penalty>
5.47166

> <b_epik_Metal_Only>
0

> <s_lp_Force_Field>
OPLS_2005

> <r_lp_Energy>
20.8096

> <b_lp_Chiralities_Consistent>
1

> <s_lp_Variant>
AV-unprocessed.smi:2057-3

> <Gold.Version>
5.8.1

> <Gold.Id.Protein>
6NUR|6NUR_protein|mol2

> <Gold.PLP.Fitness>
47.5746

> <Gold.PLP.PLP>
-38.9942

> <Gold.PLP.part.hbond>
-5.8200

> <Gold.PLP.part.metal>
0.0000

> <Gold.PLP.part.buried>
5.6140

> <Gold.PLP.part.nonpolar>
-38.0721

> <Gold.PLP.part.repulsive>
0.1627

> <Gold.PLP.ligand.clash>
0.0000

> <Gold.PLP.ligand.torsion>
0.5691

> <Gold.PLP.Chemscore.Hbond>
3.2084

> <Gold.PLP.Chemscore.CHOScore>
0.0000

> <Gold.PLP.Chemscore.Metal>
0.0000

> <Gold.Chemscore.Hbonds>
donor molecule, donor type, donor heavy atom, donor atom, acceptor molecule, acceptor atom, score
      L1  H    11    34       P1  7948  0.29
      L1  H    16    39       P1  7948  1.00
      L1  H    17    45       P1 10171  0.45

> <Gold.PLP.Chemscore.Internal.Correction>
0.0936

> <Gold.Rescore>
     Score         DG    S(hbond)    S(metal)    S(lipo)     H(rot)  DE(clash)    DE(int)     intcor
     10.76     -16.07       2.02        0.00     104.08       3.25       4.11       1.21       ----

> <Gold.Chemscore.Fitness>
10.7559

> <Gold.Chemscore.DG>
-16.0710

> <Gold.Chemscore.ZeroCoef>
-5.4800

> <Gold.Chemscore.Hbond>
2.0189

> <Gold.Chemscore.Metal>
0.0000

> <Gold.Chemscore.Lipo>
104.0805

> <Gold.Chemscore.Internal_Hbond>
0.0000

> <Gold.Chemscore.DEClash>
4.1054

> <Gold.Chemscore.DEInternal>
1.2097

> <Gold.Chemscore.Rot>
3.2537

> <Gold.Chemscore.Internal.Correction>
   9.000000E+99

> <Gold.Chemscore.Hbonds>
donor molecule, donor type, donor heavy atom, donor atom, acceptor molecule, acceptor atom, score
      L1  H    11    34       P1  7948  0.11
      L1  H    16    39       P1  7948  0.96
      L1  H    17    45       P1 10171  0.45

> <Gold.Chemscore.Hbond.Weighted>
-6.7430

> <Gold.Chemscore.Metal.Weighted>
-0.0000

> <Gold.Chemscore.Lipo.Weighted>
-12.1774

> <Gold.Chemscore.Internal_Hbond.Weighted>
0.0000

> <Gold.Chemscore.DEClash.Weighted>
4.1054

> <Gold.Chemscore.DEInternal.Weighted>
1.2097

> <Gold.Chemscore.Rot.Weighted>
8.3295

> <Gold.Chemscore.Internal.Correction.Weighted>
   9.000000E+99

> <Gold.Protein.RotatedTorsions>
[ 6907 6896 6895 6894 ] final -106.49 input  -60.11 | X-H torsion
[ 7974 7965 7964 7962 ] final  -49.72 input  175.53 | X-H torsion
[ 8008 7997 7996 7995 ] final -136.16 input   59.86 | X-H torsion
[ 10167 10162 10161 10158 ] final -154.53 input  -65.29 | X-H torsion
[ 10718 10713 10712 10709 ] final   81.66 input   66.30 | X-H torsion
[ 10763 10752 10751 10750 ] final   93.14 input  -60.55 | X-H torsion
[ 11005 11000 10999 10996 ] final -135.60 input  -57.11 | X-H torsion

> <Gold.Protein.ActiveResidues>
 VAL166  LYS551  ARG553  GLY616  TRP617  ASP618  TYR619  PRO620  LYS621  CYS622 
 ASP623  PHE694  ASN695  SER759  ASP760  ASP761  ALA762  ILE779  LEU786  VAL792 
 PHE793  MET794  SER795  GLU796  ALA797  LYS798  CYS799  TRP800  GLU811  SER814 

> <Gold.Protein.RotatedAtoms>
  150.7392  133.9969  159.3625 H   0  0  0  0  0  0  0  0  0  0  0  0  # atno 6907 bound_to 6896
  151.7920  135.0731  160.0398 H   0  0  0  0  0  0  0  0  0  0  0  0  # atno 6908 bound_to 6896
  152.3201  133.5808  159.5775 H   0  0  0  0  0  0  0  0  0  0  0  0  # atno 6909 bound_to 6896
  145.9375  140.7693  142.9569 H   0  0  0  0  0  0  0  0  0  0  0  0  # atno 7974 bound_to 7965
  155.3906  140.0499  157.3041 H   0  0  0  0  0  0  0  0  0  0  0  0  # atno 8008 bound_to 7997
  154.5038  140.2166  155.9253 H   0  0  0  0  0  0  0  0  0  0  0  0  # atno 8009 bound_to 7997
  156.1500  140.3137  155.8638 H   0  0  0  0  0  0  0  0  0  0  0  0  # atno 8010 bound_to 7997
  139.7006  143.9270  152.2427 H   0  0  0  0  0  0  0  0  0  0  0  0  # atno 10167 bound_to 10162
  157.6838  131.0013  150.2259 H   0  0  0  0  0  0  0  0  0  0  0  0  # atno 10718 bound_to 10713
  153.2270  135.4336  155.0553 H   0  0  0  0  0  0  0  0  0  0  0  0  # atno 10763 bound_to 10752
  154.8278  135.3370  154.6843 H   0  0  0  0  0  0  0  0  0  0  0  0  # atno 10764 bound_to 10752
  153.7272  135.7013  153.5054 H   0  0  0  0  0  0  0  0  0  0  0  0  # atno 10765 bound_to 10752
  140.8883  134.1844  157.4545 H   0  0  0  0  0  0  0  0  0  0  0  0  # atno 11005 bound_to 11000
  144.6774  140.2226  143.7364 LP  0  0  0  0  0  0  0  0  0  0  0  0  # atno 17320 bound_to 7965
  145.8344  139.2101  143.1864 LP  0  0  0  0  0  0  0  0  0  0  0  0  # atno 17321 bound_to 7965
  139.9111  144.6856  150.8561 LP  0  0  0  0  0  0  0  0  0  0  0  0  # atno 17342 bound_to 10162
  140.7708  143.3442  151.2144 LP  0  0  0  0  0  0  0  0  0  0  0  0  # atno 17343 bound_to 10162
  156.2901  130.3744  149.7850 LP  0  0  0  0  0  0  0  0  0  0  0  0  # atno 17370 bound_to 10713
  156.5512  130.8342  151.3300 LP  0  0  0  0  0  0  0  0  0  0  0  0  # atno 17371 bound_to 10713
  139.8727  134.9847  156.5251 LP  0  0  0  0  0  0  0  0  0  0  0  0  # atno 17394 bound_to 11000
  140.8378  133.8228  155.9046 LP  0  0  0  0  0  0  0  0  0  0  0  0  # atno 17395 bound_to 11000

$$$$
