AV-unprocessed.smi:1439|AV-procd|sdf|5871|dock5
  -GOLD-   22720 5543D 1   1.00000     0.00000
 Structure written by MMmdl.
 35 36  0  0  0  0  0  0  0  0  2 V2000
  147.7966  137.2679  153.7765 N   0  0  0  0  0  0  0  0  0  0  0  0
  147.8128  137.2411  155.1131 C   0  0  0  0  0  0  0  0  0  0  0  0
  146.8720  137.6613  155.7834 O   0  0  0  0  0  0  0  0  0  0  0  0
  149.0405  136.6333  155.8025 C   0  0  0  0  0  0  0  0  0  0  0  0
  150.2677  137.4772  155.5997 C   0  0  0  0  0  0  0  0  0  0  0  0
  150.8460  137.8122  154.4021 C   0  0  0  0  0  0  0  0  0  0  0  0
  152.2536  138.8111  154.6231 S   0  0  0  0  0  0  0  0  0  0  0  0
  152.0126  138.7445  156.3701 C   0  0  0  0  0  0  0  0  0  0  0  0
  152.7979  139.3449  157.2778 N   0  5  0  0  0  0  0  0  0  0  0  0
  152.3897  139.4215  158.5668 C   0  0  0  0  0  0  0  0  0  0  0  0
  152.7070  138.7034  159.5177 O   0  0  0  0  0  0  0  0  0  0  0  0
  151.4068  140.5836  158.7671 C   0  0  0  0  0  0  0  0  0  0  0  0
  151.7974  141.8651  158.0062 C   0  0  0  0  0  0  0  0  0  0  0  0
  151.2718  143.1380  158.6854 C   0  0  2  0  0  0  0  0  0  0  0  0
  151.8664  144.4286  158.1295 C   0  0  0  0  0  0  0  0  0  0  0  0
  151.6678  145.4156  159.2674 C   0  0  0  0  0  0  0  0  0  0  0  0
  151.4803  144.5272  160.5019 C   0  0  0  0  0  0  0  0  0  0  0  0
  151.6666  143.1930  160.0469 O   0  0  0  0  0  0  0  0  0  0  0  0
  150.9501  138.0025  156.7012 N   0  0  0  0  0  0  0  0  0  0  0  0
  147.0154  137.6864  153.2929 H   0  0  0  0  0  0  0  0  0  0  0  0
  148.5774  136.8948  153.2563 H   0  0  0  0  0  0  0  0  0  0  0  0
  148.8334  136.5173  156.8673 H   0  0  0  0  0  0  0  0  0  0  0  0
  149.1958  135.6280  155.4095 H   0  0  0  0  0  0  0  0  0  0  0  0
  150.5301  137.5362  153.4075 H   0  0  0  0  0  0  0  0  0  0  0  0
  150.4147  140.2611  158.4471 H   0  0  0  0  0  0  0  0  0  0  0  0
  151.3365  140.8020  159.8339 H   0  0  0  0  0  0  0  0  0  0  0  0
  152.8826  141.9256  157.9104 H   0  0  0  0  0  0  0  0  0  0  0  0
  151.3977  141.8183  156.9920 H   0  0  0  0  0  0  0  0  0  0  0  0
  150.1824  143.1789  158.6274 H   0  0  0  0  0  0  0  0  0  0  0  0
  152.9329  144.3002  157.9385 H   0  0  0  0  0  0  0  0  0  0  0  0
  151.3929  144.7478  157.2007 H   0  0  0  0  0  0  0  0  0  0  0  0
  152.5220  146.0860  159.3676 H   0  0  0  0  0  0  0  0  0  0  0  0
  150.7789  146.0255  159.1032 H   0  0  0  0  0  0  0  0  0  0  0  0
  152.1879  144.7638  161.2970 H   0  0  0  0  0  0  0  0  0  0  0  0
  150.4712  144.6348  160.9021 H   0  0  0  0  0  0  0  0  0  0  0  0
  1  2  1  0  0  0  0
  1 20  1  0  0  0  0
  1 21  1  0  0  0  0
  2  3  2  0  0  0  0
  2  4  1  0  0  0  0
  4  5  1  0  0  0  0
  4 22  1  0  0  0  0
  4 23  1  0  0  0  0
  5 19  1  0  0  0  0
  5  6  2  0  0  0  0
  6  7  1  0  0  0  0
  6 24  1  0  0  0  0
  7  8  1  0  0  0  0
  8  9  1  0  0  0  0
  8 19  2  0  0  0  0
  9 10  1  0  0  0  0
 10 11  2  0  0  0  0
 10 12  1  0  0  0  0
 12 13  1  0  0  0  0
 12 25  1  0  0  0  0
 12 26  1  0  0  0  0
 13 14  1  0  0  0  0
 13 27  1  0  0  0  0
 13 28  1  0  0  0  0
 14 18  1  0  0  0  0
 14 15  1  0  0  0  0
 14 29  1  0  0  0  0
 15 16  1  0  0  0  0
 15 30  1  0  0  0  0
 15 31  1  0  0  0  0
 16 17  1  0  0  0  0
 16 32  1  0  0  0  0
 16 33  1  0  0  0  0
 17 18  1  0  0  0  0
 17 34  1  0  0  0  0
 17 35  1  0  0  0  0
M  CHG  1   9  -1
M  END
> <s_m_source_file>
AV-unprocessed.smi

> <i_m_source_file_index>
1439

> <i_lp_mmshare_version>
43012

> <i_f3d_flags>
0

> <s_epik_input>
W05IMl1DKD1PKVtDSDJdYzFbY0hdc2MobjEpW05IXUMoPU8pW0NIMl1bQ0gyXVtDQEBIXTJbQ0gyXVtDSDJdW0NIMl1PMg==

> <s_epik_cmdline>
J2VwaWtfcHl0aG9uJywgJy1waCcsICc3LjAnLCAnLXRuJywgJzgnLCAnLW1hJywgJzIwMCcsICctbWV0YWxfYmluZGluZycsICctaW1hZScsICc8aW5maWxlLm1hZT4nLCAnLW9tYWUnLCAnPG91dGZpbGUubWFlPic=

> <r_lp_tautomer_probability>
1

> <r_epik_Ionization_Penalty>
4.85214

> <r_epik_Ionization_Penalty_Charging>
4.5239

> <r_epik_Ionization_Penalty_Neutral>
0.32824

> <r_epik_State_Penalty>
4.52362

> <r_epik_Charging_Adjusted_Penalty>
9.04752

> <i_epik_Tot_Q>
-1

> <i_epik_Tot_abs_Q>
1

> <r_epik_Metal_State_Penalty>
0.831335

> <b_epik_Metal_Only>
1

> <s_lp_Force_Field>
OPLS_2005

> <r_lp_Energy>
14.205

> <b_lp_Chiralities_Consistent>
1

> <s_lp_Variant>
AV-unprocessed.smi:1439-3

> <Gold.Version>
5.8.1

> <Gold.Id.Protein>
6NUR|6NUR_protein|mol2

> <Gold.PLP.Fitness>
43.0125

> <Gold.PLP.PLP>
-33.1632

> <Gold.PLP.part.hbond>
-1.9767

> <Gold.PLP.part.metal>
0.0000

> <Gold.PLP.part.buried>
-5.9864

> <Gold.PLP.part.nonpolar>
-25.9567

> <Gold.PLP.part.repulsive>
0.0325

> <Gold.PLP.ligand.clash>
0.0000

> <Gold.PLP.ligand.torsion>
1.2857

> <Gold.PLP.Chemscore.Hbond>
2.8960

> <Gold.PLP.Chemscore.CHOScore>
1.1879

> <Gold.PLP.Chemscore.Metal>
0.0000

> <Gold.Chemscore.Hbonds>
donor molecule, donor type, donor heavy atom, donor atom, acceptor molecule, acceptor atom, score
      L1  H     1    21       P1  7948  0.86
      P1  H  7997  8010       L1     9  2.00
      L1  C     6    24       P1  7948  0.64
      L1  C     6    24       P1  7949  0.54

> <Gold.PLP.Chemscore.Internal.Correction>
0.1689

> <Gold.Rescore>
     Score         DG    S(hbond)    S(metal)    S(lipo)     H(rot)  DE(clash)    DE(int)     intcor
     14.32     -15.65       1.91        0.00      87.28       2.51       0.00       1.34       ----

> <Gold.Chemscore.Fitness>
14.3187

> <Gold.Chemscore.DG>
-15.6549

> <Gold.Chemscore.ZeroCoef>
-5.4800

> <Gold.Chemscore.Hbond>
1.9130

> <Gold.Chemscore.Metal>
0.0000

> <Gold.Chemscore.Lipo>
87.2823

> <Gold.Chemscore.Internal_Hbond>
0.0000

> <Gold.Chemscore.DEClash>
0.0000

> <Gold.Chemscore.DEInternal>
1.3362

> <Gold.Chemscore.Rot>
2.5103

> <Gold.Chemscore.Internal.Correction>
   9.000000E+99

> <Gold.Chemscore.Hbonds>
donor molecule, donor type, donor heavy atom, donor atom, acceptor molecule, acceptor atom, score
      L1  H     1    21       P1  7948  0.83
      P1  H  7997  8010       L1     9  0.92

> <Gold.Chemscore.Hbond.Weighted>
-6.3893

> <Gold.Chemscore.Metal.Weighted>
-0.0000

> <Gold.Chemscore.Lipo.Weighted>
-10.2120

> <Gold.Chemscore.Internal_Hbond.Weighted>
0.0000

> <Gold.Chemscore.DEClash.Weighted>
0.0000

> <Gold.Chemscore.DEInternal.Weighted>
1.3362

> <Gold.Chemscore.Rot.Weighted>
6.4264

> <Gold.Chemscore.Internal.Correction.Weighted>
   9.000000E+99

> <Gold.Protein.RotatedTorsions>
[ 6907 6896 6895 6894 ] final -171.88 input  -60.11 | X-H torsion
[ 7974 7965 7964 7962 ] final  111.37 input  175.53 | X-H torsion
[ 8008 7997 7996 7995 ] final   61.73 input   59.86 | X-H torsion
[ 10167 10162 10161 10158 ] final   -2.30 input  -65.29 | X-H torsion
[ 10718 10713 10712 10709 ] final  -88.78 input   66.30 | X-H torsion
[ 10763 10752 10751 10750 ] final -132.02 input  -60.55 | X-H torsion
[ 11005 11000 10999 10996 ] final   59.37 input  -57.11 | X-H torsion

> <Gold.Protein.ActiveResidues>
 VAL166  LYS551  ARG553  GLY616  TRP617  ASP618  TYR619  PRO620  LYS621  CYS622 
 ASP623  PHE694  ASN695  SER759  ASP760  ASP761  ALA762  ILE779  LEU786  VAL792 
 PHE793  MET794  SER795  GLU796  ALA797  LYS798  CYS799  TRP800  GLU811  SER814 

> <Gold.Protein.RotatedAtoms>
  151.5309  133.3449  159.2917 H   0  0  0  0  0  0  0  0  0  0  0  0  # atno 6907 bound_to 6896
  150.8594  134.7944  159.7082 H   0  0  0  0  0  0  0  0  0  0  0  0  # atno 6908 bound_to 6896
  152.4618  134.5176  159.9824 H   0  0  0  0  0  0  0  0  0  0  0  0  # atno 6909 bound_to 6896
  145.2430  139.2771  143.4107 H   0  0  0  0  0  0  0  0  0  0  0  0  # atno 7974 bound_to 7965
  155.6031  140.3494  155.4599 H   0  0  0  0  0  0  0  0  0  0  0  0  # atno 8008 bound_to 7997
  156.0213  140.1254  157.0379 H   0  0  0  0  0  0  0  0  0  0  0  0  # atno 8009 bound_to 7997
  154.4316  140.1062  156.5954 H   0  0  0  0  0  0  0  0  0  0  0  0  # atno 8010 bound_to 7997
  140.6845  143.6674  150.8214 H   0  0  0  0  0  0  0  0  0  0  0  0  # atno 10167 bound_to 10162
  155.9983  130.4848  150.5071 H   0  0  0  0  0  0  0  0  0  0  0  0  # atno 10718 bound_to 10713
  154.8746  135.3811  154.4342 H   0  0  0  0  0  0  0  0  0  0  0  0  # atno 10763 bound_to 10752
  153.5033  135.7030  153.5825 H   0  0  0  0  0  0  0  0  0  0  0  0  # atno 10764 bound_to 10752
  153.4147  135.3916  155.2039 H   0  0  0  0  0  0  0  0  0  0  0  0  # atno 10765 bound_to 10752
  140.0309  134.6014  155.9509 H   0  0  0  0  0  0  0  0  0  0  0  0  # atno 11005 bound_to 11000
  146.3323  140.2799  142.8610 LP  0  0  0  0  0  0  0  0  0  0  0  0  # atno 17320 bound_to 7965
  144.9571  140.8238  143.5536 LP  0  0  0  0  0  0  0  0  0  0  0  0  # atno 17321 bound_to 7965
  140.0379  143.5376  152.2731 LP  0  0  0  0  0  0  0  0  0  0  0  0  # atno 17342 bound_to 10162
  139.6193  144.7626  151.2776 LP  0  0  0  0  0  0  0  0  0  0  0  0  # atno 17343 bound_to 10162
  157.3049  131.0652  151.2042 LP  0  0  0  0  0  0  0  0  0  0  0  0  # atno 17370 bound_to 10713
  157.3008  130.6842  149.6163 LP  0  0  0  0  0  0  0  0  0  0  0  0  # atno 17371 bound_to 10713
  141.1830  133.6550  156.5100 LP  0  0  0  0  0  0  0  0  0  0  0  0  # atno 17394 bound_to 11000
  140.4228  134.7172  157.4899 LP  0  0  0  0  0  0  0  0  0  0  0  0  # atno 17395 bound_to 11000

$$$$
