AV-unprocessed.smi:86|AV-procd|sdf|815|dock1
  -GOLD-   2262017213D 1   1.00000     0.00000
 Structure written by MMmdl.
 51 55  0  0  0  0  0  0  0  0  1 V2000
  153.1575  136.8461  165.4665 O   0  0  0  0  0  0  0  0  0  0  0  0
  153.2664  136.8356  164.0572 C   0  0  0  0  0  0  0  0  0  0  0  0
  154.7193  137.0570  163.6015 C   0  0  0  0  0  0  0  0  0  0  0  0
  154.8382  136.9452  162.0668 C   0  0  0  0  0  0  0  0  0  0  0  0
  154.3872  138.1259  161.3451 N   0  0  0  0  0  0  0  0  0  0  0  0
  154.8383  139.4141  161.5180 C   0  0  0  0  0  0  0  0  0  0  0  0
  154.2793  140.3060  160.7482 N   0  0  0  0  0  0  0  0  0  0  0  0
  153.3820  139.5815  159.9700 C   0  0  0  0  0  0  0  0  0  0  0  0
  152.4587  139.9118  158.9321 C   0  0  0  0  0  0  0  0  0  0  0  0
  152.2587  141.1626  158.4411 N   0  0  0  0  0  0  0  0  0  0  0  0
  151.0685  141.5200  157.6732 C   0  0  0  0  0  0  0  0  0  0  0  0
  150.8845  143.0323  157.8725 C   0  0  1  0  0  0  0  0  0  0  0  0
  149.9014  143.3279  159.0271 C   0  0  0  0  0  0  0  0  0  0  0  0
  149.9890  144.7831  159.5054 C   0  0  0  0  0  0  0  0  0  0  0  0
  151.4189  145.1094  159.9621 C   0  0  2  0  0  0  0  0  0  0  0  0
  151.4802  146.4494  160.4025 O   0  0  0  0  0  0  0  0  0  0  0  0
  152.4192  144.9028  158.8129 C   0  0  0  0  0  0  0  0  0  0  0  0
  152.3171  143.5030  158.1764 C   0  0  1  0  0  0  0  0  0  0  0  0
  152.8995  142.3467  158.9913 C   0  0  0  0  0  0  0  0  0  0  0  0
  151.7438  138.8901  158.3911 N   0  0  0  0  0  0  0  0  0  0  0  0
  151.9062  137.6389  158.8282 C   0  0  0  0  0  0  0  0  0  0  0  0
  152.7203  137.1897  159.7834 N   0  0  0  0  0  0  0  0  0  0  0  0
  153.4452  138.2042  160.3337 C   0  0  0  0  0  0  0  0  0  0  0  0
  155.4153  138.2673  164.2395 C   0  0  0  0  0  0  0  0  0  0  0  0
  156.0953  137.4371  165.2041 O   0  0  0  0  0  0  0  0  0  0  0  0
  155.7601  136.2754  164.4161 C   0  0  0  0  0  0  0  0  0  0  0  0
  153.4537  136.0113  165.7960 H   0  0  0  0  0  0  0  0  0  0  0  0
  152.8985  135.8717  163.7037 H   0  0  0  0  0  0  0  0  0  0  0  0
  152.5936  137.5840  163.6388 H   0  0  0  0  0  0  0  0  0  0  0  0
  155.8707  136.7450  161.7777 H   0  0  0  0  0  0  0  0  0  0  0  0
  154.2651  136.0927  161.7005 H   0  0  0  0  0  0  0  0  0  0  0  0
  155.5950  139.6747  162.2439 H   0  0  0  0  0  0  0  0  0  0  0  0
  151.2530  141.2918  156.6230 H   0  0  0  0  0  0  0  0  0  0  0  0
  150.1830  140.9658  157.9876 H   0  0  0  0  0  0  0  0  0  0  0  0
  150.5123  143.5042  156.9623 H   0  0  0  0  0  0  0  0  0  0  0  0
  148.8827  143.1015  158.7111 H   0  0  0  0  0  0  0  0  0  0  0  0
  150.1087  142.6695  159.8720 H   0  0  0  0  0  0  0  0  0  0  0  0
  149.6867  145.4542  158.7001 H   0  0  0  0  0  0  0  0  0  0  0  0
  149.2880  144.9422  160.3256 H   0  0  0  0  0  0  0  0  0  0  0  0
  151.6877  144.4709  160.8043 H   0  0  0  0  0  0  0  0  0  0  0  0
  150.5995  146.7558  160.5565 H   0  0  0  0  0  0  0  0  0  0  0  0
  152.2261  145.6466  158.0384 H   0  0  0  0  0  0  0  0  0  0  0  0
  153.4383  145.0817  159.1581 H   0  0  0  0  0  0  0  0  0  0  0  0
  152.8643  143.5293  157.2322 H   0  0  0  0  0  0  0  0  0  0  0  0
  152.6492  142.4376  160.0489 H   0  0  0  0  0  0  0  0  0  0  0  0
  153.9843  142.3018  158.8915 H   0  0  0  0  0  0  0  0  0  0  0  0
  151.2977  136.8907  158.3419 H   0  0  0  0  0  0  0  0  0  0  0  0
  156.1181  138.7756  163.5768 H   0  0  0  0  0  0  0  0  0  0  0  0
  154.7344  138.9809  164.7046 H   0  0  0  0  0  0  0  0  0  0  0  0
  155.3416  135.4648  165.0138 H   0  0  0  0  0  0  0  0  0  0  0  0
  156.6164  135.9290  163.8365 H   0  0  0  0  0  0  0  0  0  0  0  0
  1  2  1  0  0  0  0
  1 27  1  0  0  0  0
  2  3  1  0  0  0  0
  2 28  1  0  0  0  0
  2 29  1  0  0  0  0
  3 26  1  0  0  0  0
  3  4  1  0  0  0  0
  3 24  1  0  0  0  0
  4  5  1  0  0  0  0
  4 30  1  0  0  0  0
  4 31  1  0  0  0  0
  5 23  1  0  0  0  0
  5  6  1  0  0  0  0
  6  7  2  0  0  0  0
  6 32  1  0  0  0  0
  7  8  1  0  0  0  0
  8 23  2  0  0  0  0
  8  9  1  0  0  0  0
  9 10  1  0  0  0  0
  9 20  2  0  0  0  0
 10 19  1  0  0  0  0
 10 11  1  0  0  0  0
 11 12  1  0  0  0  0
 11 33  1  0  0  0  0
 11 34  1  0  0  0  0
 12 18  1  0  0  0  0
 12 13  1  0  0  0  0
 12 35  1  0  0  0  0
 13 14  1  0  0  0  0
 13 36  1  0  0  0  0
 13 37  1  0  0  0  0
 14 15  1  0  0  0  0
 14 38  1  0  0  0  0
 14 39  1  0  0  0  0
 15 16  1  0  0  0  0
 15 17  1  0  0  0  0
 15 40  1  0  0  0  0
 16 41  1  0  0  0  0
 17 18  1  0  0  0  0
 17 42  1  0  0  0  0
 17 43  1  0  0  0  0
 18 19  1  0  0  0  0
 18 44  1  0  0  0  0
 19 45  1  0  0  0  0
 19 46  1  0  0  0  0
 20 21  1  0  0  0  0
 21 22  2  0  0  0  0
 21 47  1  0  0  0  0
 22 23  1  0  0  0  0
 24 25  1  0  0  0  0
 24 48  1  0  0  0  0
 24 49  1  0  0  0  0
 25 26  1  0  0  0  0
 26 50  1  0  0  0  0
 26 51  1  0  0  0  0
M  END
> <s_m_source_file>
AV-unprocessed.smi

> <i_m_source_file_index>
86

> <i_lp_mmshare_version>
43012

> <i_f3d_flags>
0

> <s_epik_input>
W0NIMl0xT1tDSDJdQzEoW0NIMl1bT0hdKVtDSDJdbihbY0hdbjIpYyhjMjMpbltjSF1uYzNOKFtDSDJdNClbQ0gyXVtDQEBIXShbQ0BIXTQ1KVtDSDJdW0NASF0oW09IXSlbQ0gyXVtDSDJdNQ==

> <s_epik_cmdline>
J2VwaWtfcHl0aG9uJywgJy1waCcsICc3LjAnLCAnLXRuJywgJzgnLCAnLW1hJywgJzIwMCcsICctbWV0YWxfYmluZGluZycsICctaW1hZScsICc8aW5maWxlLm1hZT4nLCAnLW9tYWUnLCAnPG91dGZpbGUubWFlPic=

> <r_lp_tautomer_probability>
1

> <r_epik_Ionization_Penalty>
0.00425795

> <r_epik_Ionization_Penalty_Charging>
0

> <r_epik_Ionization_Penalty_Neutral>
0.00425795

> <r_epik_State_Penalty>
0.00299946

> <r_epik_Charging_Adjusted_Penalty>
0.00299946

> <i_epik_Tot_Q>
0

> <i_epik_Tot_abs_Q>
0

> <r_epik_Metal_State_Penalty>
-0

> <b_epik_Metal_Only>
0

> <s_lp_Force_Field>
OPLS_2005

> <r_lp_Energy>
53.5729

> <b_lp_Chiralities_Consistent>
1

> <s_lp_Variant>
AV-unprocessed.smi:86-4

> <Gold.Version>
5.8.1

> <Gold.Id.Protein>
6NUR|6NUR_protein|mol2

> <Gold.PLP.Fitness>
51.5515

> <Gold.PLP.PLP>
-50.3424

> <Gold.PLP.part.hbond>
-6.9270

> <Gold.PLP.part.metal>
0.0000

> <Gold.PLP.part.buried>
-7.0687

> <Gold.PLP.part.nonpolar>
-36.9896

> <Gold.PLP.part.repulsive>
0.0701

> <Gold.PLP.ligand.clash>
0.0000

> <Gold.PLP.ligand.torsion>
0.4791

> <Gold.PLP.Chemscore.Hbond>
0.5638

> <Gold.PLP.Chemscore.CHOScore>
0.0000

> <Gold.PLP.Chemscore.Metal>
0.0000

> <Gold.Chemscore.Hbonds>
donor molecule, donor type, donor heavy atom, donor atom, acceptor molecule, acceptor atom, score
      P1  H  6896  6907       L1    22  0.46
      P1  H  6924  6935       L1     1  0.30

> <Gold.PLP.Chemscore.Internal.Correction>
0.4758

> <Gold.Rescore>
     Score         DG    S(hbond)    S(metal)    S(lipo)     H(rot)  DE(clash)    DE(int)     intcor
      9.59     -14.23       0.56        0.00     119.33       2.76       2.41       2.23       ----

> <Gold.Chemscore.Fitness>
9.5900

> <Gold.Chemscore.DG>
-14.2313

> <Gold.Chemscore.ZeroCoef>
-5.4800

> <Gold.Chemscore.Hbond>
0.5578

> <Gold.Chemscore.Metal>
0.0000

> <Gold.Chemscore.Lipo>
119.3287

> <Gold.Chemscore.Internal_Hbond>
0.0000

> <Gold.Chemscore.DEClash>
2.4110

> <Gold.Chemscore.DEInternal>
2.2303

> <Gold.Chemscore.Rot>
2.7630

> <Gold.Chemscore.Internal.Correction>
   9.000000E+99

> <Gold.Chemscore.Hbonds>
donor molecule, donor type, donor heavy atom, donor atom, acceptor molecule, acceptor atom, score
      P1  H  6896  6907       L1    22  0.14
      P1  H  6924  6935       L1     1  0.27

> <Gold.Chemscore.Hbond.Weighted>
-1.8632

> <Gold.Chemscore.Metal.Weighted>
-0.0000

> <Gold.Chemscore.Lipo.Weighted>
-13.9615

> <Gold.Chemscore.Internal_Hbond.Weighted>
0.0000

> <Gold.Chemscore.DEClash.Weighted>
2.4110

> <Gold.Chemscore.DEInternal.Weighted>
2.2303

> <Gold.Chemscore.Rot.Weighted>
7.0734

> <Gold.Chemscore.Internal.Correction.Weighted>
   9.000000E+99

> <Gold.Protein.RotatedTorsions>
[ 6907 6896 6895 6894 ] final   23.81 input  -60.11 | X-H torsion
[ 7974 7965 7964 7962 ] final  -50.18 input  175.53 | X-H torsion
[ 8008 7997 7996 7995 ] final -145.60 input   59.86 | X-H torsion
[ 10167 10162 10161 10158 ] final -107.48 input  -65.29 | X-H torsion
[ 10718 10713 10712 10709 ] final  -99.83 input   66.30 | X-H torsion
[ 10763 10752 10751 10750 ] final -146.24 input  -60.55 | X-H torsion
[ 11005 11000 10999 10996 ] final  119.13 input  -57.11 | X-H torsion

> <Gold.Protein.ActiveResidues>
 VAL166  LYS551  ARG553  GLY616  TRP617  ASP618  TYR619  PRO620  LYS621  CYS622 
 ASP623  PHE694  ASN695  SER759  ASP760  ASP761  ALA762  ILE779  LEU786  VAL792 
 PHE793  MET794  SER795  GLU796  ALA797  LYS798  CYS799  TRP800  GLU811  SER814 

> <Gold.Protein.RotatedAtoms>
  151.9481  135.0182  160.0539 H   0  0  0  0  0  0  0  0  0  0  0  0  # atno 6907 bound_to 6896
  152.1978  133.4814  159.5050 H   0  0  0  0  0  0  0  0  0  0  0  0  # atno 6908 bound_to 6896
  150.6948  134.1547  159.4196 H   0  0  0  0  0  0  0  0  0  0  0  0  # atno 6909 bound_to 6896
  145.9326  140.7735  142.9592 H   0  0  0  0  0  0  0  0  0  0  0  0  # atno 7974 bound_to 7965
  155.5458  140.0612  157.2860 H   0  0  0  0  0  0  0  0  0  0  0  0  # atno 8008 bound_to 7997
  154.4437  140.1911  156.0681 H   0  0  0  0  0  0  0  0  0  0  0  0  # atno 8009 bound_to 7997
  156.0552  140.3279  155.7401 H   0  0  0  0  0  0  0  0  0  0  0  0  # atno 8010 bound_to 7997
  140.1765  143.4001  152.1314 H   0  0  0  0  0  0  0  0  0  0  0  0  # atno 10167 bound_to 10162
  156.0145  130.5300  150.6728 H   0  0  0  0  0  0  0  0  0  0  0  0  # atno 10718 bound_to 10713
  154.8345  135.3392  154.6631 H   0  0  0  0  0  0  0  0  0  0  0  0  # atno 10763 bound_to 10752
  153.7247  135.6956  153.5008 H   0  0  0  0  0  0  0  0  0  0  0  0  # atno 10764 bound_to 10752
  153.2356  135.4402  155.0595 H   0  0  0  0  0  0  0  0  0  0  0  0  # atno 10765 bound_to 10752
  139.9135  134.9626  156.7608 H   0  0  0  0  0  0  0  0  0  0  0  0  # atno 11005 bound_to 11000
  144.6767  140.2151  143.7372 LP  0  0  0  0  0  0  0  0  0  0  0  0  # atno 17320 bound_to 7965
  145.8406  139.2128  143.1830 LP  0  0  0  0  0  0  0  0  0  0  0  0  # atno 17321 bound_to 7965
  139.5315  144.7164  151.5040 LP  0  0  0  0  0  0  0  0  0  0  0  0  # atno 17342 bound_to 10162
  140.6548  143.8622  150.6823 LP  0  0  0  0  0  0  0  0  0  0  0  0  # atno 17343 bound_to 10162
  157.4447  131.0865  151.0908 LP  0  0  0  0  0  0  0  0  0  0  0  0  # atno 17370 bound_to 10713
  157.1441  130.6156  149.5563 LP  0  0  0  0  0  0  0  0  0  0  0  0  # atno 17371 bound_to 10713
  140.6699  133.9569  155.7850 LP  0  0  0  0  0  0  0  0  0  0  0  0  # atno 17394 bound_to 11000
  141.0585  134.0381  157.3690 LP  0  0  0  0  0  0  0  0  0  0  0  0  # atno 17395 bound_to 11000

$$$$
