AV-unprocessed.smi:2393|AV-procd|sdf|9489|dock5
  -GOLD-   2272013113D 1   1.00000     0.00000
 Structure written by MMmdl.
 43 44  0  0  0  0  0  0  0  0  1 V2000
  144.8016  132.3550  150.0568 C   0  0  0  0  0  0  0  0  0  0  0  0
  144.5015  133.4483  151.0607 C   0  0  0  0  0  0  0  0  0  0  0  0
  143.2399  133.5351  151.6803 C   0  0  0  0  0  0  0  0  0  0  0  0
  143.0228  134.5774  152.6029 C   0  0  0  0  0  0  0  0  0  0  0  0
  141.6908  134.7300  153.3071 C   0  0  0  0  0  0  0  0  0  0  0  0
  143.9647  135.4932  152.9143 N   0  0  0  0  0  0  0  0  0  0  0  0
  145.1831  135.4198  152.3233 C   0  0  0  0  0  0  0  0  0  0  0  0
  146.2430  136.3270  152.5892 N   0  0  0  0  0  0  0  0  0  0  0  0
  146.2330  137.3994  153.4006 C   0  0  0  0  0  0  0  0  0  0  0  0
  145.2516  137.8173  154.0161 O   0  0  0  0  0  0  0  0  0  0  0  0
  147.4408  137.9802  153.4537 N   0  0  0  0  0  0  0  0  0  0  0  0
  147.7661  139.1679  154.2386 C   0  0  1  0  0  0  0  0  0  0  0  0
  149.2151  139.5917  153.9728 C   0  0  0  0  0  0  0  0  0  0  0  0
  149.5346  140.9001  154.7091 C   0  0  0  0  0  0  0  0  0  0  0  0
  148.6166  141.9234  154.3286 O   0  0  0  0  0  0  0  0  0  0  0  0
  147.2313  141.6565  154.5734 C   0  0  0  0  0  0  0  0  0  0  0  0
  146.9343  141.6396  156.0886 C   0  0  0  0  0  0  0  0  0  0  0  0
  146.4778  142.8324  153.9303 C   0  0  0  0  0  0  0  0  0  0  0  0
  146.8265  140.3330  153.8799 C   0  0  0  0  0  0  0  0  0  0  0  0
  145.4849  134.4026  151.3902 C   0  0  0  0  0  0  0  0  0  0  0  0
  143.9815  131.6391  149.9930 H   0  0  0  0  0  0  0  0  0  0  0  0
  145.7039  131.8142  150.3429 H   0  0  0  0  0  0  0  0  0  0  0  0
  144.9577  132.7858  149.0675 H   0  0  0  0  0  0  0  0  0  0  0  0
  142.4598  132.8224  151.4549 H   0  0  0  0  0  0  0  0  0  0  0  0
  141.0438  133.8728  153.1188 H   0  0  0  0  0  0  0  0  0  0  0  0
  141.1798  135.6272  152.9570 H   0  0  0  0  0  0  0  0  0  0  0  0
  141.8354  134.8150  154.3845 H   0  0  0  0  0  0  0  0  0  0  0  0
  147.1127  136.1283  152.1177 H   0  0  0  0  0  0  0  0  0  0  0  0
  148.1906  137.5717  152.9152 H   0  0  0  0  0  0  0  0  0  0  0  0
  147.6680  138.9304  155.2990 H   0  0  0  0  0  0  0  0  0  0  0  0
  149.9044  138.8082  154.2897 H   0  0  0  0  0  0  0  0  0  0  0  0
  149.3727  139.7338  152.9025 H   0  0  0  0  0  0  0  0  0  0  0  0
  149.5259  140.7527  155.7890 H   0  0  0  0  0  0  0  0  0  0  0  0
  150.5414  141.2305  154.4539 H   0  0  0  0  0  0  0  0  0  0  0  0
  145.8648  141.5348  156.2744 H   0  0  0  0  0  0  0  0  0  0  0  0
  147.2603  142.5664  156.5619 H   0  0  0  0  0  0  0  0  0  0  0  0
  147.4271  140.8186  156.6073 H   0  0  0  0  0  0  0  0  0  0  0  0
  145.3989  142.7219  154.0432 H   0  0  0  0  0  0  0  0  0  0  0  0
  146.6929  142.9059  152.8637 H   0  0  0  0  0  0  0  0  0  0  0  0
  146.7632  143.7810  154.3862 H   0  0  0  0  0  0  0  0  0  0  0  0
  146.8486  140.4761  152.7982 H   0  0  0  0  0  0  0  0  0  0  0  0
  145.7953  140.0792  154.1296 H   0  0  0  0  0  0  0  0  0  0  0  0
  146.4601  134.3544  150.9273 H   0  0  0  0  0  0  0  0  0  0  0  0
  1  2  1  0  0  0  0
  1 21  1  0  0  0  0
  1 22  1  0  0  0  0
  1 23  1  0  0  0  0
  2 20  1  0  0  0  0
  2  3  2  0  0  0  0
  3  4  1  0  0  0  0
  3 24  1  0  0  0  0
  4  5  1  0  0  0  0
  4  6  2  0  0  0  0
  5 25  1  0  0  0  0
  5 26  1  0  0  0  0
  5 27  1  0  0  0  0
  6  7  1  0  0  0  0
  7  8  1  0  0  0  0
  7 20  2  0  0  0  0
  8  9  1  0  0  0  0
  8 28  1  0  0  0  0
  9 10  2  0  0  0  0
  9 11  1  0  0  0  0
 11 12  1  0  0  0  0
 11 29  1  0  0  0  0
 12 19  1  0  0  0  0
 12 13  1  0  0  0  0
 12 30  1  0  0  0  0
 13 14  1  0  0  0  0
 13 31  1  0  0  0  0
 13 32  1  0  0  0  0
 14 15  1  0  0  0  0
 14 33  1  0  0  0  0
 14 34  1  0  0  0  0
 15 16  1  0  0  0  0
 16 17  1  0  0  0  0
 16 18  1  0  0  0  0
 16 19  1  0  0  0  0
 17 35  1  0  0  0  0
 17 36  1  0  0  0  0
 17 37  1  0  0  0  0
 18 38  1  0  0  0  0
 18 39  1  0  0  0  0
 18 40  1  0  0  0  0
 19 41  1  0  0  0  0
 19 42  1  0  0  0  0
 20 43  1  0  0  0  0
M  END
> <s_m_source_file>
AV-unprocessed.smi

> <i_m_source_file_index>
2393

> <i_lp_mmshare_version>
43012

> <i_f3d_flags>
0

> <s_epik_input>
W0NIM11jMVtjSF1jKFtDSDNdKW5jKFtjSF0xKVtOSF1DKD1PKVtOSF1bQ0BASF0oW0NIMl0yKVtDSDJdW0NIMl1PQzIoW0NIM10pW0NIM10=

> <s_epik_cmdline>
J2VwaWtfcHl0aG9uJywgJy1waCcsICc3LjAnLCAnLXRuJywgJzgnLCAnLW1hJywgJzIwMCcsICctbWV0YWxfYmluZGluZycsICctaW1hZScsICc8aW5maWxlLm1hZT4nLCAnLW9tYWUnLCAnPG91dGZpbGUubWFlPic=

> <r_lp_tautomer_probability>
1

> <r_epik_Ionization_Penalty>
0.000261351

> <r_epik_Ionization_Penalty_Charging>
0

> <r_epik_Ionization_Penalty_Neutral>
0.000261351

> <r_epik_State_Penalty>
-0

> <r_epik_Charging_Adjusted_Penalty>
0

> <i_epik_Tot_Q>
0

> <i_epik_Tot_abs_Q>
0

> <r_epik_Metal_State_Penalty>
-0

> <b_epik_Metal_Only>
0

> <s_lp_Force_Field>
OPLS_2005

> <r_lp_Energy>
12.7135

> <b_lp_Chiralities_Consistent>
1

> <s_lp_Variant>
AV-unprocessed.smi:2393-2

> <Gold.Version>
5.8.1

> <Gold.Id.Protein>
6NUR|6NUR_protein|mol2

> <Gold.PLP.Fitness>
41.2269

> <Gold.PLP.PLP>
-34.7728

> <Gold.PLP.part.hbond>
-3.0000

> <Gold.PLP.part.metal>
0.0000

> <Gold.PLP.part.buried>
-3.5703

> <Gold.PLP.part.nonpolar>
-28.2059

> <Gold.PLP.part.repulsive>
0.5680

> <Gold.PLP.ligand.clash>
0.0000

> <Gold.PLP.ligand.torsion>
0.0188

> <Gold.PLP.Chemscore.Hbond>
2.1638

> <Gold.PLP.Chemscore.CHOScore>
0.0000

> <Gold.PLP.Chemscore.Metal>
0.0000

> <Gold.Chemscore.Hbonds>
donor molecule, donor type, donor heavy atom, donor atom, acceptor molecule, acceptor atom, score
      L1  H     8    28       P1  7948  1.00
      L1  H    11    29       P1  7948  1.00
      P1  H  8011  8017       L1    15  0.05

> <Gold.PLP.Chemscore.Internal.Correction>
0.0003

> <Gold.Rescore>
     Score         DG    S(hbond)    S(metal)    S(lipo)     H(rot)  DE(clash)    DE(int)     intcor
     16.25     -18.97       1.99        0.00      80.29       1.00       0.31       2.42       ----

> <Gold.Chemscore.Fitness>
16.2466

> <Gold.Chemscore.DG>
-18.9707

> <Gold.Chemscore.ZeroCoef>
-5.4800

> <Gold.Chemscore.Hbond>
1.9931

> <Gold.Chemscore.Metal>
0.0000

> <Gold.Chemscore.Lipo>
80.2894

> <Gold.Chemscore.Internal_Hbond>
0.0000

> <Gold.Chemscore.DEClash>
0.3081

> <Gold.Chemscore.DEInternal>
2.4160

> <Gold.Chemscore.Rot>
1.0000

> <Gold.Chemscore.Internal.Correction>
   9.000000E+99

> <Gold.Chemscore.Hbonds>
donor molecule, donor type, donor heavy atom, donor atom, acceptor molecule, acceptor atom, score
      L1  H     8    28       P1  7948  0.99
      L1  H    11    29       P1  7948  0.98
      P1  H  8011  8017       L1    15  0.01

> <Gold.Chemscore.Hbond.Weighted>
-6.6568

> <Gold.Chemscore.Metal.Weighted>
-0.0000

> <Gold.Chemscore.Lipo.Weighted>
-9.3939

> <Gold.Chemscore.Internal_Hbond.Weighted>
0.0000

> <Gold.Chemscore.DEClash.Weighted>
0.3081

> <Gold.Chemscore.DEInternal.Weighted>
2.4160

> <Gold.Chemscore.Rot.Weighted>
2.5600

> <Gold.Chemscore.Internal.Correction.Weighted>
   9.000000E+99

> <Gold.Protein.RotatedTorsions>
[ 6907 6896 6895 6894 ] final -163.50 input  -60.11 | X-H torsion
[ 7974 7965 7964 7962 ] final  137.53 input  175.53 | X-H torsion
[ 8008 7997 7996 7995 ] final  110.30 input   59.86 | X-H torsion
[ 10167 10162 10161 10158 ] final   99.68 input  -65.29 | X-H torsion
[ 10718 10713 10712 10709 ] final  -78.58 input   66.30 | X-H torsion
[ 10763 10752 10751 10750 ] final -154.44 input  -60.55 | X-H torsion
[ 11005 11000 10999 10996 ] final -133.86 input  -57.11 | X-H torsion

> <Gold.Protein.ActiveResidues>
 VAL166  LYS551  ARG553  GLY616  TRP617  ASP618  TYR619  PRO620  LYS621  CYS622 
 ASP623  PHE694  ASN695  SER759  ASP760  ASP761  ALA762  ILE779  LEU786  VAL792 
 PHE793  MET794  SER795  GLU796  ALA797  LYS798  CYS799  TRP800  GLU811  SER814 

> <Gold.Protein.RotatedAtoms>
  151.3971  133.3770  159.2727 H   0  0  0  0  0  0  0  0  0  0  0  0  # atno 6907 bound_to 6896
  150.9461  134.8867  159.7653 H   0  0  0  0  0  0  0  0  0  0  0  0  # atno 6908 bound_to 6896
  152.5092  134.3924  159.9440 H   0  0  0  0  0  0  0  0  0  0  0  0  # atno 6909 bound_to 6896
  144.9459  139.4875  143.5549 H   0  0  0  0  0  0  0  0  0  0  0  0  # atno 7974 bound_to 7965
  156.2042  140.3041  155.9592 H   0  0  0  0  0  0  0  0  0  0  0  0  # atno 8008 bound_to 7997
  155.2880  140.0441  157.3038 H   0  0  0  0  0  0  0  0  0  0  0  0  # atno 8009 bound_to 7997
  154.5611  140.2320  155.8342 H   0  0  0  0  0  0  0  0  0  0  0  0  # atno 8010 bound_to 7997
  139.7596  144.6958  151.0312 H   0  0  0  0  0  0  0  0  0  0  0  0  # atno 10167 bound_to 10162
  156.0114  130.4522  150.3518 H   0  0  0  0  0  0  0  0  0  0  0  0  # atno 10718 bound_to 10713
  154.7858  135.3190  154.7889 H   0  0  0  0  0  0  0  0  0  0  0  0  # atno 10763 bound_to 10752
  153.8589  135.6855  153.4789 H   0  0  0  0  0  0  0  0  0  0  0  0  # atno 10764 bound_to 10752
  153.1509  135.4699  154.9575 H   0  0  0  0  0  0  0  0  0  0  0  0  # atno 10765 bound_to 10752
  140.9042  134.1651  157.4438 H   0  0  0  0  0  0  0  0  0  0  0  0  # atno 11005 bound_to 11000
  146.3303  139.8511  142.8873 LP  0  0  0  0  0  0  0  0  0  0  0  0  # atno 17320 bound_to 7965
  145.2918  141.0169  143.3658 LP  0  0  0  0  0  0  0  0  0  0  0  0  # atno 17321 bound_to 7965
  140.7806  143.4713  151.0143 LP  0  0  0  0  0  0  0  0  0  0  0  0  # atno 17342 bound_to 10162
  139.8399  143.7577  152.3180 LP  0  0  0  0  0  0  0  0  0  0  0  0  # atno 17343 bound_to 10162
  157.1610  131.0345  151.2841 LP  0  0  0  0  0  0  0  0  0  0  0  0  # atno 17370 bound_to 10713
  157.4311  130.7491  149.6991 LP  0  0  0  0  0  0  0  0  0  0  0  0  # atno 17371 bound_to 10713
  139.8747  134.9910  156.5530 LP  0  0  0  0  0  0  0  0  0  0  0  0  # atno 17394 bound_to 11000
  140.8191  133.8368  155.8879 LP  0  0  0  0  0  0  0  0  0  0  0  0  # atno 17395 bound_to 11000

$$$$
