AV-unprocessed.smi:234|AV-procd|sdf|1799|dock10
  -GOLD-   2262020373D 1   1.00000     0.00000
 Structure written by MMmdl.
 59 62  0  0  0  0  0  0  0  0  1 V2000
  151.7818  142.4752  158.1567 C   0  0  0  0  0  0  0  0  0  0  0  0
  151.1793  141.1041  157.8220 C   0  0  0  0  0  0  0  0  0  0  0  0
  150.2670  141.1768  156.7348 O   0  0  0  0  0  0  0  0  0  0  0  0
  149.9609  139.9296  156.1246 C   0  0  2  0  0  0  0  0  0  0  0  0
  150.6711  139.7729  154.7820 C   0  0  0  0  0  0  0  0  0  0  0  0
  149.4039  139.0432  154.3163 C   0  0  2  0  0  0  0  0  0  0  0  0
  149.0351  139.3072  152.9222 N   0  0  0  0  0  0  0  0  0  0  0  0
  149.4495  140.5727  152.3279 C   0  0  0  0  0  0  0  0  0  0  0  0
  147.7947  138.9476  152.5114 C   0  0  0  0  0  0  0  0  0  0  0  0
  146.7527  139.6635  153.0054 N   0  0  0  0  0  0  0  0  0  0  0  0
  145.5008  139.3612  152.6507 C   0  0  0  0  0  0  0  0  0  0  0  0
  145.0752  138.3965  151.8335 N   0  0  0  0  0  0  0  0  0  0  0  0
  146.1168  137.6661  151.3413 C   0  0  0  0  0  0  0  0  0  0  0  0
  147.4966  137.8657  151.6315 C   0  0  0  0  0  0  0  0  0  0  0  0
  148.2558  136.9067  150.9716 N   0  0  0  0  0  0  0  0  0  0  0  0
  147.3794  136.1962  150.3169 C   0  0  0  0  0  0  0  0  0  0  0  0
  146.0690  136.5903  150.4695 N   0  0  0  0  0  0  0  0  0  0  0  0
  144.8844  135.9894  149.8679 C   0  0  0  0  0  0  0  0  0  0  0  0
  145.0421  134.4859  149.5132 C   0  0  2  0  0  0  0  0  0  0  0  0
  145.6729  134.3930  148.2466 O   0  0  0  0  0  0  0  0  0  0  0  0
  143.7205  133.7398  149.4451 C   0  0  0  0  0  0  0  0  0  0  0  0
  144.1359  132.2772  149.5963 C   0  0  0  0  0  0  0  0  0  0  0  0
  145.4128  132.2829  150.2320 O   0  0  0  0  0  0  0  0  0  0  0  0
  145.8506  133.6146  150.4969 C   0  0  2  0  0  0  0  0  0  0  0  0
  145.5627  133.8474  151.9922 C   0  0  0  0  0  0  0  0  0  0  0  0
  148.6045  139.8605  155.3728 C   0  0  0  0  0  0  0  0  0  0  0  0
  147.4908  139.1055  156.1025 C   0  0  0  0  0  0  0  0  0  0  0  0
  148.0220  141.2133  154.9253 C   0  0  0  0  0  0  0  0  0  0  0  0
  152.3960  142.4153  159.0554 H   0  0  0  0  0  0  0  0  0  0  0  0
  150.9991  143.2122  158.3377 H   0  0  0  0  0  0  0  0  0  0  0  0
  152.4168  142.8483  157.3537 H   0  0  0  0  0  0  0  0  0  0  0  0
  151.9613  140.3694  157.6328 H   0  0  0  0  0  0  0  0  0  0  0  0
  150.6240  140.7444  158.6882 H   0  0  0  0  0  0  0  0  0  0  0  0
  150.1443  139.0646  156.7648 H   0  0  0  0  0  0  0  0  0  0  0  0
  150.8504  140.7219  154.2736 H   0  0  0  0  0  0  0  0  0  0  0  0
  151.5709  139.1586  154.8176 H   0  0  0  0  0  0  0  0  0  0  0  0
  149.4327  137.9814  154.5680 H   0  0  0  0  0  0  0  0  0  0  0  0
  148.6526  141.3151  152.3923 H   0  0  0  0  0  0  0  0  0  0  0  0
  149.7046  140.4326  151.2770 H   0  0  0  0  0  0  0  0  0  0  0  0
  150.3246  140.9822  152.8290 H   0  0  0  0  0  0  0  0  0  0  0  0
  144.7297  139.9805  153.0847 H   0  0  0  0  0  0  0  0  0  0  0  0
  147.6783  135.3558  149.7109 H   0  0  0  0  0  0  0  0  0  0  0  0
  144.0340  136.1532  150.5297 H   0  0  0  0  0  0  0  0  0  0  0  0
  144.6586  136.5499  148.9596 H   0  0  0  0  0  0  0  0  0  0  0  0
  146.4355  133.8417  148.3327 H   0  0  0  0  0  0  0  0  0  0  0  0
  143.0848  134.0267  150.2837 H   0  0  0  0  0  0  0  0  0  0  0  0
  143.1598  133.9303  148.5290 H   0  0  0  0  0  0  0  0  0  0  0  0
  143.4106  131.7062  150.1766 H   0  0  0  0  0  0  0  0  0  0  0  0
  144.2360  131.8013  148.6204 H   0  0  0  0  0  0  0  0  0  0  0  0
  146.9242  133.7025  150.3243 H   0  0  0  0  0  0  0  0  0  0  0  0
  145.8789  134.8321  152.3257 H   0  0  0  0  0  0  0  0  0  0  0  0
  146.0977  133.1181  152.6006 H   0  0  0  0  0  0  0  0  0  0  0  0
  144.5019  133.7458  152.2217 H   0  0  0  0  0  0  0  0  0  0  0  0
  146.6140  138.9631  155.4714 H   0  0  0  0  0  0  0  0  0  0  0  0
  147.1602  139.6381  156.9938 H   0  0  0  0  0  0  0  0  0  0  0  0
  147.8213  138.1171  156.4230 H   0  0  0  0  0  0  0  0  0  0  0  0
  147.1634  141.0845  154.2662 H   0  0  0  0  0  0  0  0  0  0  0  0
  148.7521  141.8172  154.3861 H   0  0  0  0  0  0  0  0  0  0  0  0
  147.6868  141.8050  155.7773 H   0  0  0  0  0  0  0  0  0  0  0  0
  1  2  1  0  0  0  0
  1 29  1  0  0  0  0
  1 30  1  0  0  0  0
  1 31  1  0  0  0  0
  2  3  1  0  0  0  0
  2 32  1  0  0  0  0
  2 33  1  0  0  0  0
  3  4  1  0  0  0  0
  4 26  1  0  0  0  0
  4  5  1  0  0  0  0
  4 34  1  0  0  0  0
  5  6  1  0  0  0  0
  5 35  1  0  0  0  0
  5 36  1  0  0  0  0
  6  7  1  0  0  0  0
  6 26  1  0  0  0  0
  6 37  1  0  0  0  0
  7  8  1  0  0  0  0
  7  9  1  0  0  0  0
  8 38  1  0  0  0  0
  8 39  1  0  0  0  0
  8 40  1  0  0  0  0
  9 14  1  0  0  0  0
  9 10  2  0  0  0  0
 10 11  1  0  0  0  0
 11 12  2  0  0  0  0
 11 41  1  0  0  0  0
 12 13  1  0  0  0  0
 13 17  1  0  0  0  0
 13 14  2  0  0  0  0
 14 15  1  0  0  0  0
 15 16  2  0  0  0  0
 16 17  1  0  0  0  0
 16 42  1  0  0  0  0
 17 18  1  0  0  0  0
 18 19  1  0  0  0  0
 18 43  1  0  0  0  0
 18 44  1  0  0  0  0
 19 24  1  0  0  0  0
 19 20  1  0  0  0  0
 19 21  1  0  0  0  0
 20 45  1  0  0  0  0
 21 22  1  0  0  0  0
 21 46  1  0  0  0  0
 21 47  1  0  0  0  0
 22 23  1  0  0  0  0
 22 48  1  0  0  0  0
 22 49  1  0  0  0  0
 23 24  1  0  0  0  0
 24 25  1  0  0  0  0
 24 50  1  0  0  0  0
 25 51  1  0  0  0  0
 25 52  1  0  0  0  0
 25 53  1  0  0  0  0
 26 27  1  0  0  0  0
 26 28  1  0  0  0  0
 27 54  1  0  0  0  0
 27 55  1  0  0  0  0
 27 56  1  0  0  0  0
 28 57  1  0  0  0  0
 28 58  1  0  0  0  0
 28 59  1  0  0  0  0
M  END
> <s_m_source_file>
AV-unprocessed.smi

> <i_m_source_file_index>
234

> <i_lp_mmshare_version>
43012

> <i_f3d_flags>
0

> <s_epik_input>
W0NIM11bQ0gyXU9bQ0BASF0oQzEoW0NIM10pW0NIM10pW0NIMl1bQ0BIXTFOKFtDSDNdKWMobltjSF1uMiljKGMyMyluW2NIXW4zW0NIMl1bQ0BAXTQoW09IXSlbQ0gyXVtDSDJdT1tDQEhdNFtDSDNd

> <s_epik_cmdline>
J2VwaWtfcHl0aG9uJywgJy1waCcsICc3LjAnLCAnLXRuJywgJzgnLCAnLW1hJywgJzIwMCcsICctbWV0YWxfYmluZGluZycsICctaW1hZScsICc8aW5maWxlLm1hZT4nLCAnLW9tYWUnLCAnPG91dGZpbGUubWFlPic=

> <r_lp_tautomer_probability>
1

> <r_epik_Ionization_Penalty>
0.00349132

> <r_epik_Ionization_Penalty_Charging>
0

> <r_epik_Ionization_Penalty_Neutral>
0.00349132

> <r_epik_State_Penalty>
0.00242418

> <r_epik_Charging_Adjusted_Penalty>
0.00242418

> <i_epik_Tot_Q>
0

> <i_epik_Tot_abs_Q>
0

> <r_epik_Metal_State_Penalty>
-0

> <b_epik_Metal_Only>
0

> <s_lp_Force_Field>
OPLS_2005

> <r_lp_Energy>
51.2497

> <b_lp_Chiralities_Consistent>
1

> <s_lp_Variant>
AV-unprocessed.smi:234-15

> <Gold.Version>
5.8.1

> <Gold.Id.Protein>
6NUR|6NUR_protein|mol2

> <Gold.PLP.Fitness>
43.5864

> <Gold.PLP.PLP>
-38.2015

> <Gold.PLP.part.hbond>
-2.3845

> <Gold.PLP.part.metal>
0.0000

> <Gold.PLP.part.buried>
-3.7586

> <Gold.PLP.part.nonpolar>
-36.2796

> <Gold.PLP.part.repulsive>
3.2629

> <Gold.PLP.ligand.clash>
0.0000

> <Gold.PLP.ligand.torsion>
1.7916

> <Gold.PLP.Chemscore.Hbond>
1.9913

> <Gold.PLP.Chemscore.CHOScore>
0.6504

> <Gold.PLP.Chemscore.Metal>
0.0000

> <Gold.Chemscore.Hbonds>
donor molecule, donor type, donor heavy atom, donor atom, acceptor molecule, acceptor atom, score
      P1  H  7954  7966       L1    15  0.03

> <Gold.PLP.Chemscore.Internal.Correction>
1.0432

> <Gold.Rescore>
     Score         DG    S(hbond)    S(metal)    S(lipo)     H(rot)  DE(clash)    DE(int)     intcor
      8.29     -15.18       1.47        0.00      98.43       2.62       2.83       4.06       ----

> <Gold.Chemscore.Fitness>
8.2918

> <Gold.Chemscore.DG>
-15.1778

> <Gold.Chemscore.ZeroCoef>
-5.4800

> <Gold.Chemscore.Hbond>
1.4652

> <Gold.Chemscore.Metal>
0.0000

> <Gold.Chemscore.Lipo>
98.4277

> <Gold.Chemscore.Internal_Hbond>
0.0000

> <Gold.Chemscore.DEClash>
2.8271

> <Gold.Chemscore.DEInternal>
4.0589

> <Gold.Chemscore.Rot>
2.6219

> <Gold.Chemscore.Internal.Correction>
   9.000000E+99

> <Gold.Chemscore.Hbond.Weighted>
-4.8939

> <Gold.Chemscore.Metal.Weighted>
-0.0000

> <Gold.Chemscore.Lipo.Weighted>
-11.5160

> <Gold.Chemscore.Internal_Hbond.Weighted>
0.0000

> <Gold.Chemscore.DEClash.Weighted>
2.8271

> <Gold.Chemscore.DEInternal.Weighted>
4.0589

> <Gold.Chemscore.Rot.Weighted>
6.7121

> <Gold.Chemscore.Internal.Correction.Weighted>
   9.000000E+99

> <Gold.Protein.RotatedTorsions>
[ 6907 6896 6895 6894 ] final   73.23 input  -60.11 | X-H torsion
[ 7974 7965 7964 7962 ] final  -15.88 input  175.53 | X-H torsion
[ 8008 7997 7996 7995 ] final -123.08 input   59.86 | X-H torsion
[ 10167 10162 10161 10158 ] final  145.76 input  -65.29 | X-H torsion
[ 10718 10713 10712 10709 ] final  -73.23 input   66.30 | X-H torsion
[ 10763 10752 10751 10750 ] final  -36.25 input  -60.55 | X-H torsion
[ 11005 11000 10999 10996 ] final  134.22 input  -57.11 | X-H torsion

> <Gold.Protein.ActiveResidues>
 VAL166  LYS551  ARG553  GLY616  TRP617  ASP618  TYR619  PRO620  LYS621  CYS622 
 ASP623  PHE694  ASN695  SER759  ASP760  ASP761  ALA762  ILE779  LEU786  VAL792 
 PHE793  MET794  SER795  GLU796  ALA797  LYS798  CYS799  TRP800  GLU811  SER814 

> <Gold.Protein.RotatedAtoms>
  152.4912  134.4453  159.9556 H   0  0  0  0  0  0  0  0  0  0  0  0  # atno 6907 bound_to 6896
  151.4439  133.3629  159.2793 H   0  0  0  0  0  0  0  0  0  0  0  0  # atno 6908 bound_to 6896
  150.9068  134.8507  159.7458 H   0  0  0  0  0  0  0  0  0  0  0  0  # atno 6909 bound_to 6896
  146.2013  140.3556  142.8422 H   0  0  0  0  0  0  0  0  0  0  0  0  # atno 7974 bound_to 7965
  155.1747  140.0409  157.2870 H   0  0  0  0  0  0  0  0  0  0  0  0  # atno 8008 bound_to 7997
  154.6245  140.2509  155.7481 H   0  0  0  0  0  0  0  0  0  0  0  0  # atno 8009 bound_to 7997
  156.2451  140.2888  156.0568 H   0  0  0  0  0  0  0  0  0  0  0  0  # atno 8010 bound_to 7997
  139.4920  144.5878  151.6742 H   0  0  0  0  0  0  0  0  0  0  0  0  # atno 10167 bound_to 10162
  156.0288  130.4389  150.2710 H   0  0  0  0  0  0  0  0  0  0  0  0  # atno 10718 bound_to 10713
  153.8767  135.6825  153.4770 H   0  0  0  0  0  0  0  0  0  0  0  0  # atno 10763 bound_to 10752
  153.1257  135.4720  154.9266 H   0  0  0  0  0  0  0  0  0  0  0  0  # atno 10764 bound_to 10752
  154.7688  135.3232  154.8182 H   0  0  0  0  0  0  0  0  0  0  0  0  # atno 10765 bound_to 10752
  139.9901  134.9518  156.9836 H   0  0  0  0  0  0  0  0  0  0  0  0  # atno 11005 bound_to 11000
  144.8689  140.7245  143.6059 LP  0  0  0  0  0  0  0  0  0  0  0  0  # atno 17320 bound_to 7965
  145.3475  139.1715  143.4452 LP  0  0  0  0  0  0  0  0  0  0  0  0  # atno 17321 bound_to 7965
  140.5498  144.0443  150.6122 LP  0  0  0  0  0  0  0  0  0  0  0  0  # atno 17342 bound_to 10162
  140.3494  143.2972  152.0504 LP  0  0  0  0  0  0  0  0  0  0  0  0  # atno 17343 bound_to 10162
  157.0813  131.0144  151.3155 LP  0  0  0  0  0  0  0  0  0  0  0  0  # atno 17370 bound_to 10713
  157.4925  130.7830  149.7522 LP  0  0  0  0  0  0  0  0  0  0  0  0  # atno 17371 bound_to 10713
  140.4925  134.1179  155.7235 LP  0  0  0  0  0  0  0  0  0  0  0  0  # atno 17394 bound_to 11000
  141.1558  133.8884  157.1980 LP  0  0  0  0  0  0  0  0  0  0  0  0  # atno 17395 bound_to 11000

$$$$
