AV-unprocessed.smi:1875|AV-procd|sdf|7619|dock2
  -GOLD-   22720 9343D 1   1.00000     0.00000
 Structure written by MMmdl.
 48 50  0  0  0  0  0  0  0  0  2 V2000
  144.9825  135.8013  150.9385 C   0  0  0  0  0  0  0  0  0  0  0  0
  145.1010  136.7007  152.1514 C   0  0  0  0  0  0  0  0  0  0  0  0
  144.0649  136.7128  152.9960 N   0  0  0  0  0  0  0  0  0  0  0  0
  144.1659  137.5200  154.0748 C   0  0  0  0  0  0  0  0  0  0  0  0
  145.3071  138.3150  154.3032 C   0  0  0  0  0  0  0  0  0  0  0  0
  146.3351  138.2175  153.3422 C   0  0  0  0  0  0  0  0  0  0  0  0
  147.6062  139.0310  153.4664 C   0  0  0  0  0  0  0  0  0  0  0  0
  148.7902  138.1818  153.5349 N   0  0  0  0  0  0  0  0  0  0  0  0
  150.0170  138.9297  153.7883 C   0  0  0  0  0  0  0  0  0  0  0  0
  150.8448  138.2834  154.9155 C   0  0  1  0  0  0  0  0  0  0  0  0
  151.5259  137.1652  154.3857 O   0  0  0  0  0  0  0  0  0  0  0  0
  151.9124  139.2191  155.5168 C   0  0  0  0  0  0  0  0  0  0  0  0
  151.3400  140.4309  156.1205 N   0  0  0  0  0  0  0  0  0  0  0  0
  150.3836  141.2677  155.6340 C   0  0  0  0  0  0  0  0  0  0  0  0
  150.1823  142.2452  156.5599 N   0  3  0  0  0  0  0  0  0  0  0  0
  151.0217  142.0298  157.6548 C   0  0  0  0  0  0  0  0  0  0  0  0
  151.1803  142.7489  158.8335 C   0  0  0  0  0  0  0  0  0  0  0  0
  152.1337  142.2687  159.7590 C   0  0  0  0  0  0  0  0  0  0  0  0
  152.3347  143.0338  161.0562 C   0  0  0  0  0  0  0  0  0  0  0  0
  152.8913  141.1003  159.4862 C   0  0  0  0  0  0  0  0  0  0  0  0
  153.9203  140.5974  160.4844 C   0  0  0  0  0  0  0  0  0  0  0  0
  152.7105  140.3793  158.2842 C   0  0  0  0  0  0  0  0  0  0  0  0
  151.7675  140.8665  157.3812 C   0  0  0  0  0  0  0  0  0  0  0  0
  146.2283  137.4098  152.2638 N   0  0  0  0  0  0  0  0  0  0  0  0
  144.3090  134.9657  151.1328 H   0  0  0  0  0  0  0  0  0  0  0  0
  145.9548  135.3924  150.6609 H   0  0  0  0  0  0  0  0  0  0  0  0
  144.5932  136.3655  150.0907 H   0  0  0  0  0  0  0  0  0  0  0  0
  143.3304  137.5332  154.7587 H   0  0  0  0  0  0  0  0  0  0  0  0
  145.3866  138.9618  155.1646 H   0  0  0  0  0  0  0  0  0  0  0  0
  147.6732  139.7026  152.6095 H   0  0  0  0  0  0  0  0  0  0  0  0
  147.5426  139.6621  154.3540 H   0  0  0  0  0  0  0  0  0  0  0  0
  148.8833  137.6712  152.6629 H   0  0  0  0  0  0  0  0  0  0  0  0
  150.6160  139.0138  152.8804 H   0  0  0  0  0  0  0  0  0  0  0  0
  149.7426  139.9455  154.0698 H   0  0  0  0  0  0  0  0  0  0  0  0
  150.1862  137.9423  155.7159 H   0  0  0  0  0  0  0  0  0  0  0  0
  151.1960  136.9965  153.5163 H   0  0  0  0  0  0  0  0  0  0  0  0
  152.4530  138.7003  156.3100 H   0  0  0  0  0  0  0  0  0  0  0  0
  152.6602  139.4975  154.7742 H   0  0  0  0  0  0  0  0  0  0  0  0
  149.8754  141.1721  154.6852 H   0  0  0  0  0  0  0  0  0  0  0  0
  150.6017  143.6391  159.0328 H   0  0  0  0  0  0  0  0  0  0  0  0
  152.1676  142.3843  161.9160 H   0  0  0  0  0  0  0  0  0  0  0  0
  151.6434  143.8735  161.1351 H   0  0  0  0  0  0  0  0  0  0  0  0
  153.3488  143.4303  161.1124 H   0  0  0  0  0  0  0  0  0  0  0  0
  154.4491  139.7223  160.1058 H   0  0  0  0  0  0  0  0  0  0  0  0
  153.4392  140.3178  161.4219 H   0  0  0  0  0  0  0  0  0  0  0  0
  154.6623  141.3686  160.6917 H   0  0  0  0  0  0  0  0  0  0  0  0
  153.2907  139.4920  158.0792 H   0  0  0  0  0  0  0  0  0  0  0  0
  149.5203  143.0028  156.4498 H   0  0  0  0  0  0  0  0  0  0  0  0
  1  2  1  0  0  0  0
  1 25  1  0  0  0  0
  1 26  1  0  0  0  0
  1 27  1  0  0  0  0
  2 24  1  0  0  0  0
  2  3  2  0  0  0  0
  3  4  1  0  0  0  0
  4  5  2  0  0  0  0
  4 28  1  0  0  0  0
  5  6  1  0  0  0  0
  5 29  1  0  0  0  0
  6  7  1  0  0  0  0
  6 24  2  0  0  0  0
  7  8  1  0  0  0  0
  7 30  1  0  0  0  0
  7 31  1  0  0  0  0
  8  9  1  0  0  0  0
  8 32  1  0  0  0  0
  9 10  1  0  0  0  0
  9 33  1  0  0  0  0
  9 34  1  0  0  0  0
 10 11  1  0  0  0  0
 10 12  1  0  0  0  0
 10 35  1  0  0  0  0
 11 36  1  0  0  0  0
 12 13  1  0  0  0  0
 12 37  1  0  0  0  0
 12 38  1  0  0  0  0
 13 23  1  0  0  0  0
 13 14  1  0  0  0  0
 14 15  2  0  0  0  0
 14 39  1  0  0  0  0
 15 16  1  0  0  0  0
 15 48  1  0  0  0  0
 16 23  2  0  0  0  0
 16 17  1  0  0  0  0
 17 18  2  0  0  0  0
 17 40  1  0  0  0  0
 18 19  1  0  0  0  0
 18 20  1  0  0  0  0
 19 41  1  0  0  0  0
 19 42  1  0  0  0  0
 19 43  1  0  0  0  0
 20 21  1  0  0  0  0
 20 22  2  0  0  0  0
 21 44  1  0  0  0  0
 21 45  1  0  0  0  0
 21 46  1  0  0  0  0
 22 23  1  0  0  0  0
 22 47  1  0  0  0  0
M  CHG  1  15   1
M  END
> <s_m_source_file>
AV-unprocessed.smi

> <i_m_source_file_index>
1875

> <i_lp_mmshare_version>
43012

> <i_f3d_flags>
0

> <s_epik_input>
W0NIM11jMW5bY0hdW2NIXWMobjEpW0NIMl1bTkhdW0NIMl1bQ0BIXShbT0hdKVtDSDJdbihbY0hdbjIpYyhjMjMpW2NIXWMoW0NIM10pYyhbY0hdMylbQ0gzXQ==

> <s_epik_cmdline>
J2VwaWtfcHl0aG9uJywgJy1waCcsICc3LjAnLCAnLXRuJywgJzgnLCAnLW1hJywgJzIwMCcsICctbWV0YWxfYmluZGluZycsICctaW1hZScsICc8aW5maWxlLm1hZT4nLCAnLW9tYWUnLCAnPG91dGZpbGUubWFlPic=

> <r_epik_Ionization_Penalty>
2.02862

> <r_epik_Ionization_Penalty_Charging>
1.0004

> <r_epik_Ionization_Penalty_Neutral>
1.02823

> <r_epik_State_Penalty>
2.23022

> <r_epik_Charging_Adjusted_Penalty>
3.23062

> <i_epik_Tot_Q>
1

> <i_epik_Tot_abs_Q>
1

> <r_epik_Metal_State_Penalty>
2.31249

> <b_epik_Metal_Only>
0

> <s_epik_Chemistry_Notes>
This compound contains an electron-poor aromatic ring that is susceptible to covalent hydrolysis at low pH, typically resulting in measured values for nitrogen ring protonation that are around two units higher than predicted values.

> <s_lp_Force_Field>
OPLS_2005

> <r_lp_Energy>
17.8623

> <b_lp_Chiralities_Consistent>
1

> <s_lp_Variant>
AV-unprocessed.smi:1875-8

> <Gold.Version>
5.8.1

> <Gold.Id.Protein>
6NUR|6NUR_protein|mol2

> <Gold.PLP.Fitness>
55.1867

> <Gold.PLP.PLP>
-43.8472

> <Gold.PLP.part.hbond>
-4.1306

> <Gold.PLP.part.metal>
0.0000

> <Gold.PLP.part.buried>
-3.3101

> <Gold.PLP.part.nonpolar>
-37.6762

> <Gold.PLP.part.repulsive>
1.4350

> <Gold.PLP.ligand.clash>
0.0000

> <Gold.PLP.ligand.torsion>
0.6733

> <Gold.PLP.Chemscore.Hbond>
4.2025

> <Gold.PLP.Chemscore.CHOScore>
0.0000

> <Gold.PLP.Chemscore.Metal>
0.0000

> <Gold.Chemscore.Hbonds>
donor molecule, donor type, donor heavy atom, donor atom, acceptor molecule, acceptor atom, score
      L1  H     8    32       P1  7948  1.00
      L1  H    11    36       P1  7949  0.42
      L1  H    15    48       P1  8028  2.00
      P1  H 10752 10765       L1    11  0.77

> <Gold.PLP.Chemscore.Internal.Correction>
0.0785

> <Gold.Rescore>
     Score         DG    S(hbond)    S(metal)    S(lipo)     H(rot)  DE(clash)    DE(int)     intcor
     16.67     -18.45       2.00        0.00     115.09       2.80       0.21       1.56       ----

> <Gold.Chemscore.Fitness>
16.6723

> <Gold.Chemscore.DG>
-18.4519

> <Gold.Chemscore.ZeroCoef>
-5.4800

> <Gold.Chemscore.Hbond>
2.0007

> <Gold.Chemscore.Metal>
0.0000

> <Gold.Chemscore.Lipo>
115.0907

> <Gold.Chemscore.Internal_Hbond>
0.0000

> <Gold.Chemscore.DEClash>
0.2147

> <Gold.Chemscore.DEInternal>
1.5648

> <Gold.Chemscore.Rot>
2.8032

> <Gold.Chemscore.Internal.Correction>
   9.000000E+99

> <Gold.Chemscore.Hbonds>
donor molecule, donor type, donor heavy atom, donor atom, acceptor molecule, acceptor atom, score
      L1  H     8    32       P1  7948  0.95
      L1  H    11    36       P1  7949  0.22
      L1  H    15    48       P1  8028  0.94
      P1  H 10752 10765       L1    11  0.22

> <Gold.Chemscore.Hbond.Weighted>
-6.6824

> <Gold.Chemscore.Metal.Weighted>
-0.0000

> <Gold.Chemscore.Lipo.Weighted>
-13.4656

> <Gold.Chemscore.Internal_Hbond.Weighted>
0.0000

> <Gold.Chemscore.DEClash.Weighted>
0.2147

> <Gold.Chemscore.DEInternal.Weighted>
1.5648

> <Gold.Chemscore.Rot.Weighted>
7.1761

> <Gold.Chemscore.Internal.Correction.Weighted>
   9.000000E+99

> <Gold.Protein.RotatedTorsions>
[ 6907 6896 6895 6894 ] final   68.41 input  -60.11 | X-H torsion
[ 7974 7965 7964 7962 ] final  121.51 input  175.53 | X-H torsion
[ 8008 7997 7996 7995 ] final  129.77 input   59.86 | X-H torsion
[ 10167 10162 10161 10158 ] final -129.00 input  -65.29 | X-H torsion
[ 10718 10713 10712 10709 ] final   -4.00 input   66.30 | X-H torsion
[ 10763 10752 10751 10750 ] final -179.21 input  -60.55 | X-H torsion
[ 11005 11000 10999 10996 ] final  -81.14 input  -57.11 | X-H torsion

> <Gold.Protein.ActiveResidues>
 VAL166  LYS551  ARG553  GLY616  TRP617  ASP618  TYR619  PRO620  LYS621  CYS622 
 ASP623  PHE694  ASN695  SER759  ASP760  ASP761  ALA762  ILE779  LEU786  VAL792 
 PHE793  MET794  SER795  GLU796  ALA797  LYS798  CYS799  TRP800  GLU811  SER814 

> <Gold.Protein.RotatedAtoms>
  152.4618  134.5166  159.9769 H   0  0  0  0  0  0  0  0  0  0  0  0  # atno 6907 bound_to 6896
  151.5214  133.3460  159.2910 H   0  0  0  0  0  0  0  0  0  0  0  0  # atno 6908 bound_to 6896
  150.8584  134.7959  159.7126 H   0  0  0  0  0  0  0  0  0  0  0  0  # atno 6909 bound_to 6896
  145.1184  139.3405  143.4727 H   0  0  0  0  0  0  0  0  0  0  0  0  # atno 7974 bound_to 7965
  156.2942  140.2612  156.2652 H   0  0  0  0  0  0  0  0  0  0  0  0  # atno 8008 bound_to 7997
  154.9749  140.0390  157.2270 H   0  0  0  0  0  0  0  0  0  0  0  0  # atno 8009 bound_to 7997
  154.7825  140.2797  155.6058 H   0  0  0  0  0  0  0  0  0  0  0  0  # atno 8010 bound_to 7997
  139.9444  143.6127  152.2494 H   0  0  0  0  0  0  0  0  0  0  0  0  # atno 10167 bound_to 10162
  156.7678  130.5290  149.5773 H   0  0  0  0  0  0  0  0  0  0  0  0  # atno 10718 bound_to 10713
  154.5380  135.2804  155.1121 H   0  0  0  0  0  0  0  0  0  0  0  0  # atno 10763 bound_to 10752
  154.2615  135.6321  153.5280 H   0  0  0  0  0  0  0  0  0  0  0  0  # atno 10764 bound_to 10752
  152.9972  135.5606  154.5911 H   0  0  0  0  0  0  0  0  0  0  0  0  # atno 10765 bound_to 10752
  141.1667  133.7182  156.8377 H   0  0  0  0  0  0  0  0  0  0  0  0  # atno 11005 bound_to 11000
  146.3522  140.1133  142.8603 LP  0  0  0  0  0  0  0  0  0  0  0  0  # atno 17320 bound_to 7965
  145.0768  140.9193  143.4849 LP  0  0  0  0  0  0  0  0  0  0  0  0  # atno 17321 bound_to 7965
  139.6679  144.7662  151.1839 LP  0  0  0  0  0  0  0  0  0  0  0  0  # atno 17342 bound_to 10162
  140.7601  143.5910  150.8796 LP  0  0  0  0  0  0  0  0  0  0  0  0  # atno 17343 bound_to 10162
  156.1297  130.6169  151.0316 LP  0  0  0  0  0  0  0  0  0  0  0  0  # atno 17370 bound_to 10713
  157.6705  131.0862  150.7624 LP  0  0  0  0  0  0  0  0  0  0  0  0  # atno 17371 bound_to 10713
  140.2005  134.8900  157.3164 LP  0  0  0  0  0  0  0  0  0  0  0  0  # atno 17394 bound_to 11000
  140.2192  134.4044  155.7574 LP  0  0  0  0  0  0  0  0  0  0  0  0  # atno 17395 bound_to 11000

$$$$
