AV-unprocessed.smi:1025|AV-procd|sdf|4466|dock3
  -GOLD-   22720 2443D 1   1.00000     0.00000
 Structure written by MMmdl.
 51 52  0  0  0  0  0  0  0  0  1 V2000
  151.4535  144.1202  157.7169 C   0  0  0  0  0  0  0  0  0  0  0  0
  150.5154  143.1969  157.0975 N   0  0  0  0  0  0  0  0  0  0  0  0
  150.5676  141.8639  157.2348 C   0  0  0  0  0  0  0  0  0  0  0  0
  151.4261  141.2904  157.9062 O   0  0  0  0  0  0  0  0  0  0  0  0
  149.4885  141.0547  156.5019 C   0  0  2  0  0  0  0  0  0  0  0  0
  149.6016  141.2389  154.9737 C   0  0  0  0  0  0  0  0  0  0  0  0
  148.5093  140.4533  154.2297 C   0  0  0  0  0  0  0  0  0  0  0  0
  147.1021  140.8492  154.7198 C   0  0  1  0  0  0  0  0  0  0  0  0
  146.0776  140.0537  154.0502 N   0  0  0  0  0  0  0  0  0  0  0  0
  146.1492  138.7354  153.8186 C   0  0  0  0  0  0  0  0  0  0  0  0
  147.0985  138.0337  154.1669 O   0  0  0  0  0  0  0  0  0  0  0  0
  145.0670  138.3017  153.1507 N   0  0  0  0  0  0  0  0  0  0  0  0
  144.7869  136.9877  152.6901 C   0  0  0  0  0  0  0  0  0  0  0  0
  145.8277  136.2250  152.1244 C   0  0  0  0  0  0  0  0  0  0  0  0
  145.6264  134.9741  151.6601 N   0  0  0  0  0  0  0  0  0  0  0  0
  144.3952  134.4587  151.7750 C   0  0  0  0  0  0  0  0  0  0  0  0
  144.1457  133.0880  151.1215 C   0  0  0  0  0  0  0  0  0  0  0  0
  145.0796  132.0071  151.7157 C   0  0  0  0  0  0  0  0  0  0  0  0
  144.4553  133.1325  149.6067 C   0  0  0  0  0  0  0  0  0  0  0  0
  142.6786  132.6740  151.3387 C   0  0  0  0  0  0  0  0  0  0  0  0
  143.3266  135.1185  152.2408 N   0  0  0  0  0  0  0  0  0  0  0  0
  143.5138  136.3700  152.7115 C   0  0  0  0  0  0  0  0  0  0  0  0
  146.9875  140.6644  156.2436 C   0  0  0  0  0  0  0  0  0  0  0  0
  148.0781  141.4536  156.9852 C   0  0  0  0  0  0  0  0  0  0  0  0
  151.1876  145.1463  157.4634 H   0  0  0  0  0  0  0  0  0  0  0  0
  152.4698  143.9345  157.3668 H   0  0  0  0  0  0  0  0  0  0  0  0
  151.4359  144.0214  158.8030 H   0  0  0  0  0  0  0  0  0  0  0  0
  149.7805  143.5941  156.5303 H   0  0  0  0  0  0  0  0  0  0  0  0
  149.6384  139.9973  156.7280 H   0  0  0  0  0  0  0  0  0  0  0  0
  149.5200  142.2958  154.7142 H   0  0  0  0  0  0  0  0  0  0  0  0
  150.5832  140.9120  154.6277 H   0  0  0  0  0  0  0  0  0  0  0  0
  148.5994  140.6311  153.1575 H   0  0  0  0  0  0  0  0  0  0  0  0
  148.6662  139.3842  154.3793 H   0  0  0  0  0  0  0  0  0  0  0  0
  146.9348  141.9047  154.4950 H   0  0  0  0  0  0  0  0  0  0  0  0
  145.2594  140.5483  153.7267 H   0  0  0  0  0  0  0  0  0  0  0  0
  144.3994  139.0086  152.8795 H   0  0  0  0  0  0  0  0  0  0  0  0
  146.8299  136.6191  152.0407 H   0  0  0  0  0  0  0  0  0  0  0  0
  144.9375  131.0451  151.2219 H   0  0  0  0  0  0  0  0  0  0  0  0
  144.8933  131.8447  152.7779 H   0  0  0  0  0  0  0  0  0  0  0  0
  146.1290  132.2818  151.6017 H   0  0  0  0  0  0  0  0  0  0  0  0
  145.4838  133.4450  149.4213 H   0  0  0  0  0  0  0  0  0  0  0  0
  143.7988  133.8222  149.0750 H   0  0  0  0  0  0  0  0  0  0  0  0
  144.3219  132.1536  149.1447 H   0  0  0  0  0  0  0  0  0  0  0  0
  142.4683  131.7036  150.8876 H   0  0  0  0  0  0  0  0  0  0  0  0
  141.9930  133.3976  150.8966 H   0  0  0  0  0  0  0  0  0  0  0  0
  142.4407  132.6020  152.4006 H   0  0  0  0  0  0  0  0  0  0  0  0
  142.6285  136.8663  153.0769 H   0  0  0  0  0  0  0  0  0  0  0  0
  146.0043  140.9885  156.5873 H   0  0  0  0  0  0  0  0  0  0  0  0
  147.0706  139.6066  156.4972 H   0  0  0  0  0  0  0  0  0  0  0  0
  147.9861  141.2801  158.0583 H   0  0  0  0  0  0  0  0  0  0  0  0
  147.9139  142.5214  156.8305 H   0  0  0  0  0  0  0  0  0  0  0  0
  1  2  1  0  0  0  0
  1 25  1  0  0  0  0
  1 26  1  0  0  0  0
  1 27  1  0  0  0  0
  2  3  1  0  0  0  0
  2 28  1  0  0  0  0
  3  4  2  0  0  0  0
  3  5  1  0  0  0  0
  5 24  1  0  0  0  0
  5  6  1  0  0  0  0
  5 29  1  0  0  0  0
  6  7  1  0  0  0  0
  6 30  1  0  0  0  0
  6 31  1  0  0  0  0
  7  8  1  0  0  0  0
  7 32  1  0  0  0  0
  7 33  1  0  0  0  0
  8  9  1  0  0  0  0
  8 23  1  0  0  0  0
  8 34  1  0  0  0  0
  9 10  1  0  0  0  0
  9 35  1  0  0  0  0
 10 11  2  0  0  0  0
 10 12  1  0  0  0  0
 12 13  1  0  0  0  0
 12 36  1  0  0  0  0
 13 22  1  0  0  0  0
 13 14  2  0  0  0  0
 14 15  1  0  0  0  0
 14 37  1  0  0  0  0
 15 16  2  0  0  0  0
 16 17  1  0  0  0  0
 16 21  1  0  0  0  0
 17 18  1  0  0  0  0
 17 19  1  0  0  0  0
 17 20  1  0  0  0  0
 18 38  1  0  0  0  0
 18 39  1  0  0  0  0
 18 40  1  0  0  0  0
 19 41  1  0  0  0  0
 19 42  1  0  0  0  0
 19 43  1  0  0  0  0
 20 44  1  0  0  0  0
 20 45  1  0  0  0  0
 20 46  1  0  0  0  0
 21 22  2  0  0  0  0
 22 47  1  0  0  0  0
 23 24  1  0  0  0  0
 23 48  1  0  0  0  0
 23 49  1  0  0  0  0
 24 50  1  0  0  0  0
 24 51  1  0  0  0  0
M  END
> <s_m_source_file>
AV-unprocessed.smi

> <i_m_source_file_index>
1025

> <i_lp_mmshare_version>
43012

> <i_f3d_flags>
0

> <s_epik_input>
W0NIM11bTkhdQyg9TylbQ0BASF0xW0NIMl1bQ0gyXVtDQEhdKFtDSDJdW0NIMl0xKVtOSF1DKD1PKVtOSF1jMltjSF1uYyhDKFtDSDNdKShbQ0gzXSlbQ0gzXSluW2NIXTI=

> <s_epik_cmdline>
J2VwaWtfcHl0aG9uJywgJy1waCcsICc3LjAnLCAnLXRuJywgJzgnLCAnLW1hJywgJzIwMCcsICctbWV0YWxfYmluZGluZycsICctaW1hZScsICc8aW5maWxlLm1hZT4nLCAnLW9tYWUnLCAnPG91dGZpbGUubWFlPic=

> <r_lp_tautomer_probability>
1

> <r_epik_Ionization_Penalty>
2.76239e-05

> <r_epik_Ionization_Penalty_Charging>
0

> <r_epik_Ionization_Penalty_Neutral>
2.76239e-05

> <r_epik_State_Penalty>
-0

> <r_epik_Charging_Adjusted_Penalty>
0

> <i_epik_Tot_Q>
0

> <i_epik_Tot_abs_Q>
0

> <r_epik_Metal_State_Penalty>
-0

> <b_epik_Metal_Only>
0

> <s_lp_Force_Field>
OPLS_2005

> <r_lp_Energy>
8.76335

> <b_lp_Chiralities_Consistent>
1

> <s_lp_Variant>
AV-unprocessed.smi:1025-1

> <Gold.Version>
5.8.1

> <Gold.Id.Protein>
6NUR|6NUR_protein|mol2

> <Gold.PLP.Fitness>
45.3693

> <Gold.PLP.PLP>
-34.8342

> <Gold.PLP.part.hbond>
-3.0000

> <Gold.PLP.part.metal>
0.0000

> <Gold.PLP.part.buried>
-1.9222

> <Gold.PLP.part.nonpolar>
-30.3405

> <Gold.PLP.part.repulsive>
0.5177

> <Gold.PLP.ligand.clash>
0.0000

> <Gold.PLP.ligand.torsion>
0.6767

> <Gold.PLP.Chemscore.Hbond>
2.9120

> <Gold.PLP.Chemscore.CHOScore>
1.0000

> <Gold.PLP.Chemscore.Metal>
0.0000

> <Gold.Chemscore.Hbonds>
donor molecule, donor type, donor heavy atom, donor atom, acceptor molecule, acceptor atom, score
      L1  H     2    28       P1  8028  1.00
      L1  H     9    35       P1 10175  0.91
      L1  H    12    36       P1 10175  1.00
      L1  C    14    37       P1  7948  1.00

> <Gold.PLP.Chemscore.Internal.Correction>
0.1524

> <Gold.Rescore>
     Score         DG    S(hbond)    S(metal)    S(lipo)     H(rot)  DE(clash)    DE(int)     intcor
     17.92     -21.28       2.89        0.00      85.81       1.52       0.20       3.16       ----

> <Gold.Chemscore.Fitness>
17.9207

> <Gold.Chemscore.DG>
-21.2785

> <Gold.Chemscore.ZeroCoef>
-5.4800

> <Gold.Chemscore.Hbond>
2.8869

> <Gold.Chemscore.Metal>
0.0000

> <Gold.Chemscore.Lipo>
85.8143

> <Gold.Chemscore.Internal_Hbond>
0.0000

> <Gold.Chemscore.DEClash>
0.2017

> <Gold.Chemscore.DEInternal>
3.1561

> <Gold.Chemscore.Rot>
1.5171

> <Gold.Chemscore.Internal.Correction>
   9.000000E+99

> <Gold.Chemscore.Hbonds>
donor molecule, donor type, donor heavy atom, donor atom, acceptor molecule, acceptor atom, score
      L1  H     2    28       P1  8028  0.99
      L1  H     9    35       P1 10175  0.83
      L1  H    12    36       P1 10175  1.00

> <Gold.Chemscore.Hbond.Weighted>
-9.6421

> <Gold.Chemscore.Metal.Weighted>
-0.0000

> <Gold.Chemscore.Lipo.Weighted>
-10.0403

> <Gold.Chemscore.Internal_Hbond.Weighted>
0.0000

> <Gold.Chemscore.DEClash.Weighted>
0.2017

> <Gold.Chemscore.DEInternal.Weighted>
3.1561

> <Gold.Chemscore.Rot.Weighted>
3.8839

> <Gold.Chemscore.Internal.Correction.Weighted>
   9.000000E+99

> <Gold.Protein.RotatedTorsions>
[ 6907 6896 6895 6894 ] final  -35.11 input  -60.11 | X-H torsion
[ 7974 7965 7964 7962 ] final   -6.45 input  175.53 | X-H torsion
[ 8008 7997 7996 7995 ] final -139.67 input   59.86 | X-H torsion
[ 10167 10162 10161 10158 ] final  -38.10 input  -65.29 | X-H torsion
[ 10718 10713 10712 10709 ] final  -51.71 input   66.30 | X-H torsion
[ 10763 10752 10751 10750 ] final   80.99 input  -60.55 | X-H torsion
[ 11005 11000 10999 10996 ] final   66.13 input  -57.11 | X-H torsion

> <Gold.Protein.ActiveResidues>
 VAL166  LYS551  ARG553  GLY616  TRP617  ASP618  TYR619  PRO620  LYS621  CYS622 
 ASP623  PHE694  ASN695  SER759  ASP760  ASP761  ALA762  ILE779  LEU786  VAL792 
 PHE793  MET794  SER795  GLU796  ALA797  LYS798  CYS799  TRP800  GLU811  SER814 

> <Gold.Protein.RotatedAtoms>
  151.0440  134.9627  159.8176 H   0  0  0  0  0  0  0  0  0  0  0  0  # atno 6907 bound_to 6896
  152.5369  134.2622  159.8949 H   0  0  0  0  0  0  0  0  0  0  0  0  # atno 6908 bound_to 6896
  151.2635  133.4247  159.2651 H   0  0  0  0  0  0  0  0  0  0  0  0  # atno 6909 bound_to 6896
  146.2330  140.2173  142.8336 H   0  0  0  0  0  0  0  0  0  0  0  0  # atno 7974 bound_to 7965
  155.4487  140.0537  157.3003 H   0  0  0  0  0  0  0  0  0  0  0  0  # atno 8008 bound_to 7997
  154.4787  140.2072  155.9773 H   0  0  0  0  0  0  0  0  0  0  0  0  # atno 8009 bound_to 7997
  156.1172  140.3194  155.8160 H   0  0  0  0  0  0  0  0  0  0  0  0  # atno 8010 bound_to 7997
  140.7101  143.3299  151.2594 H   0  0  0  0  0  0  0  0  0  0  0  0  # atno 10167 bound_to 10162
  156.1686  130.4149  149.9682 H   0  0  0  0  0  0  0  0  0  0  0  0  # atno 10718 bound_to 10713
  153.1079  135.4782  154.8984 H   0  0  0  0  0  0  0  0  0  0  0  0  # atno 10763 bound_to 10752
  154.7450  135.3091  154.8663 H   0  0  0  0  0  0  0  0  0  0  0  0  # atno 10764 bound_to 10752
  153.9260  135.6850  153.4800 H   0  0  0  0  0  0  0  0  0  0  0  0  # atno 10765 bound_to 10752
  139.9851  134.6681  156.0191 H   0  0  0  0  0  0  0  0  0  0  0  0  # atno 11005 bound_to 11000
  144.9660  140.8322  143.5484 LP  0  0  0  0  0  0  0  0  0  0  0  0  # atno 17320 bound_to 7965
  145.2149  139.2187  143.5123 LP  0  0  0  0  0  0  0  0  0  0  0  0  # atno 17321 bound_to 7965
  139.6778  143.9908  152.2791 LP  0  0  0  0  0  0  0  0  0  0  0  0  # atno 17342 bound_to 10162
  139.9527  144.6609  150.8156 LP  0  0  0  0  0  0  0  0  0  0  0  0  # atno 17343 bound_to 10162
  156.7489  130.9108  151.3636 LP  0  0  0  0  0  0  0  0  0  0  0  0  # atno 17370 bound_to 10713
  157.6786  130.9118  150.0211 LP  0  0  0  0  0  0  0  0  0  0  0  0  # atno 17371 bound_to 10713
  141.1517  133.6547  156.4035 LP  0  0  0  0  0  0  0  0  0  0  0  0  # atno 17394 bound_to 11000
  140.5018  134.6478  157.5251 LP  0  0  0  0  0  0  0  0  0  0  0  0  # atno 17395 bound_to 11000

$$$$
