AV-unprocessed.smi:1817|AV-procd|sdf|7372|dock9
  -GOLD-   22720 9 43D 1   1.00000     0.00000
 Structure written by MMmdl.
 42 43  0  0  0  0  0  0  0  0  1 V2000
  152.5416  143.7170  158.9811 C   0  0  0  0  0  0  0  0  0  0  0  0
  151.0542  143.3921  158.7827 C   0  0  0  0  0  0  0  0  0  0  0  0
  150.7851  142.1459  158.0677 N   0  0  0  0  0  0  0  0  0  0  0  0
  151.6281  141.0643  158.5708 C   0  0  0  0  0  0  0  0  0  0  0  0
  151.3490  139.7365  157.8432 C   0  0  0  0  0  0  0  0  0  0  0  0
  151.5768  139.8403  156.3954 N   0  0  0  0  0  0  0  0  0  0  0  0
  151.3240  138.5664  155.6875 C   0  0  2  0  0  0  0  0  0  0  0  0
  152.1504  138.4084  154.3912 C   0  0  0  0  0  0  0  0  0  0  0  0
  149.8299  138.3183  155.3519 C   0  0  0  0  0  0  0  0  0  0  0  0
  149.6105  137.0250  154.7070 N   0  0  0  0  0  0  0  0  0  0  0  0
  149.7889  135.8253  155.2779 C   0  0  0  0  0  0  0  0  0  0  0  0
  150.1500  135.6736  156.4448 O   0  0  0  0  0  0  0  0  0  0  0  0
  149.5281  134.8335  154.4110 N   0  0  0  0  0  0  0  0  0  0  0  0
  149.6030  133.4361  154.6365 C   0  0  0  0  0  0  0  0  0  0  0  0
  150.1979  133.0112  155.7575 N   0  0  0  0  0  0  0  0  0  0  0  0
  150.2027  131.6248  155.8511 N   0  0  0  0  0  0  0  0  0  0  0  0
  149.6105  131.0578  154.7956 C   0  0  0  0  0  0  0  0  0  0  0  0
  148.9876  132.1604  153.5812 S   0  0  0  0  0  0  0  0  0  0  0  0
  150.7372  140.9387  155.8970 C   0  0  0  0  0  0  0  0  0  0  0  0
  151.0177  142.2645  156.6282 C   0  0  0  0  0  0  0  0  0  0  0  0
  152.6605  144.7052  159.4254 H   0  0  0  0  0  0  0  0  0  0  0  0
  153.0744  143.7168  158.0297 H   0  0  0  0  0  0  0  0  0  0  0  0
  153.0309  143.0041  159.6441 H   0  0  0  0  0  0  0  0  0  0  0  0
  150.5517  143.3812  159.7512 H   0  0  0  0  0  0  0  0  0  0  0  0
  150.6120  144.2189  158.2254 H   0  0  0  0  0  0  0  0  0  0  0  0
  152.6815  141.3272  158.4593 H   0  0  0  0  0  0  0  0  0  0  0  0
  151.4535  140.9284  159.6387 H   0  0  0  0  0  0  0  0  0  0  0  0
  152.0051  138.9847  158.2791 H   0  0  0  0  0  0  0  0  0  0  0  0
  150.3250  139.4149  158.0403 H   0  0  0  0  0  0  0  0  0  0  0  0
  151.6284  137.7511  156.3458 H   0  0  0  0  0  0  0  0  0  0  0  0
  151.8476  137.5213  153.8342 H   0  0  0  0  0  0  0  0  0  0  0  0
  153.2138  138.2885  154.5961 H   0  0  0  0  0  0  0  0  0  0  0  0
  152.0297  139.2680  153.7313 H   0  0  0  0  0  0  0  0  0  0  0  0
  149.2217  138.4101  156.2533 H   0  0  0  0  0  0  0  0  0  0  0  0
  149.4483  139.0952  154.6903 H   0  0  0  0  0  0  0  0  0  0  0  0
  149.3213  137.0501  153.7401 H   0  0  0  0  0  0  0  0  0  0  0  0
  149.2446  135.1081  153.4819 H   0  0  0  0  0  0  0  0  0  0  0  0
  149.5402  129.9821  154.7319 H   0  0  0  0  0  0  0  0  0  0  0  0
  150.9196  141.1085  154.8373 H   0  0  0  0  0  0  0  0  0  0  0  0
  149.6823  140.6786  155.9971 H   0  0  0  0  0  0  0  0  0  0  0  0
  150.3738  143.0348  156.2053 H   0  0  0  0  0  0  0  0  0  0  0  0
  152.0458  142.5774  156.4387 H   0  0  0  0  0  0  0  0  0  0  0  0
  1  2  1  0  0  0  0
  1 21  1  0  0  0  0
  1 22  1  0  0  0  0
  1 23  1  0  0  0  0
  2  3  1  0  0  0  0
  2 24  1  0  0  0  0
  2 25  1  0  0  0  0
  3 20  1  0  0  0  0
  3  4  1  0  0  0  0
  4  5  1  0  0  0  0
  4 26  1  0  0  0  0
  4 27  1  0  0  0  0
  5  6  1  0  0  0  0
  5 28  1  0  0  0  0
  5 29  1  0  0  0  0
  6  7  1  0  0  0  0
  6 19  1  0  0  0  0
  7  8  1  0  0  0  0
  7  9  1  0  0  0  0
  7 30  1  0  0  0  0
  8 31  1  0  0  0  0
  8 32  1  0  0  0  0
  8 33  1  0  0  0  0
  9 10  1  0  0  0  0
  9 34  1  0  0  0  0
  9 35  1  0  0  0  0
 10 11  1  0  0  0  0
 10 36  1  0  0  0  0
 11 12  2  0  0  0  0
 11 13  1  0  0  0  0
 13 14  1  0  0  0  0
 13 37  1  0  0  0  0
 14 18  1  0  0  0  0
 14 15  2  0  0  0  0
 15 16  1  0  0  0  0
 16 17  2  0  0  0  0
 17 18  1  0  0  0  0
 17 38  1  0  0  0  0
 19 20  1  0  0  0  0
 19 39  1  0  0  0  0
 19 40  1  0  0  0  0
 20 41  1  0  0  0  0
 20 42  1  0  0  0  0
M  END
> <s_m_source_file>
AV-unprocessed.smi

> <i_m_source_file_index>
1817

> <i_lp_mmshare_version>
43012

> <i_f3d_flags>
0

> <s_epik_input>
W0NIM11bQ0gyXU4xW0NIMl1bQ0gyXU4oW0NIMl1bQ0gyXTEpW0NASF0oW0NIM10pW0NIMl1bTkhdQyg9TylbTkhdYzJubltjSF1zMg==

> <s_epik_cmdline>
J2VwaWtfcHl0aG9uJywgJy1waCcsICc3LjAnLCAnLXRuJywgJzgnLCAnLW1hJywgJzIwMCcsICctbWV0YWxfYmluZGluZycsICctaW1hZScsICc8aW5maWxlLm1hZT4nLCAnLW9tYWUnLCAnPG91dGZpbGUubWFlPic=

> <r_lp_tautomer_probability>
1

> <r_epik_Ionization_Penalty>
2.44129

> <r_epik_Ionization_Penalty_Charging>
0

> <r_epik_Ionization_Penalty_Neutral>
2.44129

> <r_epik_State_Penalty>
1.7682

> <r_epik_Charging_Adjusted_Penalty>
1.7682

> <i_epik_Tot_Q>
0

> <i_epik_Tot_abs_Q>
0

> <r_epik_Metal_State_Penalty>
2.10306

> <b_epik_Metal_Only>
0

> <s_lp_Force_Field>
OPLS_2005

> <r_lp_Energy>
42.0041

> <b_lp_Chiralities_Consistent>
1

> <s_lp_Variant>
AV-unprocessed.smi:1817-5

> <Gold.Version>
5.8.1

> <Gold.Id.Protein>
6NUR|6NUR_protein|mol2

> <Gold.PLP.Fitness>
38.4519

> <Gold.PLP.PLP>
-33.9753

> <Gold.PLP.part.hbond>
-2.0000

> <Gold.PLP.part.metal>
0.0000

> <Gold.PLP.part.buried>
-6.9043

> <Gold.PLP.part.nonpolar>
-26.1288

> <Gold.PLP.part.repulsive>
0.1188

> <Gold.PLP.ligand.clash>
0.0000

> <Gold.PLP.ligand.torsion>
0.7168

> <Gold.PLP.Chemscore.Hbond>
1.9588

> <Gold.PLP.Chemscore.CHOScore>
0.0000

> <Gold.PLP.Chemscore.Metal>
0.0000

> <Gold.Chemscore.Hbonds>
donor molecule, donor type, donor heavy atom, donor atom, acceptor molecule, acceptor atom, score
      L1  H    10    36       P1  7948  0.93
      L1  H    13    37       P1  7948  0.90

> <Gold.PLP.Chemscore.Internal.Correction>
0.0339

> <Gold.Rescore>
     Score         DG    S(hbond)    S(metal)    S(lipo)     H(rot)  DE(clash)    DE(int)     intcor
     13.32     -15.61       1.82        0.00      75.76       1.87       0.01       2.28       ----

> <Gold.Chemscore.Fitness>
13.3224

> <Gold.Chemscore.DG>
-15.6126

> <Gold.Chemscore.ZeroCoef>
-5.4800

> <Gold.Chemscore.Hbond>
1.8156

> <Gold.Chemscore.Metal>
0.0000

> <Gold.Chemscore.Lipo>
75.7627

> <Gold.Chemscore.Internal_Hbond>
0.0000

> <Gold.Chemscore.DEClash>
0.0106

> <Gold.Chemscore.DEInternal>
2.2796

> <Gold.Chemscore.Rot>
1.8733

> <Gold.Chemscore.Internal.Correction>
   9.000000E+99

> <Gold.Chemscore.Hbonds>
donor molecule, donor type, donor heavy atom, donor atom, acceptor molecule, acceptor atom, score
      L1  H    10    36       P1  7948  0.85
      L1  H    13    37       P1  7948  0.18

> <Gold.Chemscore.Hbond.Weighted>
-6.0641

> <Gold.Chemscore.Metal.Weighted>
-0.0000

> <Gold.Chemscore.Lipo.Weighted>
-8.8642

> <Gold.Chemscore.Internal_Hbond.Weighted>
0.0000

> <Gold.Chemscore.DEClash.Weighted>
0.0106

> <Gold.Chemscore.DEInternal.Weighted>
2.2796

> <Gold.Chemscore.Rot.Weighted>
4.7957

> <Gold.Chemscore.Internal.Correction.Weighted>
   9.000000E+99

> <Gold.Protein.RotatedTorsions>
[ 6907 6896 6895 6894 ] final   51.23 input  -60.11 | X-H torsion
[ 7974 7965 7964 7962 ] final   49.38 input  175.53 | X-H torsion
[ 8008 7997 7996 7995 ] final  156.73 input   59.86 | X-H torsion
[ 10167 10162 10161 10158 ] final  -17.32 input  -65.29 | X-H torsion
[ 10718 10713 10712 10709 ] final  -94.06 input   66.30 | X-H torsion
[ 10763 10752 10751 10750 ] final  -52.55 input  -60.55 | X-H torsion
[ 11005 11000 10999 10996 ] final  159.51 input  -57.11 | X-H torsion

> <Gold.Protein.ActiveResidues>
 VAL166  LYS551  ARG553  GLY616  TRP617  ASP618  TYR619  PRO620  LYS621  CYS622 
 ASP623  PHE694  ASN695  SER759  ASP760  ASP761  ALA762  ILE779  LEU786  VAL792 
 PHE793  MET794  SER795  GLU796  ALA797  LYS798  CYS799  TRP800  GLU811  SER814 

> <Gold.Protein.RotatedAtoms>
  152.3104  134.7504  160.0337 H   0  0  0  0  0  0  0  0  0  0  0  0  # atno 6907 bound_to 6896
  151.7987  133.3362  159.3528 H   0  0  0  0  0  0  0  0  0  0  0  0  # atno 6908 bound_to 6896
  150.7317  134.5705  159.5932 H   0  0  0  0  0  0  0  0  0  0  0  0  # atno 6909 bound_to 6896
  146.0114  139.4548  142.9953 H   0  0  0  0  0  0  0  0  0  0  0  0  # atno 7974 bound_to 7965
  156.2406  140.1904  156.7000 H   0  0  0  0  0  0  0  0  0  0  0  0  # atno 8008 bound_to 7997
  154.6189  140.0611  156.9616 H   0  0  0  0  0  0  0  0  0  0  0  0  # atno 8009 bound_to 7997
  155.1894  140.3283  155.4364 H   0  0  0  0  0  0  0  0  0  0  0  0  # atno 8010 bound_to 7997
  140.7245  143.5028  150.9848 H   0  0  0  0  0  0  0  0  0  0  0  0  # atno 10167 bound_to 10162
  156.0021  130.5052  150.5869 H   0  0  0  0  0  0  0  0  0  0  0  0  # atno 10718 bound_to 10713
  154.1445  135.6500  153.4949 H   0  0  0  0  0  0  0  0  0  0  0  0  # atno 10763 bound_to 10752
  153.0156  135.5323  154.6871 H   0  0  0  0  0  0  0  0  0  0  0  0  # atno 10764 bound_to 10752
  154.6142  135.2957  155.0370 H   0  0  0  0  0  0  0  0  0  0  0  0  # atno 10765 bound_to 10752
  140.1969  134.8366  157.2975 H   0  0  0  0  0  0  0  0  0  0  0  0  # atno 11005 bound_to 11000
  145.7336  141.0033  143.1339 LP  0  0  0  0  0  0  0  0  0  0  0  0  # atno 17320 bound_to 7965
  144.6954  139.9014  143.7458 LP  0  0  0  0  0  0  0  0  0  0  0  0  # atno 17321 bound_to 7965
  139.8738  143.7159  152.3164 LP  0  0  0  0  0  0  0  0  0  0  0  0  # atno 17342 bound_to 10162
  139.7417  144.7558  151.0642 LP  0  0  0  0  0  0  0  0  0  0  0  0  # atno 17343 bound_to 10162
  157.3740  131.0770  151.1533 LP  0  0  0  0  0  0  0  0  0  0  0  0  # atno 17370 bound_to 10713
  157.2277  130.6511  149.5837 LP  0  0  0  0  0  0  0  0  0  0  0  0  # atno 17371 bound_to 10713
  140.2097  134.4154  155.7619 LP  0  0  0  0  0  0  0  0  0  0  0  0  # atno 17394 bound_to 11000
  141.2227  133.7112  156.8318 LP  0  0  0  0  0  0  0  0  0  0  0  0  # atno 17395 bound_to 11000

$$$$
