#       Name:                AV-unprocessed.smi:1080
#       Creating user name   scv26
#       Creation time:       Fri Mar 27 03:23:34 2020


#       File generated by GOLD software.
#

@<TRIPOS>MOLECULE
AV-unprocessed.smi:1080
    53    55     1
SMALL
NO_CHARGES


@<TRIPOS>ATOM
      1 ****        -1.8327   3.3341  -0.2440 O.2            1 S1                 0.0000
      2 ****        -2.3115   2.2065  -0.1250 C.2            1 S1                 0.0000
      3 ****        -3.6253   1.9272  -0.0632 N.am           1 S1                 0.0000
      4 ****        -4.7207   2.8329  -0.0821 C.ar           1 S1                 0.0000
      5 ****        -5.9749   2.3378  -0.5036 C.ar           1 S1                 0.0000
      6 ****        -7.0916   3.1982  -0.5215 C.ar           1 S1                 0.0000
      7 ****        -6.9580   4.4823  -0.1261 N.pl3          1 S1                 1.0000
      8 ****        -5.7843   4.9967   0.2996 C.ar           1 S1                 0.0000
      9 ****        -4.6326   4.1843   0.3387 C.ar           1 S1                 0.0000
     10 ****        -1.5762   1.0868  -0.0638 N.am           1 S1                 0.0000
     11 ****        -0.1188   1.0119  -0.1302 C.3            1 S1                 0.0000
     12 ****         0.3037   0.2593  -1.4043 C.3            1 S1                 0.0000
     13 ****         1.8282   0.0291  -1.4631 C.3            1 S1                 0.0000
     14 ****         2.4304  -0.6089  -0.1841 C.3            1 S1                 0.0000
     15 ****         2.1766  -2.1328  -0.0639 C.2            1 S1                 0.0000
     16 ****         1.1536  -2.6033  -0.5626 O.2            1 S1                 0.0000
     17 ****         3.0901  -2.9249   0.5547 N.am           1 S1                 0.0000
     18 ****         2.9886  -4.3902   0.5469 C.3            1 S1                 0.0000
     19 ****         3.9534  -4.9519  -0.5111 C.3            1 S1                 0.0000
     20 ****         5.6805  -4.5407  -0.1071 S.3            1 S1                 0.0000
     21 ****         5.5071  -2.7554   0.2028 C.3            1 S1                 0.0000
     22 ****         4.3457  -2.4780   1.1716 C.3            1 S1                 0.0000
     23 ****         1.9494   0.1576   1.0693 C.3            1 S1                 0.0000
     24 ****         0.4200   0.3094   1.1278 C.3            1 S1                 0.0000
     25 ****        -3.8705   0.9478  -0.0618 H              1 S1                 0.0000
     26 ****        -6.0828   1.3096  -0.8186 H              1 S1                 0.0000
     27 ****        -8.0807   2.8991  -0.8366 H              1 S1                 0.0000
     28 ****        -5.8024   6.0341   0.6004 H              1 S1                 0.0000
     29 ****        -3.7088   4.6085   0.7016 H              1 S1                 0.0000
     30 ****        -2.0633   0.2074   0.0288 H              1 S1                 0.0000
     31 ****         0.3136   2.0135  -0.1668 H              1 S1                 0.0000
     32 ****        -0.2234  -0.6925  -1.4615 H              1 S1                 0.0000
     33 ****        -0.0090   0.8224  -2.2844 H              1 S1                 0.0000
     34 ****         2.0724  -0.5756  -2.3377 H              1 S1                 0.0000
     35 ****         2.3142   0.9913  -1.6294 H              1 S1                 0.0000
     36 ****         3.5050  -0.4646  -0.2861 H              1 S1                 0.0000
     37 ****         3.2338  -4.7921   1.5309 H              1 S1                 0.0000
     38 ****         1.9746  -4.7360   0.3421 H              1 S1                 0.0000
     39 ****         3.8578  -6.0358  -0.5772 H              1 S1                 0.0000
     40 ****         3.7127  -4.5495  -1.4958 H              1 S1                 0.0000
     41 ****         6.4441  -2.3795   0.6139 H              1 S1                 0.0000
     42 ****         5.3446  -2.2428  -0.7458 H              1 S1                 0.0000
     43 ****         4.3308  -1.4281   1.4582 H              1 S1                 0.0000
     44 ****         4.5104  -3.0139   2.1075 H              1 S1                 0.0000
     45 ****         2.2963  -0.3360   1.9778 H              1 S1                 0.0000
     46 ****         2.4068   1.1477   1.0775 H              1 S1                 0.0000
     47 ****         0.1465   0.8803   2.0162 H              1 S1                 0.0000
     48 ****        -0.0448  -0.6713   1.2385 H              1 S1                 0.0000
     49 ****        -7.7791   5.0880  -0.1453 H              1 S1                 0.0000
     50 ****        -2.4357   4.1297  -0.3026 LP             1 S1                 0.0000
     51 ****        -0.8407   3.4546  -0.2822 LP             1 S1                 0.0000
     52 ****         0.5060  -2.0045  -1.0338 LP             1 S1                 0.0000
     53 ****         0.9706  -3.5842  -0.4964 LP             1 S1                 0.0000
@<TRIPOS>BOND
    1    1    2 2     
    2    2    3 am    
    3    2   10 am    
    4    3    4 1     
    5    3   25 1     
    6    4    9 ar    
    7    4    5 ar    
    8    5    6 ar    
    9    5   26 1     
   10    6    7 ar    
   11    6   27 1     
   12    7    8 ar    
   13    7   49 1     
   14    8    9 ar    
   15    8   28 1     
   16    9   29 1     
   17   10   11 1     
   18   10   30 1     
   19   11   24 1     
   20   11   12 1     
   21   11   31 1     
   22   12   13 1     
   23   12   32 1     
   24   12   33 1     
   25   13   14 1     
   26   13   34 1     
   27   13   35 1     
   28   14   15 1     
   29   14   23 1     
   30   14   36 1     
   31   15   16 2     
   32   15   17 am    
   33   17   22 1     
   34   17   18 1     
   35   18   19 1     
   36   18   37 1     
   37   18   38 1     
   38   19   20 1     
   39   19   39 1     
   40   19   40 1     
   41   20   21 1     
   42   21   22 1     
   43   21   41 1     
   44   21   42 1     
   45   22   43 1     
   46   22   44 1     
   47   23   24 1     
   48   23   45 1     
   49   23   46 1     
   50   24   47 1     
   51   24   48 1     
   52    1   50 1     
   53    1   51 1     
   54   16   52 1     
   55   16   53 1     
@<TRIPOS>SUBSTRUCTURE
      1 S1             1
@<TRIPOS>SET
LONE_PAIRS      STATIC     ATOMS    <user>   **** ""
4 50 51 52 53
DONOR_HYDROGENS      STATIC     ATOMS    <user>   **** ""
3 25 49 30
ATOM$BLUE        STATIC     ATOMS    COLORGROUP SYSTEM
4 50 51 52 53
ATOM$RED        STATIC     ATOMS    COLORGROUP SYSTEM
3 25 49 30
