AV-unprocessed.smi:1425|AV-procd|sdf|5804|dock1
  -GOLD-   22720 5453D 1   1.00000     0.00000
 Structure written by MMmdl.
 36 37  0  0  0  0  0  0  0  0  1 V2000
  146.1740  134.5965  151.4765 C   0  0  0  0  0  0  0  0  0  0  0  0
  146.3771  133.1354  151.8440 C   0  0  0  0  0  0  0  0  0  0  0  0
  145.4694  132.1695  151.3600 C   0  0  0  0  0  0  0  0  0  0  0  0
  145.6581  130.8194  151.7011 C   0  0  0  0  0  0  0  0  0  0  0  0
  146.7537  130.4902  152.5174 C   0  0  0  0  0  0  0  0  0  0  0  0
  147.6261  131.4068  152.9842 N   0  0  0  0  0  0  0  0  0  0  0  0
  147.4583  132.7147  152.6642 C   0  0  0  0  0  0  0  0  0  0  0  0
  148.3339  133.7381  153.1247 N   0  0  0  0  0  0  0  0  0  0  0  0
  149.1825  133.7089  154.1675 C   0  0  0  0  0  0  0  0  0  0  0  0
  149.3738  132.7420  154.9054 O   0  0  0  0  0  0  0  0  0  0  0  0
  149.8135  134.8840  154.3078 N   0  0  0  0  0  0  0  0  0  0  0  0
  150.7957  135.2032  155.3396 C   0  0  0  0  0  0  0  0  0  0  0  0
  150.9028  136.7209  155.5806 C   0  0  1  0  0  0  0  0  0  0  0  0
  151.8835  137.0636  156.7190 C   0  0  0  0  0  0  0  0  0  0  0  0
  152.1259  138.5761  156.7191 C   0  0  0  0  0  0  0  0  0  0  0  0
  152.0617  139.0843  154.9611 S   0  0  0  0  0  0  0  0  0  0  0  0
  151.0869  140.1757  154.8144 O   0  0  0  0  0  0  0  0  0  0  0  0
  153.4301  139.2157  154.4384 O   0  0  0  0  0  0  0  0  0  0  0  0
  151.3341  137.5208  154.3385 C   0  0  0  0  0  0  0  0  0  0  0  0
  145.2995  134.7280  150.8388 H   0  0  0  0  0  0  0  0  0  0  0  0
  147.0416  134.9792  150.9381 H   0  0  0  0  0  0  0  0  0  0  0  0
  146.0280  135.1991  152.3734 H   0  0  0  0  0  0  0  0  0  0  0  0
  144.6365  132.4567  150.7349 H   0  0  0  0  0  0  0  0  0  0  0  0
  144.9808  130.0565  151.3469 H   0  0  0  0  0  0  0  0  0  0  0  0
  146.9348  129.4649  152.8038 H   0  0  0  0  0  0  0  0  0  0  0  0
  148.2980  134.6012  152.6035 H   0  0  0  0  0  0  0  0  0  0  0  0
  149.5933  135.6194  153.6522 H   0  0  0  0  0  0  0  0  0  0  0  0
  150.4773  134.7100  156.2584 H   0  0  0  0  0  0  0  0  0  0  0  0
  151.7734  134.7836  155.0956 H   0  0  0  0  0  0  0  0  0  0  0  0
  149.9217  137.0905  155.8827 H   0  0  0  0  0  0  0  0  0  0  0  0
  151.5160  136.7207  157.6866 H   0  0  0  0  0  0  0  0  0  0  0  0
  152.8320  136.5554  156.5404 H   0  0  0  0  0  0  0  0  0  0  0  0
  151.3285  139.0964  157.2502 H   0  0  0  0  0  0  0  0  0  0  0  0
  153.0822  138.8572  157.1602 H   0  0  0  0  0  0  0  0  0  0  0  0
  152.1100  136.9932  153.7827 H   0  0  0  0  0  0  0  0  0  0  0  0
  150.5085  137.7347  153.6596 H   0  0  0  0  0  0  0  0  0  0  0  0
  1  2  1  0  0  0  0
  1 20  1  0  0  0  0
  1 21  1  0  0  0  0
  1 22  1  0  0  0  0
  2  7  1  0  0  0  0
  2  3  2  0  0  0  0
  3  4  1  0  0  0  0
  3 23  1  0  0  0  0
  4  5  2  0  0  0  0
  4 24  1  0  0  0  0
  5  6  1  0  0  0  0
  5 25  1  0  0  0  0
  6  7  2  0  0  0  0
  7  8  1  0  0  0  0
  8  9  1  0  0  0  0
  8 26  1  0  0  0  0
  9 10  2  0  0  0  0
  9 11  1  0  0  0  0
 11 12  1  0  0  0  0
 11 27  1  0  0  0  0
 12 13  1  0  0  0  0
 12 28  1  0  0  0  0
 12 29  1  0  0  0  0
 13 19  1  0  0  0  0
 13 14  1  0  0  0  0
 13 30  1  0  0  0  0
 14 15  1  0  0  0  0
 14 31  1  0  0  0  0
 14 32  1  0  0  0  0
 15 16  1  0  0  0  0
 15 33  1  0  0  0  0
 15 34  1  0  0  0  0
 16 17  2  0  0  0  0
 16 18  2  0  0  0  0
 16 19  1  0  0  0  0
 19 35  1  0  0  0  0
 19 36  1  0  0  0  0
M  END
> <s_m_source_file>
AV-unprocessed.smi

> <i_m_source_file_index>
1425

> <i_lp_mmshare_version>
43012

> <i_f3d_flags>
0

> <s_epik_input>
W0NIM11jMVtjSF1bY0hdW2NIXW5jMVtOSF1DKD1PKVtOSF1bQ0gyXVtDQEBIXShbQ0gyXTIpW0NIMl1bQ0gyXVMyKD1PKT1P

> <s_epik_cmdline>
J2VwaWtfcHl0aG9uJywgJy1waCcsICc3LjAnLCAnLXRuJywgJzgnLCAnLW1hJywgJzIwMCcsICctbWV0YWxfYmluZGluZycsICctaW1hZScsICc8aW5maWxlLm1hZT4nLCAnLW9tYWUnLCAnPG91dGZpbGUubWFlPic=

> <r_lp_tautomer_probability>
1

> <r_epik_Ionization_Penalty>
5.46275e-05

> <r_epik_Ionization_Penalty_Charging>
0

> <r_epik_Ionization_Penalty_Neutral>
5.46275e-05

> <r_epik_State_Penalty>
-0

> <r_epik_Charging_Adjusted_Penalty>
0

> <i_epik_Tot_Q>
0

> <i_epik_Tot_abs_Q>
0

> <r_epik_Metal_State_Penalty>
-0

> <b_epik_Metal_Only>
0

> <s_lp_Force_Field>
OPLS_2005

> <r_lp_Energy>
7.35863

> <b_lp_Chiralities_Consistent>
1

> <s_lp_Variant>
AV-unprocessed.smi:1425-2

> <Gold.Version>
5.8.1

> <Gold.Id.Protein>
6NUR|6NUR_protein|mol2

> <Gold.PLP.Fitness>
45.0961

> <Gold.PLP.PLP>
-33.5733

> <Gold.PLP.part.hbond>
-4.5919

> <Gold.PLP.part.metal>
0.0000

> <Gold.PLP.part.buried>
-4.9110

> <Gold.PLP.part.nonpolar>
-24.0660

> <Gold.PLP.part.repulsive>
0.2439

> <Gold.PLP.ligand.clash>
0.0000

> <Gold.PLP.ligand.torsion>
0.2514

> <Gold.PLP.Chemscore.Hbond>
4.0000

> <Gold.PLP.Chemscore.CHOScore>
0.0000

> <Gold.PLP.Chemscore.Metal>
0.0000

> <Gold.Chemscore.Hbonds>
donor molecule, donor type, donor heavy atom, donor atom, acceptor molecule, acceptor atom, score
      L1  H     8    26       P1  7948  1.00
      L1  H    11    27       P1  7948  0.90
      P1  H  7989  7998       L1    17  1.00
      P1  H  7997  8008       L1    18  1.00

> <Gold.PLP.Chemscore.Internal.Correction>
0.0256

> <Gold.Rescore>
     Score         DG    S(hbond)    S(metal)    S(lipo)     H(rot)  DE(clash)    DE(int)     intcor
     18.12     -19.62       3.16        0.00      58.79       1.29       0.00       1.50       ----

> <Gold.Chemscore.Fitness>
18.1192

> <Gold.Chemscore.DG>
-19.6151

> <Gold.Chemscore.ZeroCoef>
-5.4800

> <Gold.Chemscore.Hbond>
3.1643

> <Gold.Chemscore.Metal>
0.0000

> <Gold.Chemscore.Lipo>
58.7919

> <Gold.Chemscore.Internal_Hbond>
0.0000

> <Gold.Chemscore.DEClash>
0.0000

> <Gold.Chemscore.DEInternal>
1.4959

> <Gold.Chemscore.Rot>
1.2939

> <Gold.Chemscore.Internal.Correction>
   9.000000E+99

> <Gold.Chemscore.Hbonds>
donor molecule, donor type, donor heavy atom, donor atom, acceptor molecule, acceptor atom, score
      L1  H     8    26       P1  7948  0.30
      L1  H    11    27       P1  7948  0.17
      P1  H  7989  7998       L1    17  0.25
      P1  H  7997  8008       L1    18  0.76

> <Gold.Chemscore.Hbond.Weighted>
-10.5687

> <Gold.Chemscore.Metal.Weighted>
-0.0000

> <Gold.Chemscore.Lipo.Weighted>
-6.8787

> <Gold.Chemscore.Internal_Hbond.Weighted>
0.0000

> <Gold.Chemscore.DEClash.Weighted>
0.0000

> <Gold.Chemscore.DEInternal.Weighted>
1.4959

> <Gold.Chemscore.Rot.Weighted>
3.3123

> <Gold.Chemscore.Internal.Correction.Weighted>
   9.000000E+99

> <Gold.Protein.RotatedTorsions>
[ 6907 6896 6895 6894 ] final  -91.97 input  -60.11 | X-H torsion
[ 7974 7965 7964 7962 ] final -141.66 input  175.53 | X-H torsion
[ 8008 7997 7996 7995 ] final   -4.18 input   59.86 | X-H torsion
[ 10167 10162 10161 10158 ] final   18.85 input  -65.29 | X-H torsion
[ 10718 10713 10712 10709 ] final   95.50 input   66.30 | X-H torsion
[ 10763 10752 10751 10750 ] final   73.55 input  -60.55 | X-H torsion
[ 11005 11000 10999 10996 ] final    0.01 input  -57.11 | X-H torsion

> <Gold.Protein.ActiveResidues>
 VAL166  LYS551  ARG553  GLY616  TRP617  ASP618  TYR619  PRO620  LYS621  CYS622 
 ASP623  PHE694  ASN695  SER759  ASP760  ASP761  ALA762  ILE779  LEU786  VAL792 
 PHE793  MET794  SER795  GLU796  ALA797  LYS798  CYS799  TRP800  GLU811  SER814 

> <Gold.Protein.RotatedAtoms>
  150.6899  134.2195  159.4390 H   0  0  0  0  0  0  0  0  0  0  0  0  # atno 6907 bound_to 6896
  152.0152  134.9851  160.0578 H   0  0  0  0  0  0  0  0  0  0  0  0  # atno 6908 bound_to 6896
  152.1450  133.4452  159.4822 H   0  0  0  0  0  0  0  0  0  0  0  0  # atno 6909 bound_to 6896
  144.8502  140.6053  143.5395 H   0  0  0  0  0  0  0  0  0  0  0  0  # atno 7974 bound_to 7965
  154.6170  140.2490  155.7596 H   0  0  0  0  0  0  0  0  0  0  0  0  # atno 8008 bound_to 7997
  156.2405  140.2934  156.0379 H   0  0  0  0  0  0  0  0  0  0  0  0  # atno 8009 bound_to 7997
  155.1958  140.0393  157.2899 H   0  0  0  0  0  0  0  0  0  0  0  0  # atno 8010 bound_to 7997
  140.5623  143.9315  150.6651 H   0  0  0  0  0  0  0  0  0  0  0  0  # atno 10167 bound_to 10162
  157.6938  131.0547  150.4348 H   0  0  0  0  0  0  0  0  0  0  0  0  # atno 10718 bound_to 10713
  153.0529  135.5058  154.7911 H   0  0  0  0  0  0  0  0  0  0  0  0  # atno 10763 bound_to 10752
  154.6759  135.2960  154.9681 H   0  0  0  0  0  0  0  0  0  0  0  0  # atno 10764 bound_to 10752
  154.0484  135.6707  153.4850 H   0  0  0  0  0  0  0  0  0  0  0  0  # atno 10765 bound_to 10752
  140.6313  133.9572  155.8276 H   0  0  0  0  0  0  0  0  0  0  0  0  # atno 11005 bound_to 11000
  145.4515  139.1523  143.3916 LP  0  0  0  0  0  0  0  0  0  0  0  0  # atno 17320 bound_to 7965
  146.2778  140.4641  142.8788 LP  0  0  0  0  0  0  0  0  0  0  0  0  # atno 17321 bound_to 7965
  140.2769  143.3417  152.1187 LP  0  0  0  0  0  0  0  0  0  0  0  0  # atno 17342 bound_to 10162
  139.5076  144.6835  151.5948 LP  0  0  0  0  0  0  0  0  0  0  0  0  # atno 17343 bound_to 10162
  156.4712  130.4053  149.6517 LP  0  0  0  0  0  0  0  0  0  0  0  0  # atno 17370 bound_to 10713
  156.3597  130.7475  151.2445 LP  0  0  0  0  0  0  0  0  0  0  0  0  # atno 17371 bound_to 10713
  141.0673  134.0258  157.3576 LP  0  0  0  0  0  0  0  0  0  0  0  0  # atno 17394 bound_to 11000
  139.9115  135.0190  156.7709 LP  0  0  0  0  0  0  0  0  0  0  0  0  # atno 17395 bound_to 11000

$$$$
