AV-unprocessed.smi:1459|AV-procd|sdf|5926|dock7
  -GOLD-   22720 6 13D 1   1.00000     0.00000
 Structure written by MMmdl.
 34 35  0  0  0  0  0  0  0  0  1 V2000
  152.8049  142.8815  161.9168 C   0  0  0  0  0  0  0  0  0  0  0  0
  152.1095  143.2787  160.6599 C   0  0  0  0  0  0  0  0  0  0  0  0
  151.7370  142.5847  159.5431 C   0  0  0  0  0  0  0  0  0  0  0  0
  151.1172  143.5791  158.7404 C   0  0  0  0  0  0  0  0  0  0  0  0
  150.5764  143.2555  157.4699 N   0  0  0  0  0  0  0  0  0  0  0  0
  150.2649  142.0363  156.9982 C   0  0  0  0  0  0  0  0  0  0  0  0
  150.3809  140.9834  157.6260 O   0  0  0  0  0  0  0  0  0  0  0  0
  149.7994  142.1069  155.7422 N   0  0  0  0  0  0  0  0  0  0  0  0
  149.3462  140.9746  154.9373 C   0  0  2  0  0  0  0  0  0  0  0  0
  147.8907  140.6571  155.3133 C   0  0  0  0  0  0  0  0  0  0  0  0
  150.2837  139.7703  155.1593 C   0  0  1  0  0  0  0  0  0  0  0  0
  150.1600  138.6604  154.1149 C   0  0  0  0  0  0  0  0  0  0  0  0
  151.5104  137.9639  154.1726 C   0  0  0  0  0  0  0  0  0  0  0  0
  152.4144  138.9632  154.8998 C   0  0  0  0  0  0  0  0  0  0  0  0
  151.6434  140.1508  155.0118 O   0  0  0  0  0  0  0  0  0  0  0  0
  151.1129  144.7724  159.3146 N   0  0  0  0  0  0  0  0  0  0  0  0
  151.7491  144.5860  160.5477 O   0  0  0  0  0  0  0  0  0  0  0  0
  153.0333  141.8156  161.9158 H   0  0  0  0  0  0  0  0  0  0  0  0
  152.1824  143.0932  162.7862 H   0  0  0  0  0  0  0  0  0  0  0  0
  153.7414  143.4278  162.0291 H   0  0  0  0  0  0  0  0  0  0  0  0
  151.8847  141.5349  159.3374 H   0  0  0  0  0  0  0  0  0  0  0  0
  150.4150  144.0358  156.8510 H   0  0  0  0  0  0  0  0  0  0  0  0
  149.7379  143.0177  155.3116 H   0  0  0  0  0  0  0  0  0  0  0  0
  149.3619  141.2421  153.8791 H   0  0  0  0  0  0  0  0  0  0  0  0
  147.4865  139.8551  154.6957 H   0  0  0  0  0  0  0  0  0  0  0  0
  147.2507  141.5287  155.1711 H   0  0  0  0  0  0  0  0  0  0  0  0
  147.8075  140.3485  156.3560 H   0  0  0  0  0  0  0  0  0  0  0  0
  150.1412  139.3558  156.1594 H   0  0  0  0  0  0  0  0  0  0  0  0
  149.3278  137.9843  154.3126 H   0  0  0  0  0  0  0  0  0  0  0  0
  150.0156  139.0915  153.1232 H   0  0  0  0  0  0  0  0  0  0  0  0
  151.4511  137.0278  154.7289 H   0  0  0  0  0  0  0  0  0  0  0  0
  151.8775  137.7374  153.1711 H   0  0  0  0  0  0  0  0  0  0  0  0
  152.6619  138.6006  155.8985 H   0  0  0  0  0  0  0  0  0  0  0  0
  153.3455  139.1517  154.3650 H   0  0  0  0  0  0  0  0  0  0  0  0
  1  2  1  0  0  0  0
  1 18  1  0  0  0  0
  1 19  1  0  0  0  0
  1 20  1  0  0  0  0
  2 17  1  0  0  0  0
  2  3  2  0  0  0  0
  3  4  1  0  0  0  0
  3 21  1  0  0  0  0
  4  5  1  0  0  0  0
  4 16  2  0  0  0  0
  5  6  1  0  0  0  0
  5 22  1  0  0  0  0
  6  7  2  0  0  0  0
  6  8  1  0  0  0  0
  8  9  1  0  0  0  0
  8 23  1  0  0  0  0
  9 10  1  0  0  0  0
  9 11  1  0  0  0  0
  9 24  1  0  0  0  0
 10 25  1  0  0  0  0
 10 26  1  0  0  0  0
 10 27  1  0  0  0  0
 11 15  1  0  0  0  0
 11 12  1  0  0  0  0
 11 28  1  0  0  0  0
 12 13  1  0  0  0  0
 12 29  1  0  0  0  0
 12 30  1  0  0  0  0
 13 14  1  0  0  0  0
 13 31  1  0  0  0  0
 13 32  1  0  0  0  0
 14 15  1  0  0  0  0
 14 33  1  0  0  0  0
 14 34  1  0  0  0  0
 16 17  1  0  0  0  0
M  END
> <s_m_source_file>
AV-unprocessed.smi

> <i_m_source_file_index>
1459

> <i_lp_mmshare_version>
43012

> <i_f3d_flags>
0

> <s_epik_input>
W0NIM11jMVtjSF1jKG5vMSlbTkhdQyg9TylbTkhdW0NASF0oW0NIM10pW0NAQEhdMltDSDJdW0NIMl1bQ0gyXU8y

> <s_epik_cmdline>
J2VwaWtfcHl0aG9uJywgJy1waCcsICc3LjAnLCAnLXRuJywgJzgnLCAnLW1hJywgJzIwMCcsICctbWV0YWxfYmluZGluZycsICctaW1hZScsICc8aW5maWxlLm1hZT4nLCAnLW9tYWUnLCAnPG91dGZpbGUubWFlPic=

> <r_lp_tautomer_probability>
1

> <r_epik_Ionization_Penalty>
2.20869e-05

> <r_epik_Ionization_Penalty_Charging>
0

> <r_epik_Ionization_Penalty_Neutral>
2.20869e-05

> <r_epik_State_Penalty>
-0

> <r_epik_Charging_Adjusted_Penalty>
0

> <i_epik_Tot_Q>
0

> <i_epik_Tot_abs_Q>
0

> <r_epik_Metal_State_Penalty>
-0

> <b_epik_Metal_Only>
0

> <s_lp_Force_Field>
OPLS_2005

> <r_lp_Energy>
16.1691

> <b_lp_Chiralities_Consistent>
1

> <s_lp_Variant>
AV-unprocessed.smi:1459-3

> <Gold.Version>
5.8.1

> <Gold.Id.Protein>
6NUR|6NUR_protein|mol2

> <Gold.PLP.Fitness>
42.5867

> <Gold.PLP.PLP>
-36.0131

> <Gold.PLP.part.hbond>
-3.0000

> <Gold.PLP.part.metal>
0.0000

> <Gold.PLP.part.buried>
-6.8712

> <Gold.PLP.part.nonpolar>
-27.1503

> <Gold.PLP.part.repulsive>
0.4683

> <Gold.PLP.ligand.clash>
0.0000

> <Gold.PLP.ligand.torsion>
0.5302

> <Gold.PLP.Chemscore.Hbond>
2.5373

> <Gold.PLP.Chemscore.CHOScore>
0.0000

> <Gold.PLP.Chemscore.Metal>
0.0000

> <Gold.Chemscore.Hbonds>
donor molecule, donor type, donor heavy atom, donor atom, acceptor molecule, acceptor atom, score
      L1  H     5    22       P1  8028  0.76
      L1  H     8    23       P1  8028  0.78
      P1  H  7989  7998       L1    15  0.99

> <Gold.PLP.Chemscore.Internal.Correction>
0.0220

> <Gold.Rescore>
     Score         DG    S(hbond)    S(metal)    S(lipo)     H(rot)  DE(clash)    DE(int)     intcor
     16.19     -19.42       2.58        0.00      73.38       1.28       0.00       3.23       ----

> <Gold.Chemscore.Fitness>
16.1882

> <Gold.Chemscore.DG>
-19.4192

> <Gold.Chemscore.ZeroCoef>
-5.4800

> <Gold.Chemscore.Hbond>
2.5822

> <Gold.Chemscore.Metal>
0.0000

> <Gold.Chemscore.Lipo>
73.3797

> <Gold.Chemscore.Internal_Hbond>
0.0000

> <Gold.Chemscore.DEClash>
0.0038

> <Gold.Chemscore.DEInternal>
3.2271

> <Gold.Chemscore.Rot>
1.2776

> <Gold.Chemscore.Internal.Correction>
   9.000000E+99

> <Gold.Chemscore.Hbonds>
donor molecule, donor type, donor heavy atom, donor atom, acceptor molecule, acceptor atom, score
      L1  H     5    22       P1  8028  0.70
      L1  H     8    23       P1  8028  0.77
      P1  H  7989  7998       L1    15  0.22

> <Gold.Chemscore.Hbond.Weighted>
-8.6245

> <Gold.Chemscore.Metal.Weighted>
-0.0000

> <Gold.Chemscore.Lipo.Weighted>
-8.5854

> <Gold.Chemscore.Internal_Hbond.Weighted>
0.0000

> <Gold.Chemscore.DEClash.Weighted>
0.0038

> <Gold.Chemscore.DEInternal.Weighted>
3.2271

> <Gold.Chemscore.Rot.Weighted>
3.2707

> <Gold.Chemscore.Internal.Correction.Weighted>
   9.000000E+99

> <Gold.Protein.RotatedTorsions>
[ 6907 6896 6895 6894 ] final -118.10 input  -60.11 | X-H torsion
[ 7974 7965 7964 7962 ] final  162.93 input  175.53 | X-H torsion
[ 8008 7997 7996 7995 ] final -137.45 input   59.86 | X-H torsion
[ 10167 10162 10161 10158 ] final  -19.65 input  -65.29 | X-H torsion
[ 10718 10713 10712 10709 ] final   92.92 input   66.30 | X-H torsion
[ 10763 10752 10751 10750 ] final -166.78 input  -60.55 | X-H torsion
[ 11005 11000 10999 10996 ] final   11.41 input  -57.11 | X-H torsion

> <Gold.Protein.ActiveResidues>
 VAL166  LYS551  ARG553  GLY616  TRP617  ASP618  TYR619  PRO620  LYS621  CYS622 
 ASP623  PHE694  ASN695  SER759  ASP760  ASP761  ALA762  ILE779  LEU786  VAL792 
 PHE793  MET794  SER795  GLU796  ALA797  LYS798  CYS799  TRP800  GLU811  SER814 

> <Gold.Protein.RotatedAtoms>
  150.8191  133.8284  159.3146 H   0  0  0  0  0  0  0  0  0  0  0  0  # atno 6907 bound_to 6896
  151.6047  135.1043  160.0077 H   0  0  0  0  0  0  0  0  0  0  0  0  # atno 6908 bound_to 6896
  152.4281  133.7190  159.6579 H   0  0  0  0  0  0  0  0  0  0  0  0  # atno 6909 bound_to 6896
  144.7613  139.8109  143.6331 H   0  0  0  0  0  0  0  0  0  0  0  0  # atno 7974 bound_to 7965
  155.4120  140.0513  157.3031 H   0  0  0  0  0  0  0  0  0  0  0  0  # atno 8008 bound_to 7997
  154.4942  140.2132  155.9443 H   0  0  0  0  0  0  0  0  0  0  0  0  # atno 8009 bound_to 7997
  156.1383  140.3159  155.8460 H   0  0  0  0  0  0  0  0  0  0  0  0  # atno 8010 bound_to 7997
  140.7270  143.4798  151.0132 H   0  0  0  0  0  0  0  0  0  0  0  0  # atno 10167 bound_to 10162
  157.6957  131.0460  150.3954 H   0  0  0  0  0  0  0  0  0  0  0  0  # atno 10718 bound_to 10713
  154.6799  135.2953  154.9627 H   0  0  0  0  0  0  0  0  0  0  0  0  # atno 10763 bound_to 10752
  154.0626  135.6629  153.4818 H   0  0  0  0  0  0  0  0  0  0  0  0  # atno 10764 bound_to 10752
  153.0540  135.5156  154.7836 H   0  0  0  0  0  0  0  0  0  0  0  0  # atno 10765 bound_to 10752
  140.5035  134.0722  155.7799 H   0  0  0  0  0  0  0  0  0  0  0  0  # atno 11005 bound_to 11000
  146.1679  139.4818  142.9946 LP  0  0  0  0  0  0  0  0  0  0  0  0  # atno 17320 bound_to 7965
  145.6609  141.0240  143.1709 LP  0  0  0  0  0  0  0  0  0  0  0  0  # atno 17321 bound_to 7965
  139.8496  143.7455  152.3178 LP  0  0  0  0  0  0  0  0  0  0  0  0  # atno 17342 bound_to 10162
  139.7633  144.7500  151.0332 LP  0  0  0  0  0  0  0  0  0  0  0  0  # atno 17343 bound_to 10162
  156.4353  130.3980  149.6733 LP  0  0  0  0  0  0  0  0  0  0  0  0  # atno 17370 bound_to 10713
  156.3935  130.7639  151.2642 LP  0  0  0  0  0  0  0  0  0  0  0  0  # atno 17371 bound_to 10713
  141.1423  133.9116  157.2297 LP  0  0  0  0  0  0  0  0  0  0  0  0  # atno 17394 bound_to 11000
  139.9700  135.0131  156.9486 LP  0  0  0  0  0  0  0  0  0  0  0  0  # atno 17395 bound_to 11000

$$$$
