AV-unprocessed.smi:2364|AV-procd|sdf|9417|dock8
  -GOLD-   2272013 53D 1   1.00000     0.00000
 Structure written by MMmdl.
 46 47  0  0  0  0  0  0  0  0  1 V2000
  151.7806  141.8288  158.1618 C   0  0  0  0  0  0  0  0  0  0  0  0
  151.3197  140.3670  158.2975 C   0  0  0  0  0  0  0  0  0  0  0  0
  150.6935  139.7336  157.0197 C   0  0  1  0  0  0  0  0  0  0  0  0
  149.4264  140.5182  156.6062 C   0  0  0  0  0  0  0  0  0  0  0  0
  151.6989  139.7383  155.8400 C   0  0  0  0  0  0  0  0  0  0  0  0
  151.0742  139.5264  154.5896 O   0  0  0  0  0  0  0  0  0  0  0  0
  150.3422  138.3232  157.2429 N   0  0  0  0  0  0  0  0  0  0  0  0
  149.5129  137.7972  158.1613 C   0  0  0  0  0  0  0  0  0  0  0  0
  148.8908  138.4617  158.9902 O   0  0  0  0  0  0  0  0  0  0  0  0
  149.4551  136.4586  158.0453 N   0  0  0  0  0  0  0  0  0  0  0  0
  148.7638  135.5363  158.8737 C   0  0  0  0  0  0  0  0  0  0  0  0
  148.9403  134.1993  158.6755 N   0  0  0  0  0  0  0  0  0  0  0  0
  148.1601  133.7389  159.6446 C   0  0  0  0  0  0  0  0  0  0  0  0
  147.5346  134.6893  160.3513 N   0  0  0  0  0  0  0  0  0  0  0  0
  146.6836  134.5870  161.5412 C   0  0  0  0  0  0  0  0  0  0  0  0
  145.3434  135.3382  161.3633 C   0  0  0  0  0  0  0  0  0  0  0  0
  145.5434  136.8639  161.3015 C   0  0  0  0  0  0  0  0  0  0  0  0
  146.2625  137.3773  162.5603 C   0  0  0  0  0  0  0  0  0  0  0  0
  147.5857  136.6313  162.7993 C   0  0  0  0  0  0  0  0  0  0  0  0
  147.3664  135.1065  162.8319 C   0  0  0  0  0  0  0  0  0  0  0  0
  147.9627  135.8880  159.8806 N   0  0  0  0  0  0  0  0  0  0  0  0
  152.2159  142.1782  159.0981 H   0  0  0  0  0  0  0  0  0  0  0  0
  150.9506  142.4932  157.9236 H   0  0  0  0  0  0  0  0  0  0  0  0
  152.5399  141.9447  157.3884 H   0  0  0  0  0  0  0  0  0  0  0  0
  152.1726  139.7717  158.6236 H   0  0  0  0  0  0  0  0  0  0  0  0
  150.6095  140.3034  159.1225 H   0  0  0  0  0  0  0  0  0  0  0  0
  149.6609  141.5554  156.3649 H   0  0  0  0  0  0  0  0  0  0  0  0
  148.6807  140.5428  157.4008 H   0  0  0  0  0  0  0  0  0  0  0  0
  148.9545  140.0771  155.7276 H   0  0  0  0  0  0  0  0  0  0  0  0
  152.2428  140.6821  155.7934 H   0  0  0  0  0  0  0  0  0  0  0  0
  152.4508  138.9600  155.9781 H   0  0  0  0  0  0  0  0  0  0  0  0
  151.1226  138.6059  154.3817 H   0  0  0  0  0  0  0  0  0  0  0  0
  150.7905  137.6686  156.6191 H   0  0  0  0  0  0  0  0  0  0  0  0
  149.9827  136.0485  157.2890 H   0  0  0  0  0  0  0  0  0  0  0  0
  148.0518  132.6830  159.8424 H   0  0  0  0  0  0  0  0  0  0  0  0
  146.4673  133.5261  161.6726 H   0  0  0  0  0  0  0  0  0  0  0  0
  144.8157  134.9911  160.4749 H   0  0  0  0  0  0  0  0  0  0  0  0
  144.6874  135.1007  162.2017 H   0  0  0  0  0  0  0  0  0  0  0  0
  146.1196  137.1304  160.4146 H   0  0  0  0  0  0  0  0  0  0  0  0
  144.5778  137.3598  161.2004 H   0  0  0  0  0  0  0  0  0  0  0  0
  146.4490  138.4480  162.4727 H   0  0  0  0  0  0  0  0  0  0  0  0
  145.6125  137.2474  163.4265 H   0  0  0  0  0  0  0  0  0  0  0  0
  148.2989  136.8912  162.0166 H   0  0  0  0  0  0  0  0  0  0  0  0
  148.0309  136.9610  163.7384 H   0  0  0  0  0  0  0  0  0  0  0  0
  146.7387  134.8593  163.6889 H   0  0  0  0  0  0  0  0  0  0  0  0
  148.3124  134.5934  163.0095 H   0  0  0  0  0  0  0  0  0  0  0  0
  1  2  1  0  0  0  0
  1 22  1  0  0  0  0
  1 23  1  0  0  0  0
  1 24  1  0  0  0  0
  2  3  1  0  0  0  0
  2 25  1  0  0  0  0
  2 26  1  0  0  0  0
  3  4  1  0  0  0  0
  3  5  1  0  0  0  0
  3  7  1  0  0  0  0
  4 27  1  0  0  0  0
  4 28  1  0  0  0  0
  4 29  1  0  0  0  0
  5  6  1  0  0  0  0
  5 30  1  0  0  0  0
  5 31  1  0  0  0  0
  6 32  1  0  0  0  0
  7  8  1  0  0  0  0
  7 33  1  0  0  0  0
  8  9  2  0  0  0  0
  8 10  1  0  0  0  0
 10 11  1  0  0  0  0
 10 34  1  0  0  0  0
 11 21  2  0  0  0  0
 11 12  1  0  0  0  0
 12 13  2  0  0  0  0
 13 14  1  0  0  0  0
 13 35  1  0  0  0  0
 14 15  1  0  0  0  0
 14 21  1  0  0  0  0
 15 20  1  0  0  0  0
 15 16  1  0  0  0  0
 15 36  1  0  0  0  0
 16 17  1  0  0  0  0
 16 37  1  0  0  0  0
 16 38  1  0  0  0  0
 17 18  1  0  0  0  0
 17 39  1  0  0  0  0
 17 40  1  0  0  0  0
 18 19  1  0  0  0  0
 18 41  1  0  0  0  0
 18 42  1  0  0  0  0
 19 20  1  0  0  0  0
 19 43  1  0  0  0  0
 19 44  1  0  0  0  0
 20 45  1  0  0  0  0
 20 46  1  0  0  0  0
M  END
> <s_m_source_file>
AV-unprocessed.smi

> <i_m_source_file_index>
2364

> <i_lp_mmshare_version>
43012

> <i_f3d_flags>
0

> <s_epik_input>
W0NIM11bQ0gyXVtDQEBdKFtDSDNdKShbQ0gyXVtPSF0pW05IXUMoPU8pW05IXWMxbltjSF1uKG4xKVtDSF0yW0NIMl1bQ0gyXVtDSDJdW0NIMl1bQ0gyXTI=

> <s_epik_cmdline>
J2VwaWtfcHl0aG9uJywgJy1waCcsICc3LjAnLCAnLXRuJywgJzgnLCAnLW1hJywgJzIwMCcsICctbWV0YWxfYmluZGluZycsICctaW1hZScsICc8aW5maWxlLm1hZT4nLCAnLW9tYWUnLCAnPG91dGZpbGUubWFlPic=

> <r_lp_tautomer_probability>
1

> <r_epik_Ionization_Penalty>
9.31261e-05

> <r_epik_Ionization_Penalty_Charging>
0

> <r_epik_Ionization_Penalty_Neutral>
9.31261e-05

> <r_epik_State_Penalty>
-0

> <r_epik_Charging_Adjusted_Penalty>
0

> <i_epik_Tot_Q>
0

> <i_epik_Tot_abs_Q>
0

> <r_epik_Metal_State_Penalty>
-0

> <b_epik_Metal_Only>
0

> <s_lp_Force_Field>
OPLS_2005

> <r_lp_Energy>
23.546

> <b_lp_Chiralities_Consistent>
1

> <s_lp_Variant>
AV-unprocessed.smi:2364-1

> <Gold.Version>
5.8.1

> <Gold.Id.Protein>
6NUR|6NUR_protein|mol2

> <Gold.PLP.Fitness>
37.9434

> <Gold.PLP.PLP>
-32.4631

> <Gold.PLP.part.hbond>
-3.8045

> <Gold.PLP.part.metal>
0.0000

> <Gold.PLP.part.buried>
-3.1515

> <Gold.PLP.part.nonpolar>
-25.4907

> <Gold.PLP.part.repulsive>
0.0792

> <Gold.PLP.ligand.clash>
0.0000

> <Gold.PLP.ligand.torsion>
0.3288

> <Gold.PLP.Chemscore.Hbond>
2.0000

> <Gold.PLP.Chemscore.CHOScore>
0.0000

> <Gold.PLP.Chemscore.Metal>
0.0000

> <Gold.Chemscore.Hbonds>
donor molecule, donor type, donor heavy atom, donor atom, acceptor molecule, acceptor atom, score
      P1  H  6896  6907       L1    12  0.99
      P1  H  7989  7998       L1     6  1.00

> <Gold.PLP.Chemscore.Internal.Correction>
0.1379

> <Gold.Rescore>
     Score         DG    S(hbond)    S(metal)    S(lipo)     H(rot)  DE(clash)    DE(int)     intcor
      8.69     -12.42       1.68        0.00      62.49       2.34       0.03       3.70       ----

> <Gold.Chemscore.Fitness>
8.6892

> <Gold.Chemscore.DG>
-12.4204

> <Gold.Chemscore.ZeroCoef>
-5.4800

> <Gold.Chemscore.Hbond>
1.6788

> <Gold.Chemscore.Metal>
0.0000

> <Gold.Chemscore.Lipo>
62.4945

> <Gold.Chemscore.Internal_Hbond>
0.0000

> <Gold.Chemscore.DEClash>
0.0318

> <Gold.Chemscore.DEInternal>
3.6994

> <Gold.Chemscore.Rot>
2.3354

> <Gold.Chemscore.Internal.Correction>
   9.000000E+99

> <Gold.Chemscore.Hbonds>
donor molecule, donor type, donor heavy atom, donor atom, acceptor molecule, acceptor atom, score
      P1  H  6896  6907       L1    12  0.19
      P1  H  7989  7998       L1     6  0.60

> <Gold.Chemscore.Hbond.Weighted>
-5.6073

> <Gold.Chemscore.Metal.Weighted>
-0.0000

> <Gold.Chemscore.Lipo.Weighted>
-7.3119

> <Gold.Chemscore.Internal_Hbond.Weighted>
0.0000

> <Gold.Chemscore.DEClash.Weighted>
0.0318

> <Gold.Chemscore.DEInternal.Weighted>
3.6994

> <Gold.Chemscore.Rot.Weighted>
5.9787

> <Gold.Chemscore.Internal.Correction.Weighted>
   9.000000E+99

> <Gold.Protein.RotatedTorsions>
[ 6907 6896 6895 6894 ] final -114.56 input  -60.11 | X-H torsion
[ 7974 7965 7964 7962 ] final  146.09 input  175.53 | X-H torsion
[ 8008 7997 7996 7995 ] final   -0.19 input   59.86 | X-H torsion
[ 10167 10162 10161 10158 ] final -171.64 input  -65.29 | X-H torsion
[ 10718 10713 10712 10709 ] final  -15.05 input   66.30 | X-H torsion
[ 10763 10752 10751 10750 ] final   97.49 input  -60.55 | X-H torsion
[ 11005 11000 10999 10996 ] final   91.86 input  -57.11 | X-H torsion

> <Gold.Protein.ActiveResidues>
 VAL166  LYS551  ARG553  GLY616  TRP617  ASP618  TYR619  PRO620  LYS621  CYS622 
 ASP623  PHE694  ASN695  SER759  ASP760  ASP761  ALA762  ILE779  LEU786  VAL792 
 PHE793  MET794  SER795  GLU796  ALA797  LYS798  CYS799  TRP800  GLU811  SER814 

> <Gold.Protein.RotatedAtoms>
  150.7911  133.8783  159.3278 H   0  0  0  0  0  0  0  0  0  0  0  0  # atno 6907 bound_to 6896
  151.6621  135.0986  160.0191 H   0  0  0  0  0  0  0  0  0  0  0  0  # atno 6908 bound_to 6896
  152.3986  133.6744  159.6332 H   0  0  0  0  0  0  0  0  0  0  0  0  # atno 6909 bound_to 6896
  144.8699  139.5862  143.5891 H   0  0  0  0  0  0  0  0  0  0  0  0  # atno 7974 bound_to 7965
  154.6609  140.2590  155.7110 H   0  0  0  0  0  0  0  0  0  0  0  0  # atno 8008 bound_to 7997
  156.2618  140.2849  156.1002 H   0  0  0  0  0  0  0  0  0  0  0  0  # atno 8009 bound_to 7997
  155.1310  140.0378  157.2765 H   0  0  0  0  0  0  0  0  0  0  0  0  # atno 8010 bound_to 7997
  139.5790  144.1466  152.1490 H   0  0  0  0  0  0  0  0  0  0  0  0  # atno 10167 bound_to 10162
  156.6073  130.4840  149.6216 H   0  0  0  0  0  0  0  0  0  0  0  0  # atno 10718 bound_to 10713
  153.2775  135.4181  155.1047 H   0  0  0  0  0  0  0  0  0  0  0  0  # atno 10763 bound_to 10752
  154.8478  135.3487  154.6157 H   0  0  0  0  0  0  0  0  0  0  0  0  # atno 10764 bound_to 10752
  153.6578  135.7050  153.5245 H   0  0  0  0  0  0  0  0  0  0  0  0  # atno 10765 bound_to 10752
  139.8832  134.8699  156.3489 H   0  0  0  0  0  0  0  0  0  0  0  0  # atno 11005 bound_to 11000
  146.2923  139.7175  142.9152 LP  0  0  0  0  0  0  0  0  0  0  0  0  # atno 17320 bound_to 7965
  145.4150  141.0400  143.2996 LP  0  0  0  0  0  0  0  0  0  0  0  0  # atno 17321 bound_to 7965
  140.1015  144.5535  150.6986 LP  0  0  0  0  0  0  0  0  0  0  0  0  # atno 17342 bound_to 10162
  140.7070  143.2476  151.4695 LP  0  0  0  0  0  0  0  0  0  0  0  0  # atno 17343 bound_to 10162
  156.2419  130.6856  151.1564 LP  0  0  0  0  0  0  0  0  0  0  0  0  # atno 17370 bound_to 10713
  157.7264  131.0647  150.5912 LP  0  0  0  0  0  0  0  0  0  0  0  0  # atno 17371 bound_to 10713
  140.9608  133.7390  156.0398 LP  0  0  0  0  0  0  0  0  0  0  0  0  # atno 17394 bound_to 11000
  140.7992  134.3529  157.5444 LP  0  0  0  0  0  0  0  0  0  0  0  0  # atno 17395 bound_to 11000

$$$$
