AV-unprocessed.smi:104|AV-procd|sdf|998|dock6
  -GOLD-   2262017583D 1   1.00000     0.00000
 Structure written by MMmdl.
 47 49  0  0  0  0  0  0  0  0  1 V2000
  152.0402  144.8601  159.5716 C   0  0  0  0  0  0  0  0  0  0  0  0
  152.3225  143.4234  159.9904 C   0  0  0  0  0  0  0  0  0  0  0  0
  151.8529  142.9558  161.0272 O   0  0  0  0  0  0  0  0  0  0  0  0
  153.1137  142.7804  159.1132 O   0  0  0  0  0  0  0  0  0  0  0  0
  153.3339  141.3800  159.2197 C   0  0  0  0  0  0  0  0  0  0  0  0
  151.9984  140.6151  159.1912 C   0  0  1  0  0  0  0  0  0  0  0  0
  151.2776  140.8777  157.9998 O   0  0  0  0  0  0  0  0  0  0  0  0
  150.2572  139.9368  157.9199 C   0  0  1  0  0  0  0  0  0  0  0  0
  149.9383  139.7060  156.4805 N   0  0  0  0  0  0  0  0  0  0  0  0
  150.7867  139.4477  155.4279 C   0  0  0  0  0  0  0  0  0  0  0  0
  152.6763  139.3407  155.6408 Br  0  0  0  0  0  0  0  0  0  0  0  0
  150.2441  139.2887  154.2529 N   0  0  0  0  0  0  0  0  0  0  0  0
  148.8898  139.4554  154.5158 C   0  0  0  0  0  0  0  0  0  0  0  0
  147.7189  139.4231  153.7172 C   0  0  0  0  0  0  0  0  0  0  0  0
  147.7404  139.1913  152.3976 N   0  0  0  0  0  0  0  0  0  0  0  0
  146.5225  139.6376  154.3134 N   0  0  0  0  0  0  0  0  0  0  0  0
  146.4733  139.8715  155.6289 C   0  0  0  0  0  0  0  0  0  0  0  0
  147.4796  139.9305  156.5049 N   0  0  0  0  0  0  0  0  0  0  0  0
  148.6857  139.7147  155.9023 C   0  0  0  0  0  0  0  0  0  0  0  0
  150.7709  138.6430  158.5721 C   0  0  2  0  0  0  0  0  0  0  0  0
  149.8531  138.1625  159.5447 O   0  0  0  0  0  0  0  0  0  0  0  0
  149.1744  137.0228  159.3245 C   0  0  0  0  0  0  0  0  0  0  0  0
  147.8901  136.9456  160.1386 C   0  0  0  0  0  0  0  0  0  0  0  0
  149.5047  136.1189  158.5568 O   0  0  0  0  0  0  0  0  0  0  0  0
  152.0685  139.0835  159.2478 C   0  0  1  0  0  0  0  0  0  0  0  0
  153.1843  138.5871  158.5174 O   0  0  0  0  0  0  0  0  0  0  0  0
  153.6145  137.3272  158.7014 C   0  0  0  0  0  0  0  0  0  0  0  0
  154.8213  136.9970  157.8340 C   0  0  0  0  0  0  0  0  0  0  0  0
  153.1220  136.4977  159.4660 O   0  0  0  0  0  0  0  0  0  0  0  0
  151.2005  144.8917  158.8776 H   0  0  0  0  0  0  0  0  0  0  0  0
  152.9117  145.2957  159.0825 H   0  0  0  0  0  0  0  0  0  0  0  0
  151.7940  145.4693  160.4416 H   0  0  0  0  0  0  0  0  0  0  0  0
  153.9175  141.0918  158.3453 H   0  0  0  0  0  0  0  0  0  0  0  0
  153.9410  141.1130  160.0858 H   0  0  0  0  0  0  0  0  0  0  0  0
  151.3722  140.9699  160.0123 H   0  0  0  0  0  0  0  0  0  0  0  0
  149.3489  140.3292  158.3770 H   0  0  0  0  0  0  0  0  0  0  0  0
  148.6207  139.0296  151.9299 H   0  0  0  0  0  0  0  0  0  0  0  0
  146.8774  139.1805  151.8734 H   0  0  0  0  0  0  0  0  0  0  0  0
  145.4874  140.0351  156.0386 H   0  0  0  0  0  0  0  0  0  0  0  0
  150.9712  137.8841  157.8134 H   0  0  0  0  0  0  0  0  0  0  0  0
  147.1873  137.7105  159.8081 H   0  0  0  0  0  0  0  0  0  0  0  0
  148.1010  137.1005  161.1967 H   0  0  0  0  0  0  0  0  0  0  0  0
  147.4195  135.9694  160.0195 H   0  0  0  0  0  0  0  0  0  0  0  0
  152.1303  138.7486  160.2848 H   0  0  0  0  0  0  0  0  0  0  0  0
  155.6720  137.6152  158.1208 H   0  0  0  0  0  0  0  0  0  0  0  0
  154.5944  137.1834  156.7841 H   0  0  0  0  0  0  0  0  0  0  0  0
  155.1004  135.9492  157.9472 H   0  0  0  0  0  0  0  0  0  0  0  0
  1  2  1  0  0  0  0
  1 30  1  0  0  0  0
  1 31  1  0  0  0  0
  1 32  1  0  0  0  0
  2  3  2  0  0  0  0
  2  4  1  0  0  0  0
  4  5  1  0  0  0  0
  5  6  1  0  0  0  0
  5 33  1  0  0  0  0
  5 34  1  0  0  0  0
  6 25  1  0  0  0  0
  6  7  1  0  0  0  0
  6 35  1  0  0  0  0
  7  8  1  0  0  0  0
  8  9  1  0  0  0  0
  8 20  1  0  0  0  0
  8 36  1  0  0  0  0
  9 19  1  0  0  0  0
  9 10  1  0  0  0  0
 10 11  1  0  0  0  0
 10 12  2  0  0  0  0
 12 13  1  0  0  0  0
 13 19  2  0  0  0  0
 13 14  1  0  0  0  0
 14 15  1  0  0  0  0
 14 16  2  0  0  0  0
 15 37  1  0  0  0  0
 15 38  1  0  0  0  0
 16 17  1  0  0  0  0
 17 18  2  0  0  0  0
 17 39  1  0  0  0  0
 18 19  1  0  0  0  0
 20 21  1  0  0  0  0
 20 25  1  0  0  0  0
 20 40  1  0  0  0  0
 21 22  1  0  0  0  0
 22 23  1  0  0  0  0
 22 24  2  0  0  0  0
 23 41  1  0  0  0  0
 23 42  1  0  0  0  0
 23 43  1  0  0  0  0
 25 26  1  0  0  0  0
 25 44  1  0  0  0  0
 26 27  1  0  0  0  0
 27 28  1  0  0  0  0
 27 29  2  0  0  0  0
 28 45  1  0  0  0  0
 28 46  1  0  0  0  0
 28 47  1  0  0  0  0
M  END
> <s_m_source_file>
AV-unprocessed.smi

> <i_m_source_file_index>
104

> <i_lp_mmshare_version>
43012

> <i_f3d_flags>
0

> <s_epik_input>
W0NIM11DKD1PKU9bQ0gyXVtDQEBIXTFPW0NASF0oW0NAQEhdKE9DKD1PKVtDSDNdKVtDQEhdMU9DKD1PKVtDSDNdKW4oYyhCciluMiljKGMyMyluW2NIXW5jM1tOSDJd

> <s_epik_cmdline>
J2VwaWtfcHl0aG9uJywgJy1waCcsICc3LjAnLCAnLXRuJywgJzgnLCAnLW1hJywgJzIwMCcsICctbWV0YWxfYmluZGluZycsICctaW1hZScsICc8aW5maWxlLm1hZT4nLCAnLW9tYWUnLCAnPG91dGZpbGUubWFlPic=

> <r_lp_tautomer_probability>
1

> <r_epik_Ionization_Penalty>
7.36622e-05

> <r_epik_Ionization_Penalty_Charging>
0

> <r_epik_Ionization_Penalty_Neutral>
7.36622e-05

> <r_epik_State_Penalty>
-0

> <r_epik_Charging_Adjusted_Penalty>
0

> <i_epik_Tot_Q>
0

> <i_epik_Tot_abs_Q>
0

> <r_epik_Metal_State_Penalty>
-0

> <b_epik_Metal_Only>
0

> <s_epik_Chemistry_Notes>
This compound has an ester and may undergo hydrolysis at high or low pH. This compound contains an acetal/aminal-like group ( X-CH(R)-Y where X, Y are N, S, or O) that may be acid/base labile, releasing an aldehyde.

> <s_lp_Force_Field>
OPLS_2005

> <r_lp_Energy>
14.1863

> <b_lp_Chiralities_Consistent>
1

> <s_lp_Variant>
AV-unprocessed.smi:104-6

> <Gold.Version>
5.8.1

> <Gold.Id.Protein>
6NUR|6NUR_protein|mol2

> <Gold.PLP.Fitness>
44.4360

> <Gold.PLP.PLP>
-37.8834

> <Gold.PLP.part.hbond>
-5.6105

> <Gold.PLP.part.metal>
0.0000

> <Gold.PLP.part.buried>
-7.7036

> <Gold.PLP.part.nonpolar>
-25.8772

> <Gold.PLP.part.repulsive>
0.4671

> <Gold.PLP.ligand.clash>
0.0000

> <Gold.PLP.ligand.torsion>
1.4455

> <Gold.PLP.Chemscore.Hbond>
3.0983

> <Gold.PLP.Chemscore.CHOScore>
0.0000

> <Gold.PLP.Chemscore.Metal>
0.0000

> <Gold.Chemscore.Hbonds>
donor molecule, donor type, donor heavy atom, donor atom, acceptor molecule, acceptor atom, score
      L1  H    15    37       P1  7957  0.64
      P1  H  6896  6908       L1    24  0.48
      P1  H  6896  6909       L1    29  1.00
      P1  H  7989  7998       L1    12  0.20

> <Gold.PLP.Chemscore.Internal.Correction>
0.1488

> <Gold.Rescore>
     Score         DG    S(hbond)    S(metal)    S(lipo)     H(rot)  DE(clash)    DE(int)     intcor
      7.65     -11.23       3.15        0.00      53.38       4.31       0.81       2.77       ----

> <Gold.Chemscore.Fitness>
7.6507

> <Gold.Chemscore.DG>
-11.2350

> <Gold.Chemscore.ZeroCoef>
-5.4800

> <Gold.Chemscore.Hbond>
3.1542

> <Gold.Chemscore.Metal>
0.0000

> <Gold.Chemscore.Lipo>
53.3833

> <Gold.Chemscore.Internal_Hbond>
0.0000

> <Gold.Chemscore.DEClash>
0.8105

> <Gold.Chemscore.DEInternal>
2.7737

> <Gold.Chemscore.Rot>
4.3070

> <Gold.Chemscore.Internal.Correction>
   9.000000E+99

> <Gold.Chemscore.Hbonds>
donor molecule, donor type, donor heavy atom, donor atom, acceptor molecule, acceptor atom, score
      L1  H    15    37       P1  7957  0.59
      P1  H  6896  6908       L1    24  0.42
      P1  H  6896  6909       L1    29  0.98
      P1  H  6933  6945       L1     3  0.01
      P1  H  7989  7998       L1    12  0.01

> <Gold.Chemscore.Hbond.Weighted>
-10.5350

> <Gold.Chemscore.Metal.Weighted>
-0.0000

> <Gold.Chemscore.Lipo.Weighted>
-6.2459

> <Gold.Chemscore.Internal_Hbond.Weighted>
0.0000

> <Gold.Chemscore.DEClash.Weighted>
0.8105

> <Gold.Chemscore.DEInternal.Weighted>
2.7737

> <Gold.Chemscore.Rot.Weighted>
11.0259

> <Gold.Chemscore.Internal.Correction.Weighted>
   9.000000E+99

> <Gold.Protein.RotatedTorsions>
[ 6907 6896 6895 6894 ] final  159.66 input  -60.11 | X-H torsion
[ 7974 7965 7964 7962 ] final  111.43 input  175.53 | X-H torsion
[ 8008 7997 7996 7995 ] final   18.66 input   59.86 | X-H torsion
[ 10167 10162 10161 10158 ] final  -58.07 input  -65.29 | X-H torsion
[ 10718 10713 10712 10709 ] final  -67.06 input   66.30 | X-H torsion
[ 10763 10752 10751 10750 ] final  170.87 input  -60.55 | X-H torsion
[ 11005 11000 10999 10996 ] final  119.79 input  -57.11 | X-H torsion

> <Gold.Protein.ActiveResidues>
 VAL166  LYS551  ARG553  GLY616  TRP617  ASP618  TYR619  PRO620  LYS621  CYS622 
 ASP623  PHE694  ASN695  SER759  ASP760  ASP761  ALA762  ILE779  LEU786  VAL792 
 PHE793  MET794  SER795  GLU796  ALA797  LYS798  CYS799  TRP800  GLU811  SER814 

> <Gold.Protein.RotatedAtoms>
  151.9822  133.3761  159.4111 H   0  0  0  0  0  0  0  0  0  0  0  0  # atno 6907 bound_to 6896
  150.6933  134.4026  159.5135 H   0  0  0  0  0  0  0  0  0  0  0  0  # atno 6908 bound_to 6896
  152.1747  134.8804  160.0582 H   0  0  0  0  0  0  0  0  0  0  0  0  # atno 6909 bound_to 6896
  145.2424  139.2773  143.4111 H   0  0  0  0  0  0  0  0  0  0  0  0  # atno 7974 bound_to 7965
  154.9093  140.3012  155.5275 H   0  0  0  0  0  0  0  0  0  0  0  0  # atno 8008 bound_to 7997
  156.3015  140.2392  156.4065 H   0  0  0  0  0  0  0  0  0  0  0  0  # atno 8009 bound_to 7997
  154.8442  140.0412  157.1550 H   0  0  0  0  0  0  0  0  0  0  0  0  # atno 8010 bound_to 7997
  140.6220  143.2423  151.5458 H   0  0  0  0  0  0  0  0  0  0  0  0  # atno 10167 bound_to 10162
  156.0578  130.4272  150.1799 H   0  0  0  0  0  0  0  0  0  0  0  0  # atno 10718 bound_to 10713
  154.4038  135.2755  155.2080 H   0  0  0  0  0  0  0  0  0  0  0  0  # atno 10763 bound_to 10752
  154.4095  135.6026  153.5948 H   0  0  0  0  0  0  0  0  0  0  0  0  # atno 10764 bound_to 10752
  152.9831  135.5946  154.4309 H   0  0  0  0  0  0  0  0  0  0  0  0  # atno 10765 bound_to 10752
  139.9160  134.9631  156.7709 H   0  0  0  0  0  0  0  0  0  0  0  0  # atno 11005 bound_to 11000
  146.3325  140.2791  142.8609 LP  0  0  0  0  0  0  0  0  0  0  0  0  # atno 17320 bound_to 7965
  144.9577  140.8243  143.5533 LP  0  0  0  0  0  0  0  0  0  0  0  0  # atno 17321 bound_to 7965
  139.5447  144.2554  152.1418 LP  0  0  0  0  0  0  0  0  0  0  0  0  # atno 17342 bound_to 10162
  140.1776  144.4875  150.6545 LP  0  0  0  0  0  0  0  0  0  0  0  0  # atno 17343 bound_to 10162
  156.9872  130.9882  151.3423 LP  0  0  0  0  0  0  0  0  0  0  0  0  # atno 17370 bound_to 10713
  157.5563  130.8216  149.8208 LP  0  0  0  0  0  0  0  0  0  0  0  0  # atno 17371 bound_to 10713
  140.6622  133.9635  155.7811 LP  0  0  0  0  0  0  0  0  0  0  0  0  # atno 17394 bound_to 11000
  141.0636  134.0310  157.3625 LP  0  0  0  0  0  0  0  0  0  0  0  0  # atno 17395 bound_to 11000

$$$$
