AV-unprocessed.smi:2407|AV-procd|sdf|9519|dock5
  -GOLD-   2272013153D 1   1.00000     0.00000
 Structure written by MMmdl.
 38 39  0  0  0  0  0  0  0  0  1 V2000
  153.3086  141.1287  159.2632 C   0  0  0  0  0  0  0  0  0  0  0  0
  152.4830  140.9830  158.0190 C   0  0  0  0  0  0  0  0  0  0  0  0
  151.3313  141.8193  157.7385 C   0  0  0  0  0  0  0  0  0  0  0  0
  150.6326  141.6235  156.5996 C   0  0  0  0  0  0  0  0  0  0  0  0
  151.0057  140.5878  155.6386 C   0  0  0  0  0  0  0  0  0  0  0  0
  150.3801  140.3711  154.6009 O   0  0  0  0  0  0  0  0  0  0  0  0
  152.1108  139.8741  156.0032 N   0  0  0  0  0  0  0  0  0  0  0  0
  152.6167  138.7859  155.1600 C   0  0  0  0  0  0  0  0  0  0  0  0
  151.4819  137.8278  154.7238 C   0  0  1  0  0  0  0  0  0  0  0  0
  151.9545  136.9942  153.6849 O   0  0  0  0  0  0  0  0  0  0  0  0
  150.9935  136.9213  155.8632 C   0  0  0  0  0  0  0  0  0  0  0  0
  149.6668  136.5022  155.5731 O   0  0  0  0  0  0  0  0  0  0  0  0
  149.4729  135.2607  155.0036 C   0  0  0  0  0  0  0  0  0  0  0  0
  150.5347  134.3946  154.6368 C   0  0  0  0  0  0  0  0  0  0  0  0
  150.2686  133.1408  154.0562 C   0  0  0  0  0  0  0  0  0  0  0  0
  148.9417  132.7348  153.8358 C   0  0  0  0  0  0  0  0  0  0  0  0
  147.8802  133.5835  154.1976 C   0  0  0  0  0  0  0  0  0  0  0  0
  148.1364  134.8457  154.7799 C   0  0  0  0  0  0  0  0  0  0  0  0
  146.9793  135.7541  155.1826 C   0  0  0  0  0  0  0  0  0  0  0  0
  145.7949  135.2114  154.8973 F   0  0  0  0  0  0  0  0  0  0  0  0
  147.0299  135.9754  156.4957 F   0  0  0  0  0  0  0  0  0  0  0  0
  147.0641  136.9202  154.5415 F   0  0  0  0  0  0  0  0  0  0  0  0
  152.8255  140.0674  157.1731 N   0  0  0  0  0  0  0  0  0  0  0  0
  153.0681  142.0526  159.7896 H   0  0  0  0  0  0  0  0  0  0  0  0
  154.3732  141.1483  159.0273 H   0  0  0  0  0  0  0  0  0  0  0  0
  153.1287  140.2983  159.9460 H   0  0  0  0  0  0  0  0  0  0  0  0
  151.0422  142.5879  158.4400 H   0  0  0  0  0  0  0  0  0  0  0  0
  149.7751  142.2465  156.3924 H   0  0  0  0  0  0  0  0  0  0  0  0
  153.1472  139.1946  154.2974 H   0  0  0  0  0  0  0  0  0  0  0  0
  153.3837  138.2352  155.7084 H   0  0  0  0  0  0  0  0  0  0  0  0
  150.6301  138.3870  154.3328 H   0  0  0  0  0  0  0  0  0  0  0  0
  151.3215  137.0049  152.9826 H   0  0  0  0  0  0  0  0  0  0  0  0
  151.6465  136.0499  155.9374 H   0  0  0  0  0  0  0  0  0  0  0  0
  151.0279  137.4551  156.8148 H   0  0  0  0  0  0  0  0  0  0  0  0
  151.5673  134.6683  154.7896 H   0  0  0  0  0  0  0  0  0  0  0  0
  151.0851  132.4899  153.7802 H   0  0  0  0  0  0  0  0  0  0  0  0
  148.7371  131.7719  153.3913 H   0  0  0  0  0  0  0  0  0  0  0  0
  146.8673  133.2520  154.0250 H   0  0  0  0  0  0  0  0  0  0  0  0
  1  2  1  0  0  0  0
  1 24  1  0  0  0  0
  1 25  1  0  0  0  0
  1 26  1  0  0  0  0
  2 23  2  0  0  0  0
  2  3  1  0  0  0  0
  3  4  2  0  0  0  0
  3 27  1  0  0  0  0
  4  5  1  0  0  0  0
  4 28  1  0  0  0  0
  5  6  2  0  0  0  0
  5  7  1  0  0  0  0
  7  8  1  0  0  0  0
  7 23  1  0  0  0  0
  8  9  1  0  0  0  0
  8 29  1  0  0  0  0
  8 30  1  0  0  0  0
  9 10  1  0  0  0  0
  9 11  1  0  0  0  0
  9 31  1  0  0  0  0
 10 32  1  0  0  0  0
 11 12  1  0  0  0  0
 11 33  1  0  0  0  0
 11 34  1  0  0  0  0
 12 13  1  0  0  0  0
 13 18  1  0  0  0  0
 13 14  2  0  0  0  0
 14 15  1  0  0  0  0
 14 35  1  0  0  0  0
 15 16  2  0  0  0  0
 15 36  1  0  0  0  0
 16 17  1  0  0  0  0
 16 37  1  0  0  0  0
 17 18  2  0  0  0  0
 17 38  1  0  0  0  0
 18 19  1  0  0  0  0
 19 20  1  0  0  0  0
 19 21  1  0  0  0  0
 19 22  1  0  0  0  0
M  END
> <s_m_source_file>
AV-unprocessed.smi

> <i_m_source_file_index>
2407

> <i_lp_mmshare_version>
43012

> <i_f3d_flags>
0

> <s_epik_input>
W0NIM11jMVtjSF1bY0hdYyg9TyluKG4xKVtDSDJdW0NASF0oW09IXSlbQ0gyXU9jMltjSF1bY0hdW2NIXVtjSF1jMkMoRikoRilG

> <s_epik_cmdline>
J2VwaWtfcHl0aG9uJywgJy1waCcsICc3LjAnLCAnLXRuJywgJzgnLCAnLW1hJywgJzIwMCcsICctbWV0YWxfYmluZGluZycsICctaW1hZScsICc8aW5maWxlLm1hZT4nLCAnLW9tYWUnLCAnPG91dGZpbGUubWFlPic=

> <r_lp_tautomer_probability>
1

> <r_epik_Ionization_Penalty>
5.91655e-06

> <r_epik_Ionization_Penalty_Charging>
5.79937e-06

> <r_epik_Ionization_Penalty_Neutral>
1.17174e-07

> <r_epik_State_Penalty>
-0

> <r_epik_Charging_Adjusted_Penalty>
5.79937e-06

> <i_epik_Tot_Q>
0

> <i_epik_Tot_abs_Q>
0

> <r_epik_Metal_State_Penalty>
-0

> <b_epik_Metal_Only>
0

> <s_lp_Force_Field>
OPLS_2005

> <r_lp_Energy>
30.1001

> <b_lp_Chiralities_Consistent>
1

> <s_lp_Variant>
AV-unprocessed.smi:2407-2

> <Gold.Version>
5.8.1

> <Gold.Id.Protein>
6NUR|6NUR_protein|mol2

> <Gold.PLP.Fitness>
46.1178

> <Gold.PLP.PLP>
-36.6558

> <Gold.PLP.part.hbond>
-4.0000

> <Gold.PLP.part.metal>
0.0000

> <Gold.PLP.part.buried>
-5.0471

> <Gold.PLP.part.nonpolar>
-27.3637

> <Gold.PLP.part.repulsive>
0.1799

> <Gold.PLP.ligand.clash>
0.4888

> <Gold.PLP.ligand.torsion>
0.7284

> <Gold.PLP.Chemscore.Hbond>
3.6080

> <Gold.PLP.Chemscore.CHOScore>
0.0000

> <Gold.PLP.Chemscore.Metal>
0.0000

> <Gold.Chemscore.Hbonds>
donor molecule, donor type, donor heavy atom, donor atom, acceptor molecule, acceptor atom, score
      L1  H    10    32       P1  7949  0.62
      P1  H  7989  7998       L1     6  0.85
      P1  H  7997  8009       L1    23  0.93
      P1  H 10752 10765       L1    10  1.00

> <Gold.PLP.Chemscore.Internal.Correction>
0.5837

> <Gold.Rescore>
     Score         DG    S(hbond)    S(metal)    S(lipo)     H(rot)  DE(clash)    DE(int)     intcor
     11.63     -16.38       2.55        0.00      77.38       2.60       0.02       4.73       ----

> <Gold.Chemscore.Fitness>
11.6258

> <Gold.Chemscore.DG>
-16.3805

> <Gold.Chemscore.ZeroCoef>
-5.4800

> <Gold.Chemscore.Hbond>
2.5486

> <Gold.Chemscore.Metal>
0.0000

> <Gold.Chemscore.Lipo>
77.3771

> <Gold.Chemscore.Internal_Hbond>
0.0000

> <Gold.Chemscore.DEClash>
0.0198

> <Gold.Chemscore.DEInternal>
4.7349

> <Gold.Chemscore.Rot>
2.6035

> <Gold.Chemscore.Internal.Correction>
   9.000000E+99

> <Gold.Chemscore.Hbonds>
donor molecule, donor type, donor heavy atom, donor atom, acceptor molecule, acceptor atom, score
      L1  H    10    32       P1  7949  0.46
      P1  H  7989  7998       L1     6  0.14
      P1  H  7997  8009       L1    23  0.60
      P1  H 10752 10765       L1    10  0.98

> <Gold.Chemscore.Hbond.Weighted>
-8.5123

> <Gold.Chemscore.Metal.Weighted>
-0.0000

> <Gold.Chemscore.Lipo.Weighted>
-9.0531

> <Gold.Chemscore.Internal_Hbond.Weighted>
0.0000

> <Gold.Chemscore.DEClash.Weighted>
0.0198

> <Gold.Chemscore.DEInternal.Weighted>
4.7349

> <Gold.Chemscore.Rot.Weighted>
6.6649

> <Gold.Chemscore.Internal.Correction.Weighted>
   9.000000E+99

> <Gold.Protein.RotatedTorsions>
[ 6907 6896 6895 6894 ] final  -87.75 input  -60.11 | X-H torsion
[ 7974 7965 7964 7962 ] final  -35.29 input  175.53 | X-H torsion
[ 8008 7997 7996 7995 ] final  162.76 input   59.86 | X-H torsion
[ 10167 10162 10161 10158 ] final   84.74 input  -65.29 | X-H torsion
[ 10718 10713 10712 10709 ] final   66.95 input   66.30 | X-H torsion
[ 10763 10752 10751 10750 ] final  137.86 input  -60.55 | X-H torsion
[ 11005 11000 10999 10996 ] final   73.83 input  -57.11 | X-H torsion

> <Gold.Protein.ActiveResidues>
 VAL166  LYS551  ARG553  GLY616  TRP617  ASP618  TYR619  PRO620  LYS621  CYS622 
 ASP623  PHE694  ASN695  SER759  ASP760  ASP761  ALA762  ILE779  LEU786  VAL792 
 PHE793  MET794  SER795  GLU796  ALA797  LYS798  CYS799  TRP800  GLU811  SER814 

> <Gold.Protein.RotatedAtoms>
  150.6867  134.2847  159.4641 H   0  0  0  0  0  0  0  0  0  0  0  0  # atno 6907 bound_to 6896
  152.0758  134.9501  160.0583 H   0  0  0  0  0  0  0  0  0  0  0  0  # atno 6908 bound_to 6896
  152.0873  133.4148  159.4565 H   0  0  0  0  0  0  0  0  0  0  0  0  # atno 6909 bound_to 6896
  146.0758  140.6142  142.8931 H   0  0  0  0  0  0  0  0  0  0  0  0  # atno 7974 bound_to 7965
  156.2007  140.1742  156.7904 H   0  0  0  0  0  0  0  0  0  0  0  0  # atno 8008 bound_to 7997
  154.5588  140.0703  156.8817 H   0  0  0  0  0  0  0  0  0  0  0  0  # atno 8009 bound_to 7997
  155.2887  140.3354  155.4256 H   0  0  0  0  0  0  0  0  0  0  0  0  # atno 8010 bound_to 7997
  139.9050  144.6307  150.8597 H   0  0  0  0  0  0  0  0  0  0  0  0  # atno 10167 bound_to 10162
  157.6201  130.9295  150.0178 H   0  0  0  0  0  0  0  0  0  0  0  0  # atno 10718 bound_to 10713
  153.8800  135.3045  155.3445 H   0  0  0  0  0  0  0  0  0  0  0  0  # atno 10763 bound_to 10752
  154.7766  135.4858  153.9760 H   0  0  0  0  0  0  0  0  0  0  0  0  # atno 10764 bound_to 10752
  153.1357  135.6813  153.9203 H   0  0  0  0  0  0  0  0  0  0  0  0  # atno 10765 bound_to 10752
  139.9420  134.7381  156.1074 H   0  0  0  0  0  0  0  0  0  0  0  0  # atno 11005 bound_to 11000
  144.7261  140.4528  143.6972 LP  0  0  0  0  0  0  0  0  0  0  0  0  # atno 17320 bound_to 7965
  145.6308  139.1536  143.2970 LP  0  0  0  0  0  0  0  0  0  0  0  0  # atno 17321 bound_to 7965
  140.7698  143.3408  151.2211 LP  0  0  0  0  0  0  0  0  0  0  0  0  # atno 17342 bound_to 10162
  139.6992  143.9561  152.2897 LP  0  0  0  0  0  0  0  0  0  0  0  0  # atno 17343 bound_to 10162
  156.1342  130.3643  149.9684 LP  0  0  0  0  0  0  0  0  0  0  0  0  # atno 17370 bound_to 10713
  156.7738  130.9196  151.3645 LP  0  0  0  0  0  0  0  0  0  0  0  0  # atno 17371 bound_to 10713
  141.1058  133.6660  156.2861 LP  0  0  0  0  0  0  0  0  0  0  0  0  # atno 17394 bound_to 11000
  140.5927  134.5634  157.5502 LP  0  0  0  0  0  0  0  0  0  0  0  0  # atno 17395 bound_to 11000

$$$$
