AV-unprocessed.smi:3161|AV-procd|sdf|12062|dock4
  -GOLD-   2272017493D 1   1.00000     0.00000
 Structure written by MMmdl.
 40 41  0  0  0  0  0  0  0  0  1 V2000
  152.9890  142.8700  162.4081 C   0  0  0  0  0  0  0  0  0  0  0  0
  152.4939  143.3863  161.0879 C   0  0  0  0  0  0  0  0  0  0  0  0
  151.9688  144.6766  160.7938 C   0  0  0  0  0  0  0  0  0  0  0  0
  151.6218  144.8141  159.5251 N   0  0  0  0  0  0  0  0  0  0  0  0
  151.9035  143.6180  158.9653 N   0  0  0  0  0  0  0  0  0  0  0  0
  151.6465  143.4008  157.5502 C   0  0  0  0  0  0  0  0  0  0  0  0
  150.6241  142.2716  157.2622 C   0  0  1  0  0  0  0  0  0  0  0  0
  149.3858  142.3567  158.1683 C   0  0  0  0  0  0  0  0  0  0  0  0
  150.1957  142.2241  155.8598 N   0  0  0  0  0  0  0  0  0  0  0  0
  149.3665  141.0781  155.4907 C   0  0  0  0  0  0  0  0  0  0  0  0
  150.1819  139.7782  155.5299 C   0  0  1  0  0  0  0  0  0  0  0  0
  149.6062  138.7190  154.5700 C   0  0  0  0  0  0  0  0  0  0  0  0
  150.4911  137.4673  154.5524 C   0  0  0  0  0  0  0  0  0  0  0  0
  151.9393  137.8643  154.2489 C   0  0  0  0  0  0  0  0  0  0  0  0
  152.4020  138.9693  155.2113 C   0  0  0  0  0  0  0  0  0  0  0  0
  151.5175  140.0827  155.1308 O   0  0  0  0  0  0  0  0  0  0  0  0
  152.4373  142.7402  159.8854 C   0  0  0  0  0  0  0  0  0  0  0  0
  152.9089  143.6215  163.1938 H   0  0  0  0  0  0  0  0  0  0  0  0
  154.0360  142.5711  162.3557 H   0  0  0  0  0  0  0  0  0  0  0  0
  152.4212  141.9997  162.7378 H   0  0  0  0  0  0  0  0  0  0  0  0
  151.8321  145.5140  161.4622 H   0  0  0  0  0  0  0  0  0  0  0  0
  151.3421  144.3435  157.0958 H   0  0  0  0  0  0  0  0  0  0  0  0
  152.5968  143.1486  157.0781 H   0  0  0  0  0  0  0  0  0  0  0  0
  151.1189  141.3282  157.4962 H   0  0  0  0  0  0  0  0  0  0  0  0
  149.6712  142.3891  159.2200 H   0  0  0  0  0  0  0  0  0  0  0  0
  148.7408  141.4884  158.0307 H   0  0  0  0  0  0  0  0  0  0  0  0
  148.7898  143.2449  157.9560 H   0  0  0  0  0  0  0  0  0  0  0  0
  149.7058  143.0817  155.6247 H   0  0  0  0  0  0  0  0  0  0  0  0
  148.5312  140.9876  156.1844 H   0  0  0  0  0  0  0  0  0  0  0  0
  148.9390  141.2166  154.4968 H   0  0  0  0  0  0  0  0  0  0  0  0
  150.1813  139.3800  156.5466 H   0  0  0  0  0  0  0  0  0  0  0  0
  148.5911  138.4522  154.8661 H   0  0  0  0  0  0  0  0  0  0  0  0
  149.5392  139.1325  153.5629 H   0  0  0  0  0  0  0  0  0  0  0  0
  150.4423  136.9684  155.5212 H   0  0  0  0  0  0  0  0  0  0  0  0
  150.1280  136.7539  153.8122 H   0  0  0  0  0  0  0  0  0  0  0  0
  152.5939  136.9958  154.3261 H   0  0  0  0  0  0  0  0  0  0  0  0
  152.0129  138.2226  153.2212 H   0  0  0  0  0  0  0  0  0  0  0  0
  152.4473  138.6001  156.2370 H   0  0  0  0  0  0  0  0  0  0  0  0
  153.4068  139.2992  154.9473 H   0  0  0  0  0  0  0  0  0  0  0  0
  152.7262  141.7362  159.6112 H   0  0  0  0  0  0  0  0  0  0  0  0
  1  2  1  0  0  0  0
  1 18  1  0  0  0  0
  1 19  1  0  0  0  0
  1 20  1  0  0  0  0
  2 17  2  0  0  0  0
  2  3  1  0  0  0  0
  3  4  2  0  0  0  0
  3 21  1  0  0  0  0
  4  5  1  0  0  0  0
  5  6  1  0  0  0  0
  5 17  1  0  0  0  0
  6  7  1  0  0  0  0
  6 22  1  0  0  0  0
  6 23  1  0  0  0  0
  7  8  1  0  0  0  0
  7  9  1  0  0  0  0
  7 24  1  0  0  0  0
  8 25  1  0  0  0  0
  8 26  1  0  0  0  0
  8 27  1  0  0  0  0
  9 10  1  0  0  0  0
  9 28  1  0  0  0  0
 10 11  1  0  0  0  0
 10 29  1  0  0  0  0
 10 30  1  0  0  0  0
 11 16  1  0  0  0  0
 11 12  1  0  0  0  0
 11 31  1  0  0  0  0
 12 13  1  0  0  0  0
 12 32  1  0  0  0  0
 12 33  1  0  0  0  0
 13 14  1  0  0  0  0
 13 34  1  0  0  0  0
 13 35  1  0  0  0  0
 14 15  1  0  0  0  0
 14 36  1  0  0  0  0
 14 37  1  0  0  0  0
 15 16  1  0  0  0  0
 15 38  1  0  0  0  0
 15 39  1  0  0  0  0
 17 40  1  0  0  0  0
M  END
> <s_m_source_file>
AV-unprocessed.smi

> <i_m_source_file_index>
3161

> <i_lp_mmshare_version>
43012

> <i_f3d_flags>
0

> <s_epik_input>
W0NIM11jMVtjSF1ubihbY0hdMSlbQ0gyXVtDQEhdKFtDSDNdKVtOSF1bQ0gyXVtDQEBIXTJbQ0gyXVtDSDJdW0NIMl1bQ0gyXU8y

> <s_epik_cmdline>
J2VwaWtfcHl0aG9uJywgJy1waCcsICc3LjAnLCAnLXRuJywgJzgnLCAnLW1hJywgJzIwMCcsICctbWV0YWxfYmluZGluZycsICctaW1hZScsICc8aW5maWxlLm1hZT4nLCAnLW9tYWUnLCAnPG91dGZpbGUubWFlPic=

> <r_lp_tautomer_probability>
1

> <r_epik_Ionization_Penalty>
2.51986

> <r_epik_Ionization_Penalty_Charging>
0

> <r_epik_Ionization_Penalty_Neutral>
2.51986

> <r_epik_State_Penalty>
2.68614

> <r_epik_Charging_Adjusted_Penalty>
2.68614

> <i_epik_Tot_Q>
0

> <i_epik_Tot_abs_Q>
0

> <r_epik_Metal_State_Penalty>
2.68606

> <b_epik_Metal_Only>
0

> <s_lp_Force_Field>
OPLS_2005

> <r_lp_Energy>
14.0123

> <b_lp_Chiralities_Consistent>
1

> <s_lp_Variant>
AV-unprocessed.smi:3161-8

> <Gold.Version>
5.8.1

> <Gold.Id.Protein>
6NUR|6NUR_protein|mol2

> <Gold.PLP.Fitness>
49.6086

> <Gold.PLP.PLP>
-44.4111

> <Gold.PLP.part.hbond>
-2.0000

> <Gold.PLP.part.metal>
0.0000

> <Gold.PLP.part.buried>
-6.1740

> <Gold.PLP.part.nonpolar>
-36.5327

> <Gold.PLP.part.repulsive>
0.1325

> <Gold.PLP.ligand.clash>
0.0000

> <Gold.PLP.ligand.torsion>
0.4177

> <Gold.PLP.Chemscore.Hbond>
1.9760

> <Gold.PLP.Chemscore.CHOScore>
0.0000

> <Gold.PLP.Chemscore.Metal>
0.0000

> <Gold.Chemscore.Hbonds>
donor molecule, donor type, donor heavy atom, donor atom, acceptor molecule, acceptor atom, score
      L1  H     9    28       P1  8028  1.00
      P1  H  7989  7998       L1    16  1.00

> <Gold.PLP.Chemscore.Internal.Correction>
0.1049

> <Gold.Rescore>
     Score         DG    S(hbond)    S(metal)    S(lipo)     H(rot)  DE(clash)    DE(int)     intcor
     20.12     -20.82       1.84        0.00     111.57       1.50       0.06       0.64       ----

> <Gold.Chemscore.Fitness>
20.1249

> <Gold.Chemscore.DG>
-20.8233

> <Gold.Chemscore.ZeroCoef>
-5.4800

> <Gold.Chemscore.Hbond>
1.8377

> <Gold.Chemscore.Metal>
0.0000

> <Gold.Chemscore.Lipo>
111.5657

> <Gold.Chemscore.Internal_Hbond>
0.0000

> <Gold.Chemscore.DEClash>
0.0619

> <Gold.Chemscore.DEInternal>
0.6365

> <Gold.Chemscore.Rot>
1.5030

> <Gold.Chemscore.Internal.Correction>
   9.000000E+99

> <Gold.Chemscore.Hbonds>
donor molecule, donor type, donor heavy atom, donor atom, acceptor molecule, acceptor atom, score
      L1  H     9    28       P1  8028  1.00
      P1  H  7989  7998       L1    16  0.65

> <Gold.Chemscore.Hbond.Weighted>
-6.1378

> <Gold.Chemscore.Metal.Weighted>
-0.0000

> <Gold.Chemscore.Lipo.Weighted>
-13.0532

> <Gold.Chemscore.Internal_Hbond.Weighted>
0.0000

> <Gold.Chemscore.DEClash.Weighted>
0.0619

> <Gold.Chemscore.DEInternal.Weighted>
0.6365

> <Gold.Chemscore.Rot.Weighted>
3.8477

> <Gold.Chemscore.Internal.Correction.Weighted>
   9.000000E+99

> <Gold.Protein.RotatedTorsions>
[ 6907 6896 6895 6894 ] final -130.69 input  -60.11 | X-H torsion
[ 7974 7965 7964 7962 ] final  -32.93 input  175.53 | X-H torsion
[ 8008 7997 7996 7995 ] final -143.88 input   59.86 | X-H torsion
[ 10167 10162 10161 10158 ] final  -11.33 input  -65.29 | X-H torsion
[ 10718 10713 10712 10709 ] final -115.57 input   66.30 | X-H torsion
[ 10763 10752 10751 10750 ] final  127.24 input  -60.55 | X-H torsion
[ 11005 11000 10999 10996 ] final  167.51 input  -57.11 | X-H torsion

> <Gold.Protein.ActiveResidues>
 VAL166  LYS551  ARG553  GLY616  TRP617  ASP618  TYR619  PRO620  LYS621  CYS622 
 ASP623  PHE694  ASN695  SER759  ASP760  ASP761  ALA762  ILE779  LEU786  VAL792 
 PHE793  MET794  SER795  GLU796  ALA797  LYS798  CYS799  TRP800  GLU811  SER814 

> <Gold.Protein.RotatedAtoms>
  150.9426  133.6639  159.2787 H   0  0  0  0  0  0  0  0  0  0  0  0  # atno 6907 bound_to 6896
  151.4023  135.0971  159.9569 H   0  0  0  0  0  0  0  0  0  0  0  0  # atno 6908 bound_to 6896
  152.5076  133.8917  159.7452 H   0  0  0  0  0  0  0  0  0  0  0  0  # atno 6909 bound_to 6896
  146.0951  140.5853  142.8846 H   0  0  0  0  0  0  0  0  0  0  0  0  # atno 7974 bound_to 7965
  155.5178  140.0589  157.2912 H   0  0  0  0  0  0  0  0  0  0  0  0  # atno 8008 bound_to 7997
  154.4528  140.1958  156.0414 H   0  0  0  0  0  0  0  0  0  0  0  0  # atno 8009 bound_to 7997
  156.0740  140.3256  155.7614 H   0  0  0  0  0  0  0  0  0  0  0  0  # atno 8010 bound_to 7997
  140.7136  143.5651  150.9153 H   0  0  0  0  0  0  0  0  0  0  0  0  # atno 10167 bound_to 10162
  156.0905  130.6088  150.8924 H   0  0  0  0  0  0  0  0  0  0  0  0  # atno 10718 bound_to 10713
  153.7063  135.3275  155.3236 H   0  0  0  0  0  0  0  0  0  0  0  0  # atno 10763 bound_to 10752
  154.8398  135.4466  154.1360 H   0  0  0  0  0  0  0  0  0  0  0  0  # atno 10764 bound_to 10752
  153.2441  135.6974  153.7830 H   0  0  0  0  0  0  0  0  0  0  0  0  # atno 10765 bound_to 10752
  140.2776  134.7776  157.3730 H   0  0  0  0  0  0  0  0  0  0  0  0  # atno 11005 bound_to 11000
  144.7389  140.4887  143.6883 LP  0  0  0  0  0  0  0  0  0  0  0  0  # atno 17320 bound_to 7965
  145.5964  139.1500  143.3153 LP  0  0  0  0  0  0  0  0  0  0  0  0  # atno 17321 bound_to 7965
  139.9377  143.6419  152.3061 LP  0  0  0  0  0  0  0  0  0  0  0  0  # atno 17342 bound_to 10162
  139.6892  144.7648  151.1469 LP  0  0  0  0  0  0  0  0  0  0  0  0  # atno 17343 bound_to 10162
  157.6052  131.0939  150.8891 LP  0  0  0  0  0  0  0  0  0  0  0  0  # atno 17370 bound_to 10713
  156.9040  130.5257  149.5282 LP  0  0  0  0  0  0  0  0  0  0  0  0  # atno 17371 bound_to 10713
  140.1314  134.5091  155.8103 LP  0  0  0  0  0  0  0  0  0  0  0  0  # atno 17394 bound_to 11000
  141.2168  133.6791  156.7045 LP  0  0  0  0  0  0  0  0  0  0  0  0  # atno 17395 bound_to 11000

$$$$
