#       Name:                AV-unprocessed.smi:1462
#       Creating user name   scv26
#       Creation time:       Fri Mar 27 06:01:30 2020


#       File generated by GOLD software.
#

@<TRIPOS>MOLECULE
AV-unprocessed.smi:1462
    45    46     1
SMALL
NO_CHARGES


@<TRIPOS>ATOM
      1 ****        -6.2100  -0.8924  -1.3128 C.3            1 S1                 0.0000
      2 ****        -5.5562   0.3421  -1.7198 N.3            1 S1                 0.0000
      3 ****        -6.1830   1.5749  -1.2674 C.3            1 S1                 0.0000
      4 ****        -4.1709   0.3222  -1.5069 C.ar           1 S1                 0.0000
      5 ****        -3.2645   0.3239  -2.5872 C.ar           1 S1                 0.0000
      6 ****        -1.8790   0.3064  -2.3272 C.ar           1 S1                 0.0000
      7 ****        -1.4154   0.2770  -0.9941 C.ar           1 S1                 0.0000
      8 ****        -0.0101   0.2738  -0.7834 N.am           1 S1                 0.0000
      9 ****         0.6721  -0.0923   0.3156 C.2            1 S1                 0.0000
     10 ****         0.1678  -0.5160   1.3552 O.2            1 S1                 0.0000
     11 ****         1.9927   0.0449   0.1285 N.am           1 S1                 0.0000
     12 ****         3.0372  -0.2834   1.0954 C.3            1 S1                 0.0000
     13 ****         3.8765   0.9729   1.3988 C.3            1 S1                 0.0000
     14 ****         5.0548   0.6531   2.3332 C.3            1 S1                 0.0000
     15 ****         5.9325  -0.4699   1.7595 C.3            1 S1                 0.0000
     16 ****         5.0995  -1.7287   1.4723 C.3            1 S1                 0.0000
     17 ****         3.9201  -1.4164   0.5371 C.3            1 S1                 0.0000
     18 ****        -2.3715   0.2861   0.0513 C.ar           1 S1                 0.0000
     19 ****        -3.6904   0.3058  -0.2409 N.pl3          1 S1                 1.0000
     20 ****        -5.6763  -1.7617  -1.6991 H              1 S1                 0.0000
     21 ****        -7.2286  -0.9236  -1.7005 H              1 S1                 0.0000
     22 ****        -6.2562  -0.9707  -0.2259 H              1 S1                 0.0000
     23 ****        -5.6416   2.4454  -1.6399 H              1 S1                 0.0000
     24 ****        -6.2089   1.6245  -0.1782 H              1 S1                 0.0000
     25 ****        -7.2076   1.6333  -1.6354 H              1 S1                 0.0000
     26 ****        -3.6250   0.3399  -3.6055 H              1 S1                 0.0000
     27 ****        -1.1792   0.3102  -3.1503 H              1 S1                 0.0000
     28 ****         0.5489   0.5306  -1.5840 H              1 S1                 0.0000
     29 ****         2.3066   0.3984  -0.7634 H              1 S1                 0.0000
     30 ****         2.5950  -0.6280   2.0321 H              1 S1                 0.0000
     31 ****         4.2604   1.3956   0.4692 H              1 S1                 0.0000
     32 ****         3.2483   1.7412   1.8515 H              1 S1                 0.0000
     33 ****         5.6553   1.5488   2.4945 H              1 S1                 0.0000
     34 ****         4.6743   0.3556   3.3110 H              1 S1                 0.0000
     35 ****         6.4099  -0.1285   0.8399 H              1 S1                 0.0000
     36 ****         6.7371  -0.7067   2.4563 H              1 S1                 0.0000
     37 ****         5.7312  -2.4992   1.0292 H              1 S1                 0.0000
     38 ****         4.7228  -2.1391   2.4100 H              1 S1                 0.0000
     39 ****         3.3225  -2.3165   0.3885 H              1 S1                 0.0000
     40 ****         4.3057  -1.1359  -0.4442 H              1 S1                 0.0000
     41 ****        -2.1415   0.2907   1.1061 H              1 S1                 0.0000
     42 ****        -4.3564   0.3110   0.5319 H              1 S1                 0.0000
     43 ****        -5.7003   0.3627  -2.7092 LP             1 S1                 0.0000
     44 ****        -0.8252  -0.6098   1.4272 LP             1 S1                 0.0000
     45 ****         0.7510  -0.7664   2.1279 LP             1 S1                 0.0000
@<TRIPOS>BOND
    1    1    2 1     
    2    1   20 1     
    3    1   21 1     
    4    1   22 1     
    5    2    3 1     
    6    2    4 1     
    7    3   23 1     
    8    3   24 1     
    9    3   25 1     
   10    4   19 ar    
   11    4    5 ar    
   12    5    6 ar    
   13    5   26 1     
   14    6    7 ar    
   15    6   27 1     
   16    7    8 1     
   17    7   18 ar    
   18    8    9 am    
   19    8   28 1     
   20    9   10 2     
   21    9   11 am    
   22   11   12 1     
   23   11   29 1     
   24   12   17 1     
   25   12   13 1     
   26   12   30 1     
   27   13   14 1     
   28   13   31 1     
   29   13   32 1     
   30   14   15 1     
   31   14   33 1     
   32   14   34 1     
   33   15   16 1     
   34   15   35 1     
   35   15   36 1     
   36   16   17 1     
   37   16   37 1     
   38   16   38 1     
   39   17   39 1     
   40   17   40 1     
   41   18   19 ar    
   42   18   41 1     
   43   19   42 1     
   44    2   43 1     
   45   10   44 1     
   46   10   45 1     
@<TRIPOS>SUBSTRUCTURE
      1 S1             1
@<TRIPOS>SET
LONE_PAIRS      STATIC     ATOMS    <user>   **** ""
3 43 44 45
DONOR_HYDROGENS      STATIC     ATOMS    <user>   **** ""
3 28 29 42
ATOM$BLUE        STATIC     ATOMS    COLORGROUP SYSTEM
3 43 44 45
ATOM$RED        STATIC     ATOMS    COLORGROUP SYSTEM
3 28 29 42
