AV-unprocessed.smi:786|AV-procd|sdf|3723|dock8
  -GOLD-   22720 1153D 1   1.00000     0.00000
 Structure written by MMmdl.
 38 39  0  0  0  0  0  0  0  0  2 V2000
  152.5628  139.4440  157.1548 O   0  0  0  0  0  0  0  0  0  0  0  0
  152.1757  138.9109  158.4720 S   0  0  0  0  0  0  0  0  0  0  0  0
  153.1218  137.9842  159.1100 O   0  0  0  0  0  0  0  0  0  0  0  0
  152.0486  140.3842  159.5994 C   0  0  0  0  0  0  0  0  0  0  0  0
  152.1503  141.7419  158.8687 C   0  0  0  0  0  0  0  0  0  0  0  0
  152.2561  142.9000  159.8751 C   0  0  0  0  0  0  0  0  0  0  0  0
  152.3006  144.2571  159.1541 C   0  0  0  0  0  0  0  0  0  0  0  0
  151.1512  144.4087  158.3295 O   0  0  0  0  0  0  0  0  0  0  0  0
  151.0775  143.4241  157.3043 C   0  0  0  0  0  0  0  0  0  0  0  0
  150.9642  142.0225  157.9261 C   0  0  0  0  0  0  0  0  0  0  0  0
  150.6654  138.3063  158.5059 N   0  5  0  0  0  0  0  0  0  0  0  0
  150.3531  137.0763  159.2221 C   0  0  0  0  0  0  0  0  0  0  0  0
  148.9110  136.6116  158.9139 C   0  0  0  0  0  0  0  0  0  0  0  0
  148.1478  136.0193  160.0972 C   0  0  0  0  0  0  0  0  0  0  0  0
  147.9704  134.6214  160.2146 C   0  0  0  0  0  0  0  0  0  0  0  0
  147.2735  134.1202  161.3309 C   0  0  0  0  0  0  0  0  0  0  0  0
  146.7868  135.0281  162.2904 C   0  0  0  0  0  0  0  0  0  0  0  0
  147.0190  136.4029  162.0891 C   0  0  0  0  0  0  0  0  0  0  0  0
  147.6840  136.8939  161.0224 N   0  0  0  0  0  0  0  0  0  0  0  0
  151.0995  140.3137  160.1305 H   0  0  0  0  0  0  0  0  0  0  0  0
  152.8261  140.2905  160.3567 H   0  0  0  0  0  0  0  0  0  0  0  0
  153.0667  141.7464  158.2774 H   0  0  0  0  0  0  0  0  0  0  0  0
  151.4020  142.8792  160.5534 H   0  0  0  0  0  0  0  0  0  0  0  0
  153.1464  142.7812  160.4926 H   0  0  0  0  0  0  0  0  0  0  0  0
  152.3219  145.0674  159.8829 H   0  0  0  0  0  0  0  0  0  0  0  0
  153.2041  144.3500  158.5504 H   0  0  0  0  0  0  0  0  0  0  0  0
  150.2059  143.6291  156.6826 H   0  0  0  0  0  0  0  0  0  0  0  0
  151.9530  143.4914  156.6565 H   0  0  0  0  0  0  0  0  0  0  0  0
  150.9101  141.2839  157.1289 H   0  0  0  0  0  0  0  0  0  0  0  0
  150.0267  141.9493  158.4789 H   0  0  0  0  0  0  0  0  0  0  0  0
  151.0395  136.2663  158.9738 H   0  0  0  0  0  0  0  0  0  0  0  0
  150.4504  137.2208  160.2984 H   0  0  0  0  0  0  0  0  0  0  0  0
  148.3403  137.4632  158.5422 H   0  0  0  0  0  0  0  0  0  0  0  0
  148.9226  135.8890  158.0962 H   0  0  0  0  0  0  0  0  0  0  0  0
  148.3563  133.9491  159.4622 H   0  0  0  0  0  0  0  0  0  0  0  0
  147.1148  133.0586  161.4486 H   0  0  0  0  0  0  0  0  0  0  0  0
  146.2458  134.6805  163.1578 H   0  0  0  0  0  0  0  0  0  0  0  0
  146.6576  137.1285  162.8025 H   0  0  0  0  0  0  0  0  0  0  0  0
  1  2  2  0  0  0  0
  2  3  2  0  0  0  0
  2  4  1  0  0  0  0
  2 11  1  0  0  0  0
  4  5  1  0  0  0  0
  4 20  1  0  0  0  0
  4 21  1  0  0  0  0
  5 10  1  0  0  0  0
  5  6  1  0  0  0  0
  5 22  1  0  0  0  0
  6  7  1  0  0  0  0
  6 23  1  0  0  0  0
  6 24  1  0  0  0  0
  7  8  1  0  0  0  0
  7 25  1  0  0  0  0
  7 26  1  0  0  0  0
  8  9  1  0  0  0  0
  9 10  1  0  0  0  0
  9 27  1  0  0  0  0
  9 28  1  0  0  0  0
 10 29  1  0  0  0  0
 10 30  1  0  0  0  0
 11 12  1  0  0  0  0
 12 13  1  0  0  0  0
 12 31  1  0  0  0  0
 12 32  1  0  0  0  0
 13 14  1  0  0  0  0
 13 33  1  0  0  0  0
 13 34  1  0  0  0  0
 14 19  1  0  0  0  0
 14 15  2  0  0  0  0
 15 16  1  0  0  0  0
 15 35  1  0  0  0  0
 16 17  2  0  0  0  0
 16 36  1  0  0  0  0
 17 18  1  0  0  0  0
 17 37  1  0  0  0  0
 18 19  2  0  0  0  0
 18 38  1  0  0  0  0
M  CHG  1  11  -1
M  END
> <s_m_source_file>
AV-unprocessed.smi

> <i_m_source_file_index>
786

> <i_lp_mmshare_version>
43012

> <i_f3d_flags>
0

> <s_epik_input>
W0NIMl0xW0NIMl1PW0NIMl1bQ0gyXVtDSF0xW0NIMl1TKD1PKSg9TylbTkhdW0NIMl1bQ0gyXWMyW2NIXVtjSF1bY0hdW2NIXW4y

> <s_epik_cmdline>
J2VwaWtfcHl0aG9uJywgJy1waCcsICc3LjAnLCAnLXRuJywgJzgnLCAnLW1hJywgJzIwMCcsICctbWV0YWxfYmluZGluZycsICctaW1hZScsICc8aW5maWxlLm1hZT4nLCAnLW9tYWUnLCAnPG91dGZpbGUubWFlPic=

> <r_epik_Ionization_Penalty>
6.60618

> <r_epik_Ionization_Penalty_Charging>
6.53386

> <r_epik_Ionization_Penalty_Neutral>
0.0723214

> <r_epik_State_Penalty>
6.55045

> <r_epik_Charging_Adjusted_Penalty>
13.0843

> <i_epik_Tot_Q>
-1

> <i_epik_Tot_abs_Q>
1

> <r_epik_Metal_State_Penalty>
2.49618

> <b_epik_Metal_Only>
1

> <s_lp_Force_Field>
OPLS_2005

> <r_lp_Energy>
5.55421

> <b_lp_Chiralities_Consistent>
1

> <s_lp_Variant>
AV-unprocessed.smi:786-3

> <Gold.Version>
5.8.1

> <Gold.Id.Protein>
6NUR|6NUR_protein|mol2

> <Gold.PLP.Fitness>
47.1928

> <Gold.PLP.PLP>
-40.4961

> <Gold.PLP.part.hbond>
-3.0000

> <Gold.PLP.part.metal>
0.0000

> <Gold.PLP.part.buried>
-3.2184

> <Gold.PLP.part.nonpolar>
-33.9839

> <Gold.PLP.part.repulsive>
0.1148

> <Gold.PLP.ligand.clash>
0.0000

> <Gold.PLP.ligand.torsion>
1.2049

> <Gold.PLP.Chemscore.Hbond>
2.6880

> <Gold.PLP.Chemscore.CHOScore>
0.0000

> <Gold.PLP.Chemscore.Metal>
0.0000

> <Gold.Chemscore.Hbonds>
donor molecule, donor type, donor heavy atom, donor atom, acceptor molecule, acceptor atom, score
      P1  H  6931  6943       L1    19  0.81
      P1  H  6934  6947       L1    19  0.57
      P1  H  7997  8008       L1     1  1.00

> <Gold.PLP.Chemscore.Internal.Correction>
1.0425

> <Gold.Rescore>
     Score         DG    S(hbond)    S(metal)    S(lipo)     H(rot)  DE(clash)    DE(int)     intcor
     20.21     -21.53       2.41        0.00     102.83       1.57       0.00       1.32       ----

> <Gold.Chemscore.Fitness>
20.2086

> <Gold.Chemscore.DG>
-21.5277

> <Gold.Chemscore.ZeroCoef>
-5.4800

> <Gold.Chemscore.Hbond>
2.4090

> <Gold.Chemscore.Metal>
0.0000

> <Gold.Chemscore.Lipo>
102.8285

> <Gold.Chemscore.Internal_Hbond>
0.0000

> <Gold.Chemscore.DEClash>
0.0021

> <Gold.Chemscore.DEInternal>
1.3170

> <Gold.Chemscore.Rot>
1.5740

> <Gold.Chemscore.Internal.Correction>
   9.000000E+99

> <Gold.Chemscore.Hbonds>
donor molecule, donor type, donor heavy atom, donor atom, acceptor molecule, acceptor atom, score
      P1  H  6931  6943       L1    19  0.29
      P1  H  6934  6947       L1    19  0.30
      P1  H  7997  8008       L1     1  0.95

> <Gold.Chemscore.Hbond.Weighted>
-8.0461

> <Gold.Chemscore.Metal.Weighted>
-0.0000

> <Gold.Chemscore.Lipo.Weighted>
-12.0309

> <Gold.Chemscore.Internal_Hbond.Weighted>
0.0000

> <Gold.Chemscore.DEClash.Weighted>
0.0021

> <Gold.Chemscore.DEInternal.Weighted>
1.3170

> <Gold.Chemscore.Rot.Weighted>
4.0293

> <Gold.Chemscore.Internal.Correction.Weighted>
   9.000000E+99

> <Gold.Protein.RotatedTorsions>
[ 6907 6896 6895 6894 ] final  -50.80 input  -60.11 | X-H torsion
[ 7974 7965 7964 7962 ] final  -42.04 input  175.53 | X-H torsion
[ 8008 7997 7996 7995 ] final  -68.89 input   59.86 | X-H torsion
[ 10167 10162 10161 10158 ] final   30.62 input  -65.29 | X-H torsion
[ 10718 10713 10712 10709 ] final  -71.56 input   66.30 | X-H torsion
[ 10763 10752 10751 10750 ] final  172.03 input  -60.55 | X-H torsion
[ 11005 11000 10999 10996 ] final -105.40 input  -57.11 | X-H torsion

> <Gold.Protein.ActiveResidues>
 VAL166  LYS551  ARG553  GLY616  TRP617  ASP618  TYR619  PRO620  LYS621  CYS622 
 ASP623  PHE694  ASN695  SER759  ASP760  ASP761  ALA762  ILE779  LEU786  VAL792 
 PHE793  MET794  SER795  GLU796  ALA797  LYS798  CYS799  TRP800  GLU811  SER814 

> <Gold.Protein.RotatedAtoms>
  150.8673  134.8039  159.7127 H   0  0  0  0  0  0  0  0  0  0  0  0  # atno 6907 bound_to 6896
  152.4690  134.5004  159.9733 H   0  0  0  0  0  0  0  0  0  0  0  0  # atno 6908 bound_to 6896
  151.5098  133.3449  159.2918 H   0  0  0  0  0  0  0  0  0  0  0  0  # atno 6909 bound_to 6896
  146.0154  140.6914  142.9204 H   0  0  0  0  0  0  0  0  0  0  0  0  # atno 7974 bound_to 7965
  154.4900  140.0864  156.7573 H   0  0  0  0  0  0  0  0  0  0  0  0  # atno 8008 bound_to 7997
  155.4255  140.3447  155.4257 H   0  0  0  0  0  0  0  0  0  0  0  0  # atno 8009 bound_to 7997
  156.1316  140.1503  156.9045 H   0  0  0  0  0  0  0  0  0  0  0  0  # atno 8010 bound_to 7997
  140.4662  144.0832  150.6225 H   0  0  0  0  0  0  0  0  0  0  0  0  # atno 10167 bound_to 10162
  156.0358  130.4354  150.2461 H   0  0  0  0  0  0  0  0  0  0  0  0  # atno 10718 bound_to 10713
  154.4203  135.2758  155.1979 H   0  0  0  0  0  0  0  0  0  0  0  0  # atno 10763 bound_to 10752
  154.3928  135.6062  153.5856 H   0  0  0  0  0  0  0  0  0  0  0  0  # atno 10764 bound_to 10752
  152.9833  135.5907  154.4499 H   0  0  0  0  0  0  0  0  0  0  0  0  # atno 10765 bound_to 10752
  141.1055  133.8805  157.1730 H   0  0  0  0  0  0  0  0  0  0  0  0  # atno 11005 bound_to 11000
  144.6969  140.3472  143.7188 LP  0  0  0  0  0  0  0  0  0  0  0  0  # atno 17320 bound_to 7965
  145.7277  139.1727  143.2448 LP  0  0  0  0  0  0  0  0  0  0  0  0  # atno 17321 bound_to 7965
  140.4033  143.2693  151.9921 LP  0  0  0  0  0  0  0  0  0  0  0  0  # atno 17342 bound_to 10162
  139.4812  144.5978  151.7659 LP  0  0  0  0  0  0  0  0  0  0  0  0  # atno 17343 bound_to 10162
  157.0561  131.0076  151.3238 LP  0  0  0  0  0  0  0  0  0  0  0  0  # atno 17370 bound_to 10713
  157.5105  130.7935  149.7700 LP  0  0  0  0  0  0  0  0  0  0  0  0  # atno 17371 bound_to 10713
  139.9923  135.0060  157.0004 LP  0  0  0  0  0  0  0  0  0  0  0  0  # atno 17394 bound_to 11000
  140.4913  134.1190  155.7233 LP  0  0  0  0  0  0  0  0  0  0  0  0  # atno 17395 bound_to 11000

$$$$
