AV-unprocessed.smi:833|AV-procd|sdf|3881|dock8
  -GOLD-   22720 1333D 1   1.00000     0.00000
 Structure written by MMmdl.
 39 40  0  0  0  0  0  0  0  0  1 V2000
  146.1812  132.9924  151.7949 C   0  0  0  0  0  0  0  0  0  0  0  0
  145.8825  134.1154  150.7924 C   0  0  1  0  0  0  0  0  0  0  0  0
  144.8912  133.6251  149.9130 O   0  0  0  0  0  0  0  0  0  0  0  0
  145.3578  135.3877  151.4888 C   0  0  0  0  0  0  0  0  0  0  0  0
  146.4430  136.2081  152.0155 N   0  0  0  0  0  0  0  0  0  0  0  0
  146.2991  137.4304  152.5450 C   0  0  0  0  0  0  0  0  0  0  0  0
  145.2159  138.0061  152.6458 O   0  0  0  0  0  0  0  0  0  0  0  0
  147.4837  137.9386  152.9222 N   0  0  0  0  0  0  0  0  0  0  0  0
  147.7489  139.2269  153.4658 C   0  0  0  0  0  0  0  0  0  0  0  0
  146.8045  140.2776  153.3655 C   0  0  0  0  0  0  0  0  0  0  0  0
  147.0781  141.5123  153.9786 C   0  0  0  0  0  0  0  0  0  0  0  0
  148.2829  141.6490  154.6871 C   0  0  0  0  0  0  0  0  0  0  0  0
  149.1859  140.6549  154.8036 N   0  0  0  0  0  0  0  0  0  0  0  0
  148.9436  139.4624  154.2051 C   0  0  0  0  0  0  0  0  0  0  0  0
  149.9347  138.4638  154.3477 N   0  0  0  0  0  0  0  0  0  0  0  0
  151.2859  138.8823  154.7107 C   0  0  0  0  0  0  0  0  0  0  0  0
  151.8430  137.7962  155.6369 C   0  0  0  0  0  0  0  0  0  0  0  0
  150.9830  136.5762  155.3218 C   0  0  0  0  0  0  0  0  0  0  0  0
  149.6263  137.2048  155.0173 C   0  0  0  0  0  0  0  0  0  0  0  0
  146.9621  133.2903  152.4950 H   0  0  0  0  0  0  0  0  0  0  0  0
  146.5245  132.0909  151.2860 H   0  0  0  0  0  0  0  0  0  0  0  0
  145.2957  132.7311  152.3756 H   0  0  0  0  0  0  0  0  0  0  0  0
  146.7886  134.3344  150.2257 H   0  0  0  0  0  0  0  0  0  0  0  0
  145.0773  133.9459  149.0431 H   0  0  0  0  0  0  0  0  0  0  0  0
  144.6977  135.9644  150.8377 H   0  0  0  0  0  0  0  0  0  0  0  0
  144.7546  135.1048  152.3520 H   0  0  0  0  0  0  0  0  0  0  0  0
  147.3717  135.8151  151.9713 H   0  0  0  0  0  0  0  0  0  0  0  0
  148.2994  137.3913  152.6893 H   0  0  0  0  0  0  0  0  0  0  0  0
  145.8656  140.1487  152.8487 H   0  0  0  0  0  0  0  0  0  0  0  0
  146.3747  142.3294  153.9184 H   0  0  0  0  0  0  0  0  0  0  0  0
  148.5268  142.5790  155.1789 H   0  0  0  0  0  0  0  0  0  0  0  0
  151.8902  138.9419  153.8053 H   0  0  0  0  0  0  0  0  0  0  0  0
  151.2989  139.8612  155.1921 H   0  0  0  0  0  0  0  0  0  0  0  0
  152.9081  137.6174  155.4880 H   0  0  0  0  0  0  0  0  0  0  0  0
  151.6938  138.0893  156.6770 H   0  0  0  0  0  0  0  0  0  0  0  0
  151.3671  136.0678  154.4364 H   0  0  0  0  0  0  0  0  0  0  0  0
  150.9446  135.8558  156.1392 H   0  0  0  0  0  0  0  0  0  0  0  0
  149.0926  137.3833  155.9516 H   0  0  0  0  0  0  0  0  0  0  0  0
  149.0119  136.5597  154.3887 H   0  0  0  0  0  0  0  0  0  0  0  0
  1  2  1  0  0  0  0
  1 20  1  0  0  0  0
  1 21  1  0  0  0  0
  1 22  1  0  0  0  0
  2  3  1  0  0  0  0
  2  4  1  0  0  0  0
  2 23  1  0  0  0  0
  3 24  1  0  0  0  0
  4  5  1  0  0  0  0
  4 25  1  0  0  0  0
  4 26  1  0  0  0  0
  5  6  1  0  0  0  0
  5 27  1  0  0  0  0
  6  7  2  0  0  0  0
  6  8  1  0  0  0  0
  8  9  1  0  0  0  0
  8 28  1  0  0  0  0
  9 14  1  0  0  0  0
  9 10  2  0  0  0  0
 10 11  1  0  0  0  0
 10 29  1  0  0  0  0
 11 12  2  0  0  0  0
 11 30  1  0  0  0  0
 12 13  1  0  0  0  0
 12 31  1  0  0  0  0
 13 14  2  0  0  0  0
 14 15  1  0  0  0  0
 15 19  1  0  0  0  0
 15 16  1  0  0  0  0
 16 17  1  0  0  0  0
 16 32  1  0  0  0  0
 16 33  1  0  0  0  0
 17 18  1  0  0  0  0
 17 34  1  0  0  0  0
 17 35  1  0  0  0  0
 18 19  1  0  0  0  0
 18 36  1  0  0  0  0
 18 37  1  0  0  0  0
 19 38  1  0  0  0  0
 19 39  1  0  0  0  0
M  END
> <s_m_source_file>
AV-unprocessed.smi

> <i_m_source_file_index>
833

> <i_lp_mmshare_version>
43012

> <i_f3d_flags>
0

> <s_epik_input>
W0NIM11bQ0BIXShbT0hdKVtDSDJdW05IXUMoPU8pW05IXWMxW2NIXVtjSF1bY0hdbmMxTjJbQ0gyXVtDSDJdW0NIMl1bQ0gyXTI=

> <s_epik_cmdline>
J2VwaWtfcHl0aG9uJywgJy1waCcsICc3LjAnLCAnLXRuJywgJzgnLCAnLW1hJywgJzIwMCcsICctbWV0YWxfYmluZGluZycsICctaW1hZScsICc8aW5maWxlLm1hZT4nLCAnLW9tYWUnLCAnPG91dGZpbGUubWFlPic=

> <r_lp_tautomer_probability>
1

> <r_epik_Ionization_Penalty>
0.0986749

> <r_epik_Ionization_Penalty_Charging>
0

> <r_epik_Ionization_Penalty_Neutral>
0.0986749

> <r_epik_State_Penalty>
0.0881977

> <r_epik_Charging_Adjusted_Penalty>
0.0881977

> <i_epik_Tot_Q>
0

> <i_epik_Tot_abs_Q>
0

> <r_epik_Metal_State_Penalty>
0.0755487

> <b_epik_Metal_Only>
0

> <s_lp_Force_Field>
OPLS_2005

> <r_lp_Energy>
30.9988

> <b_lp_Chiralities_Consistent>
1

> <s_lp_Variant>
AV-unprocessed.smi:833-2

> <Gold.Version>
5.8.1

> <Gold.Id.Protein>
6NUR|6NUR_protein|mol2

> <Gold.PLP.Fitness>
38.9653

> <Gold.PLP.PLP>
-28.2069

> <Gold.PLP.part.hbond>
-2.7258

> <Gold.PLP.part.metal>
0.0000

> <Gold.PLP.part.buried>
-2.0312

> <Gold.PLP.part.nonpolar>
-25.8804

> <Gold.PLP.part.repulsive>
2.1412

> <Gold.PLP.ligand.clash>
0.0000

> <Gold.PLP.ligand.torsion>
0.6053

> <Gold.PLP.Chemscore.Hbond>
2.8800

> <Gold.PLP.Chemscore.CHOScore>
1.0000

> <Gold.PLP.Chemscore.Metal>
0.0000

> <Gold.Chemscore.Hbonds>
donor molecule, donor type, donor heavy atom, donor atom, acceptor molecule, acceptor atom, score
      L1  H     3    24       P1  7921  1.00
      L1  H     5    27       P1  7948  0.86
      L1  H     8    28       P1  7948  0.99
      L1  C    12    31       P1  8028  1.00

> <Gold.PLP.Chemscore.Internal.Correction>
0.3291

> <Gold.Rescore>
     Score         DG    S(hbond)    S(metal)    S(lipo)     H(rot)  DE(clash)    DE(int)     intcor
     14.53     -17.73       2.85        0.00      67.77       2.03       1.24       1.96       ----

> <Gold.Chemscore.Fitness>
14.5333

> <Gold.Chemscore.DG>
-17.7290

> <Gold.Chemscore.ZeroCoef>
-5.4800

> <Gold.Chemscore.Hbond>
2.8498

> <Gold.Chemscore.Metal>
0.0000

> <Gold.Chemscore.Lipo>
67.7698

> <Gold.Chemscore.Internal_Hbond>
0.0000

> <Gold.Chemscore.DEClash>
1.2370

> <Gold.Chemscore.DEInternal>
1.9588

> <Gold.Chemscore.Rot>
2.0306

> <Gold.Chemscore.Internal.Correction>
   9.000000E+99

> <Gold.Chemscore.Hbonds>
donor molecule, donor type, donor heavy atom, donor atom, acceptor molecule, acceptor atom, score
      L1  H     3    24       P1  7921  0.93
      L1  H     5    27       P1  7948  0.84
      L1  H     8    28       P1  7948  0.91

> <Gold.Chemscore.Hbond.Weighted>
-9.5183

> <Gold.Chemscore.Metal.Weighted>
-0.0000

> <Gold.Chemscore.Lipo.Weighted>
-7.9291

> <Gold.Chemscore.Internal_Hbond.Weighted>
0.0000

> <Gold.Chemscore.DEClash.Weighted>
1.2370

> <Gold.Chemscore.DEInternal.Weighted>
1.9588

> <Gold.Chemscore.Rot.Weighted>
5.1984

> <Gold.Chemscore.Internal.Correction.Weighted>
   9.000000E+99

> <Gold.Protein.RotatedTorsions>
[ 6907 6896 6895 6894 ] final -109.35 input  -60.11 | X-H torsion
[ 7974 7965 7964 7962 ] final  104.42 input  175.53 | X-H torsion
[ 8008 7997 7996 7995 ] final -102.96 input   59.86 | X-H torsion
[ 10167 10162 10161 10158 ] final  -99.00 input  -65.29 | X-H torsion
[ 10718 10713 10712 10709 ] final  154.68 input   66.30 | X-H torsion
[ 10763 10752 10751 10750 ] final  171.05 input  -60.55 | X-H torsion
[ 11005 11000 10999 10996 ] final  -18.35 input  -57.11 | X-H torsion

> <Gold.Protein.ActiveResidues>
 VAL166  LYS551  ARG553  GLY616  TRP617  ASP618  TYR619  PRO620  LYS621  CYS622 
 ASP623  PHE694  ASN695  SER759  ASP760  ASP761  ALA762  ILE779  LEU786  VAL792 
 PHE793  MET794  SER795  GLU796  ALA797  LYS798  CYS799  TRP800  GLU811  SER814 

> <Gold.Protein.RotatedAtoms>
  150.7557  133.9542  159.3494 H   0  0  0  0  0  0  0  0  0  0  0  0  # atno 6907 bound_to 6896
  151.7462  135.0841  160.0333 H   0  0  0  0  0  0  0  0  0  0  0  0  # atno 6908 bound_to 6896
  152.3496  133.6127  159.5971 H   0  0  0  0  0  0  0  0  0  0  0  0  # atno 6909 bound_to 6896
  145.3330  139.2481  143.3650 H   0  0  0  0  0  0  0  0  0  0  0  0  # atno 7974 bound_to 7965
  154.8640  140.0425  157.1683 H   0  0  0  0  0  0  0  0  0  0  0  0  # atno 8008 bound_to 7997
  154.8809  140.2972  155.5405 H   0  0  0  0  0  0  0  0  0  0  0  0  # atno 8009 bound_to 7997
  156.2999  140.2411  156.3812 H   0  0  0  0  0  0  0  0  0  0  0  0  # atno 8010 bound_to 7997
  140.2670  143.3369  152.0571 H   0  0  0  0  0  0  0  0  0  0  0  0  # atno 10167 bound_to 10162
  157.2283  131.0733  151.1869 H   0  0  0  0  0  0  0  0  0  0  0  0  # atno 10718 bound_to 10713
  154.4064  135.2755  155.2064 H   0  0  0  0  0  0  0  0  0  0  0  0  # atno 10763 bound_to 10752
  154.4068  135.6031  153.5933 H   0  0  0  0  0  0  0  0  0  0  0  0  # atno 10764 bound_to 10752
  152.9831  135.5940  154.4339 H   0  0  0  0  0  0  0  0  0  0  0  0  # atno 10765 bound_to 10752
  140.8260  133.8033  155.9708 H   0  0  0  0  0  0  0  0  0  0  0  0  # atno 11005 bound_to 11000
  146.3038  140.3912  142.8694 LP  0  0  0  0  0  0  0  0  0  0  0  0  # atno 17320 bound_to 7965
  144.8849  140.7449  143.5963 LP  0  0  0  0  0  0  0  0  0  0  0  0  # atno 17321 bound_to 7965
  139.5000  144.6681  151.6308 LP  0  0  0  0  0  0  0  0  0  0  0  0  # atno 17342 bound_to 10162
  140.5920  143.9763  150.6330 LP  0  0  0  0  0  0  0  0  0  0  0  0  # atno 17343 bound_to 10162
  157.3504  130.7079  149.6437 LP  0  0  0  0  0  0  0  0  0  0  0  0  # atno 17370 bound_to 10713
  155.9677  130.4254  150.4652 LP  0  0  0  0  0  0  0  0  0  0  0  0  # atno 17371 bound_to 10713
  140.9049  134.2332  157.5020 LP  0  0  0  0  0  0  0  0  0  0  0  0  # atno 17394 bound_to 11000
  139.8706  134.9723  156.4770 LP  0  0  0  0  0  0  0  0  0  0  0  0  # atno 17395 bound_to 11000

$$$$
