#       Name:                AV-unprocessed.smi:1133
#       Creating user name   scv26
#       Creation time:       Fri Mar 27 03:42:32 2020


#       File generated by GOLD software.
#

@<TRIPOS>MOLECULE
AV-unprocessed.smi:1133
    46    47     1
SMALL
NO_CHARGES


@<TRIPOS>ATOM
      1 ****        -5.7865   0.1839  -1.4136 C.3            1 S1                 0.0000
      2 ****        -5.4601   0.4404   0.0593 C.2            1 S1                 0.0000
      3 ****        -6.2245  -0.0173   0.9090 O.2            1 S1                 0.0000
      4 ****        -4.3505   1.1491   0.3786 N.am           1 S1                 0.0000
      5 ****        -3.9154   1.3611   1.7637 C.3            1 S1                 0.0000
      6 ****        -2.6505   0.5217   2.0192 C.3            1 S1                 0.0000
      7 ****        -1.5372   0.8574   1.0034 C.3            1 S1                 0.0000
      8 ****        -0.4334  -0.0857   1.1549 N.am           1 S1                 0.0000
      9 ****         0.8409   0.1597   0.8200 C.2            1 S1                 0.0000
     10 ****         1.2406   1.2274   0.3543 O.2            1 S1                 0.0000
     11 ****         1.6296  -0.9011   1.0424 N.am           1 S1                 0.0000
     12 ****         3.0606  -0.9421   0.7673 C.3            1 S1                 0.0000
     13 ****         3.3448  -1.1187  -0.7340 C.3            1 S1                 0.0000
     14 ****         4.7805  -1.1292  -1.0161 N.pl3          1 S1                 0.0000
     15 ****         5.5969  -2.2233  -1.1437 C.2            1 S1                 0.0000
     16 ****         6.8544  -1.7429  -1.4048 C.2            1 S1                 0.0000
     17 ****         6.7522  -0.3773  -1.4234 N.pl3          1 S1                 1.0000
     18 ****         5.4898  -0.0061  -1.1865 C.2            1 S1                 0.0000
     19 ****        -2.0712   0.8375  -0.4480 C.3            1 S1                 0.0000
     20 ****        -3.3640   1.6614  -0.5801 C.3            1 S1                 0.0000
     21 ****        -4.9689  -0.3439  -1.9055 H              1 S1                 0.0000
     22 ****        -5.9706   1.1220  -1.9376 H              1 S1                 0.0000
     23 ****        -6.6825  -0.4306  -1.5073 H              1 S1                 0.0000
     24 ****        -3.7019   2.4196   1.9191 H              1 S1                 0.0000
     25 ****        -4.6850   1.1041   2.4927 H              1 S1                 0.0000
     26 ****        -2.2929   0.6890   3.0359 H              1 S1                 0.0000
     27 ****        -2.9075  -0.5367   1.9517 H              1 S1                 0.0000
     28 ****        -1.1815   1.8653   1.2260 H              1 S1                 0.0000
     29 ****        -0.6612  -0.9947   1.5311 H              1 S1                 0.0000
     30 ****         1.2121  -1.7354   1.4286 H              1 S1                 0.0000
     31 ****         3.5336  -0.0339   1.1449 H              1 S1                 0.0000
     32 ****         3.4914  -1.7724   1.3276 H              1 S1                 0.0000
     33 ****         2.9226  -2.0555  -1.0997 H              1 S1                 0.0000
     34 ****         2.8953  -0.3146  -1.3189 H              1 S1                 0.0000
     35 ****         5.2323  -3.2354  -1.0423 H              1 S1                 0.0000
     36 ****         7.7895  -2.2570  -1.5739 H              1 S1                 0.0000
     37 ****         5.1166   1.0018  -1.1407 H              1 S1                 0.0000
     38 ****        -1.3159   1.2237  -1.1334 H              1 S1                 0.0000
     39 ****        -2.2703  -0.1905  -0.7554 H              1 S1                 0.0000
     40 ****        -3.7100   1.6471  -1.6127 H              1 S1                 0.0000
     41 ****        -3.1601   2.7099  -0.3584 H              1 S1                 0.0000
     42 ****         7.5192   0.2615  -1.5918 H              1 S1                 0.0000
     43 ****        -7.0301  -0.5388   0.6278 LP             1 S1                 0.0000
     44 ****        -6.0398   0.1325   1.8803 LP             1 S1                 0.0000
     45 ****         0.5984   1.9792   0.2044 LP             1 S1                 0.0000
     46 ****         2.2073   1.3427   0.1260 LP             1 S1                 0.0000
@<TRIPOS>BOND
    1    1    2 1     
    2    1   21 1     
    3    1   22 1     
    4    1   23 1     
    5    2    3 2     
    6    2    4 am    
    7    4   20 1     
    8    4    5 1     
    9    5    6 1     
   10    5   24 1     
   11    5   25 1     
   12    6    7 1     
   13    6   26 1     
   14    6   27 1     
   15    7    8 1     
   16    7   19 1     
   17    7   28 1     
   18    8    9 am    
   19    8   29 1     
   20    9   10 2     
   21    9   11 am    
   22   11   12 1     
   23   11   30 1     
   24   12   13 1     
   25   12   31 1     
   26   12   32 1     
   27   13   14 1     
   28   13   33 1     
   29   13   34 1     
   30   14   18 1     
   31   14   15 1     
   32   15   16 2     
   33   15   35 1     
   34   16   17 1     
   35   16   36 1     
   36   17   18 2     
   37   17   42 1     
   38   18   37 1     
   39   19   20 1     
   40   19   38 1     
   41   19   39 1     
   42   20   40 1     
   43   20   41 1     
   44    3   43 1     
   45    3   44 1     
   46   10   45 1     
   47   10   46 1     
@<TRIPOS>SUBSTRUCTURE
      1 S1             1
@<TRIPOS>SET
LONE_PAIRS      STATIC     ATOMS    <user>   **** ""
4 43 44 45 46
DONOR_HYDROGENS      STATIC     ATOMS    <user>   **** ""
3 29 30 42
ATOM$BLUE        STATIC     ATOMS    COLORGROUP SYSTEM
4 43 44 45 46
ATOM$RED        STATIC     ATOMS    COLORGROUP SYSTEM
3 29 30 42
