#       Name:                AV-unprocessed.smi:2032
#       Creating user name   scv26
#       Creation time:       Fri Mar 27 10:50:18 2020


#       File generated by GOLD software.
#

@<TRIPOS>MOLECULE
AV-unprocessed.smi:2032
    48    49     1
SMALL
NO_CHARGES


@<TRIPOS>ATOM
      1 ****        -4.0882   3.1129  -0.6910 C.3            1 S1                 0.0000
      2 ****        -3.5835   1.6687  -0.7813 C.3            1 S1                 0.0000
      3 ****        -2.0465   1.5920  -0.8409 C.3            1 S1                 0.0000
      4 ****        -1.5427   0.2145  -0.8612 N.3            1 S1                 0.0000
      5 ****        -0.0628   0.1519  -0.8946 C.3            1 S1                 0.0000
      6 ****         0.5501   0.9647  -2.0633 C.3            1 S1                 0.0000
      7 ****         0.4904  -1.3018  -0.9559 C.3            1 S1                 0.0000
      8 ****         1.9486  -1.3668  -0.9010 N.am           1 S1                 0.0000
      9 ****         2.6809  -1.2144   0.2118 C.2            1 S1                 0.0000
     10 ****         2.1906  -1.0064   1.3223 O.2            1 S1                 0.0000
     11 ****         3.9955  -1.3157  -0.0515 N.am           1 S1                 0.0000
     12 ****         5.0818  -1.2193   0.8577 C.2            1 S1                 0.0000
     13 ****         4.9487  -1.0138   2.1734 N.2            1 S1                 0.0000
     14 ****         6.1837  -0.9629   2.8244 C.2            1 S1                 0.0000
     15 ****         7.2548  -1.1338   1.9831 C.2            1 S1                 0.0000
     16 ****         6.7517  -1.3672   0.3300 S.3            1 S1                 0.0000
     17 ****        -2.1085  -0.4874   0.2969 C.3            1 S1                 0.0000
     18 ****        -3.6453  -0.4009   0.3651 C.3            1 S1                 0.0000
     19 ****        -4.2050  -1.0600   1.6303 C.3            1 S1                 0.0000
     20 ****        -4.0393   0.9652   0.3667 O.3            1 S1                 0.0000
     21 ****        -3.7698   3.6942  -1.5564 H              1 S1                 0.0000
     22 ****        -3.7098   3.6085   0.2036 H              1 S1                 0.0000
     23 ****        -5.1773   3.1429  -0.6532 H              1 S1                 0.0000
     24 ****        -4.0074   1.2056  -1.6741 H              1 S1                 0.0000
     25 ****        -1.7367   2.1236  -1.7392 H              1 S1                 0.0000
     26 ****        -1.6203   2.1282   0.0086 H              1 S1                 0.0000
     27 ****         0.3078   0.5999   0.0288 H              1 S1                 0.0000
     28 ****         1.6332   0.8621  -2.1188 H              1 S1                 0.0000
     29 ****         0.3728   2.0341  -1.9575 H              1 S1                 0.0000
     30 ****         0.1412   0.6475  -3.0231 H              1 S1                 0.0000
     31 ****         0.1202  -1.9207  -0.1403 H              1 S1                 0.0000
     32 ****         0.1630  -1.7843  -1.8773 H              1 S1                 0.0000
     33 ****         2.4301  -1.5334  -1.7724 H              1 S1                 0.0000
     34 ****         4.2495  -1.4829  -1.0139 H              1 S1                 0.0000
     35 ****         6.2081  -0.7998   3.8917 H              1 S1                 0.0000
     36 ****         8.3048  -1.1362   2.2350 H              1 S1                 0.0000
     37 ****        -1.8564  -1.5451   0.2674 H              1 S1                 0.0000
     38 ****        -1.6795  -0.0849   1.2161 H              1 S1                 0.0000
     39 ****        -4.0776  -0.8941  -0.5073 H              1 S1                 0.0000
     40 ****        -3.9394  -2.1166   1.6734 H              1 S1                 0.0000
     41 ****        -5.2926  -0.9892   1.6578 H              1 S1                 0.0000
     42 ****        -3.8169  -0.5800   2.5291 H              1 S1                 0.0000
     43 ****        -1.8343  -0.2376  -1.7041 LP             1 S1                 0.0000
     44 ****         1.1980  -0.9435   1.4269 LP             1 S1                 0.0000
     45 ****         2.7850  -0.9004   2.1195 LP             1 S1                 0.0000
     46 ****         4.0684  -0.9090   2.6363 LP             1 S1                 0.0000
     47 ****        -5.0380   1.0102   0.3940 LP             1 S1                 0.0000
     48 ****        -3.6635   1.4057   1.1820 LP             1 S1                 0.0000
@<TRIPOS>BOND
    1    1    2 1     
    2    1   21 1     
    3    1   22 1     
    4    1   23 1     
    5    2   20 1     
    6    2    3 1     
    7    2   24 1     
    8    3    4 1     
    9    3   25 1     
   10    3   26 1     
   11    4    5 1     
   12    4   17 1     
   13    5    6 1     
   14    5    7 1     
   15    5   27 1     
   16    6   28 1     
   17    6   29 1     
   18    6   30 1     
   19    7    8 1     
   20    7   31 1     
   21    7   32 1     
   22    8    9 am    
   23    8   33 1     
   24    9   10 2     
   25    9   11 am    
   26   11   12 1     
   27   11   34 1     
   28   12   16 1     
   29   12   13 2     
   30   13   14 1     
   31   14   15 2     
   32   14   35 1     
   33   15   16 1     
   34   15   36 1     
   35   17   18 1     
   36   17   37 1     
   37   17   38 1     
   38   18   19 1     
   39   18   20 1     
   40   18   39 1     
   41   19   40 1     
   42   19   41 1     
   43   19   42 1     
   44    4   43 1     
   45   10   44 1     
   46   10   45 1     
   47   13   46 1     
   48   20   47 1     
   49   20   48 1     
@<TRIPOS>SUBSTRUCTURE
      1 S1             1
@<TRIPOS>SET
LONE_PAIRS      STATIC     ATOMS    <user>   **** ""
6 43 44 45 46 47 48
DONOR_HYDROGENS      STATIC     ATOMS    <user>   **** ""
2 33 34
ATOM$BLUE        STATIC     ATOMS    COLORGROUP SYSTEM
6 43 44 45 46 47 48
ATOM$RED        STATIC     ATOMS    COLORGROUP SYSTEM
2 33 34
