AV-unprocessed.smi:234|AV-procd|sdf|1785|dock9
  -GOLD-   2262020343D 1   1.00000     0.00000
 Structure written by MMmdl.
 59 62  0  0  0  0  0  0  0  0  1 V2000
  152.2416  144.7179  159.4733 C   0  0  0  0  0  0  0  0  0  0  0  0
  151.9807  144.2750  158.0322 C   0  0  0  0  0  0  0  0  0  0  0  0
  151.9692  142.8581  157.9822 O   0  0  0  0  0  0  0  0  0  0  0  0
  150.9562  142.3428  157.1316 C   0  0  2  0  0  0  0  0  0  0  0  0
  149.5507  142.3388  157.7475 C   0  0  0  0  0  0  0  0  0  0  0  0
  149.3755  140.9258  157.1749 C   0  0  1  0  0  0  0  0  0  0  0  0
  148.6259  140.8686  155.9033 N   0  0  0  0  0  0  0  0  0  0  0  0
  149.1302  141.3970  154.6315 C   0  0  0  0  0  0  0  0  0  0  0  0
  147.7035  139.8732  155.8160 C   0  0  0  0  0  0  0  0  0  0  0  0
  147.2374  139.2981  156.9577 N   0  0  0  0  0  0  0  0  0  0  0  0
  146.3136  138.3349  156.9047 C   0  0  0  0  0  0  0  0  0  0  0  0
  145.7278  137.7998  155.8330 N   0  0  0  0  0  0  0  0  0  0  0  0
  146.1981  138.3597  154.6821 C   0  0  0  0  0  0  0  0  0  0  0  0
  147.1801  139.3868  154.5823 C   0  0  0  0  0  0  0  0  0  0  0  0
  147.4195  139.6756  153.2432 N   0  0  0  0  0  0  0  0  0  0  0  0
  146.6132  138.8831  152.5927 C   0  0  0  0  0  0  0  0  0  0  0  0
  145.8336  138.0666  153.3794 N   0  0  0  0  0  0  0  0  0  0  0  0
  144.8467  137.0995  152.9234 C   0  0  0  0  0  0  0  0  0  0  0  0
  145.4780  135.8245  152.3039 C   0  0  1  0  0  0  0  0  0  0  0  0
  146.1453  136.1987  151.1102 O   0  0  0  0  0  0  0  0  0  0  0  0
  146.4998  135.1485  153.2157 C   0  0  0  0  0  0  0  0  0  0  0  0
  146.3990  133.6830  152.8228 C   0  0  0  0  0  0  0  0  0  0  0  0
  145.0058  133.5189  152.6294 O   0  0  0  0  0  0  0  0  0  0  0  0
  144.4994  134.6674  151.9547 C   0  0  1  0  0  0  0  0  0  0  0  0
  143.0311  134.8495  152.3692 C   0  0  0  0  0  0  0  0  0  0  0  0
  150.9246  140.7953  157.0878 C   0  0  0  0  0  0  0  0  0  0  0  0
  151.5517  140.1221  155.8608 C   0  0  0  0  0  0  0  0  0  0  0  0
  151.5368  140.0878  158.3053 C   0  0  0  0  0  0  0  0  0  0  0  0
  152.2569  145.8052  159.5500 H   0  0  0  0  0  0  0  0  0  0  0  0
  153.2018  144.3438  159.8295 H   0  0  0  0  0  0  0  0  0  0  0  0
  151.4668  144.3455  160.1437 H   0  0  0  0  0  0  0  0  0  0  0  0
  151.0257  144.6754  157.6890 H   0  0  0  0  0  0  0  0  0  0  0  0
  152.7586  144.6678  157.3759 H   0  0  0  0  0  0  0  0  0  0  0  0
  150.9833  142.7820  156.1330 H   0  0  0  0  0  0  0  0  0  0  0  0
  149.5728  142.3406  158.8383 H   0  0  0  0  0  0  0  0  0  0  0  0
  148.8713  143.1052  157.3772 H   0  0  0  0  0  0  0  0  0  0  0  0
  148.9706  140.2684  157.9420 H   0  0  0  0  0  0  0  0  0  0  0  0
  148.3049  141.5501  153.9349 H   0  0  0  0  0  0  0  0  0  0  0  0
  149.8385  140.7177  154.1608 H   0  0  0  0  0  0  0  0  0  0  0  0
  149.6182  142.3621  154.7498 H   0  0  0  0  0  0  0  0  0  0  0  0
  145.9964  137.9378  157.8576 H   0  0  0  0  0  0  0  0  0  0  0  0
  146.5615  138.8772  151.5137 H   0  0  0  0  0  0  0  0  0  0  0  0
  144.2221  136.8401  153.7787 H   0  0  0  0  0  0  0  0  0  0  0  0
  144.1940  137.5925  152.2018 H   0  0  0  0  0  0  0  0  0  0  0  0
  147.0497  136.3787  151.3164 H   0  0  0  0  0  0  0  0  0  0  0  0
  147.5100  135.5504  153.1236 H   0  0  0  0  0  0  0  0  0  0  0  0
  146.1967  135.2495  154.2585 H   0  0  0  0  0  0  0  0  0  0  0  0
  146.9302  133.4854  151.8904 H   0  0  0  0  0  0  0  0  0  0  0  0
  146.7822  133.0115  153.5913 H   0  0  0  0  0  0  0  0  0  0  0  0
  144.5293  134.4555  150.8840 H   0  0  0  0  0  0  0  0  0  0  0  0
  142.5807  135.7092  151.8732 H   0  0  0  0  0  0  0  0  0  0  0  0
  142.9317  134.9839  153.4464 H   0  0  0  0  0  0  0  0  0  0  0  0
  142.4448  133.9722  152.0954 H   0  0  0  0  0  0  0  0  0  0  0  0
  151.2160  139.0899  155.7570 H   0  0  0  0  0  0  0  0  0  0  0  0
  152.6400  140.1054  155.9264 H   0  0  0  0  0  0  0  0  0  0  0  0
  151.3111  140.6377  154.9343 H   0  0  0  0  0  0  0  0  0  0  0  0
  151.3168  139.0197  158.2973 H   0  0  0  0  0  0  0  0  0  0  0  0
  151.1505  140.4855  159.2442 H   0  0  0  0  0  0  0  0  0  0  0  0
  152.6213  140.2000  158.3338 H   0  0  0  0  0  0  0  0  0  0  0  0
  1  2  1  0  0  0  0
  1 29  1  0  0  0  0
  1 30  1  0  0  0  0
  1 31  1  0  0  0  0
  2  3  1  0  0  0  0
  2 32  1  0  0  0  0
  2 33  1  0  0  0  0
  3  4  1  0  0  0  0
  4 26  1  0  0  0  0
  4  5  1  0  0  0  0
  4 34  1  0  0  0  0
  5  6  1  0  0  0  0
  5 35  1  0  0  0  0
  5 36  1  0  0  0  0
  6  7  1  0  0  0  0
  6 26  1  0  0  0  0
  6 37  1  0  0  0  0
  7  8  1  0  0  0  0
  7  9  1  0  0  0  0
  8 38  1  0  0  0  0
  8 39  1  0  0  0  0
  8 40  1  0  0  0  0
  9 14  1  0  0  0  0
  9 10  2  0  0  0  0
 10 11  1  0  0  0  0
 11 12  2  0  0  0  0
 11 41  1  0  0  0  0
 12 13  1  0  0  0  0
 13 17  1  0  0  0  0
 13 14  2  0  0  0  0
 14 15  1  0  0  0  0
 15 16  2  0  0  0  0
 16 17  1  0  0  0  0
 16 42  1  0  0  0  0
 17 18  1  0  0  0  0
 18 19  1  0  0  0  0
 18 43  1  0  0  0  0
 18 44  1  0  0  0  0
 19 24  1  0  0  0  0
 19 20  1  0  0  0  0
 19 21  1  0  0  0  0
 20 45  1  0  0  0  0
 21 22  1  0  0  0  0
 21 46  1  0  0  0  0
 21 47  1  0  0  0  0
 22 23  1  0  0  0  0
 22 48  1  0  0  0  0
 22 49  1  0  0  0  0
 23 24  1  0  0  0  0
 24 25  1  0  0  0  0
 24 50  1  0  0  0  0
 25 51  1  0  0  0  0
 25 52  1  0  0  0  0
 25 53  1  0  0  0  0
 26 27  1  0  0  0  0
 26 28  1  0  0  0  0
 27 54  1  0  0  0  0
 27 55  1  0  0  0  0
 27 56  1  0  0  0  0
 28 57  1  0  0  0  0
 28 58  1  0  0  0  0
 28 59  1  0  0  0  0
M  END
> <s_m_source_file>
AV-unprocessed.smi

> <i_m_source_file_index>
234

> <i_lp_mmshare_version>
43012

> <i_f3d_flags>
0

> <s_epik_input>
W0NIM11bQ0gyXU9bQ0BASF0oQzEoW0NIM10pW0NIM10pW0NIMl1bQ0BIXTFOKFtDSDNdKWMobltjSF1uMiljKGMyMyluW2NIXW4zW0NIMl1bQ0BAXTQoW09IXSlbQ0gyXVtDSDJdT1tDQEhdNFtDSDNd

> <s_epik_cmdline>
J2VwaWtfcHl0aG9uJywgJy1waCcsICc3LjAnLCAnLXRuJywgJzgnLCAnLW1hJywgJzIwMCcsICctbWV0YWxfYmluZGluZycsICctaW1hZScsICc8aW5maWxlLm1hZT4nLCAnLW9tYWUnLCAnPG91dGZpbGUubWFlPic=

> <r_lp_tautomer_probability>
1

> <r_epik_Ionization_Penalty>
0.00349132

> <r_epik_Ionization_Penalty_Charging>
0

> <r_epik_Ionization_Penalty_Neutral>
0.00349132

> <r_epik_State_Penalty>
0.00242418

> <r_epik_Charging_Adjusted_Penalty>
0.00242418

> <i_epik_Tot_Q>
0

> <i_epik_Tot_abs_Q>
0

> <r_epik_Metal_State_Penalty>
-0

> <b_epik_Metal_Only>
0

> <s_lp_Force_Field>
OPLS_2005

> <r_lp_Energy>
52.3915

> <b_lp_Chiralities_Consistent>
1

> <s_lp_Variant>
AV-unprocessed.smi:234-1

> <Gold.Version>
5.8.1

> <Gold.Id.Protein>
6NUR|6NUR_protein|mol2

> <Gold.PLP.Fitness>
41.0116

> <Gold.PLP.PLP>
-39.0120

> <Gold.PLP.part.hbond>
-1.0000

> <Gold.PLP.part.metal>
0.0000

> <Gold.PLP.part.buried>
-3.5034

> <Gold.PLP.part.nonpolar>
-35.3621

> <Gold.PLP.part.repulsive>
1.3839

> <Gold.PLP.ligand.clash>
0.0000

> <Gold.PLP.ligand.torsion>
0.9759

> <Gold.PLP.Chemscore.Hbond>
1.0000

> <Gold.PLP.Chemscore.CHOScore>
0.0000

> <Gold.PLP.Chemscore.Metal>
0.0000

> <Gold.Chemscore.Hbonds>
donor molecule, donor type, donor heavy atom, donor atom, acceptor molecule, acceptor atom, score
      L1  H    20    45       P1  7948  1.00

> <Gold.PLP.Chemscore.Internal.Correction>
0.9514

> <Gold.Rescore>
     Score         DG    S(hbond)    S(metal)    S(lipo)     H(rot)  DE(clash)    DE(int)     intcor
     10.02     -13.42       1.00        0.00      91.17       2.37       0.08       3.32       ----

> <Gold.Chemscore.Fitness>
10.0212

> <Gold.Chemscore.DG>
-13.4238

> <Gold.Chemscore.ZeroCoef>
-5.4800

> <Gold.Chemscore.Hbond>
0.9995

> <Gold.Chemscore.Metal>
0.0000

> <Gold.Chemscore.Lipo>
91.1659

> <Gold.Chemscore.Internal_Hbond>
0.0000

> <Gold.Chemscore.DEClash>
0.0823

> <Gold.Chemscore.DEInternal>
3.3203

> <Gold.Chemscore.Rot>
2.3676

> <Gold.Chemscore.Internal.Correction>
   9.000000E+99

> <Gold.Chemscore.Hbonds>
donor molecule, donor type, donor heavy atom, donor atom, acceptor molecule, acceptor atom, score
      L1  H    20    45       P1  7948  0.99

> <Gold.Chemscore.Hbond.Weighted>
-3.3384

> <Gold.Chemscore.Metal.Weighted>
-0.0000

> <Gold.Chemscore.Lipo.Weighted>
-10.6664

> <Gold.Chemscore.Internal_Hbond.Weighted>
0.0000

> <Gold.Chemscore.DEClash.Weighted>
0.0823

> <Gold.Chemscore.DEInternal.Weighted>
3.3203

> <Gold.Chemscore.Rot.Weighted>
6.0610

> <Gold.Chemscore.Internal.Correction.Weighted>
   9.000000E+99

> <Gold.Protein.RotatedTorsions>
[ 6907 6896 6895 6894 ] final  167.81 input  -60.11 | X-H torsion
[ 7974 7965 7964 7962 ] final -148.06 input  175.53 | X-H torsion
[ 8008 7997 7996 7995 ] final   57.22 input   59.86 | X-H torsion
[ 10167 10162 10161 10158 ] final   -6.19 input  -65.29 | X-H torsion
[ 10718 10713 10712 10709 ] final  125.10 input   66.30 | X-H torsion
[ 10763 10752 10751 10750 ] final  167.26 input  -60.55 | X-H torsion
[ 11005 11000 10999 10996 ] final    9.68 input  -57.11 | X-H torsion

> <Gold.Protein.ActiveResidues>
 VAL166  LYS551  ARG553  GLY616  TRP617  ASP618  TYR619  PRO620  LYS621  CYS622 
 ASP623  PHE694  ASN695  SER759  ASP760  ASP761  ALA762  ILE779  LEU786  VAL792 
 PHE793  MET794  SER795  GLU796  ALA797  LYS798  CYS799  TRP800  GLU811  SER814 

> <Gold.Protein.RotatedAtoms>
  151.8575  133.3451  159.3692 H   0  0  0  0  0  0  0  0  0  0  0  0  # atno 6907 bound_to 6896
  150.7188  134.5239  159.5676 H   0  0  0  0  0  0  0  0  0  0  0  0  # atno 6908 bound_to 6896
  152.2745  134.7897  160.0459 H   0  0  0  0  0  0  0  0  0  0  0  0  # atno 6909 bound_to 6896
  144.8053  140.5246  143.5679 H   0  0  0  0  0  0  0  0  0  0  0  0  # atno 7974 bound_to 7965
  155.5303  140.3482  155.4425 H   0  0  0  0  0  0  0  0  0  0  0  0  # atno 8008 bound_to 7997
  156.0723  140.1366  156.9840 H   0  0  0  0  0  0  0  0  0  0  0  0  # atno 8009 bound_to 7997
  154.4534  140.0963  156.6662 H   0  0  0  0  0  0  0  0  0  0  0  0  # atno 8010 bound_to 7997
  140.6989  143.6222  150.8602 H   0  0  0  0  0  0  0  0  0  0  0  0  # atno 10167 bound_to 10162
  157.5531  131.1093  150.8668 H   0  0  0  0  0  0  0  0  0  0  0  0  # atno 10718 bound_to 10713
  154.3512  135.2753  155.2371 H   0  0  0  0  0  0  0  0  0  0  0  0  # atno 10763 bound_to 10752
  154.4599  135.5909  153.6252 H   0  0  0  0  0  0  0  0  0  0  0  0  # atno 10764 bound_to 10752
  152.9850  135.6062  154.3722 H   0  0  0  0  0  0  0  0  0  0  0  0  # atno 10765 bound_to 10752
  140.5230  134.0540  155.7850 H   0  0  0  0  0  0  0  0  0  0  0  0  # atno 11005 bound_to 11000
  145.5453  139.1476  143.3424 LP  0  0  0  0  0  0  0  0  0  0  0  0  # atno 17320 bound_to 7965
  146.2343  140.5592  142.8961 LP  0  0  0  0  0  0  0  0  0  0  0  0  # atno 17321 bound_to 7965
  139.9942  143.5814  152.2899 LP  0  0  0  0  0  0  0  0  0  0  0  0  # atno 17342 bound_to 10162
  139.6480  144.7659  151.2205 LP  0  0  0  0  0  0  0  0  0  0  0  0  # atno 17343 bound_to 10162
  156.9187  130.5307  149.5279 LP  0  0  0  0  0  0  0  0  0  0  0  0  # atno 17370 bound_to 10713
  156.0594  130.5650  150.9161 LP  0  0  0  0  0  0  0  0  0  0  0  0  # atno 17371 bound_to 10713
  141.1324  133.9280  157.2507 LP  0  0  0  0  0  0  0  0  0  0  0  0  # atno 17394 bound_to 11000
  139.9595  135.0157  156.9223 LP  0  0  0  0  0  0  0  0  0  0  0  0  # atno 17395 bound_to 11000

$$$$
