AV-unprocessed.smi:1521|AV-procd|sdf|6132|dock8
  -GOLD-   22720 6273D 1   1.00000     0.00000
 Structure written by MMmdl.
 35 36  0  0  0  0  0  0  0  0  2 V2000
  148.1249  135.6663  156.4421 O   0  0  0  0  0  0  0  0  0  0  0  0
  148.4297  135.5684  155.2534 C   0  0  0  0  0  0  0  0  0  0  0  0
  148.1001  136.4854  154.3332 N   0  0  0  0  0  0  0  0  0  0  0  0
  147.3605  137.7138  154.5996 C   0  0  0  0  0  0  0  0  0  0  0  0
  148.2034  138.9602  154.2823 C   0  0  2  0  0  0  0  0  0  0  0  0
  149.5424  138.9576  155.0463 C   0  0  0  0  0  0  0  0  0  0  0  0
  150.2509  140.1570  154.7624 O   0  0  0  0  0  0  0  0  0  0  0  0
  149.5053  141.3015  155.1537 C   0  0  0  0  0  0  0  0  0  0  0  0
  148.1719  141.3130  154.3887 C   0  0  0  0  0  0  0  0  0  0  0  0
  147.4663  140.1135  154.6767 O   0  0  0  0  0  0  0  0  0  0  0  0
  149.1390  134.5692  154.6988 N   0  0  0  0  0  0  0  0  0  0  0  0
  149.6510  133.4042  155.2944 C   0  0  0  0  0  0  0  0  0  0  0  0
  149.6284  132.1673  154.7248 C   0  0  0  0  0  0  0  0  0  0  0  0
  150.1912  130.9950  155.3833 C   0  0  0  0  0  0  0  0  0  0  0  0
  150.1030  129.5874  154.8217 C   0  0  0  0  0  0  0  0  0  0  0  0
  149.3525  129.5569  153.7203 F   0  0  0  0  0  0  0  0  0  0  0  0
  151.3128  129.1155  154.5197 F   0  0  0  0  0  0  0  0  0  0  0  0
  149.5522  128.7742  155.7217 F   0  0  0  0  0  0  0  0  0  0  0  0
  150.7214  131.2947  156.6233 C   0  0  0  0  0  0  0  0  0  0  0  0
  150.8090  132.4911  157.2449 N   0  5  0  0  0  0  0  0  0  0  0  0
  150.2844  133.5815  156.6175 C   0  0  0  0  0  0  0  0  0  0  0  0
  150.3291  134.7016  157.1276 O   0  0  0  0  0  0  0  0  0  0  0  0
  148.3997  136.3323  153.3815 H   0  0  0  0  0  0  0  0  0  0  0  0
  146.4552  137.7091  153.9919 H   0  0  0  0  0  0  0  0  0  0  0  0
  147.0329  137.7322  155.6404 H   0  0  0  0  0  0  0  0  0  0  0  0
  148.4008  139.0021  153.2093 H   0  0  0  0  0  0  0  0  0  0  0  0
  149.3805  138.8640  156.1214 H   0  0  0  0  0  0  0  0  0  0  0  0
  150.1527  138.1084  154.7384 H   0  0  0  0  0  0  0  0  0  0  0  0
  149.3354  141.2913  156.2315 H   0  0  0  0  0  0  0  0  0  0  0  0
  150.0817  142.1985  154.9270 H   0  0  0  0  0  0  0  0  0  0  0  0
  147.5653  142.1653  154.6953 H   0  0  0  0  0  0  0  0  0  0  0  0
  148.3389  141.4055  153.3144 H   0  0  0  0  0  0  0  0  0  0  0  0
  149.3764  134.6744  153.7234 H   0  0  0  0  0  0  0  0  0  0  0  0
  149.2068  132.0188  153.7442 H   0  0  0  0  0  0  0  0  0  0  0  0
  151.1375  130.4439  157.2039 H   0  0  0  0  0  0  0  0  0  0  0  0
  1  2  2  0  0  0  0
  2  3  1  0  0  0  0
  2 11  1  0  0  0  0
  3  4  1  0  0  0  0
  3 23  1  0  0  0  0
  4  5  1  0  0  0  0
  4 24  1  0  0  0  0
  4 25  1  0  0  0  0
  5 10  1  0  0  0  0
  5  6  1  0  0  0  0
  5 26  1  0  0  0  0
  6  7  1  0  0  0  0
  6 27  1  0  0  0  0
  6 28  1  0  0  0  0
  7  8  1  0  0  0  0
  8  9  1  0  0  0  0
  8 29  1  0  0  0  0
  8 30  1  0  0  0  0
  9 10  1  0  0  0  0
  9 31  1  0  0  0  0
  9 32  1  0  0  0  0
 11 12  1  0  0  0  0
 11 33  1  0  0  0  0
 12 21  1  0  0  0  0
 12 13  2  0  0  0  0
 13 14  1  0  0  0  0
 13 34  1  0  0  0  0
 14 15  1  0  0  0  0
 14 19  2  0  0  0  0
 15 16  1  0  0  0  0
 15 17  1  0  0  0  0
 15 18  1  0  0  0  0
 19 20  1  0  0  0  0
 19 35  1  0  0  0  0
 20 21  1  0  0  0  0
 21 22  2  0  0  0  0
M  CHG  1  20  -1
M  END
> <s_m_source_file>
AV-unprocessed.smi

> <i_m_source_file_index>
1521

> <i_lp_mmshare_version>
43012

> <i_f3d_flags>
0

> <s_epik_input>
Tz1jMVtuSF1bY0hdYyhDKEYpKEYpRilbY0hdYzFbTkhdQyg9TylbTkhdW0NIMl1bQ0BASF0yW0NIMl1PW0NIMl1bQ0gyXU8y

> <s_epik_cmdline>
J2VwaWtfcHl0aG9uJywgJy1waCcsICc3LjAnLCAnLXRuJywgJzgnLCAnLW1hJywgJzIwMCcsICctbWV0YWxfYmluZGluZycsICctaW1hZScsICc8aW5maWxlLm1hZT4nLCAnLW9tYWUnLCAnPG91dGZpbGUubWFlPic=

> <r_lp_tautomer_probability>
1

> <r_epik_Ionization_Penalty>
3.1412

> <r_epik_Ionization_Penalty_Charging>
0.17015

> <r_epik_Ionization_Penalty_Neutral>
2.97105

> <r_epik_State_Penalty>
2.96707

> <r_epik_Charging_Adjusted_Penalty>
3.13722

> <i_epik_Tot_Q>
-1

> <i_epik_Tot_abs_Q>
1

> <r_epik_Metal_State_Penalty>
0.451298

> <b_epik_Metal_Only>
1

> <s_lp_Force_Field>
OPLS_2005

> <r_lp_Energy>
20.4323

> <b_lp_Chiralities_Consistent>
1

> <s_lp_Variant>
AV-unprocessed.smi:1521-3

> <Gold.Version>
5.8.1

> <Gold.Id.Protein>
6NUR|6NUR_protein|mol2

> <Gold.PLP.Fitness>
42.9654

> <Gold.PLP.PLP>
-32.0902

> <Gold.PLP.part.hbond>
-4.0402

> <Gold.PLP.part.metal>
0.0000

> <Gold.PLP.part.buried>
-4.9120

> <Gold.PLP.part.nonpolar>
-25.1776

> <Gold.PLP.part.repulsive>
0.2566

> <Gold.PLP.ligand.clash>
0.0000

> <Gold.PLP.ligand.torsion>
0.5395

> <Gold.PLP.Chemscore.Hbond>
3.9665

> <Gold.PLP.Chemscore.CHOScore>
0.0000

> <Gold.PLP.Chemscore.Metal>
0.0000

> <Gold.Chemscore.Hbonds>
donor molecule, donor type, donor heavy atom, donor atom, acceptor molecule, acceptor atom, score
      L1  H     3    23       P1  7948  1.00
      L1  H    11    33       P1  7948  0.02
      P1  H  6896  6908       L1    20  1.11
      P1  H  7989  7998       L1     7  1.00

> <Gold.PLP.Chemscore.Internal.Correction>
0.0548

> <Gold.Rescore>
     Score         DG    S(hbond)    S(metal)    S(lipo)     H(rot)  DE(clash)    DE(int)     intcor
     12.51     -17.06       2.69        0.00      51.91       1.36       0.00       4.56       ----

> <Gold.Chemscore.Fitness>
12.5063

> <Gold.Chemscore.DG>
-17.0620

> <Gold.Chemscore.ZeroCoef>
-5.4800

> <Gold.Chemscore.Hbond>
2.6948

> <Gold.Chemscore.Metal>
0.0000

> <Gold.Chemscore.Lipo>
51.9056

> <Gold.Chemscore.Internal_Hbond>
0.0000

> <Gold.Chemscore.DEClash>
0.0000

> <Gold.Chemscore.DEInternal>
4.5557

> <Gold.Chemscore.Rot>
1.3640

> <Gold.Chemscore.Internal.Correction>
   9.000000E+99

> <Gold.Chemscore.Hbonds>
donor molecule, donor type, donor heavy atom, donor atom, acceptor molecule, acceptor atom, score
      L1  H     3    23       P1  7948  0.99
      P1  H  6896  6908       L1    20  0.16
      P1  H  7989  7998       L1     7  0.43

> <Gold.Chemscore.Hbond.Weighted>
-9.0008

> <Gold.Chemscore.Metal.Weighted>
-0.0000

> <Gold.Chemscore.Lipo.Weighted>
-6.0730

> <Gold.Chemscore.Internal_Hbond.Weighted>
0.0000

> <Gold.Chemscore.DEClash.Weighted>
0.0000

> <Gold.Chemscore.DEInternal.Weighted>
4.5557

> <Gold.Chemscore.Rot.Weighted>
3.4918

> <Gold.Chemscore.Internal.Correction.Weighted>
   9.000000E+99

> <Gold.Protein.RotatedTorsions>
[ 6907 6896 6895 6894 ] final   79.11 input  -60.11 | X-H torsion
[ 7974 7965 7964 7962 ] final  -78.67 input  175.53 | X-H torsion
[ 8008 7997 7996 7995 ] final  -46.61 input   59.86 | X-H torsion
[ 10167 10162 10161 10158 ] final  175.01 input  -65.29 | X-H torsion
[ 10718 10713 10712 10709 ] final  -19.41 input   66.30 | X-H torsion
[ 10763 10752 10751 10750 ] final   72.26 input  -60.55 | X-H torsion
[ 11005 11000 10999 10996 ] final -171.14 input  -57.11 | X-H torsion

> <Gold.Protein.ActiveResidues>
 VAL166  LYS551  ARG553  GLY616  TRP617  ASP618  TYR619  PRO620  LYS621  CYS622 
 ASP623  PHE694  ASN695  SER759  ASP760  ASP761  ALA762  ILE779  LEU786  VAL792 
 PHE793  MET794  SER795  GLU796  ALA797  LYS798  CYS799  TRP800  GLU811  SER814 

> <Gold.Protein.RotatedAtoms>
  152.5186  134.3561  159.9268 H   0  0  0  0  0  0  0  0  0  0  0  0  # atno 6907 bound_to 6896
  151.3513  133.3918  159.2688 H   0  0  0  0  0  0  0  0  0  0  0  0  # atno 6908 bound_to 6896
  150.9725  134.9114  159.7854 H   0  0  0  0  0  0  0  0  0  0  0  0  # atno 6909 bound_to 6896
  145.5834  140.9444  143.1331 H   0  0  0  0  0  0  0  0  0  0  0  0  # atno 7974 bound_to 7965
  154.4009  140.1367  156.4040 H   0  0  0  0  0  0  0  0  0  0  0  0  # atno 8008 bound_to 7997
  155.7797  140.3482  155.5270 H   0  0  0  0  0  0  0  0  0  0  0  0  # atno 8009 bound_to 7997
  155.8685  140.0968  157.1556 H   0  0  0  0  0  0  0  0  0  0  0  0  # atno 8010 bound_to 7997
  139.5162  144.3081  152.0317 H   0  0  0  0  0  0  0  0  0  0  0  0  # atno 10167 bound_to 10162
  156.5460  130.4690  149.6475 H   0  0  0  0  0  0  0  0  0  0  0  0  # atno 10718 bound_to 10713
  153.0448  135.5106  154.7718 H   0  0  0  0  0  0  0  0  0  0  0  0  # atno 10763 bound_to 10752
  154.6626  135.2941  154.9849 H   0  0  0  0  0  0  0  0  0  0  0  0  # atno 10764 bound_to 10752
  154.0694  135.6679  153.4875 H   0  0  0  0  0  0  0  0  0  0  0  0  # atno 10765 bound_to 10752
  140.5116  134.5796  157.5020 H   0  0  0  0  0  0  0  0  0  0  0  0  # atno 11005 bound_to 11000
  144.7383  139.7521  143.7320 LP  0  0  0  0  0  0  0  0  0  0  0  0  # atno 17320 bound_to 7965
  146.1699  139.4846  142.9934 LP  0  0  0  0  0  0  0  0  0  0  0  0  # atno 17321 bound_to 7965
  140.2526  144.4152  150.6216 LP  0  0  0  0  0  0  0  0  0  0  0  0  # atno 17342 bound_to 10162
  140.6214  143.2176  151.6687 LP  0  0  0  0  0  0  0  0  0  0  0  0  # atno 17343 bound_to 10162
  156.2927  130.7133  151.1986 LP  0  0  0  0  0  0  0  0  0  0  0  0  # atno 17370 bound_to 10713
  157.7396  131.0527  150.5218 LP  0  0  0  0  0  0  0  0  0  0  0  0  # atno 17371 bound_to 10713
  139.9656  134.7379  156.0146 LP  0  0  0  0  0  0  0  0  0  0  0  0  # atno 17394 bound_to 11000
  141.1383  133.6570  156.3655 LP  0  0  0  0  0  0  0  0  0  0  0  0  # atno 17395 bound_to 11000

$$$$
