#       Name:                AV-unprocessed.smi:496
#       Creating user name   scv26
#       Creation time:       Thu Mar 26 23:16:06 2020


#       File generated by GOLD software.
#

@<TRIPOS>MOLECULE
AV-unprocessed.smi:496
    49    51     1
SMALL
NO_CHARGES


@<TRIPOS>ATOM
      1 ****        -3.1095   4.2263  -1.3844 C.3            1 S1                 0.0000
      2 ****        -2.8457   2.8447  -1.5548 O.3            1 S1                 0.0000
      3 ****        -1.5145   2.5007  -1.2125 C.3            1 S1                 0.0000
      4 ****        -1.3159   0.9978  -1.4448 C.3            1 S1                 0.0000
      5 ****         0.0463   0.5809  -1.1466 N.pl3          1 S1                 0.0000
      6 ****         0.6054   0.3008   0.0603 C.2            1 S1                 0.0000
      7 ****        -0.1584   0.3944   1.3580 C.3            1 S1                 0.0000
      8 ****         0.3841   1.5036   2.2698 C.3            1 S1                 0.0000
      9 ****        -0.0819  -0.8986   2.0334 N.am           1 S1                 0.0000
     10 ****        -0.8539  -1.9626   1.7602 C.2            1 S1                 0.0000
     11 ****        -1.7431  -1.9551   0.9088 O.2            1 S1                 0.0000
     12 ****        -0.5895  -3.1697   2.5653 C.2            1 S1                 0.0000
     13 ****         0.4256  -3.4745   3.4343 C.2            1 S1                 0.0000
     14 ****         0.1740  -4.7917   3.9084 C.2            1 S1                 0.0000
     15 ****        -0.9731  -5.2003   3.2907 C.2            1 S1                 0.0000
     16 ****        -1.4469  -4.2272   2.4659 O.3            1 S1                 0.0000
     17 ****         1.8872  -0.0745   0.0260 N.2            1 S1                 0.0000
     18 ****         2.1896  -0.0180  -1.3191 C.ar           1 S1                 0.0000
     19 ****         3.3970  -0.2930  -2.0002 C.ar           1 S1                 0.0000
     20 ****         3.4721  -0.1583  -3.4020 C.ar           1 S1                 0.0000
     21 ****         2.3434   0.2516  -4.1407 C.ar           1 S1                 0.0000
     22 ****         1.1304   0.5285  -3.4811 C.ar           1 S1                 0.0000
     23 ****         1.0603   0.3924  -2.0813 C.ar           1 S1                 0.0000
     24 ****        -4.1427   4.4385  -1.6593 H              1 S1                 0.0000
     25 ****        -2.4612   4.8330  -2.0180 H              1 S1                 0.0000
     26 ****        -2.9683   4.5297  -0.3461 H              1 S1                 0.0000
     27 ****        -0.8128   3.0688  -1.8257 H              1 S1                 0.0000
     28 ****        -1.3212   2.7545  -0.1693 H              1 S1                 0.0000
     29 ****        -2.0154   0.4102  -0.8507 H              1 S1                 0.0000
     30 ****        -1.5354   0.7547  -2.4846 H              1 S1                 0.0000
     31 ****        -1.2065   0.6223   1.1698 H              1 S1                 0.0000
     32 ****         0.3242   2.4755   1.7794 H              1 S1                 0.0000
     33 ****         1.4276   1.3296   2.5348 H              1 S1                 0.0000
     34 ****        -0.1885   1.5652   3.1956 H              1 S1                 0.0000
     35 ****         0.6238  -0.9972   2.7483 H              1 S1                 0.0000
     36 ****         1.2511  -2.8294   3.6979 H              1 S1                 0.0000
     37 ****         0.7590  -5.3678   4.6101 H              1 S1                 0.0000
     38 ****        -1.5598  -6.1068   3.3200 H              1 S1                 0.0000
     39 ****         4.2672  -0.6067  -1.4430 H              1 S1                 0.0000
     40 ****         4.4001  -0.3697  -3.9127 H              1 S1                 0.0000
     41 ****         2.4092   0.3532  -5.2142 H              1 S1                 0.0000
     42 ****         0.2657   0.8433  -4.0459 H              1 S1                 0.0000
     43 ****        -3.0031   2.6038  -2.5125 LP             1 S1                 0.0000
     44 ****        -3.4711   2.3246  -0.9731 LP             1 S1                 0.0000
     45 ****        -1.9206  -1.1260   0.3786 LP             1 S1                 0.0000
     46 ****        -2.2878  -2.7780   0.7475 LP             1 S1                 0.0000
     47 ****        -1.4751  -4.5594   1.5231 LP             1 S1                 0.0000
     48 ****        -2.3655  -3.9528   2.7502 LP             1 S1                 0.0000
     49 ****         2.4813  -0.3328   0.7878 LP             1 S1                 0.0000
@<TRIPOS>BOND
    1    1    2 1     
    2    1   24 1     
    3    1   25 1     
    4    1   26 1     
    5    2    3 1     
    6    3    4 1     
    7    3   27 1     
    8    3   28 1     
    9    4    5 1     
   10    4   29 1     
   11    4   30 1     
   12    5   23 1     
   13    5    6 1     
   14    6    7 1     
   15    6   17 2     
   16    7    8 1     
   17    7    9 1     
   18    7   31 1     
   19    8   32 1     
   20    8   33 1     
   21    8   34 1     
   22    9   10 am    
   23    9   35 1     
   24   10   11 2     
   25   10   12 1     
   26   12   16 1     
   27   12   13 2     
   28   13   14 1     
   29   13   36 1     
   30   14   15 2     
   31   14   37 1     
   32   15   16 1     
   33   15   38 1     
   34   17   18 1     
   35   18   23 ar    
   36   18   19 ar    
   37   19   20 ar    
   38   19   39 1     
   39   20   21 ar    
   40   20   40 1     
   41   21   22 ar    
   42   21   41 1     
   43   22   23 ar    
   44   22   42 1     
   45    2   43 1     
   46    2   44 1     
   47   11   45 1     
   48   11   46 1     
   49   16   47 1     
   50   16   48 1     
   51   17   49 1     
@<TRIPOS>SUBSTRUCTURE
      1 S1             1
@<TRIPOS>SET
LONE_PAIRS      STATIC     ATOMS    <user>   **** ""
7 43 44 45 46 47 48 49
DONOR_HYDROGENS      STATIC     ATOMS    <user>   **** ""
1 35
ATOM$BLUE        STATIC     ATOMS    COLORGROUP SYSTEM
7 43 44 45 46 47 48 49
ATOM$RED        STATIC     ATOMS    COLORGROUP SYSTEM
1 35
