#       Name:                AV-unprocessed.smi:3165
#       Creating user name   scv26
#       Creation time:       Fri Mar 27 17:52:00 2020


#       File generated by GOLD software.
#

@<TRIPOS>MOLECULE
AV-unprocessed.smi:3165
    41    42     1
SMALL
NO_CHARGES


@<TRIPOS>ATOM
      1 ****        -2.8192  -1.7672  -2.1628 C.3            1 S1                 0.0000
      2 ****        -2.2392  -0.9509  -1.0001 C.3            1 S1                 0.0000
      3 ****        -2.5963  -1.5975   0.3549 C.3            1 S1                 0.0000
      4 ****        -2.1536  -0.8081   1.4900 N.pl3          1 S1                 0.0000
      5 ****        -2.7834   0.2628   2.0884 C.2            1 S1                 0.0000
      6 ****        -1.9775   0.6910   3.1041 C.2            1 S1                 0.0000
      7 ****        -0.8650  -0.1946   3.0504 C.2            1 S1                 0.0000
      8 ****        -0.9740  -1.0917   2.0839 N.2            1 S1                 0.0000
      9 ****        -0.7722  -0.8332  -1.1627 N.4            1 S1                 1.0000
     10 ****        -0.2292   0.5250  -0.9502 C.3            1 S1                 0.0000
     11 ****         1.3044   0.5039  -0.9028 C.3            1 S1                 0.0000
     12 ****         1.8945   1.9266  -0.8535 C.3            1 S1                 0.0000
     13 ****         3.4184   1.8747  -0.6958 C.3            1 S1                 0.0000
     14 ****         3.7822   1.0039   0.5111 C.3            1 S1                 0.0000
     15 ****         3.0998  -0.3685   0.4030 C.3            1 S1                 0.0000
     16 ****         1.6913  -0.1998   0.2761 O.3            1 S1                 0.0000
     17 ****        -3.9037  -1.8484  -2.0835 H              1 S1                 0.0000
     18 ****        -2.4108  -2.7784  -2.1825 H              1 S1                 0.0000
     19 ****        -2.5957  -1.2986  -3.1218 H              1 S1                 0.0000
     20 ****        -2.6875   0.0432  -1.0470 H              1 S1                 0.0000
     21 ****        -3.6771  -1.7206   0.4367 H              1 S1                 0.0000
     22 ****        -2.1658  -2.5979   0.4279 H              1 S1                 0.0000
     23 ****        -3.7390   0.6295   1.7431 H              1 S1                 0.0000
     24 ****        -2.1557   1.5117   3.7831 H              1 S1                 0.0000
     25 ****         0.0126  -0.2120   3.6797 H              1 S1                 0.0000
     26 ****        -0.3322  -1.4630  -0.5062 H              1 S1                 0.0000
     27 ****        -0.5731   1.1636  -1.7647 H              1 S1                 0.0000
     28 ****        -0.6192   0.9506  -0.0252 H              1 S1                 0.0000
     29 ****         1.6855  -0.0184  -1.7825 H              1 S1                 0.0000
     30 ****         1.6329   2.4775  -1.7574 H              1 S1                 0.0000
     31 ****         1.4619   2.4761  -0.0163 H              1 S1                 0.0000
     32 ****         3.8688   1.4593  -1.5983 H              1 S1                 0.0000
     33 ****         3.8236   2.8797  -0.5759 H              1 S1                 0.0000
     34 ****         4.8638   0.8848   0.5787 H              1 S1                 0.0000
     35 ****         3.4629   1.4978   1.4298 H              1 S1                 0.0000
     36 ****         3.4878  -0.9306  -0.4479 H              1 S1                 0.0000
     37 ****         3.3046  -0.9603   1.2953 H              1 S1                 0.0000
     38 ****        -0.5270  -1.1233  -2.0985 H              1 S1                 0.0000
     39 ****        -0.3279  -1.8170   1.8464 LP             1 S1                 0.0000
     40 ****         1.2649  -1.1041   0.2587 LP             1 S1                 0.0000
     41 ****         1.3610   0.3093   1.0709 LP             1 S1                 0.0000
@<TRIPOS>BOND
    1    1    2 1     
    2    1   17 1     
    3    1   18 1     
    4    1   19 1     
    5    2    3 1     
    6    2    9 1     
    7    2   20 1     
    8    3    4 1     
    9    3   21 1     
   10    3   22 1     
   11    4    8 1     
   12    4    5 1     
   13    5    6 2     
   14    5   23 1     
   15    6    7 1     
   16    6   24 1     
   17    7    8 2     
   18    7   25 1     
   19    9   10 1     
   20    9   26 1     
   21    9   38 1     
   22   10   11 1     
   23   10   27 1     
   24   10   28 1     
   25   11   16 1     
   26   11   12 1     
   27   11   29 1     
   28   12   13 1     
   29   12   30 1     
   30   12   31 1     
   31   13   14 1     
   32   13   32 1     
   33   13   33 1     
   34   14   15 1     
   35   14   34 1     
   36   14   35 1     
   37   15   16 1     
   38   15   36 1     
   39   15   37 1     
   40    8   39 1     
   41   16   40 1     
   42   16   41 1     
@<TRIPOS>SUBSTRUCTURE
      1 S1             1
@<TRIPOS>SET
LONE_PAIRS      STATIC     ATOMS    <user>   **** ""
3 39 40 41
DONOR_HYDROGENS      STATIC     ATOMS    <user>   **** ""
2 26 38
ATOM$BLUE        STATIC     ATOMS    COLORGROUP SYSTEM
3 39 40 41
ATOM$RED        STATIC     ATOMS    COLORGROUP SYSTEM
2 26 38
