AV-unprocessed.smi:3036|AV-procd|sdf|11582|dock2
  -GOLD-   2272016553D 1   1.00000     0.00000
 Structure written by MMmdl.
 42 43  0  0  0  0  0  0  0  0  2 V2000
  146.1694  138.1008  152.7953 C   0  0  0  0  0  0  0  0  0  0  0  0
  145.1575  136.9775  152.5331 C   0  0  2  0  0  0  0  0  0  0  0  0
  145.5994  136.0858  151.3564 C   0  0  0  0  0  0  0  0  0  0  0  0
  144.9409  134.7911  151.3684 N   0  0  0  0  0  0  0  0  0  0  0  0
  145.0720  133.7539  150.4694 C   0  0  0  0  0  0  0  0  0  0  0  0
  144.2695  132.7377  150.9025 C   0  0  0  0  0  0  0  0  0  0  0  0
  143.6785  133.2543  152.0889 C   0  0  0  0  0  0  0  0  0  0  0  0
  144.0841  134.4830  152.3667 N   0  0  0  0  0  0  0  0  0  0  0  0
  143.8232  137.5604  152.2695 N   0  3  0  0  0  0  0  0  0  0  0  0
  142.6919  136.8050  152.8496 C   0  0  0  0  0  0  0  0  0  0  0  0
  141.4387  137.6843  153.0314 C   0  0  0  0  0  0  0  0  0  0  0  0
  140.2324  136.9718  153.6728 C   0  0  0  0  0  0  0  0  0  0  0  0
  140.4248  135.9452  154.3265 O   0  0  0  0  0  0  0  0  0  0  0  0
  138.9945  137.4948  153.5007 N   0  0  0  0  0  0  0  0  0  0  0  0
  137.7909  136.9275  154.1159 C   0  0  0  0  0  0  0  0  0  0  0  0
  137.2178  137.9582  155.1052 C   0  0  0  0  0  0  0  0  0  0  0  0
  136.9414  139.1785  154.4222 O   0  0  0  0  0  0  0  0  0  0  0  0
  138.0898  139.7399  153.7916 C   0  0  0  0  0  0  0  0  0  0  0  0
  138.6700  138.7321  152.7831 C   0  0  0  0  0  0  0  0  0  0  0  0
  147.1566  137.6949  153.0190 H   0  0  0  0  0  0  0  0  0  0  0  0
  145.8660  138.7124  153.6459 H   0  0  0  0  0  0  0  0  0  0  0  0
  146.2686  138.7579  151.9305 H   0  0  0  0  0  0  0  0  0  0  0  0
  145.1141  136.3584  153.4309 H   0  0  0  0  0  0  0  0  0  0  0  0
  145.4013  136.5762  150.4018 H   0  0  0  0  0  0  0  0  0  0  0  0
  146.6760  135.9154  151.3998 H   0  0  0  0  0  0  0  0  0  0  0  0
  145.7193  133.8230  149.6075 H   0  0  0  0  0  0  0  0  0  0  0  0
  144.1254  131.7716  150.4413 H   0  0  0  0  0  0  0  0  0  0  0  0
  142.9736  132.7757  152.7526 H   0  0  0  0  0  0  0  0  0  0  0  0
  143.8019  138.5032  152.6328 H   0  0  0  0  0  0  0  0  0  0  0  0
  142.4479  135.9755  152.1843 H   0  0  0  0  0  0  0  0  0  0  0  0
  142.9956  136.3663  153.8014 H   0  0  0  0  0  0  0  0  0  0  0  0
  141.7030  138.5547  153.6333 H   0  0  0  0  0  0  0  0  0  0  0  0
  141.1326  138.0542  152.0522 H   0  0  0  0  0  0  0  0  0  0  0  0
  137.0593  136.7035  153.3383 H   0  0  0  0  0  0  0  0  0  0  0  0
  137.9784  135.9861  154.6339 H   0  0  0  0  0  0  0  0  0  0  0  0
  136.2943  137.5846  155.5472 H   0  0  0  0  0  0  0  0  0  0  0  0
  137.9151  138.1396  155.9246 H   0  0  0  0  0  0  0  0  0  0  0  0
  137.7984  140.6591  153.2829 H   0  0  0  0  0  0  0  0  0  0  0  0
  138.8332  140.0113  154.5427 H   0  0  0  0  0  0  0  0  0  0  0  0
  139.5163  139.1789  152.2647 H   0  0  0  0  0  0  0  0  0  0  0  0
  137.9324  138.5133  152.0096 H   0  0  0  0  0  0  0  0  0  0  0  0
  143.6949  137.5980  151.2679 H   0  0  0  0  0  0  0  0  0  0  0  0
  1  2  1  0  0  0  0
  1 20  1  0  0  0  0
  1 21  1  0  0  0  0
  1 22  1  0  0  0  0
  2  3  1  0  0  0  0
  2  9  1  0  0  0  0
  2 23  1  0  0  0  0
  3  4  1  0  0  0  0
  3 24  1  0  0  0  0
  3 25  1  0  0  0  0
  4  8  1  0  0  0  0
  4  5  1  0  0  0  0
  5  6  2  0  0  0  0
  5 26  1  0  0  0  0
  6  7  1  0  0  0  0
  6 27  1  0  0  0  0
  7  8  2  0  0  0  0
  7 28  1  0  0  0  0
  9 10  1  0  0  0  0
  9 29  1  0  0  0  0
  9 42  1  0  0  0  0
 10 11  1  0  0  0  0
 10 30  1  0  0  0  0
 10 31  1  0  0  0  0
 11 12  1  0  0  0  0
 11 32  1  0  0  0  0
 11 33  1  0  0  0  0
 12 13  2  0  0  0  0
 12 14  1  0  0  0  0
 14 19  1  0  0  0  0
 14 15  1  0  0  0  0
 15 16  1  0  0  0  0
 15 34  1  0  0  0  0
 15 35  1  0  0  0  0
 16 17  1  0  0  0  0
 16 36  1  0  0  0  0
 16 37  1  0  0  0  0
 17 18  1  0  0  0  0
 18 19  1  0  0  0  0
 18 38  1  0  0  0  0
 18 39  1  0  0  0  0
 19 40  1  0  0  0  0
 19 41  1  0  0  0  0
M  CHG  1   9   1
M  END
> <s_m_source_file>
AV-unprocessed.smi

> <i_m_source_file_index>
3036

> <i_lp_mmshare_version>
43012

> <i_f3d_flags>
0

> <s_epik_input>
bjFbY0hdW2NIXVtjSF1uMVtDSDJdW0NAQEhdKFtDSDNdKVtOSF1bQ0gyXVtDSDJdQyg9TylOMltDSDJdW0NIMl1PW0NIMl1bQ0gyXTI=

> <s_epik_cmdline>
J2VwaWtfcHl0aG9uJywgJy1waCcsICc3LjAnLCAnLXRuJywgJzgnLCAnLW1hJywgJzIwMCcsICctbWV0YWxfYmluZGluZycsICctaW1hZScsICc8aW5maWxlLm1hZT4nLCAnLW9tYWUnLCAnPG91dGZpbGUubWFlPic=

> <r_lp_tautomer_probability>
1

> <r_epik_Ionization_Penalty>
0.00797109

> <r_epik_Ionization_Penalty_Charging>
0.0079672

> <r_epik_Ionization_Penalty_Neutral>
3.88864e-06

> <r_epik_State_Penalty>
0.00597998

> <r_epik_Charging_Adjusted_Penalty>
0.0139472

> <i_epik_Tot_Q>
1

> <i_epik_Tot_abs_Q>
1

> <r_epik_Metal_State_Penalty>
0.00598029

> <b_epik_Metal_Only>
0

> <s_lp_Force_Field>
OPLS_2005

> <r_lp_Energy>
23.8433

> <b_lp_Chiralities_Consistent>
1

> <s_lp_Variant>
AV-unprocessed.smi:3036-1

> <Gold.Version>
5.8.1

> <Gold.Id.Protein>
6NUR|6NUR_protein|mol2

> <Gold.PLP.Fitness>
53.0796

> <Gold.PLP.PLP>
-37.9893

> <Gold.PLP.part.hbond>
-3.0000

> <Gold.PLP.part.metal>
0.0000

> <Gold.PLP.part.buried>
-5.6341

> <Gold.PLP.part.nonpolar>
-30.6354

> <Gold.PLP.part.repulsive>
0.2456

> <Gold.PLP.ligand.clash>
0.0000

> <Gold.PLP.ligand.torsion>
1.0742

> <Gold.PLP.Chemscore.Hbond>
3.8793

> <Gold.PLP.Chemscore.CHOScore>
1.8119

> <Gold.PLP.Chemscore.Metal>
0.0000

> <Gold.Chemscore.Hbonds>
donor molecule, donor type, donor heavy atom, donor atom, acceptor molecule, acceptor atom, score
      L1  H     9    29       P1 10175  2.00
      L1  H     9    42       P1 10171  0.91
      P1  H 11000 11005       L1    13  0.91
      L1  C     5    26       P1  7921  1.00
      L1  C     7    28       P1 10957  0.88

> <Gold.PLP.Chemscore.Internal.Correction>
0.1650

> <Gold.Rescore>
     Score         DG    S(hbond)    S(metal)    S(lipo)     H(rot)  DE(clash)    DE(int)     intcor
     15.27     -17.90       2.77        0.00      72.42       2.07       0.00       2.63       ----

> <Gold.Chemscore.Fitness>
15.2666

> <Gold.Chemscore.DG>
-17.8958

> <Gold.Chemscore.ZeroCoef>
-5.4800

> <Gold.Chemscore.Hbond>
2.7657

> <Gold.Chemscore.Metal>
0.0000

> <Gold.Chemscore.Lipo>
72.4155

> <Gold.Chemscore.Internal_Hbond>
0.0000

> <Gold.Chemscore.DEClash>
0.0000

> <Gold.Chemscore.DEInternal>
2.6292

> <Gold.Chemscore.Rot>
2.0680

> <Gold.Chemscore.Internal.Correction>
   9.000000E+99

> <Gold.Chemscore.Hbonds>
donor molecule, donor type, donor heavy atom, donor atom, acceptor molecule, acceptor atom, score
      L1  H     9    29       P1 10175  0.96
      L1  H     9    42       P1 10171  0.89
      P1  H 11000 11005       L1    13  0.84

> <Gold.Chemscore.Hbond.Weighted>
-9.2373

> <Gold.Chemscore.Metal.Weighted>
-0.0000

> <Gold.Chemscore.Lipo.Weighted>
-8.4726

> <Gold.Chemscore.Internal_Hbond.Weighted>
0.0000

> <Gold.Chemscore.DEClash.Weighted>
0.0000

> <Gold.Chemscore.DEInternal.Weighted>
2.6292

> <Gold.Chemscore.Rot.Weighted>
5.2941

> <Gold.Chemscore.Internal.Correction.Weighted>
   9.000000E+99

> <Gold.Protein.RotatedTorsions>
[ 6907 6896 6895 6894 ] final   57.93 input  -60.11 | X-H torsion
[ 7974 7965 7964 7962 ] final   82.38 input  175.53 | X-H torsion
[ 8008 7997 7996 7995 ] final -163.18 input   59.86 | X-H torsion
[ 10167 10162 10161 10158 ] final  -83.55 input  -65.29 | X-H torsion
[ 10718 10713 10712 10709 ] final -128.40 input   66.30 | X-H torsion
[ 10763 10752 10751 10750 ] final  -77.10 input  -60.55 | X-H torsion
[ 11005 11000 10999 10996 ] final   53.83 input  -57.11 | X-H torsion

> <Gold.Protein.ActiveResidues>
 VAL166  LYS551  ARG553  GLY616  TRP617  ASP618  TYR619  PRO620  LYS621  CYS622 
 ASP623  PHE694  ASN695  SER759  ASP760  ASP761  ALA762  ILE779  LEU786  VAL792 
 PHE793  MET794  SER795  GLU796  ALA797  LYS798  CYS799  TRP800  GLU811  SER814 

> <Gold.Protein.RotatedAtoms>
  152.3777  134.6638  160.0153 H   0  0  0  0  0  0  0  0  0  0  0  0  # atno 6907 bound_to 6896
  151.6911  133.3305  159.3251 H   0  0  0  0  0  0  0  0  0  0  0  0  # atno 6908 bound_to 6896
  150.7722  134.6633  159.6396 H   0  0  0  0  0  0  0  0  0  0  0  0  # atno 6909 bound_to 6896
  145.6258  139.2395  143.2112 H   0  0  0  0  0  0  0  0  0  0  0  0  # atno 7974 bound_to 7965
  155.8175  140.0914  157.1868 H   0  0  0  0  0  0  0  0  0  0  0  0  # atno 8008 bound_to 7997
  154.3979  140.1443  156.3520 H   0  0  0  0  0  0  0  0  0  0  0  0  # atno 8009 bound_to 7997
  155.8301  140.3443  155.5569 H   0  0  0  0  0  0  0  0  0  0  0  0  # atno 8010 bound_to 7997
  140.4216  143.2582  151.8882 H   0  0  0  0  0  0  0  0  0  0  0  0  # atno 10167 bound_to 10162
  156.1947  130.6818  151.0467 H   0  0  0  0  0  0  0  0  0  0  0  0  # atno 10718 bound_to 10713
  154.5086  135.5775  153.6586 H   0  0  0  0  0  0  0  0  0  0  0  0  # atno 10763 bound_to 10752
  152.9892  135.6153  154.2909 H   0  0  0  0  0  0  0  0  0  0  0  0  # atno 10764 bound_to 10752
  154.2822  135.2850  155.2671 H   0  0  0  0  0  0  0  0  0  0  0  0  # atno 10765 bound_to 10752
  140.0735  134.5437  155.9021 H   0  0  0  0  0  0  0  0  0  0  0  0  # atno 11005 bound_to 11000
  146.1395  140.7077  142.9374 LP  0  0  0  0  0  0  0  0  0  0  0  0  # atno 17320 bound_to 7965
  144.7213  140.4381  143.7006 LP  0  0  0  0  0  0  0  0  0  0  0  0  # atno 17321 bound_to 7965
  139.4783  144.5431  151.8498 LP  0  0  0  0  0  0  0  0  0  0  0  0  # atno 17342 bound_to 10162
  140.4527  144.1832  150.5899 LP  0  0  0  0  0  0  0  0  0  0  0  0  # atno 17343 bound_to 10162
  157.6950  131.0797  150.6995 LP  0  0  0  0  0  0  0  0  0  0  0  0  # atno 17370 bound_to 10713
  156.7051  130.4635  149.5562 LP  0  0  0  0  0  0  0  0  0  0  0  0  # atno 17371 bound_to 10713
  141.2021  133.6622  156.5986 LP  0  0  0  0  0  0  0  0  0  0  0  0  # atno 17394 bound_to 11000
  140.3592  134.7702  157.4522 LP  0  0  0  0  0  0  0  0  0  0  0  0  # atno 17395 bound_to 11000

$$$$
