AV-unprocessed.smi:2366|AV-procd|sdf|9423|dock5
  -GOLD-   2272013 63D 1   1.00000     0.00000
 Structure written by MMmdl.
 31 32  0  0  0  0  0  0  0  0  1 V2000
  150.9850  140.8951  156.8790 O   0  0  0  0  0  0  0  0  0  0  0  0
  150.4307  141.9416  156.5403 C   0  0  0  0  0  0  0  0  0  0  0  0
  150.5038  143.1095  157.2034 N   0  0  0  0  0  0  0  0  0  0  0  0
  151.2114  143.3952  158.4014 C   0  0  0  0  0  0  0  0  0  0  0  0
  151.0202  144.6958  158.9175 C   0  0  0  0  0  0  0  0  0  0  0  0
  151.6787  145.0726  160.1035 C   0  0  0  0  0  0  0  0  0  0  0  0
  152.5122  144.1383  160.7437 C   0  0  0  0  0  0  0  0  0  0  0  0
  152.6554  142.8614  160.1692 C   0  0  0  0  0  0  0  0  0  0  0  0
  153.4729  141.9415  160.7933 O   0  0  0  0  0  0  0  0  0  0  0  0
  153.5671  140.6320  160.2395 C   0  0  0  0  0  0  0  0  0  0  0  0
  154.8428  139.9644  160.7626 C   0  0  0  0  0  0  0  0  0  0  0  0
  155.9094  140.4660  160.1411 F   0  0  0  0  0  0  0  0  0  0  0  0
  154.9683  140.1623  162.0746 F   0  0  0  0  0  0  0  0  0  0  0  0
  152.0191  142.5039  159.0268 N   0  0  0  0  0  0  0  0  0  0  0  0
  149.6662  142.0547  155.4450 N   0  0  0  0  0  0  0  0  0  0  0  0
  149.3776  141.0030  154.5239 C   0  0  0  0  0  0  0  0  0  0  0  0
  147.9715  140.9183  153.9702 C   0  0  0  0  0  0  0  0  0  0  0  0
  148.4387  139.9076  154.9812 C   0  0  0  0  0  0  0  0  0  0  0  0
  149.9926  143.8837  156.8064 H   0  0  0  0  0  0  0  0  0  0  0  0
  150.3758  145.4015  158.4135 H   0  0  0  0  0  0  0  0  0  0  0  0
  151.5465  146.0622  160.5149 H   0  0  0  0  0  0  0  0  0  0  0  0
  153.0313  144.3956  161.6552 H   0  0  0  0  0  0  0  0  0  0  0  0
  152.7007  140.0425  160.5445 H   0  0  0  0  0  0  0  0  0  0  0  0
  153.5828  140.6673  159.1488 H   0  0  0  0  0  0  0  0  0  0  0  0
  154.8379  138.8891  160.5830 H   0  0  0  0  0  0  0  0  0  0  0  0
  149.2522  142.9537  155.2473 H   0  0  0  0  0  0  0  0  0  0  0  0
  150.1765  140.6943  153.8508 H   0  0  0  0  0  0  0  0  0  0  0  0
  147.2469  141.6600  154.3010 H   0  0  0  0  0  0  0  0  0  0  0  0
  147.8577  140.5840  152.9409 H   0  0  0  0  0  0  0  0  0  0  0  0
  148.6371  138.8978  154.6276 H   0  0  0  0  0  0  0  0  0  0  0  0
  148.0266  139.9760  155.9863 H   0  0  0  0  0  0  0  0  0  0  0  0
  1  2  2  0  0  0  0
  2  3  1  0  0  0  0
  2 15  1  0  0  0  0
  3  4  1  0  0  0  0
  3 19  1  0  0  0  0
  4 14  1  0  0  0  0
  4  5  2  0  0  0  0
  5  6  1  0  0  0  0
  5 20  1  0  0  0  0
  6  7  2  0  0  0  0
  6 21  1  0  0  0  0
  7  8  1  0  0  0  0
  7 22  1  0  0  0  0
  8  9  1  0  0  0  0
  8 14  2  0  0  0  0
  9 10  1  0  0  0  0
 10 11  1  0  0  0  0
 10 23  1  0  0  0  0
 10 24  1  0  0  0  0
 11 12  1  0  0  0  0
 11 13  1  0  0  0  0
 11 25  1  0  0  0  0
 15 16  1  0  0  0  0
 15 26  1  0  0  0  0
 16 18  1  0  0  0  0
 16 17  1  0  0  0  0
 16 27  1  0  0  0  0
 17 18  1  0  0  0  0
 17 28  1  0  0  0  0
 17 29  1  0  0  0  0
 18 30  1  0  0  0  0
 18 31  1  0  0  0  0
M  END
> <s_m_source_file>
AV-unprocessed.smi

> <i_m_source_file_index>
2366

> <i_lp_mmshare_version>
43012

> <i_f3d_flags>
0

> <s_epik_input>
W0NIMl0xW0NIMl1bQ0hdMVtOSF1DKD1PKVtOSF1jMltjSF1bY0hdW2NIXWMobjIpT1tDSDJdW0NIXShGKUY=

> <s_epik_cmdline>
J2VwaWtfcHl0aG9uJywgJy1waCcsICc3LjAnLCAnLXRuJywgJzgnLCAnLW1hJywgJzIwMCcsICctbWV0YWxfYmluZGluZycsICctaW1hZScsICc8aW5maWxlLm1hZT4nLCAnLW9tYWUnLCAnPG91dGZpbGUubWFlPic=

> <r_lp_tautomer_probability>
1

> <r_epik_Ionization_Penalty>
4.14306e-05

> <r_epik_Ionization_Penalty_Charging>
0

> <r_epik_Ionization_Penalty_Neutral>
4.14306e-05

> <r_epik_State_Penalty>
-0

> <r_epik_Charging_Adjusted_Penalty>
0

> <i_epik_Tot_Q>
0

> <i_epik_Tot_abs_Q>
0

> <r_epik_Metal_State_Penalty>
-0

> <b_epik_Metal_Only>
0

> <s_lp_Force_Field>
OPLS_2005

> <r_lp_Energy>
17.3665

> <b_lp_Chiralities_Consistent>
1

> <s_lp_Variant>
AV-unprocessed.smi:2366-1

> <Gold.Version>
5.8.1

> <Gold.Id.Protein>
6NUR|6NUR_protein|mol2

> <Gold.PLP.Fitness>
44.7863

> <Gold.PLP.PLP>
-39.5687

> <Gold.PLP.part.hbond>
-2.0000

> <Gold.PLP.part.metal>
0.0000

> <Gold.PLP.part.buried>
-4.8326

> <Gold.PLP.part.nonpolar>
-32.4161

> <Gold.PLP.part.repulsive>
0.2238

> <Gold.PLP.ligand.clash>
0.0000

> <Gold.PLP.ligand.torsion>
0.4221

> <Gold.PLP.Chemscore.Hbond>
2.0000

> <Gold.PLP.Chemscore.CHOScore>
0.0000

> <Gold.PLP.Chemscore.Metal>
0.0000

> <Gold.Chemscore.Hbonds>
donor molecule, donor type, donor heavy atom, donor atom, acceptor molecule, acceptor atom, score
      L1  H     3    19       P1  8028  1.00
      L1  H    15    26       P1  8028  1.00

> <Gold.PLP.Chemscore.Internal.Correction>
0.0619

> <Gold.Rescore>
     Score         DG    S(hbond)    S(metal)    S(lipo)     H(rot)  DE(clash)    DE(int)     intcor
     14.36     -15.95       1.96        0.00      69.80       1.66       0.01       1.58       ----

> <Gold.Chemscore.Fitness>
14.3563

> <Gold.Chemscore.DG>
-15.9487

> <Gold.Chemscore.ZeroCoef>
-5.4800

> <Gold.Chemscore.Hbond>
1.9644

> <Gold.Chemscore.Metal>
0.0000

> <Gold.Chemscore.Lipo>
69.7972

> <Gold.Chemscore.Internal_Hbond>
0.0000

> <Gold.Chemscore.DEClash>
0.0101

> <Gold.Chemscore.DEInternal>
1.5823

> <Gold.Chemscore.Rot>
1.6635

> <Gold.Chemscore.Internal.Correction>
   9.000000E+99

> <Gold.Chemscore.Hbonds>
donor molecule, donor type, donor heavy atom, donor atom, acceptor molecule, acceptor atom, score
      L1  H     3    19       P1  8028  0.98
      L1  H    15    26       P1  8028  0.98

> <Gold.Chemscore.Hbond.Weighted>
-6.5609

> <Gold.Chemscore.Metal.Weighted>
-0.0000

> <Gold.Chemscore.Lipo.Weighted>
-8.1663

> <Gold.Chemscore.Internal_Hbond.Weighted>
0.0000

> <Gold.Chemscore.DEClash.Weighted>
0.0101

> <Gold.Chemscore.DEInternal.Weighted>
1.5823

> <Gold.Chemscore.Rot.Weighted>
4.2585

> <Gold.Chemscore.Internal.Correction.Weighted>
   9.000000E+99

> <Gold.Protein.RotatedTorsions>
[ 6907 6896 6895 6894 ] final  -94.80 input  -60.11 | X-H torsion
[ 7974 7965 7964 7962 ] final -127.62 input  175.53 | X-H torsion
[ 8008 7997 7996 7995 ] final   -3.85 input   59.86 | X-H torsion
[ 10167 10162 10161 10158 ] final -111.49 input  -65.29 | X-H torsion
[ 10718 10713 10712 10709 ] final  118.39 input   66.30 | X-H torsion
[ 10763 10752 10751 10750 ] final    4.99 input  -60.55 | X-H torsion
[ 11005 11000 10999 10996 ] final   43.01 input  -57.11 | X-H torsion

> <Gold.Protein.ActiveResidues>
 VAL166  LYS551  ARG553  GLY616  TRP617  ASP618  TYR619  PRO620  LYS621  CYS622 
 ASP623  PHE694  ASN695  SER759  ASP760  ASP761  ALA762  ILE779  LEU786  VAL792 
 PHE793  MET794  SER795  GLU796  ALA797  LYS798  CYS799  TRP800  GLU811  SER814 

> <Gold.Protein.RotatedAtoms>
  150.6949  134.1756  159.4228 H   0  0  0  0  0  0  0  0  0  0  0  0  # atno 6907 bound_to 6896
  151.9733  135.0063  160.0563 H   0  0  0  0  0  0  0  0  0  0  0  0  # atno 6908 bound_to 6896
  152.1822  133.4680  159.5001 H   0  0  0  0  0  0  0  0  0  0  0  0  # atno 6909 bound_to 6896
  144.9753  140.7586  143.4645 H   0  0  0  0  0  0  0  0  0  0  0  0  # atno 7974 bound_to 7965
  154.6205  140.2499  155.7555 H   0  0  0  0  0  0  0  0  0  0  0  0  # atno 8008 bound_to 7997
  156.2424  140.2927  156.0430 H   0  0  0  0  0  0  0  0  0  0  0  0  # atno 8009 bound_to 7997
  155.1904  140.0391  157.2889 H   0  0  0  0  0  0  0  0  0  0  0  0  # atno 8010 bound_to 7997
  140.1331  143.4344  152.1614 H   0  0  0  0  0  0  0  0  0  0  0  0  # atno 10167 bound_to 10162
  157.6033  131.1047  150.7749 H   0  0  0  0  0  0  0  0  0  0  0  0  # atno 10718 bound_to 10713
  153.2647  135.6926  153.7542 H   0  0  0  0  0  0  0  0  0  0  0  0  # atno 10763 bound_to 10752
  153.6588  135.3364  155.3122 H   0  0  0  0  0  0  0  0  0  0  0  0  # atno 10764 bound_to 10752
  154.8443  135.4472  154.1650 H   0  0  0  0  0  0  0  0  0  0  0  0  # atno 10765 bound_to 10752
  140.1685  134.4252  155.8272 H   0  0  0  0  0  0  0  0  0  0  0  0  # atno 11005 bound_to 11000
  145.2499  139.2036  143.4948 LP  0  0  0  0  0  0  0  0  0  0  0  0  # atno 17320 bound_to 7965
  146.3393  140.2411  142.8595 LP  0  0  0  0  0  0  0  0  0  0  0  0  # atno 17321 bound_to 7965
  139.5510  144.7337  151.4436 LP  0  0  0  0  0  0  0  0  0  0  0  0  # atno 17342 bound_to 10162
  140.6805  143.8092  150.7115 LP  0  0  0  0  0  0  0  0  0  0  0  0  # atno 17343 bound_to 10162
  156.8143  130.4963  149.5351 LP  0  0  0  0  0  0  0  0  0  0  0  0  # atno 17370 bound_to 10713
  156.1112  130.6042  151.0050 LP  0  0  0  0  0  0  0  0  0  0  0  0  # atno 17371 bound_to 10713
  141.2215  133.6945  156.7720 LP  0  0  0  0  0  0  0  0  0  0  0  0  # atno 17394 bound_to 11000
  140.2406  134.8617  157.3569 LP  0  0  0  0  0  0  0  0  0  0  0  0  # atno 17395 bound_to 11000

$$$$
