AV-unprocessed.smi:1762|AV-procd|sdf|7114|dock9
  -GOLD-   22720 8343D 1   1.00000     0.00000
 Structure written by MMmdl.
 53 54  0  0  0  0  0  0  0  0  2 V2000
  150.1433  131.1086  155.1665 C   0  0  0  0  0  0  0  0  0  0  0  0
  148.9920  132.0189  154.7256 C   0  0  1  0  0  0  0  0  0  0  0  0
  149.5043  133.3307  154.0911 C   0  0  0  0  0  0  0  0  0  0  0  0
  148.3806  134.1694  153.5818 N   0  3  2  0  0  0  0  0  0  0  0  0
  147.6120  134.9113  154.6441 C   0  0  1  0  0  0  0  0  0  0  0  0
  148.5495  135.3973  155.7703 C   0  0  0  0  0  0  0  0  0  0  0  0
  149.6174  135.9445  155.4933 O   0  0  0  0  0  0  0  0  0  0  0  0
  148.1408  135.1841  157.0315 N   0  0  0  0  0  0  0  0  0  0  0  0
  148.8928  135.5507  158.2260 C   0  0  0  0  0  0  0  0  0  0  0  0
  148.1626  136.6296  159.0437 C   0  0  0  0  0  0  0  0  0  0  0  0
  147.7761  136.1404  160.4269 C   0  0  0  0  0  0  0  0  0  0  0  0
  147.8117  134.7652  160.7422 C   0  0  0  0  0  0  0  0  0  0  0  0
  147.4378  134.3647  162.0398 C   0  0  0  0  0  0  0  0  0  0  0  0
  147.0436  135.3490  162.9667 C   0  0  0  0  0  0  0  0  0  0  0  0
  147.0413  136.6961  162.5531 C   0  0  0  0  0  0  0  0  0  0  0  0
  147.3984  137.0908  161.3116 N   0  0  0  0  0  0  0  0  0  0  0  0
  146.7482  136.0960  154.0941 C   0  0  0  0  0  0  0  0  0  0  0  0
  146.0884  136.9570  155.1914 C   0  0  0  0  0  0  0  0  0  0  0  0
  145.6920  135.6537  153.0619 C   0  0  0  0  0  0  0  0  0  0  0  0
  147.5797  133.3425  152.6374 C   0  0  0  0  0  0  0  0  0  0  0  0
  147.0814  132.0480  153.3110 C   0  0  1  0  0  0  0  0  0  0  0  0
  146.2981  131.1587  152.3395 C   0  0  0  0  0  0  0  0  0  0  0  0
  148.2091  131.3097  153.7707 O   0  0  0  0  0  0  0  0  0  0  0  0
  150.7662  131.5991  155.9147 H   0  0  0  0  0  0  0  0  0  0  0  0
  150.7812  130.8401  154.3239 H   0  0  0  0  0  0  0  0  0  0  0  0
  149.7643  130.1850  155.6048 H   0  0  0  0  0  0  0  0  0  0  0  0
  148.3792  132.2347  155.6016 H   0  0  0  0  0  0  0  0  0  0  0  0
  150.1395  133.8698  154.7929 H   0  0  0  0  0  0  0  0  0  0  0  0
  150.1517  133.0905  153.2464 H   0  0  0  0  0  0  0  0  0  0  0  0
  146.9139  134.2034  155.0915 H   0  0  0  0  0  0  0  0  0  0  0  0
  147.2483  134.7340  157.1759 H   0  0  0  0  0  0  0  0  0  0  0  0
  149.0791  134.6655  158.8369 H   0  0  0  0  0  0  0  0  0  0  0  0
  149.8687  135.9216  157.9117 H   0  0  0  0  0  0  0  0  0  0  0  0
  148.7931  137.5148  159.1388 H   0  0  0  0  0  0  0  0  0  0  0  0
  147.2597  136.9527  158.5234 H   0  0  0  0  0  0  0  0  0  0  0  0
  148.1166  134.0326  160.0093 H   0  0  0  0  0  0  0  0  0  0  0  0
  147.4525  133.3214  162.3188 H   0  0  0  0  0  0  0  0  0  0  0  0
  146.7499  135.0787  163.9702 H   0  0  0  0  0  0  0  0  0  0  0  0
  146.7440  137.4771  163.2372 H   0  0  0  0  0  0  0  0  0  0  0  0
  147.4081  136.7474  153.5231 H   0  0  0  0  0  0  0  0  0  0  0  0
  145.3280  136.4010  155.7397 H   0  0  0  0  0  0  0  0  0  0  0  0
  145.5991  137.8289  154.7567 H   0  0  0  0  0  0  0  0  0  0  0  0
  146.8143  137.3248  155.9160 H   0  0  0  0  0  0  0  0  0  0  0  0
  144.8899  135.0722  153.5176 H   0  0  0  0  0  0  0  0  0  0  0  0
  146.1402  135.0479  152.2739 H   0  0  0  0  0  0  0  0  0  0  0  0
  145.2300  136.5182  152.5841 H   0  0  0  0  0  0  0  0  0  0  0  0
  146.7596  133.8951  152.1848 H   0  0  0  0  0  0  0  0  0  0  0  0
  148.2253  133.0773  151.7986 H   0  0  0  0  0  0  0  0  0  0  0  0
  146.4337  132.2860  154.1559 H   0  0  0  0  0  0  0  0  0  0  0  0
  145.4137  131.6730  151.9627 H   0  0  0  0  0  0  0  0  0  0  0  0
  145.9656  130.2440  152.8311 H   0  0  0  0  0  0  0  0  0  0  0  0
  146.9097  130.8731  151.4833 H   0  0  0  0  0  0  0  0  0  0  0  0
  148.8047  134.8962  153.0224 H   0  0  0  0  0  0  0  0  0  0  0  0
  1  2  1  0  0  0  0
  1 24  1  0  0  0  0
  1 25  1  0  0  0  0
  1 26  1  0  0  0  0
  2 23  1  0  0  0  0
  2  3  1  0  0  0  0
  2 27  1  0  0  0  0
  3  4  1  0  0  0  0
  3 28  1  0  0  0  0
  3 29  1  0  0  0  0
  4  5  1  0  0  0  0
  4 20  1  0  0  0  0
  4 53  1  0  0  0  0
  5  6  1  0  0  0  0
  5 17  1  0  0  0  0
  5 30  1  0  0  0  0
  6  7  2  0  0  0  0
  6  8  1  0  0  0  0
  8  9  1  0  0  0  0
  8 31  1  0  0  0  0
  9 10  1  0  0  0  0
  9 32  1  0  0  0  0
  9 33  1  0  0  0  0
 10 11  1  0  0  0  0
 10 34  1  0  0  0  0
 10 35  1  0  0  0  0
 11 16  1  0  0  0  0
 11 12  2  0  0  0  0
 12 13  1  0  0  0  0
 12 36  1  0  0  0  0
 13 14  2  0  0  0  0
 13 37  1  0  0  0  0
 14 15  1  0  0  0  0
 14 38  1  0  0  0  0
 15 16  2  0  0  0  0
 15 39  1  0  0  0  0
 17 18  1  0  0  0  0
 17 19  1  0  0  0  0
 17 40  1  0  0  0  0
 18 41  1  0  0  0  0
 18 42  1  0  0  0  0
 18 43  1  0  0  0  0
 19 44  1  0  0  0  0
 19 45  1  0  0  0  0
 19 46  1  0  0  0  0
 20 21  1  0  0  0  0
 20 47  1  0  0  0  0
 20 48  1  0  0  0  0
 21 22  1  0  0  0  0
 21 23  1  0  0  0  0
 21 49  1  0  0  0  0
 22 50  1  0  0  0  0
 22 51  1  0  0  0  0
 22 52  1  0  0  0  0
M  CHG  1   4   1
M  END
> <s_m_source_file>
AV-unprocessed.smi

> <i_m_source_file_index>
1762

> <i_lp_mmshare_version>
43012

> <i_f3d_flags>
0

> <s_epik_input>
W0NIM11bQ0BASF0xW0NIMl1OKFtDSDJdW0NASF0oTzEpW0NIM10pW0NAQEhdKFtDSF0oW0NIM10pW0NIM10pQyg9TylbTkhdW0NIMl1bQ0gyXWMyW2NIXVtjSF1bY0hdW2NIXW4y

> <s_epik_cmdline>
J2VwaWtfcHl0aG9uJywgJy1waCcsICc3LjAnLCAnLXRuJywgJzgnLCAnLW1hJywgJzIwMCcsICctbWV0YWxfYmluZGluZycsICctaW1hZScsICc8aW5maWxlLm1hZT4nLCAnLW9tYWUnLCAnPG91dGZpbGUubWFlPic=

> <r_epik_Ionization_Penalty>
2.27005

> <r_epik_Ionization_Penalty_Charging>
2.24983

> <r_epik_Ionization_Penalty_Neutral>
0.0202209

> <r_epik_State_Penalty>
2.40228

> <r_epik_Charging_Adjusted_Penalty>
4.65211

> <i_epik_Tot_Q>
1

> <i_epik_Tot_abs_Q>
1

> <r_epik_Metal_State_Penalty>
2.40762

> <b_epik_Metal_Only>
0

> <s_lp_Force_Field>
OPLS_2005

> <r_lp_Energy>
25.1603

> <b_lp_Chiralities_Consistent>
1

> <s_lp_Variant>
AV-unprocessed.smi:1762-16

> <Gold.Version>
5.8.1

> <Gold.Id.Protein>
6NUR|6NUR_protein|mol2

> <Gold.PLP.Fitness>
44.4177

> <Gold.PLP.PLP>
-35.8722

> <Gold.PLP.part.hbond>
-3.0000

> <Gold.PLP.part.metal>
0.0000

> <Gold.PLP.part.buried>
-3.6500

> <Gold.PLP.part.nonpolar>
-30.1752

> <Gold.PLP.part.repulsive>
0.2028

> <Gold.PLP.ligand.clash>
0.0000

> <Gold.PLP.ligand.torsion>
1.3753

> <Gold.PLP.Chemscore.Hbond>
3.6963

> <Gold.PLP.Chemscore.CHOScore>
0.0000

> <Gold.PLP.Chemscore.Metal>
0.0000

> <Gold.Chemscore.Hbonds>
donor molecule, donor type, donor heavy atom, donor atom, acceptor molecule, acceptor atom, score
      L1  H     4    53       P1  7948  1.90
      P1  H  6931  6943       L1    16  0.64
      P1  H  6934  6947       L1    16  0.98

> <Gold.PLP.Chemscore.Internal.Correction>
0.2071

> <Gold.Rescore>
     Score         DG    S(hbond)    S(metal)    S(lipo)     H(rot)  DE(clash)    DE(int)     intcor
     14.81     -17.40       1.96        0.00      82.32       1.66       0.03       2.57       ----

> <Gold.Chemscore.Fitness>
14.8050

> <Gold.Chemscore.DG>
-17.3988

> <Gold.Chemscore.ZeroCoef>
-5.4800

> <Gold.Chemscore.Hbond>
1.9600

> <Gold.Chemscore.Metal>
0.0000

> <Gold.Chemscore.Lipo>
82.3163

> <Gold.Chemscore.Internal_Hbond>
0.0000

> <Gold.Chemscore.DEClash>
0.0270

> <Gold.Chemscore.DEInternal>
2.5667

> <Gold.Chemscore.Rot>
1.6635

> <Gold.Chemscore.Internal.Correction>
   9.000000E+99

> <Gold.Chemscore.Hbonds>
donor molecule, donor type, donor heavy atom, donor atom, acceptor molecule, acceptor atom, score
      L1  H     4    53       P1  7948  0.21
      P1  H  6931  6943       L1    16  0.07
      P1  H  6934  6947       L1    16  0.83

> <Gold.Chemscore.Hbond.Weighted>
-6.5464

> <Gold.Chemscore.Metal.Weighted>
-0.0000

> <Gold.Chemscore.Lipo.Weighted>
-9.6310

> <Gold.Chemscore.Internal_Hbond.Weighted>
0.0000

> <Gold.Chemscore.DEClash.Weighted>
0.0270

> <Gold.Chemscore.DEInternal.Weighted>
2.5667

> <Gold.Chemscore.Rot.Weighted>
4.2586

> <Gold.Chemscore.Internal.Correction.Weighted>
   9.000000E+99

> <Gold.Protein.RotatedTorsions>
[ 6907 6896 6895 6894 ] final  -97.87 input  -60.11 | X-H torsion
[ 7974 7965 7964 7962 ] final  -58.36 input  175.53 | X-H torsion
[ 8008 7997 7996 7995 ] final  154.84 input   59.86 | X-H torsion
[ 10167 10162 10161 10158 ] final -109.50 input  -65.29 | X-H torsion
[ 10718 10713 10712 10709 ] final   82.36 input   66.30 | X-H torsion
[ 10763 10752 10751 10750 ] final  -65.99 input  -60.55 | X-H torsion
[ 11005 11000 10999 10996 ] final   77.76 input  -57.11 | X-H torsion

> <Gold.Protein.ActiveResidues>
 VAL166  LYS551  ARG553  GLY616  TRP617  ASP618  TYR619  PRO620  LYS621  CYS622 
 ASP623  PHE694  ASN695  SER759  ASP760  ASP761  ALA762  ILE779  LEU786  VAL792 
 PHE793  MET794  SER795  GLU796  ALA797  LYS798  CYS799  TRP800  GLU811  SER814 

> <Gold.Protein.RotatedAtoms>
  150.7029  134.1281  159.4059 H   0  0  0  0  0  0  0  0  0  0  0  0  # atno 6907 bound_to 6896
  151.9267  135.0272  160.0535 H   0  0  0  0  0  0  0  0  0  0  0  0  # atno 6908 bound_to 6896
  152.2210  133.4948  159.5199 H   0  0  0  0  0  0  0  0  0  0  0  0  # atno 6909 bound_to 6896
  145.8402  140.8422  143.0038 H   0  0  0  0  0  0  0  0  0  0  0  0  # atno 7974 bound_to 7965
  156.2510  140.1956  156.6708 H   0  0  0  0  0  0  0  0  0  0  0  0  # atno 8008 bound_to 7997
  154.6394  140.0585  156.9853 H   0  0  0  0  0  0  0  0  0  0  0  0  # atno 8009 bound_to 7997
  155.1587  140.3258  155.4418 H   0  0  0  0  0  0  0  0  0  0  0  0  # atno 8010 bound_to 7997
  140.1547  143.4170  152.1469 H   0  0  0  0  0  0  0  0  0  0  0  0  # atno 10167 bound_to 10162
  157.6855  131.0044  150.2363 H   0  0  0  0  0  0  0  0  0  0  0  0  # atno 10718 bound_to 10713
  154.3531  135.6132  153.5653 H   0  0  0  0  0  0  0  0  0  0  0  0  # atno 10763 bound_to 10752
  152.9797  135.5797  154.4720 H   0  0  0  0  0  0  0  0  0  0  0  0  # atno 10764 bound_to 10752
  154.4444  135.2851  155.1802 H   0  0  0  0  0  0  0  0  0  0  0  0  # atno 10765 bound_to 10752
  139.9241  134.7709  156.1563 H   0  0  0  0  0  0  0  0  0  0  0  0  # atno 11005 bound_to 11000
  144.6734  140.0800  143.7469 LP  0  0  0  0  0  0  0  0  0  0  0  0  # atno 17320 bound_to 7965
  145.9474  139.2710  143.1233 LP  0  0  0  0  0  0  0  0  0  0  0  0  # atno 17321 bound_to 7965
  139.5409  144.7255  151.4737 LP  0  0  0  0  0  0  0  0  0  0  0  0  # atno 17342 bound_to 10162
  140.6681  143.8354  150.6966 LP  0  0  0  0  0  0  0  0  0  0  0  0  # atno 17343 bound_to 10162
  156.2986  130.3755  149.7772 LP  0  0  0  0  0  0  0  0  0  0  0  0  # atno 17370 bound_to 10713
  156.5409  130.8299  151.3268 LP  0  0  0  0  0  0  0  0  0  0  0  0  # atno 17371 bound_to 10713
  141.0785  133.6765  156.2286 LP  0  0  0  0  0  0  0  0  0  0  0  0  # atno 17394 bound_to 11000
  140.6388  134.5188  157.5567 LP  0  0  0  0  0  0  0  0  0  0  0  0  # atno 17395 bound_to 11000

$$$$
