AV-unprocessed.smi:2750|AV-procd|sdf|10592|dock9
  -GOLD-   2272015 43D 1   1.00000     0.00000
 Structure written by MMmdl.
 24 25  0  0  0  0  0  0  0  0  3 V2000
  148.2877  136.8471  162.3431 O   0  0  0  0  0  0  0  0  0  0  0  0
  147.5142  136.5737  161.3989 C   0  0  0  0  0  0  0  0  0  0  0  0
  146.5270  137.2551  161.0452 O   0  5  0  0  0  0  0  0  0  0  0  0
  147.8026  135.2988  160.6062 C   0  0  0  0  0  0  0  0  0  0  0  0
  148.4187  135.5832  159.3232 N   0  0  0  0  0  0  0  0  0  0  0  0
  148.4198  136.7665  158.6140 C   0  0  0  0  0  0  0  0  0  0  0  0
  149.1406  136.4641  157.4942 C   0  0  0  0  0  0  0  0  0  0  0  0
  149.4878  137.3381  156.3267 C   0  0  0  0  0  0  0  0  0  0  0  0
  150.3227  138.5683  156.7343 C   0  0  1  0  0  0  0  0  0  0  0  0
  151.3274  138.2178  157.7159 N   0  0  0  0  0  0  0  0  0  0  0  0
  152.5523  138.5073  157.2823 C   0  0  0  0  0  0  0  0  0  0  0  0
  153.5477  138.3017  157.9730 O   0  0  0  0  0  0  0  0  0  0  0  0
  152.4947  139.0224  156.0389 N   0  5  0  0  0  0  0  0  0  0  0  0
  151.2154  139.0959  155.6118 C   0  0  0  0  0  0  0  0  0  0  0  0
  150.7555  139.5008  154.5454 O   0  0  0  0  0  0  0  0  0  0  0  0
  149.5431  135.1309  157.5667 N   0  0  0  0  0  0  0  0  0  0  0  0
  149.1051  134.6134  158.6714 N   0  0  0  0  0  0  0  0  0  0  0  0
  148.4530  134.6373  161.1807 H   0  0  0  0  0  0  0  0  0  0  0  0
  146.8717  134.7567  160.4347 H   0  0  0  0  0  0  0  0  0  0  0  0
  147.9339  137.6694  158.9528 H   0  0  0  0  0  0  0  0  0  0  0  0
  150.0208  136.7583  155.5714 H   0  0  0  0  0  0  0  0  0  0  0  0
  148.5683  137.6728  155.8449 H   0  0  0  0  0  0  0  0  0  0  0  0
  149.6905  139.3728  157.1129 H   0  0  0  0  0  0  0  0  0  0  0  0
  151.1100  137.8223  158.6187 H   0  0  0  0  0  0  0  0  0  0  0  0
  1  2  2  0  0  0  0
  2  3  1  0  0  0  0
  2  4  1  0  0  0  0
  4  5  1  0  0  0  0
  4 18  1  0  0  0  0
  4 19  1  0  0  0  0
  5 17  1  0  0  0  0
  5  6  1  0  0  0  0
  6  7  2  0  0  0  0
  6 20  1  0  0  0  0
  7  8  1  0  0  0  0
  7 16  1  0  0  0  0
  8  9  1  0  0  0  0
  8 21  1  0  0  0  0
  8 22  1  0  0  0  0
  9 14  1  0  0  0  0
  9 10  1  0  0  0  0
  9 23  1  0  0  0  0
 10 11  1  0  0  0  0
 10 24  1  0  0  0  0
 11 12  2  0  0  0  0
 11 13  1  0  0  0  0
 13 14  1  0  0  0  0
 14 15  2  0  0  0  0
 16 17  2  0  0  0  0
M  CHG  1   3  -1
M  CHG  1  13  -1
M  END
> <s_m_source_file>
AV-unprocessed.smi

> <i_m_source_file_index>
2750

> <i_lp_mmshare_version>
43012

> <i_f3d_flags>
0

> <s_epik_input>
Tz1DKFtPSF0pW0NIMl1uMVtjSF1jKG5uMSlbQ0gyXVtDQEBIXTJbTkhdQyg9TylbTkhdQzI9Tw==

> <s_epik_cmdline>
J2VwaWtfcHl0aG9uJywgJy1waCcsICc3LjAnLCAnLXRuJywgJzgnLCAnLW1hJywgJzIwMCcsICctbWV0YWxfYmluZGluZycsICctaW1hZScsICc8aW5maWxlLm1hZT4nLCAnLW9tYWUnLCAnPG91dGZpbGUubWFlPic=

> <r_lp_tautomer_probability>
1

> <r_epik_Ionization_Penalty>
2.03209

> <r_epik_Ionization_Penalty_Charging>
2.03208

> <r_epik_Ionization_Penalty_Neutral>
1.30912e-05

> <r_epik_State_Penalty>
2.16313

> <r_epik_Charging_Adjusted_Penalty>
4.19521

> <i_epik_Tot_Q>
-2

> <i_epik_Tot_abs_Q>
2

> <r_epik_Metal_State_Penalty>
0.529162

> <b_epik_Metal_Only>
0

> <s_lp_Force_Field>
OPLS_2005

> <r_lp_Energy>
6.41301

> <b_lp_Chiralities_Consistent>
1

> <s_lp_Variant>
AV-unprocessed.smi:2750-4

> <Gold.Version>
5.8.1

> <Gold.Id.Protein>
6NUR|6NUR_protein|mol2

> <Gold.PLP.Fitness>
42.6435

> <Gold.PLP.PLP>
-20.1073

> <Gold.PLP.part.hbond>
-6.0634

> <Gold.PLP.part.metal>
0.0000

> <Gold.PLP.part.buried>
-3.3359

> <Gold.PLP.part.nonpolar>
-10.5687

> <Gold.PLP.part.repulsive>
0.1084

> <Gold.PLP.ligand.clash>
0.0000

> <Gold.PLP.ligand.torsion>
0.7407

> <Gold.PLP.Chemscore.Hbond>
8.0000

> <Gold.PLP.Chemscore.CHOScore>
0.0000

> <Gold.PLP.Chemscore.Metal>
0.0000

> <Gold.Chemscore.Hbonds>
donor molecule, donor type, donor heavy atom, donor atom, acceptor molecule, acceptor atom, score
      P1  H  6896  6907       L1    17  0.90
      P1  H  6931  6943       L1     1  2.00
      P1  H  6934  6947       L1     3  2.00
      P1  H  7989  7998       L1    15  1.00
      P1  H  7997  8008       L1    13  0.87

> <Gold.PLP.Chemscore.Internal.Correction>
0.0176

> <Gold.Rescore>
     Score         DG    S(hbond)    S(metal)    S(lipo)     H(rot)  DE(clash)    DE(int)     intcor
     11.24     -12.26       3.61        0.00      15.93       2.80       0.02       1.00       ----

> <Gold.Chemscore.Fitness>
11.2434

> <Gold.Chemscore.DG>
-12.2554

> <Gold.Chemscore.ZeroCoef>
-5.4800

> <Gold.Chemscore.Hbond>
3.6144

> <Gold.Chemscore.Metal>
0.0000

> <Gold.Chemscore.Lipo>
15.9340

> <Gold.Chemscore.Internal_Hbond>
0.0000

> <Gold.Chemscore.DEClash>
0.0155

> <Gold.Chemscore.DEInternal>
0.9965

> <Gold.Chemscore.Rot>
2.7973

> <Gold.Chemscore.Internal.Correction>
   9.000000E+99

> <Gold.Chemscore.Hbonds>
donor molecule, donor type, donor heavy atom, donor atom, acceptor molecule, acceptor atom, score
      P1  H  6896  6907       L1    17  0.11
      P1  H  6931  6943       L1     1  0.60
      P1  H  6934  6947       L1     3  0.50
      P1  H  7989  7998       L1    15  0.98
      P1  H  7997  8008       L1    13  0.04

> <Gold.Chemscore.Hbond.Weighted>
-12.0722

> <Gold.Chemscore.Metal.Weighted>
-0.0000

> <Gold.Chemscore.Lipo.Weighted>
-1.8643

> <Gold.Chemscore.Internal_Hbond.Weighted>
0.0000

> <Gold.Chemscore.DEClash.Weighted>
0.0155

> <Gold.Chemscore.DEInternal.Weighted>
0.9965

> <Gold.Chemscore.Rot.Weighted>
7.1611

> <Gold.Chemscore.Internal.Correction.Weighted>
   9.000000E+99

> <Gold.Protein.RotatedTorsions>
[ 6907 6896 6895 6894 ] final  -79.39 input  -60.11 | X-H torsion
[ 7974 7965 7964 7962 ] final   62.98 input  175.53 | X-H torsion
[ 8008 7997 7996 7995 ] final  -40.79 input   59.86 | X-H torsion
[ 10167 10162 10161 10158 ] final -105.64 input  -65.29 | X-H torsion
[ 10718 10713 10712 10709 ] final -162.25 input   66.30 | X-H torsion
[ 10763 10752 10751 10750 ] final  -99.76 input  -60.55 | X-H torsion
[ 11005 11000 10999 10996 ] final  -90.85 input  -57.11 | X-H torsion

> <Gold.Protein.ActiveResidues>
 VAL166  LYS551  ARG553  GLY616  TRP617  ASP618  TYR619  PRO620  LYS621  CYS622 
 ASP623  PHE694  ASN695  SER759  ASP760  ASP761  ALA762  ILE779  LEU786  VAL792 
 PHE793  MET794  SER795  GLU796  ALA797  LYS798  CYS799  TRP800  GLU811  SER814 

> <Gold.Protein.RotatedAtoms>
  150.6951  134.4128  159.5169 H   0  0  0  0  0  0  0  0  0  0  0  0  # atno 6907 bound_to 6896
  152.1884  134.8691  160.0529 H   0  0  0  0  0  0  0  0  0  0  0  0  # atno 6908 bound_to 6896
  151.9655  133.3674  159.4088 H   0  0  0  0  0  0  0  0  0  0  0  0  # atno 6909 bound_to 6896
  145.8671  139.3353  143.0785 H   0  0  0  0  0  0  0  0  0  0  0  0  # atno 7974 bound_to 7965
  154.4009  140.1516  156.3084 H   0  0  0  0  0  0  0  0  0  0  0  0  # atno 8008 bound_to 7997
  155.8637  140.3452  155.5752 H   0  0  0  0  0  0  0  0  0  0  0  0  # atno 8009 bound_to 7997
  155.7851  140.0849  157.2029 H   0  0  0  0  0  0  0  0  0  0  0  0  # atno 8010 bound_to 7997
  140.1963  143.3853  152.1166 H   0  0  0  0  0  0  0  0  0  0  0  0  # atno 10167 bound_to 10162
  156.6077  130.8837  151.2929 H   0  0  0  0  0  0  0  0  0  0  0  0  # atno 10718 bound_to 10713
  154.7524  135.4960  153.9313 H   0  0  0  0  0  0  0  0  0  0  0  0  # atno 10763 bound_to 10752
  153.1158  135.6720  153.9428 H   0  0  0  0  0  0  0  0  0  0  0  0  # atno 10764 bound_to 10752
  153.9174  135.3092  155.3427 H   0  0  0  0  0  0  0  0  0  0  0  0  # atno 10765 bound_to 10752
  141.1557  133.7718  156.9796 H   0  0  0  0  0  0  0  0  0  0  0  0  # atno 11005 bound_to 11000
  145.9181  140.9134  143.0419 LP  0  0  0  0  0  0  0  0  0  0  0  0  # atno 17320 bound_to 7965
  144.6726  140.1251  143.7447 LP  0  0  0  0  0  0  0  0  0  0  0  0  # atno 17321 bound_to 7965
  139.5235  144.7072  151.5317 LP  0  0  0  0  0  0  0  0  0  0  0  0  # atno 17342 bound_to 10162
  140.6421  143.8868  150.6702 LP  0  0  0  0  0  0  0  0  0  0  0  0  # atno 17343 bound_to 10162
  157.7262  130.9627  150.1648 LP  0  0  0  0  0  0  0  0  0  0  0  0  # atno 17370 bound_to 10713
  156.2415  130.3691  149.8331 LP  0  0  0  0  0  0  0  0  0  0  0  0  # atno 17371 bound_to 10713
  140.1075  134.9497  157.2015 LP  0  0  0  0  0  0  0  0  0  0  0  0  # atno 17394 bound_to 11000
  140.3237  134.2887  155.7241 LP  0  0  0  0  0  0  0  0  0  0  0  0  # atno 17395 bound_to 11000

$$$$
