#       Name:                AV-unprocessed.smi:1328
#       Creating user name   scv26
#       Creation time:       Fri Mar 27 05:05:23 2020


#       File generated by GOLD software.
#

@<TRIPOS>MOLECULE
AV-unprocessed.smi:1328
    45    46     1
SMALL
NO_CHARGES


@<TRIPOS>ATOM
      1 ****        -2.7617   1.5588   3.4994 C.3            1 S1                 0.0000
      2 ****        -2.6185   1.8180   2.0270 C.2            1 S1                 0.0000
      3 ****        -2.6081   3.0635   1.5829 N.2            1 S1                 0.0000
      4 ****        -2.4594   2.9743   0.1957 O.3            1 S1                 0.0000
      5 ****        -2.3864   1.6627  -0.1457 C.2            1 S1                 0.0000
      6 ****        -2.2201   1.3597  -1.5970 C.3            1 S1                 0.0000
      7 ****        -2.4860   0.8740   0.9683 C.2            1 S1                 0.0000
      8 ****        -2.4552  -0.6298   1.0676 C.3            1 S1                 0.0000
      9 ****        -1.0145  -1.0957   1.2729 C.2            1 S1                 0.0000
     10 ****        -0.6055  -1.3625   2.4027 O.2            1 S1                 0.0000
     11 ****        -0.2549  -1.1699   0.1699 N.am           1 S1                 0.0000
     12 ****         1.1702  -1.4789   0.1343 C.3            1 S1                 0.0000
     13 ****         1.3711  -3.0026   0.0766 C.3            1 S1                 0.0000
     14 ****         1.7980  -0.7567  -1.0726 C.3            1 S1                 0.0000
     15 ****         3.3179  -0.8762  -1.1764 C.3            1 S1                 0.0000
     16 ****         3.7097   0.3410  -1.9988 C.3            1 S1                 0.0000
     17 ****         2.4978   1.2715  -1.8903 C.3            1 S1                 0.0000
     18 ****         1.6255   0.6480  -0.9579 O.3            1 S1                 0.0000
     19 ****        -2.1810   0.6880   3.8037 H              1 S1                 0.0000
     20 ****        -3.8030   1.3722   3.7624 H              1 S1                 0.0000
     21 ****        -2.4146   2.4062   4.0916 H              1 S1                 0.0000
     22 ****        -1.5482   0.5146  -1.7452 H              1 S1                 0.0000
     23 ****        -1.8032   2.2143  -2.1300 H              1 S1                 0.0000
     24 ****        -3.1796   1.1122  -2.0509 H              1 S1                 0.0000
     25 ****        -3.0674  -0.9864   1.8968 H              1 S1                 0.0000
     26 ****        -2.8603  -1.0979   0.1695 H              1 S1                 0.0000
     27 ****        -0.6853  -0.9314  -0.7117 H              1 S1                 0.0000
     28 ****         1.6399  -1.0979   1.0432 H              1 S1                 0.0000
     29 ****         2.4293  -3.2637   0.0889 H              1 S1                 0.0000
     30 ****         0.9338  -3.4265  -0.8279 H              1 S1                 0.0000
     31 ****         0.9076  -3.4943   0.9324 H              1 S1                 0.0000
     32 ****         1.3349  -1.0919  -2.0031 H              1 S1                 0.0000
     33 ****         3.7699  -0.8081  -0.1858 H              1 S1                 0.0000
     34 ****         3.6392  -1.8140  -1.6302 H              1 S1                 0.0000
     35 ****         4.6176   0.8041  -1.6108 H              1 S1                 0.0000
     36 ****         3.8885   0.0710  -3.0402 H              1 S1                 0.0000
     37 ****         2.7684   2.2736  -1.5566 H              1 S1                 0.0000
     38 ****         1.9926   1.3584  -2.8532 H              1 S1                 0.0000
     39 ****        -2.6898   3.8981   2.1276 LP             1 S1                 0.0000
     40 ****        -1.6217   3.4430  -0.0847 LP             1 S1                 0.0000
     41 ****        -3.2451   3.3972  -0.2558 LP             1 S1                 0.0000
     42 ****        -1.2165  -1.2746   3.1893 LP             1 S1                 0.0000
     43 ****         0.3379  -1.6672   2.5339 LP             1 S1                 0.0000
     44 ****         1.8523   0.9437  -0.0300 LP             1 S1                 0.0000
     45 ****         0.6778   0.8920  -1.1633 LP             1 S1                 0.0000
@<TRIPOS>BOND
    1    1    2 1     
    2    1   19 1     
    3    1   20 1     
    4    1   21 1     
    5    2    7 1     
    6    2    3 2     
    7    3    4 1     
    8    4    5 1     
    9    5    6 1     
   10    5    7 2     
   11    6   22 1     
   12    6   23 1     
   13    6   24 1     
   14    7    8 1     
   15    8    9 1     
   16    8   25 1     
   17    8   26 1     
   18    9   10 2     
   19    9   11 am    
   20   11   12 1     
   21   11   27 1     
   22   12   13 1     
   23   12   14 1     
   24   12   28 1     
   25   13   29 1     
   26   13   30 1     
   27   13   31 1     
   28   14   18 1     
   29   14   15 1     
   30   14   32 1     
   31   15   16 1     
   32   15   33 1     
   33   15   34 1     
   34   16   17 1     
   35   16   35 1     
   36   16   36 1     
   37   17   18 1     
   38   17   37 1     
   39   17   38 1     
   40    3   39 1     
   41    4   40 1     
   42    4   41 1     
   43   10   42 1     
   44   10   43 1     
   45   18   44 1     
   46   18   45 1     
@<TRIPOS>SUBSTRUCTURE
      1 S1             1
@<TRIPOS>SET
LONE_PAIRS      STATIC     ATOMS    <user>   **** ""
7 39 40 41 42 43 44 45
DONOR_HYDROGENS      STATIC     ATOMS    <user>   **** ""
1 27
ATOM$BLUE        STATIC     ATOMS    COLORGROUP SYSTEM
7 39 40 41 42 43 44 45
ATOM$RED        STATIC     ATOMS    COLORGROUP SYSTEM
1 27
