AV-unprocessed.smi:804|AV-procd|sdf|3795|dock9
  -GOLD-   22720 1233D 1   1.00000     0.00000
 Structure written by MMmdl.
 38 39  0  0  0  0  0  0  0  0  2 V2000
  151.7987  136.7707  156.6233 C   0  0  0  0  0  0  0  0  0  0  0  0
  152.8213  137.7101  157.2872 C   0  0  0  0  0  0  0  0  0  0  0  0
  152.2600  138.1926  158.6412 C   0  0  0  0  0  0  0  0  0  0  0  0
  154.1508  136.9522  157.4845 C   0  0  0  0  0  0  0  0  0  0  0  0
  153.0140  138.8515  156.3795 N   0  5  0  0  0  0  0  0  0  0  0  0
  152.0457  139.6767  155.8774 C   0  0  0  0  0  0  0  0  0  0  0  0
  151.4840  139.6352  154.7784 O   0  0  0  0  0  0  0  0  0  0  0  0
  151.6538  140.7681  156.8479 C   0  0  0  0  0  0  0  0  0  0  0  0
  152.3681  140.8776  157.9975 N   0  0  0  0  0  0  0  0  0  0  0  0
  152.0394  141.8254  158.8811 C   0  0  0  0  0  0  0  0  0  0  0  0
  152.8029  141.9109  160.0530 N   0  0  0  0  0  0  0  0  0  0  0  0
  154.0643  141.1814  160.2075 C   0  0  0  0  0  0  0  0  0  0  0  0
  154.3052  140.8116  161.6806 C   0  0  0  0  0  0  0  0  0  0  0  0
  154.2531  141.9820  162.4872 O   0  0  0  0  0  0  0  0  0  0  0  0
  152.9768  142.6061  162.4197 C   0  0  0  0  0  0  0  0  0  0  0  0
  152.6839  143.0433  160.9745 C   0  0  0  0  0  0  0  0  0  0  0  0
  151.0344  142.6953  158.7283 N   0  0  0  0  0  0  0  0  0  0  0  0
  150.3058  142.6134  157.5966 C   0  0  0  0  0  0  0  0  0  0  0  0
  150.5719  141.6554  156.5996 C   0  0  0  0  0  0  0  0  0  0  0  0
  149.6128  141.6433  155.1583 Cl  0  0  0  0  0  0  0  0  0  0  0  0
  151.6052  135.8954  157.2441 H   0  0  0  0  0  0  0  0  0  0  0  0
  152.1537  136.4128  155.6559 H   0  0  0  0  0  0  0  0  0  0  0  0
  150.8436  137.2715  156.4581 H   0  0  0  0  0  0  0  0  0  0  0  0
  151.3362  138.7581  158.5115 H   0  0  0  0  0  0  0  0  0  0  0  0
  152.9655  138.8300  159.1745 H   0  0  0  0  0  0  0  0  0  0  0  0
  152.0370  137.3487  159.2944 H   0  0  0  0  0  0  0  0  0  0  0  0
  154.0032  136.0539  158.0846 H   0  0  0  0  0  0  0  0  0  0  0  0
  154.8963  137.5590  157.9985 H   0  0  0  0  0  0  0  0  0  0  0  0
  154.5782  136.6410  156.5306 H   0  0  0  0  0  0  0  0  0  0  0  0
  154.0844  140.2640  159.6192 H   0  0  0  0  0  0  0  0  0  0  0  0
  154.8770  141.8092  159.8406 H   0  0  0  0  0  0  0  0  0  0  0  0
  153.5674  140.0846  162.0243 H   0  0  0  0  0  0  0  0  0  0  0  0
  155.2848  140.3472  161.7938 H   0  0  0  0  0  0  0  0  0  0  0  0
  152.2055  141.9250  162.7836 H   0  0  0  0  0  0  0  0  0  0  0  0
  152.9723  143.4730  163.0806 H   0  0  0  0  0  0  0  0  0  0  0  0
  153.3871  143.8180  160.6673 H   0  0  0  0  0  0  0  0  0  0  0  0
  151.6904  143.4899  160.9491 H   0  0  0  0  0  0  0  0  0  0  0  0
  149.5040  143.3278  157.4827 H   0  0  0  0  0  0  0  0  0  0  0  0
  1  2  1  0  0  0  0
  1 21  1  0  0  0  0
  1 22  1  0  0  0  0
  1 23  1  0  0  0  0
  2  3  1  0  0  0  0
  2  4  1  0  0  0  0
  2  5  1  0  0  0  0
  3 24  1  0  0  0  0
  3 25  1  0  0  0  0
  3 26  1  0  0  0  0
  4 27  1  0  0  0  0
  4 28  1  0  0  0  0
  4 29  1  0  0  0  0
  5  6  1  0  0  0  0
  6  7  2  0  0  0  0
  6  8  1  0  0  0  0
  8 19  1  0  0  0  0
  8  9  2  0  0  0  0
  9 10  1  0  0  0  0
 10 11  1  0  0  0  0
 10 17  2  0  0  0  0
 11 16  1  0  0  0  0
 11 12  1  0  0  0  0
 12 13  1  0  0  0  0
 12 30  1  0  0  0  0
 12 31  1  0  0  0  0
 13 14  1  0  0  0  0
 13 32  1  0  0  0  0
 13 33  1  0  0  0  0
 14 15  1  0  0  0  0
 15 16  1  0  0  0  0
 15 34  1  0  0  0  0
 15 35  1  0  0  0  0
 16 36  1  0  0  0  0
 16 37  1  0  0  0  0
 17 18  1  0  0  0  0
 18 19  2  0  0  0  0
 18 38  1  0  0  0  0
 19 20  1  0  0  0  0
M  CHG  1   5  -1
M  END
> <s_m_source_file>
AV-unprocessed.smi

> <i_m_source_file_index>
804

> <i_lp_mmshare_version>
43012

> <i_f3d_flags>
0

> <s_epik_input>
W0NIM11DKFtDSDNdKShbQ0gzXSlbTkhdQyg9TyljMW5jKG5bY0hdYzFDbClOMltDSDJdW0NIMl1PW0NIMl1bQ0gyXTI=

> <s_epik_cmdline>
J2VwaWtfcHl0aG9uJywgJy1waCcsICc3LjAnLCAnLXRuJywgJzgnLCAnLW1hJywgJzIwMCcsICctbWV0YWxfYmluZGluZycsICctaW1hZScsICc8aW5maWxlLm1hZT4nLCAnLW9tYWUnLCAnPG91dGZpbGUubWFlPic=

> <r_lp_tautomer_probability>
1

> <r_epik_Ionization_Penalty>
6.49938

> <r_epik_Ionization_Penalty_Charging>
6.49935

> <r_epik_Ionization_Penalty_Neutral>
2.43511e-05

> <r_epik_State_Penalty>
6.49934

> <r_epik_Charging_Adjusted_Penalty>
12.9987

> <i_epik_Tot_Q>
-1

> <i_epik_Tot_abs_Q>
1

> <r_epik_Metal_State_Penalty>
2.42664

> <b_epik_Metal_Only>
1

> <s_lp_Force_Field>
OPLS_2005

> <r_lp_Energy>
19.224

> <b_lp_Chiralities_Consistent>
1

> <s_lp_Variant>
AV-unprocessed.smi:804-2

> <Gold.Version>
5.8.1

> <Gold.Id.Protein>
6NUR|6NUR_protein|mol2

> <Gold.PLP.Fitness>
50.2800

> <Gold.PLP.PLP>
-39.8572

> <Gold.PLP.part.hbond>
-3.1221

> <Gold.PLP.part.metal>
0.0000

> <Gold.PLP.part.buried>
-4.1080

> <Gold.PLP.part.nonpolar>
-32.4041

> <Gold.PLP.part.repulsive>
0.1127

> <Gold.PLP.ligand.clash>
0.0000

> <Gold.PLP.ligand.torsion>
0.8504

> <Gold.PLP.Chemscore.Hbond>
3.0000

> <Gold.PLP.Chemscore.CHOScore>
1.0000

> <Gold.PLP.Chemscore.Metal>
0.0000

> <Gold.Chemscore.Hbonds>
donor molecule, donor type, donor heavy atom, donor atom, acceptor molecule, acceptor atom, score
      P1  H  7989  7998       L1     7  1.00
      P1  H  7997  8008       L1     5  2.00
      L1  C    18    38       P1  8028  1.00

> <Gold.PLP.Chemscore.Internal.Correction>
0.1237

> <Gold.Rescore>
     Score         DG    S(hbond)    S(metal)    S(lipo)     H(rot)  DE(clash)    DE(int)     intcor
     15.16     -18.96       1.75        0.00      87.16       1.00       0.32       3.49       ----

> <Gold.Chemscore.Fitness>
15.1586

> <Gold.Chemscore.DG>
-18.9639

> <Gold.Chemscore.ZeroCoef>
-5.4800

> <Gold.Chemscore.Hbond>
1.7502

> <Gold.Chemscore.Metal>
0.0000

> <Gold.Chemscore.Lipo>
87.1644

> <Gold.Chemscore.Internal_Hbond>
0.0000

> <Gold.Chemscore.DEClash>
0.3180

> <Gold.Chemscore.DEInternal>
3.4873

> <Gold.Chemscore.Rot>
1.0000

> <Gold.Chemscore.Internal.Correction>
   9.000000E+99

> <Gold.Chemscore.Hbonds>
donor molecule, donor type, donor heavy atom, donor atom, acceptor molecule, acceptor atom, score
      P1  H  7989  7998       L1     7  0.99
      P1  H  7997  8008       L1     5  0.25

> <Gold.Chemscore.Hbond.Weighted>
-5.8457

> <Gold.Chemscore.Metal.Weighted>
-0.0000

> <Gold.Chemscore.Lipo.Weighted>
-10.1982

> <Gold.Chemscore.Internal_Hbond.Weighted>
0.0000

> <Gold.Chemscore.DEClash.Weighted>
0.3180

> <Gold.Chemscore.DEInternal.Weighted>
3.4873

> <Gold.Chemscore.Rot.Weighted>
2.5600

> <Gold.Chemscore.Internal.Correction.Weighted>
   9.000000E+99

> <Gold.Protein.RotatedTorsions>
[ 6907 6896 6895 6894 ] final   97.48 input  -60.11 | X-H torsion
[ 7974 7965 7964 7962 ] final  131.45 input  175.53 | X-H torsion
[ 8008 7997 7996 7995 ] final  -58.45 input   59.86 | X-H torsion
[ 10167 10162 10161 10158 ] final  -58.01 input  -65.29 | X-H torsion
[ 10718 10713 10712 10709 ] final  -25.41 input   66.30 | X-H torsion
[ 10763 10752 10751 10750 ] final  -43.61 input  -60.55 | X-H torsion
[ 11005 11000 10999 10996 ] final  -65.96 input  -57.11 | X-H torsion

> <Gold.Protein.ActiveResidues>
 VAL166  LYS551  ARG553  GLY616  TRP617  ASP618  TYR619  PRO620  LYS621  CYS622 
 ASP623  PHE694  ASN695  SER759  ASP760  ASP761  ALA762  ILE779  LEU786  VAL792 
 PHE793  MET794  SER795  GLU796  ALA797  LYS798  CYS799  TRP800  GLU811  SER814 

> <Gold.Protein.RotatedAtoms>
  152.5423  134.0727  159.8200 H   0  0  0  0  0  0  0  0  0  0  0  0  # atno 6907 bound_to 6896
  151.0840  133.5360  159.2626 H   0  0  0  0  0  0  0  0  0  0  0  0  # atno 6908 bound_to 6896
  151.2177  135.0515  159.8991 H   0  0  0  0  0  0  0  0  0  0  0  0  # atno 6909 bound_to 6896
  145.0072  139.4255  143.5263 H   0  0  0  0  0  0  0  0  0  0  0  0  # atno 7974 bound_to 7965
  154.4309  140.1084  156.5958 H   0  0  0  0  0  0  0  0  0  0  0  0  # atno 8008 bound_to 7997
  155.5963  140.3492  155.4562 H   0  0  0  0  0  0  0  0  0  0  0  0  # atno 8009 bound_to 7997
  156.0208  140.1239  157.0349 H   0  0  0  0  0  0  0  0  0  0  0  0  # atno 8010 bound_to 7997
  140.6223  143.2424  151.5449 H   0  0  0  0  0  0  0  0  0  0  0  0  # atno 10167 bound_to 10162
  156.4647  130.4511  149.6906 H   0  0  0  0  0  0  0  0  0  0  0  0  # atno 10718 bound_to 10713
  153.9984  135.6696  153.4758 H   0  0  0  0  0  0  0  0  0  0  0  0  # atno 10763 bound_to 10752
  153.0673  135.4993  154.8225 H   0  0  0  0  0  0  0  0  0  0  0  0  # atno 10764 bound_to 10752
  154.7067  135.3089  154.9222 H   0  0  0  0  0  0  0  0  0  0  0  0  # atno 10765 bound_to 10752
  141.1469  133.6691  156.6066 H   0  0  0  0  0  0  0  0  0  0  0  0  # atno 11005 bound_to 11000
  146.3463  139.9495  142.8730 LP  0  0  0  0  0  0  0  0  0  0  0  0  # atno 17320 bound_to 7965
  145.2072  140.9880  143.4121 LP  0  0  0  0  0  0  0  0  0  0  0  0  # atno 17321 bound_to 7965
  139.5450  144.2546  152.1424 LP  0  0  0  0  0  0  0  0  0  0  0  0  # atno 17342 bound_to 10162
  140.1769  144.4882  150.6549 LP  0  0  0  0  0  0  0  0  0  0  0  0  # atno 17343 bound_to 10162
  156.3680  130.7516  151.2496 LP  0  0  0  0  0  0  0  0  0  0  0  0  # atno 17370 bound_to 10713
  157.7495  131.0331  150.4257 LP  0  0  0  0  0  0  0  0  0  0  0  0  # atno 17371 bound_to 10713
  140.3647  134.7657  157.4558 LP  0  0  0  0  0  0  0  0  0  0  0  0  # atno 17394 bound_to 11000
  140.0757  134.5800  155.8593 LP  0  0  0  0  0  0  0  0  0  0  0  0  # atno 17395 bound_to 11000

$$$$
