AV-unprocessed.smi:200|AV-procd|sdf|1578|dock5
  -GOLD-   2262019463D 1   1.00000     0.00000
 Structure written by MMmdl.
 56 59  0  0  0  0  0  0  0  0  1 V2000
  153.7916  137.4712  161.7861 C   0  0  0  0  0  0  0  0  0  0  0  0
  153.9651  137.6043  160.3843 O   0  0  0  0  0  0  0  0  0  0  0  0
  152.7641  137.4966  159.6310 C   0  0  0  0  0  0  0  0  0  0  0  0
  152.0337  138.8495  159.4933 C   0  0  0  0  0  0  0  0  0  0  0  0
  152.6839  139.7734  158.5617 N   0  0  0  0  0  0  0  0  0  0  0  0
  152.2045  139.7610  157.2940 C   0  0  0  0  0  0  0  0  0  0  0  0
  152.9493  139.2324  156.2876 N   0  0  0  0  0  0  0  0  0  0  0  0
  152.4692  139.2145  155.0407 C   0  0  0  0  0  0  0  0  0  0  0  0
  151.2940  139.6614  154.5920 N   0  0  0  0  0  0  0  0  0  0  0  0
  150.5474  140.1978  155.5996 C   0  0  0  0  0  0  0  0  0  0  0  0
  150.9310  140.2976  156.9657 C   0  0  0  0  0  0  0  0  0  0  0  0
  149.9315  140.9228  157.6990 N   0  0  0  0  0  0  0  0  0  0  0  0
  149.0056  141.1765  156.8152 C   0  0  0  0  0  0  0  0  0  0  0  0
  149.2802  140.7523  155.5332 N   0  0  0  0  0  0  0  0  0  0  0  0
  148.4225  140.8967  154.3655 C   0  0  0  0  0  0  0  0  0  0  0  0
  147.8929  139.5635  153.7902 C   0  0  0  0  0  0  0  0  0  0  0  0
  147.2707  139.7740  152.3994 C   0  0  0  0  0  0  0  0  0  0  0  0
  147.2825  138.5819  151.6405 O   0  0  0  0  0  0  0  0  0  0  0  0
  148.8667  138.3822  153.8999 C   0  0  0  0  0  0  0  0  0  0  0  0
  148.0902  137.7458  154.9361 O   0  0  0  0  0  0  0  0  0  0  0  0
  147.0416  138.7191  154.7499 C   0  0  0  0  0  0  0  0  0  0  0  0
  153.0543  141.0855  159.1092 C   0  0  2  0  0  0  0  0  0  0  0  0
  153.5988  141.0708  160.5464 C   0  0  0  0  0  0  0  0  0  0  0  0
  153.3569  142.4875  161.0945 C   0  0  0  0  0  0  0  0  0  0  0  0
  152.5640  143.2487  160.0171 C   0  0  2  0  0  0  0  0  0  0  0  0
  151.5316  144.2334  160.5823 C   0  0  0  0  0  0  0  0  0  0  0  0
  151.9541  142.1547  159.1383 C   0  0  0  0  0  0  0  0  0  0  0  0
  154.7660  137.4967  162.2735 H   0  0  0  0  0  0  0  0  0  0  0  0
  153.3167  136.5227  162.0394 H   0  0  0  0  0  0  0  0  0  0  0  0
  153.1968  138.2851  162.2000 H   0  0  0  0  0  0  0  0  0  0  0  0
  153.0181  137.1015  158.6473 H   0  0  0  0  0  0  0  0  0  0  0  0
  152.1043  136.7564  160.0857 H   0  0  0  0  0  0  0  0  0  0  0  0
  151.0082  138.6746  159.1660 H   0  0  0  0  0  0  0  0  0  0  0  0
  151.9515  139.3280  160.4691 H   0  0  0  0  0  0  0  0  0  0  0  0
  153.1180  138.7772  154.2962 H   0  0  0  0  0  0  0  0  0  0  0  0
  148.0834  141.6735  157.0788 H   0  0  0  0  0  0  0  0  0  0  0  0
  147.5958  141.5554  154.6339 H   0  0  0  0  0  0  0  0  0  0  0  0
  148.9851  141.4390  153.6044 H   0  0  0  0  0  0  0  0  0  0  0  0
  146.2329  140.0969  152.4891 H   0  0  0  0  0  0  0  0  0  0  0  0
  147.7792  140.5618  151.8448 H   0  0  0  0  0  0  0  0  0  0  0  0
  148.0028  138.0454  151.9349 H   0  0  0  0  0  0  0  0  0  0  0  0
  148.9233  137.7673  153.0004 H   0  0  0  0  0  0  0  0  0  0  0  0
  149.8645  138.6607  154.2410 H   0  0  0  0  0  0  0  0  0  0  0  0
  146.7774  139.2176  155.6809 H   0  0  0  0  0  0  0  0  0  0  0  0
  146.1575  138.2782  154.2874 H   0  0  0  0  0  0  0  0  0  0  0  0
  153.8453  141.4743  158.4661 H   0  0  0  0  0  0  0  0  0  0  0  0
  153.0592  140.3563  161.1676 H   0  0  0  0  0  0  0  0  0  0  0  0
  154.6528  140.7934  160.5746 H   0  0  0  0  0  0  0  0  0  0  0  0
  152.7922  142.4255  162.0257 H   0  0  0  0  0  0  0  0  0  0  0  0
  154.2943  142.9969  161.3204 H   0  0  0  0  0  0  0  0  0  0  0  0
  153.2769  143.8059  159.4069 H   0  0  0  0  0  0  0  0  0  0  0  0
  150.7938  143.7233  161.2025 H   0  0  0  0  0  0  0  0  0  0  0  0
  150.9970  144.7408  159.7790 H   0  0  0  0  0  0  0  0  0  0  0  0
  152.0127  144.9959  161.1950 H   0  0  0  0  0  0  0  0  0  0  0  0
  151.6911  142.5134  158.1428 H   0  0  0  0  0  0  0  0  0  0  0  0
  151.0464  141.7827  159.6147 H   0  0  0  0  0  0  0  0  0  0  0  0
  1  2  1  0  0  0  0
  1 28  1  0  0  0  0
  1 29  1  0  0  0  0
  1 30  1  0  0  0  0
  2  3  1  0  0  0  0
  3  4  1  0  0  0  0
  3 31  1  0  0  0  0
  3 32  1  0  0  0  0
  4  5  1  0  0  0  0
  4 33  1  0  0  0  0
  4 34  1  0  0  0  0
  5  6  1  0  0  0  0
  5 22  1  0  0  0  0
  6 11  1  0  0  0  0
  6  7  2  0  0  0  0
  7  8  1  0  0  0  0
  8  9  2  0  0  0  0
  8 35  1  0  0  0  0
  9 10  1  0  0  0  0
 10 14  1  0  0  0  0
 10 11  2  0  0  0  0
 11 12  1  0  0  0  0
 12 13  2  0  0  0  0
 13 14  1  0  0  0  0
 13 36  1  0  0  0  0
 14 15  1  0  0  0  0
 15 16  1  0  0  0  0
 15 37  1  0  0  0  0
 15 38  1  0  0  0  0
 16 21  1  0  0  0  0
 16 17  1  0  0  0  0
 16 19  1  0  0  0  0
 17 18  1  0  0  0  0
 17 39  1  0  0  0  0
 17 40  1  0  0  0  0
 18 41  1  0  0  0  0
 19 20  1  0  0  0  0
 19 42  1  0  0  0  0
 19 43  1  0  0  0  0
 20 21  1  0  0  0  0
 21 44  1  0  0  0  0
 21 45  1  0  0  0  0
 22 27  1  0  0  0  0
 22 23  1  0  0  0  0
 22 46  1  0  0  0  0
 23 24  1  0  0  0  0
 23 47  1  0  0  0  0
 23 48  1  0  0  0  0
 24 25  1  0  0  0  0
 24 49  1  0  0  0  0
 24 50  1  0  0  0  0
 25 26  1  0  0  0  0
 25 27  1  0  0  0  0
 25 51  1  0  0  0  0
 26 52  1  0  0  0  0
 26 53  1  0  0  0  0
 26 54  1  0  0  0  0
 27 55  1  0  0  0  0
 27 56  1  0  0  0  0
M  END
> <s_m_source_file>
AV-unprocessed.smi

> <i_m_source_file_index>
200

> <i_lp_mmshare_version>
43012

> <i_f3d_flags>
0

> <s_epik_input>
W0NIM11bQ0BASF0oW0NIMl0xKVtDSDJdW0NIMl1bQ0BIXTFOKFtDSDJdW0NIMl1PW0NIM10pYyhuW2NIXW4yKWMoYzIzKW5bY0hdbjNbQ0gyXUM0KFtDSDJdW09IXSlbQ0gyXU9bQ0gyXTQ=

> <s_epik_cmdline>
J2VwaWtfcHl0aG9uJywgJy1waCcsICc3LjAnLCAnLXRuJywgJzgnLCAnLW1hJywgJzIwMCcsICctbWV0YWxfYmluZGluZycsICctaW1hZScsICc8aW5maWxlLm1hZT4nLCAnLW9tYWUnLCAnPG91dGZpbGUubWFlPic=

> <r_lp_tautomer_probability>
1

> <r_epik_Ionization_Penalty>
0.00363087

> <r_epik_Ionization_Penalty_Charging>
0

> <r_epik_Ionization_Penalty_Neutral>
0.00363087

> <r_epik_State_Penalty>
0.0024341

> <r_epik_Charging_Adjusted_Penalty>
0.0024341

> <i_epik_Tot_Q>
0

> <i_epik_Tot_abs_Q>
0

> <r_epik_Metal_State_Penalty>
-0

> <b_epik_Metal_Only>
0

> <s_lp_Force_Field>
OPLS_2005

> <r_lp_Energy>
51.1688

> <b_lp_Chiralities_Consistent>
1

> <s_lp_Variant>
AV-unprocessed.smi:200-3

> <Gold.Version>
5.8.1

> <Gold.Id.Protein>
6NUR|6NUR_protein|mol2

> <Gold.PLP.Fitness>
52.8751

> <Gold.PLP.PLP>
-46.4799

> <Gold.PLP.part.hbond>
-4.9767

> <Gold.PLP.part.metal>
0.0000

> <Gold.PLP.part.buried>
-1.3080

> <Gold.PLP.part.nonpolar>
-41.1043

> <Gold.PLP.part.repulsive>
0.2040

> <Gold.PLP.ligand.clash>
0.0000

> <Gold.PLP.ligand.torsion>
1.9030

> <Gold.PLP.Chemscore.Hbond>
2.9600

> <Gold.PLP.Chemscore.CHOScore>
0.0000

> <Gold.PLP.Chemscore.Metal>
0.0000

> <Gold.Chemscore.Hbonds>
donor molecule, donor type, donor heavy atom, donor atom, acceptor molecule, acceptor atom, score
      L1  H    18    41       P1  7948  0.94
      P1  H  7989  7998       L1     9  1.00
      P1  H  7997  8008       L1     7  1.00

> <Gold.PLP.Chemscore.Internal.Correction>
1.3213

> <Gold.Rescore>
     Score         DG    S(hbond)    S(metal)    S(lipo)     H(rot)  DE(clash)    DE(int)     intcor
     11.66     -15.18       1.56        0.00     109.98       3.28       0.49       3.03       ----

> <Gold.Chemscore.Fitness>
11.6624

> <Gold.Chemscore.DG>
-15.1843

> <Gold.Chemscore.ZeroCoef>
-5.4800

> <Gold.Chemscore.Hbond>
1.5638

> <Gold.Chemscore.Metal>
0.0000

> <Gold.Chemscore.Lipo>
109.9838

> <Gold.Chemscore.Internal_Hbond>
0.0000

> <Gold.Chemscore.DEClash>
0.4947

> <Gold.Chemscore.DEInternal>
3.0272

> <Gold.Chemscore.Rot>
3.2761

> <Gold.Chemscore.Internal.Correction>
   9.000000E+99

> <Gold.Chemscore.Hbonds>
donor molecule, donor type, donor heavy atom, donor atom, acceptor molecule, acceptor atom, score
      L1  H    18    41       P1  7948  0.86
      P1  H  7989  7998       L1     9  0.39
      P1  H  7997  8008       L1     7  0.27

> <Gold.Chemscore.Hbond.Weighted>
-5.2230

> <Gold.Chemscore.Metal.Weighted>
-0.0000

> <Gold.Chemscore.Lipo.Weighted>
-12.8681

> <Gold.Chemscore.Internal_Hbond.Weighted>
0.0000

> <Gold.Chemscore.DEClash.Weighted>
0.4947

> <Gold.Chemscore.DEInternal.Weighted>
3.0272

> <Gold.Chemscore.Rot.Weighted>
8.3868

> <Gold.Chemscore.Internal.Correction.Weighted>
   9.000000E+99

> <Gold.Protein.RotatedTorsions>
[ 6907 6896 6895 6894 ] final -115.64 input  -60.11 | X-H torsion
[ 7974 7965 7964 7962 ] final  -88.04 input  175.53 | X-H torsion
[ 8008 7997 7996 7995 ] final  -32.57 input   59.86 | X-H torsion
[ 10167 10162 10161 10158 ] final  -53.31 input  -65.29 | X-H torsion
[ 10718 10713 10712 10709 ] final -151.69 input   66.30 | X-H torsion
[ 10763 10752 10751 10750 ] final  157.94 input  -60.55 | X-H torsion
[ 11005 11000 10999 10996 ] final   64.14 input  -57.11 | X-H torsion

> <Gold.Protein.ActiveResidues>
 VAL166  LYS551  ARG553  GLY616  TRP617  ASP618  TYR619  PRO620  LYS621  CYS622 
 ASP623  PHE694  ASN695  SER759  ASP760  ASP761  ALA762  ILE779  LEU786  VAL792 
 PHE793  MET794  SER795  GLU796  ALA797  LYS798  CYS799  TRP800  GLU811  SER814 

> <Gold.Protein.RotatedAtoms>
  150.7994  133.8629  159.3236 H   0  0  0  0  0  0  0  0  0  0  0  0  # atno 6907 bound_to 6896
  151.6446  135.1007  160.0158 H   0  0  0  0  0  0  0  0  0  0  0  0  # atno 6908 bound_to 6896
  152.4079  133.6878  159.6407 H   0  0  0  0  0  0  0  0  0  0  0  0  # atno 6909 bound_to 6896
  145.4585  140.9561  143.1983 H   0  0  0  0  0  0  0  0  0  0  0  0  # atno 7974 bound_to 7965
  154.4176  140.1734  156.1749 H   0  0  0  0  0  0  0  0  0  0  0  0  # atno 8008 bound_to 7997
  155.9730  140.3384  155.6569 H   0  0  0  0  0  0  0  0  0  0  0  0  # atno 8009 bound_to 7997
  155.6600  140.0700  157.2548 H   0  0  0  0  0  0  0  0  0  0  0  0  # atno 8010 bound_to 7997
  140.6491  143.2554  151.4774 H   0  0  0  0  0  0  0  0  0  0  0  0  # atno 10167 bound_to 10162
  156.4625  130.8220  151.2451 H   0  0  0  0  0  0  0  0  0  0  0  0  # atno 10718 bound_to 10713
  154.2082  135.2787  155.2967 H   0  0  0  0  0  0  0  0  0  0  0  0  # atno 10763 bound_to 10752
  154.5800  135.5592  153.7179 H   0  0  0  0  0  0  0  0  0  0  0  0  # atno 10764 bound_to 10752
  153.0071  135.6342  154.2221 H   0  0  0  0  0  0  0  0  0  0  0  0  # atno 10765 bound_to 10752
  139.9978  134.6490  155.9981 H   0  0  0  0  0  0  0  0  0  0  0  0  # atno 11005 bound_to 11000
  144.8017  139.6128  143.7068 LP  0  0  0  0  0  0  0  0  0  0  0  0  # atno 17320 bound_to 7965
  146.2464  139.6108  142.9456 LP  0  0  0  0  0  0  0  0  0  0  0  0  # atno 17321 bound_to 7965
  139.5704  144.1941  152.1828 LP  0  0  0  0  0  0  0  0  0  0  0  0  # atno 17342 bound_to 10162
  140.1236  144.5351  150.6847 LP  0  0  0  0  0  0  0  0  0  0  0  0  # atno 17343 bound_to 10162
  157.7497  131.0102  150.3298 LP  0  0  0  0  0  0  0  0  0  0  0  0  # atno 17370 bound_to 10713
  156.3702  130.3862  149.7182 LP  0  0  0  0  0  0  0  0  0  0  0  0  # atno 17371 bound_to 10713
  141.1618  133.6538  156.4345 LP  0  0  0  0  0  0  0  0  0  0  0  0  # atno 17394 bound_to 11000
  140.4785  134.6687  157.5160 LP  0  0  0  0  0  0  0  0  0  0  0  0  # atno 17395 bound_to 11000

$$$$
