AV-unprocessed.smi:3292|AV-procd|sdf|12626|dock10
  -GOLD-   2272018563D 1   1.00000     0.00000
 Structure written by MMmdl.
 38 39  0  0  0  0  0  0  0  0  1 V2000
  144.1122  135.8321  151.5407 C   0  0  0  0  0  0  0  0  0  0  0  0
  145.3690  135.2480  152.2072 C   0  0  1  0  0  0  0  0  0  0  0  0
  145.9639  134.0491  151.4360 C   0  0  0  0  0  0  0  0  0  0  0  0
  144.9479  133.2313  150.8010 N   0  0  0  0  0  0  0  0  0  0  0  0
  143.8507  132.6387  151.4118 C   0  0  0  0  0  0  0  0  0  0  0  0
  143.1703  131.9610  150.4255 C   0  0  0  0  0  0  0  0  0  0  0  0
  143.8298  132.1174  149.2086 N   0  0  0  0  0  0  0  0  0  0  0  0
  144.8743  132.8781  149.5103 C   0  0  0  0  0  0  0  0  0  0  0  0
  146.3683  136.3030  152.3504 N   0  0  0  0  0  0  0  0  0  0  0  0
  146.1534  137.5005  152.9135 C   0  0  0  0  0  0  0  0  0  0  0  0
  145.0764  137.8528  153.3952 O   0  0  0  0  0  0  0  0  0  0  0  0
  147.2522  138.2678  152.8846 N   0  0  0  0  0  0  0  0  0  0  0  0
  147.3470  139.6277  153.4063 C   0  0  0  0  0  0  0  0  0  0  0  0
  148.4755  139.7663  154.4455 C   0  0  2  0  0  0  0  0  0  0  0  0
  148.7958  141.2006  154.8135 C   0  0  0  0  0  0  0  0  0  0  0  0
  150.1790  141.0685  155.4453 C   0  0  0  0  0  0  0  0  0  0  0  0
  150.7930  139.9466  154.8166 O   0  0  0  0  0  0  0  0  0  0  0  0
  149.8500  139.2766  153.9864 C   0  0  0  0  0  0  0  0  0  0  0  0
  143.3045  135.1011  151.4993 H   0  0  0  0  0  0  0  0  0  0  0  0
  144.3194  136.1577  150.5209 H   0  0  0  0  0  0  0  0  0  0  0  0
  143.7388  136.6930  152.0961 H   0  0  0  0  0  0  0  0  0  0  0  0
  145.0797  134.9105  153.2044 H   0  0  0  0  0  0  0  0  0  0  0  0
  146.6579  134.3984  150.6700 H   0  0  0  0  0  0  0  0  0  0  0  0
  146.5372  133.4084  152.1070 H   0  0  0  0  0  0  0  0  0  0  0  0
  143.6504  132.7474  152.4676 H   0  0  0  0  0  0  0  0  0  0  0  0
  142.2652  131.3762  150.4978 H   0  0  0  0  0  0  0  0  0  0  0  0
  145.6004  133.1892  148.7735 H   0  0  0  0  0  0  0  0  0  0  0  0
  147.2885  136.1093  151.9833 H   0  0  0  0  0  0  0  0  0  0  0  0
  148.0869  137.8847  152.4656 H   0  0  0  0  0  0  0  0  0  0  0  0
  147.4773  140.3474  152.5962 H   0  0  0  0  0  0  0  0  0  0  0  0
  146.3922  139.8678  153.8746 H   0  0  0  0  0  0  0  0  0  0  0  0
  148.1984  139.2309  155.3554 H   0  0  0  0  0  0  0  0  0  0  0  0
  148.8535  141.8195  153.9169 H   0  0  0  0  0  0  0  0  0  0  0  0
  148.0633  141.6447  155.4877 H   0  0  0  0  0  0  0  0  0  0  0  0
  150.7779  141.9711  155.3233 H   0  0  0  0  0  0  0  0  0  0  0  0
  150.0923  140.8614  156.5124 H   0  0  0  0  0  0  0  0  0  0  0  0
  149.9562  138.1941  154.0589 H   0  0  0  0  0  0  0  0  0  0  0  0
  150.0373  139.5665  152.9517 H   0  0  0  0  0  0  0  0  0  0  0  0
  1  2  1  0  0  0  0
  1 19  1  0  0  0  0
  1 20  1  0  0  0  0
  1 21  1  0  0  0  0
  2  3  1  0  0  0  0
  2  9  1  0  0  0  0
  2 22  1  0  0  0  0
  3  4  1  0  0  0  0
  3 23  1  0  0  0  0
  3 24  1  0  0  0  0
  4  8  1  0  0  0  0
  4  5  1  0  0  0  0
  5  6  2  0  0  0  0
  5 25  1  0  0  0  0
  6  7  1  0  0  0  0
  6 26  1  0  0  0  0
  7  8  2  0  0  0  0
  8 27  1  0  0  0  0
  9 10  1  0  0  0  0
  9 28  1  0  0  0  0
 10 11  2  0  0  0  0
 10 12  1  0  0  0  0
 12 13  1  0  0  0  0
 12 29  1  0  0  0  0
 13 14  1  0  0  0  0
 13 30  1  0  0  0  0
 13 31  1  0  0  0  0
 14 18  1  0  0  0  0
 14 15  1  0  0  0  0
 14 32  1  0  0  0  0
 15 16  1  0  0  0  0
 15 33  1  0  0  0  0
 15 34  1  0  0  0  0
 16 17  1  0  0  0  0
 16 35  1  0  0  0  0
 16 36  1  0  0  0  0
 17 18  1  0  0  0  0
 18 37  1  0  0  0  0
 18 38  1  0  0  0  0
M  END
> <s_m_source_file>
AV-unprocessed.smi

> <i_m_source_file_index>
3292

> <i_lp_mmshare_version>
43012

> <i_f3d_flags>
0

> <s_epik_input>
W2NIXTFuW2NIXVtjSF1uMVtDSDJdW0NAQEhdKFtDSDNdKVtOSF1DKD1PKVtOSF1bQ0gyXVtDQEBIXTJbQ0gyXVtDSDJdT1tDSDJdMg==

> <s_epik_cmdline>
J2VwaWtfcHl0aG9uJywgJy1waCcsICc3LjAnLCAnLXRuJywgJzgnLCAnLW1hJywgJzIwMCcsICctbWV0YWxfYmluZGluZycsICctaW1hZScsICc8aW5maWxlLm1hZT4nLCAnLW9tYWUnLCAnPG91dGZpbGUubWFlPic=

> <r_lp_tautomer_probability>
1

> <r_epik_Ionization_Penalty>
0.621291

> <r_epik_Ionization_Penalty_Charging>
0.621234

> <r_epik_Ionization_Penalty_Neutral>
5.72199e-05

> <r_epik_State_Penalty>
0.637278

> <r_epik_Charging_Adjusted_Penalty>
1.25851

> <i_epik_Tot_Q>
0

> <i_epik_Tot_abs_Q>
0

> <r_epik_Metal_State_Penalty>
0.306757

> <b_epik_Metal_Only>
0

> <s_lp_Force_Field>
OPLS_2005

> <r_lp_Energy>
18.3972

> <b_lp_Chiralities_Consistent>
1

> <s_lp_Variant>
AV-unprocessed.smi:3292-6

> <Gold.Version>
5.8.1

> <Gold.Id.Protein>
6NUR|6NUR_protein|mol2

> <Gold.PLP.Fitness>
44.7826

> <Gold.PLP.PLP>
-29.6419

> <Gold.PLP.part.hbond>
-4.0000

> <Gold.PLP.part.metal>
0.0000

> <Gold.PLP.part.buried>
-0.0163

> <Gold.PLP.part.nonpolar>
-26.9861

> <Gold.PLP.part.repulsive>
0.5664

> <Gold.PLP.ligand.clash>
0.0000

> <Gold.PLP.ligand.torsion>
0.3849

> <Gold.PLP.Chemscore.Hbond>
3.0909

> <Gold.PLP.Chemscore.CHOScore>
2.2019

> <Gold.PLP.Chemscore.Metal>
0.0000

> <Gold.Chemscore.Hbonds>
donor molecule, donor type, donor heavy atom, donor atom, acceptor molecule, acceptor atom, score
      L1  H     9    28       P1  7948  1.00
      L1  H    12    29       P1  7948  0.91
      P1  H  7989  7998       L1    17  0.72
      P1  H 10785 10796       L1     7  0.21
      L1  C     5    25       P1 10957  0.46
      L1  C     6    26       P1 10952  0.91
      L1  C     8    27       P1  7921  0.66

> <Gold.PLP.Chemscore.Internal.Correction>
0.0323

> <Gold.Rescore>
     Score         DG    S(hbond)    S(metal)    S(lipo)     H(rot)  DE(clash)    DE(int)     intcor
     13.51     -13.96       1.96        0.00      63.87       2.16       0.04       0.40       ----

> <Gold.Chemscore.Fitness>
13.5134

> <Gold.Chemscore.DG>
-13.9601

> <Gold.Chemscore.ZeroCoef>
-5.4800

> <Gold.Chemscore.Hbond>
1.9553

> <Gold.Chemscore.Metal>
0.0000

> <Gold.Chemscore.Lipo>
63.8735

> <Gold.Chemscore.Internal_Hbond>
0.0000

> <Gold.Chemscore.DEClash>
0.0450

> <Gold.Chemscore.DEInternal>
0.4018

> <Gold.Chemscore.Rot>
2.1577

> <Gold.Chemscore.Internal.Correction>
   9.000000E+99

> <Gold.Chemscore.Hbonds>
donor molecule, donor type, donor heavy atom, donor atom, acceptor molecule, acceptor atom, score
      L1  H     9    28       P1  7948  0.99
      L1  H    12    29       P1  7948  0.89
      P1  H  7989  7998       L1    17  0.02

> <Gold.Chemscore.Hbond.Weighted>
-6.5307

> <Gold.Chemscore.Metal.Weighted>
-0.0000

> <Gold.Chemscore.Lipo.Weighted>
-7.4732

> <Gold.Chemscore.Internal_Hbond.Weighted>
0.0000

> <Gold.Chemscore.DEClash.Weighted>
0.0450

> <Gold.Chemscore.DEInternal.Weighted>
0.4018

> <Gold.Chemscore.Rot.Weighted>
5.5237

> <Gold.Chemscore.Internal.Correction.Weighted>
   9.000000E+99

> <Gold.Protein.RotatedTorsions>
[ 6907 6896 6895 6894 ] final  -49.57 input  -60.11 | X-H torsion
[ 7974 7965 7964 7962 ] final   89.06 input  175.53 | X-H torsion
[ 8008 7997 7996 7995 ] final   26.93 input   59.86 | X-H torsion
[ 10167 10162 10161 10158 ] final -123.88 input  -65.29 | X-H torsion
[ 10718 10713 10712 10709 ] final   52.47 input   66.30 | X-H torsion
[ 10763 10752 10751 10750 ] final -126.83 input  -60.55 | X-H torsion
[ 11005 11000 10999 10996 ] final   73.53 input  -57.11 | X-H torsion

> <Gold.Protein.ActiveResidues>
 VAL166  LYS551  ARG553  GLY616  TRP617  ASP618  TYR619  PRO620  LYS621  CYS622 
 ASP623  PHE694  ASN695  SER759  ASP760  ASP761  ALA762  ILE779  LEU786  VAL792 
 PHE793  MET794  SER795  GLU796  ALA797  LYS798  CYS799  TRP800  GLU811  SER814 

> <Gold.Protein.RotatedAtoms>
  150.8792  134.8180  159.7211 H   0  0  0  0  0  0  0  0  0  0  0  0  # atno 6907 bound_to 6896
  152.4766  134.4823  159.9679 H   0  0  0  0  0  0  0  0  0  0  0  0  # atno 6908 bound_to 6896
  151.4901  133.3488  159.2887 H   0  0  0  0  0  0  0  0  0  0  0  0  # atno 6909 bound_to 6896
  145.5373  139.2286  143.2585 H   0  0  0  0  0  0  0  0  0  0  0  0  # atno 7974 bound_to 7965
  155.0350  140.3163  155.4744 H   0  0  0  0  0  0  0  0  0  0  0  0  # atno 8008 bound_to 7997
  156.2866  140.2173  156.5416 H   0  0  0  0  0  0  0  0  0  0  0  0  # atno 8009 bound_to 7997
  154.7338  140.0479  157.0738 H   0  0  0  0  0  0  0  0  0  0  0  0  # atno 8010 bound_to 7997
  139.9988  143.5563  152.2312 H   0  0  0  0  0  0  0  0  0  0  0  0  # atno 10167 bound_to 10162
  157.5078  130.8480  149.8397 H   0  0  0  0  0  0  0  0  0  0  0  0  # atno 10718 bound_to 10713
  154.8748  135.3982  154.3495 H   0  0  0  0  0  0  0  0  0  0  0  0  # atno 10763 bound_to 10752
  153.4283  135.7024  153.6253 H   0  0  0  0  0  0  0  0  0  0  0  0  # atno 10764 bound_to 10752
  153.4885  135.3753  155.2449 H   0  0  0  0  0  0  0  0  0  0  0  0  # atno 10765 bound_to 10752
  139.9436  134.7354  156.1037 H   0  0  0  0  0  0  0  0  0  0  0  0  # atno 11005 bound_to 11000
  146.2004  140.6192  142.9105 LP  0  0  0  0  0  0  0  0  0  0  0  0  # atno 17320 bound_to 7965
  144.7595  140.5387  143.6746 LP  0  0  0  0  0  0  0  0  0  0  0  0  # atno 17321 bound_to 7965
  139.6287  144.7641  151.2583 LP  0  0  0  0  0  0  0  0  0  0  0  0  # atno 17342 bound_to 10162
  140.7427  143.6518  150.8242 LP  0  0  0  0  0  0  0  0  0  0  0  0  # atno 17343 bound_to 10162
  156.0269  130.3776  150.1796 LP  0  0  0  0  0  0  0  0  0  0  0  0  # atno 17370 bound_to 10713
  156.9986  130.9915  151.3396 LP  0  0  0  0  0  0  0  0  0  0  0  0  # atno 17371 bound_to 10713
  141.1079  133.6653  156.2907 LP  0  0  0  0  0  0  0  0  0  0  0  0  # atno 17394 bound_to 11000
  140.5891  134.5669  157.5496 LP  0  0  0  0  0  0  0  0  0  0  0  0  # atno 17395 bound_to 11000

$$$$
