AV-unprocessed.smi:157|AV-procd|sdf|1310|dock8
  -GOLD-   2262019 03D 1   1.00000     0.00000
 Structure written by MMmdl.
 36 38  0  0  0  0  0  0  0  0  2 V2000
  155.9218  137.0320  160.9602 O   0  0  0  0  0  0  0  0  0  0  0  0
  155.6507  138.3470  160.5227 C   0  0  0  0  0  0  0  0  0  0  0  0
  154.8361  138.3319  159.2128 C   0  0  2  0  0  0  0  0  0  0  0  0
  154.5572  139.6935  158.8778 O   0  0  0  0  0  0  0  0  0  0  0  0
  153.1849  139.9431  158.9387 C   0  0  2  0  0  0  0  0  0  0  0  0
  152.9655  141.2371  159.6511 N   0  0  0  0  0  0  0  0  0  0  0  0
  153.4550  141.5752  160.8625 C   0  0  0  0  0  0  0  0  0  0  0  0
  153.1059  142.7824  161.2733 N   0  3  0  0  0  0  0  0  0  0  0  0
  152.3164  143.3204  160.2793 C   0  0  0  0  0  0  0  0  0  0  0  0
  152.2302  142.3410  159.2864 C   0  0  0  0  0  0  0  0  0  0  0  0
  151.5387  142.3566  158.0653 N   0  0  0  0  0  0  0  0  0  0  0  0
  150.6199  143.2232  157.7864 C   0  0  0  0  0  0  0  0  0  0  0  0
  150.1941  144.3155  158.5241 N   0  0  0  0  0  0  0  0  0  0  0  0
  151.1051  145.2529  159.1563 C   0  0  0  0  0  0  0  0  0  0  0  0
  151.7683  144.7049  160.4267 C   0  0  1  0  0  0  0  0  0  0  0  0
  150.8536  144.8151  161.4978 O   0  0  0  0  0  0  0  0  0  0  0  0
  152.5583  138.7936  159.7178 C   0  0  0  0  0  0  0  0  0  0  0  0
  153.4540  137.6547  159.2856 C   0  0  2  0  0  0  0  0  0  0  0  0
  153.3708  136.5637  160.1801 O   0  0  0  0  0  0  0  0  0  0  0  0
  155.4367  137.8940  158.4144 H   0  0  0  0  0  0  0  0  0  0  0  0
  152.7765  140.0710  157.9355 H   0  0  0  0  0  0  0  0  0  0  0  0
  152.6005  145.3648  160.6747 H   0  0  0  0  0  0  0  0  0  0  0  0
  153.1599  137.3207  158.2894 H   0  0  0  0  0  0  0  0  0  0  0  0
  156.3700  137.0768  161.7910 H   0  0  0  0  0  0  0  0  0  0  0  0
  155.1410  138.9066  161.3073 H   0  0  0  0  0  0  0  0  0  0  0  0
  156.6107  138.8364  160.3553 H   0  0  0  0  0  0  0  0  0  0  0  0
  154.0773  140.9153  161.4400 H   0  0  0  0  0  0  0  0  0  0  0  0
  150.0764  143.1304  156.8451 H   0  0  0  0  0  0  0  0  0  0  0  0
  149.3239  144.7612  158.2700 H   0  0  0  0  0  0  0  0  0  0  0  0
  151.8809  145.4957  158.4285 H   0  0  0  0  0  0  0  0  0  0  0  0
  150.5828  146.1874  159.3646 H   0  0  0  0  0  0  0  0  0  0  0  0
  149.9962  145.0019  161.1480 H   0  0  0  0  0  0  0  0  0  0  0  0
  152.6443  138.9788  160.7901 H   0  0  0  0  0  0  0  0  0  0  0  0
  151.5081  138.6608  159.4558 H   0  0  0  0  0  0  0  0  0  0  0  0
  154.2083  136.4606  160.6066 H   0  0  0  0  0  0  0  0  0  0  0  0
  153.3741  143.2221  162.1446 H   0  0  0  0  0  0  0  0  0  0  0  0
  1  2  1  0  0  0  0
  1 24  1  0  0  0  0
  2  3  1  0  0  0  0
  2 25  1  0  0  0  0
  2 26  1  0  0  0  0
  3 20  1  0  0  0  0
  3 18  1  0  0  0  0
  3  4  1  0  0  0  0
  4  5  1  0  0  0  0
  5 21  1  0  0  0  0
  5  6  1  0  0  0  0
  5 17  1  0  0  0  0
  6 10  1  0  0  0  0
  6  7  1  0  0  0  0
  7  8  2  0  0  0  0
  7 27  1  0  0  0  0
  8  9  1  0  0  0  0
  8 36  1  0  0  0  0
  9 15  1  0  0  0  0
  9 10  2  0  0  0  0
 10 11  1  0  0  0  0
 11 12  2  0  0  0  0
 12 13  1  0  0  0  0
 12 28  1  0  0  0  0
 13 14  1  0  0  0  0
 13 29  1  0  0  0  0
 14 15  1  0  0  0  0
 14 30  1  0  0  0  0
 14 31  1  0  0  0  0
 15 22  1  0  0  0  0
 15 16  1  0  0  0  0
 16 32  1  0  0  0  0
 17 18  1  0  0  0  0
 17 33  1  0  0  0  0
 17 34  1  0  0  0  0
 18 23  1  0  0  0  0
 18 19  1  0  0  0  0
 19 35  1  0  0  0  0
M  CHG  1   8   1
M  END
> <s_m_source_file>
AV-unprocessed.smi

> <i_m_source_file_index>
157

> <i_lp_mmshare_version>
43012

> <i_f3d_flags>
0

> <s_epik_input>
W09IXVtDSDJdW0NASF0xT1tDQEhdKFtDSDJdW0NAQEhdMVtPSF0pbihbY0hdbjIpYyhjMjMpTj1bQ0hdW05IXVtDSDJdW0NASF0zW09IXQ==

> <s_epik_cmdline>
J2VwaWtfcHl0aG9uJywgJy1waCcsICc3LjAnLCAnLXRuJywgJzgnLCAnLW1hJywgJzIwMCcsICctbWV0YWxfYmluZGluZycsICctaW1hZScsICc8aW5maWxlLm1hZT4nLCAnLW9tYWUnLCAnPG91dGZpbGUubWFlPic=

> <r_epik_Ionization_Penalty>
1.68594

> <r_epik_Ionization_Penalty_Charging>
0

> <r_epik_Ionization_Penalty_Neutral>
1.68594

> <r_epik_State_Penalty>
1.79006

> <r_epik_Charging_Adjusted_Penalty>
1.79006

> <i_epik_Tot_Q>
1

> <i_epik_Tot_abs_Q>
1

> <r_epik_Metal_State_Penalty>
5.85324

> <b_epik_Metal_Only>
0

> <s_epik_Chemistry_Notes>
This compound has an imine and may undergo hydrolysis. This compound contains an acetal/aminal-like group ( X-CH(R)-Y where X, Y are N, S, or O) that may be acid/base labile, releasing an aldehyde.

> <s_lp_Force_Field>
OPLS_2005

> <r_lp_Energy>
54.8473

> <b_lp_Chiralities_Consistent>
1

> <s_lp_Variant>
AV-unprocessed.smi:157-20

> <Gold.Version>
5.8.1

> <Gold.Id.Protein>
6NUR|6NUR_protein|mol2

> <Gold.PLP.Fitness>
45.2724

> <Gold.PLP.PLP>
-33.8467

> <Gold.PLP.part.hbond>
-4.5729

> <Gold.PLP.part.metal>
0.0000

> <Gold.PLP.part.buried>
-3.6625

> <Gold.PLP.part.nonpolar>
-25.8018

> <Gold.PLP.part.repulsive>
0.1975

> <Gold.PLP.ligand.clash>
0.0000

> <Gold.PLP.ligand.torsion>
0.0861

> <Gold.PLP.Chemscore.Hbond>
2.8613

> <Gold.PLP.Chemscore.CHOScore>
1.0000

> <Gold.PLP.Chemscore.Metal>
0.0000

> <Gold.Chemscore.Hbonds>
donor molecule, donor type, donor heavy atom, donor atom, acceptor molecule, acceptor atom, score
      L1  H    13    29       P1  8029  0.83
      P1  H  6896  6907       L1    19  0.93
      P1  H  7997  8008       L1     4  1.00
      L1  C    12    28       P1  8028  0.98

> <Gold.PLP.Chemscore.Internal.Correction>
0.0141

> <Gold.Rescore>
     Score         DG    S(hbond)    S(metal)    S(lipo)     H(rot)  DE(clash)    DE(int)     intcor
      8.69     -10.57       2.45        0.00      53.80       3.67       1.74       0.14       ----

> <Gold.Chemscore.Fitness>
8.6941

> <Gold.Chemscore.DG>
-10.5716

> <Gold.Chemscore.ZeroCoef>
-5.4800

> <Gold.Chemscore.Hbond>
2.4496

> <Gold.Chemscore.Metal>
0.0000

> <Gold.Chemscore.Lipo>
53.8013

> <Gold.Chemscore.Internal_Hbond>
0.0000

> <Gold.Chemscore.DEClash>
1.7373

> <Gold.Chemscore.DEInternal>
0.1402

> <Gold.Chemscore.Rot>
3.6659

> <Gold.Chemscore.Internal.Correction>
   9.000000E+99

> <Gold.Chemscore.Hbonds>
donor molecule, donor type, donor heavy atom, donor atom, acceptor molecule, acceptor atom, score
      L1  H    13    29       P1  8029  0.28
      P1  H  6896  6907       L1    19  0.86
      P1  H  7997  8008       L1     4  0.32

> <Gold.Chemscore.Hbond.Weighted>
-8.1817

> <Gold.Chemscore.Metal.Weighted>
-0.0000

> <Gold.Chemscore.Lipo.Weighted>
-6.2948

> <Gold.Chemscore.Internal_Hbond.Weighted>
0.0000

> <Gold.Chemscore.DEClash.Weighted>
1.7373

> <Gold.Chemscore.DEInternal.Weighted>
0.1402

> <Gold.Chemscore.Rot.Weighted>
9.3848

> <Gold.Chemscore.Internal.Correction.Weighted>
   9.000000E+99

> <Gold.Protein.RotatedTorsions>
[ 6907 6896 6895 6894 ] final   19.31 input  -60.11 | X-H torsion
[ 7974 7965 7964 7962 ] final  179.57 input  175.53 | X-H torsion
[ 8008 7997 7996 7995 ] final -108.79 input   59.86 | X-H torsion
[ 10167 10162 10161 10158 ] final -147.16 input  -65.29 | X-H torsion
[ 10718 10713 10712 10709 ] final   55.70 input   66.30 | X-H torsion
[ 10763 10752 10751 10750 ] final  -25.85 input  -60.55 | X-H torsion
[ 11005 11000 10999 10996 ] final   85.80 input  -57.11 | X-H torsion

> <Gold.Protein.ActiveResidues>
 VAL166  LYS551  ARG553  GLY616  TRP617  ASP618  TYR619  PRO620  LYS621  CYS622 
 ASP623  PHE694  ASN695  SER759  ASP760  ASP761  ALA762  ILE779  LEU786  VAL792 
 PHE793  MET794  SER795  GLU796  ALA797  LYS798  CYS799  TRP800  GLU811  SER814 

> <Gold.Protein.RotatedAtoms>
  151.8789  135.0461  160.0486 H   0  0  0  0  0  0  0  0  0  0  0  0  # atno 6907 bound_to 6896
  152.2528  133.5225  159.5344 H   0  0  0  0  0  0  0  0  0  0  0  0  # atno 6908 bound_to 6896
  150.7090  134.0852  159.3954 H   0  0  0  0  0  0  0  0  0  0  0  0  # atno 6909 bound_to 6896
  144.7144  140.0568  143.6434 H   0  0  0  0  0  0  0  0  0  0  0  0  # atno 7974 bound_to 7965
  154.9496  140.0401  157.2137 H   0  0  0  0  0  0  0  0  0  0  0  0  # atno 8008 bound_to 7997
  154.7991  140.2849  155.5912 H   0  0  0  0  0  0  0  0  0  0  0  0  # atno 8009 bound_to 7997
  156.2959  140.2558  156.2856 H   0  0  0  0  0  0  0  0  0  0  0  0  # atno 8010 bound_to 7997
  139.7647  143.8325  152.2614 H   0  0  0  0  0  0  0  0  0  0  0  0  # atno 10167 bound_to 10162
  157.5368  130.8669  149.8765 H   0  0  0  0  0  0  0  0  0  0  0  0  # atno 10718 bound_to 10713
  153.7065  135.6953  153.5049 H   0  0  0  0  0  0  0  0  0  0  0  0  # atno 10763 bound_to 10752
  153.2304  135.4339  155.0587 H   0  0  0  0  0  0  0  0  0  0  0  0  # atno 10764 bound_to 10752
  154.8328  135.3482  154.6603 H   0  0  0  0  0  0  0  0  0  0  0  0  # atno 10765 bound_to 10752
  139.8962  134.8311  156.2632 H   0  0  0  0  0  0  0  0  0  0  0  0  # atno 11005 bound_to 11000
  145.9897  139.3005  143.0992 LP  0  0  0  0  0  0  0  0  0  0  0  0  # atno 17320 bound_to 7965
  145.8916  140.9300  143.0549 LP  0  0  0  0  0  0  0  0  0  0  0  0  # atno 17321 bound_to 7965
  139.8342  144.7240  150.9413 LP  0  0  0  0  0  0  0  0  0  0  0  0  # atno 17342 bound_to 10162
  140.7810  143.4042  151.1098 LP  0  0  0  0  0  0  0  0  0  0  0  0  # atno 17343 bound_to 10162
  156.0465  130.3727  150.1305 LP  0  0  0  0  0  0  0  0  0  0  0  0  # atno 17370 bound_to 10713
  156.9487  130.9768  151.3502 LP  0  0  0  0  0  0  0  0  0  0  0  0  # atno 17371 bound_to 10713
  141.0149  133.7074  156.1172 LP  0  0  0  0  0  0  0  0  0  0  0  0  # atno 17394 bound_to 11000
  140.7315  134.4249  157.5565 LP  0  0  0  0  0  0  0  0  0  0  0  0  # atno 17395 bound_to 11000

$$$$
