AV-unprocessed.smi:3335|AV-procd|sdf|12851|dock7
  -GOLD-   2272019243D 1   1.00000     0.00000
 Structure written by MMmdl.
 46 47  0  0  0  0  0  0  0  0  1 V2000
  146.5071  142.5130  153.8173 C   0  0  0  0  0  0  0  0  0  0  0  0
  147.5940  141.5044  154.0501 C   0  0  0  0  0  0  0  0  0  0  0  0
  147.6422  140.1504  153.6139 C   0  0  0  0  0  0  0  0  0  0  0  0
  148.7280  139.5166  154.0250 N   0  0  0  0  0  0  0  0  0  0  0  0
  149.4266  140.4471  154.7138 N   0  0  0  0  0  0  0  0  0  0  0  0
  150.6796  140.0985  155.3791 C   0  0  2  0  0  0  0  0  0  0  0  0
  151.2559  138.7917  154.7979 C   0  0  0  0  0  0  0  0  0  0  0  0
  150.5192  140.0553  156.9262 C   0  0  1  0  0  0  0  0  0  0  0  0
  149.6613  138.8722  157.4057 C   0  0  0  0  0  0  0  0  0  0  0  0
  151.8312  139.8916  157.5521 N   0  0  0  0  0  0  0  0  0  0  0  0
  151.9886  140.6480  158.8075 C   0  0  1  0  0  0  0  0  0  0  0  0
  153.2850  140.2305  159.5249 C   0  0  0  0  0  0  0  0  0  0  0  0
  151.9927  142.1652  158.5314 C   0  0  0  0  0  0  0  0  0  0  0  0
  151.8748  142.5646  157.3713 O   0  0  0  0  0  0  0  0  0  0  0  0
  152.1075  143.0253  159.5677 N   0  0  0  0  0  0  0  0  0  0  0  0
  152.0528  144.4779  159.4104 C   0  0  0  0  0  0  0  0  0  0  0  0
  151.9622  145.0476  160.8259 C   0  0  0  0  0  0  0  0  0  0  0  0
  152.6206  143.9852  161.6931 C   0  0  0  0  0  0  0  0  0  0  0  0
  152.3077  142.6735  160.9742 C   0  0  0  0  0  0  0  0  0  0  0  0
  148.7617  141.6558  154.7413 C   0  0  0  0  0  0  0  0  0  0  0  0
  145.5964  142.0478  153.4395 H   0  0  0  0  0  0  0  0  0  0  0  0
  146.8085  143.2692  153.0925 H   0  0  0  0  0  0  0  0  0  0  0  0
  146.2408  143.0342  154.7372 H   0  0  0  0  0  0  0  0  0  0  0  0
  146.9128  139.6062  153.0324 H   0  0  0  0  0  0  0  0  0  0  0  0
  151.3883  140.8920  155.1361 H   0  0  0  0  0  0  0  0  0  0  0  0
  152.2789  138.6212  155.1320 H   0  0  0  0  0  0  0  0  0  0  0  0
  151.2798  138.8262  153.7082 H   0  0  0  0  0  0  0  0  0  0  0  0
  150.6622  137.9253  155.0907 H   0  0  0  0  0  0  0  0  0  0  0  0
  150.0354  140.9715  157.2692 H   0  0  0  0  0  0  0  0  0  0  0  0
  148.6311  138.9585  157.0613 H   0  0  0  0  0  0  0  0  0  0  0  0
  149.6267  138.8290  158.4950 H   0  0  0  0  0  0  0  0  0  0  0  0
  150.0551  137.9200  157.0480 H   0  0  0  0  0  0  0  0  0  0  0  0
  152.5386  140.1491  156.8788 H   0  0  0  0  0  0  0  0  0  0  0  0
  151.1395  140.4235  159.4511 H   0  0  0  0  0  0  0  0  0  0  0  0
  153.4335  140.7947  160.4458 H   0  0  0  0  0  0  0  0  0  0  0  0
  154.1592  140.3942  158.8935 H   0  0  0  0  0  0  0  0  0  0  0  0
  153.2669  139.1744  159.7940 H   0  0  0  0  0  0  0  0  0  0  0  0
  152.9658  144.8164  158.9184 H   0  0  0  0  0  0  0  0  0  0  0  0
  151.2026  144.7933  158.8033 H   0  0  0  0  0  0  0  0  0  0  0  0
  152.4354  146.0254  160.9203 H   0  0  0  0  0  0  0  0  0  0  0  0
  150.9151  145.1536  161.1125 H   0  0  0  0  0  0  0  0  0  0  0  0
  153.6994  144.1456  161.7103 H   0  0  0  0  0  0  0  0  0  0  0  0
  152.2633  143.9981  162.7232 H   0  0  0  0  0  0  0  0  0  0  0  0
  151.3894  142.2415  161.3706 H   0  0  0  0  0  0  0  0  0  0  0  0
  153.1124  141.9509  161.1123 H   0  0  0  0  0  0  0  0  0  0  0  0
  149.1612  142.5115  155.2654 H   0  0  0  0  0  0  0  0  0  0  0  0
  1  2  1  0  0  0  0
  1 21  1  0  0  0  0
  1 22  1  0  0  0  0
  1 23  1  0  0  0  0
  2 20  2  0  0  0  0
  2  3  1  0  0  0  0
  3  4  2  0  0  0  0
  3 24  1  0  0  0  0
  4  5  1  0  0  0  0
  5  6  1  0  0  0  0
  5 20  1  0  0  0  0
  6  7  1  0  0  0  0
  6  8  1  0  0  0  0
  6 25  1  0  0  0  0
  7 26  1  0  0  0  0
  7 27  1  0  0  0  0
  7 28  1  0  0  0  0
  8  9  1  0  0  0  0
  8 10  1  0  0  0  0
  8 29  1  0  0  0  0
  9 30  1  0  0  0  0
  9 31  1  0  0  0  0
  9 32  1  0  0  0  0
 10 11  1  0  0  0  0
 10 33  1  0  0  0  0
 11 12  1  0  0  0  0
 11 13  1  0  0  0  0
 11 34  1  0  0  0  0
 12 35  1  0  0  0  0
 12 36  1  0  0  0  0
 12 37  1  0  0  0  0
 13 14  2  0  0  0  0
 13 15  1  0  0  0  0
 15 19  1  0  0  0  0
 15 16  1  0  0  0  0
 16 17  1  0  0  0  0
 16 38  1  0  0  0  0
 16 39  1  0  0  0  0
 17 18  1  0  0  0  0
 17 40  1  0  0  0  0
 17 41  1  0  0  0  0
 18 19  1  0  0  0  0
 18 42  1  0  0  0  0
 18 43  1  0  0  0  0
 19 44  1  0  0  0  0
 19 45  1  0  0  0  0
 20 46  1  0  0  0  0
M  END
> <s_m_source_file>
AV-unprocessed.smi

> <i_m_source_file_index>
3335

> <i_lp_mmshare_version>
43012

> <i_f3d_flags>
0

> <s_epik_input>
W0NIM11jMVtjSF1ubihbY0hdMSlbQ0BIXShbQ0gzXSlbQ0BIXShbQ0gzXSlbTkhdW0NASF0oW0NIM10pQyg9TylOMltDSDJdW0NIMl1bQ0gyXVtDSDJdMg==

> <s_epik_cmdline>
J2VwaWtfcHl0aG9uJywgJy1waCcsICc3LjAnLCAnLXRuJywgJzgnLCAnLW1hJywgJzIwMCcsICctbWV0YWxfYmluZGluZycsICctaW1hZScsICc8aW5maWxlLm1hZT4nLCAnLW9tYWUnLCAnPG91dGZpbGUubWFlPic=

> <r_lp_tautomer_probability>
1

> <r_epik_Ionization_Penalty>
0.918803

> <r_epik_Ionization_Penalty_Charging>
0

> <r_epik_Ionization_Penalty_Neutral>
0.918803

> <r_epik_State_Penalty>
0.958258

> <r_epik_Charging_Adjusted_Penalty>
0.958258

> <i_epik_Tot_Q>
0

> <i_epik_Tot_abs_Q>
0

> <r_epik_Metal_State_Penalty>
0.956786

> <b_epik_Metal_Only>
0

> <s_lp_Force_Field>
OPLS_2005

> <r_lp_Energy>
36.8756

> <b_lp_Chiralities_Consistent>
1

> <s_lp_Variant>
AV-unprocessed.smi:3335-15

> <Gold.Version>
5.8.1

> <Gold.Id.Protein>
6NUR|6NUR_protein|mol2

> <Gold.PLP.Fitness>
43.6119

> <Gold.PLP.PLP>
-42.3022

> <Gold.PLP.part.hbond>
0.0000

> <Gold.PLP.part.metal>
0.0000

> <Gold.PLP.part.buried>
-0.7808

> <Gold.PLP.part.nonpolar>
-41.7234

> <Gold.PLP.part.repulsive>
1.0407

> <Gold.PLP.ligand.clash>
0.0000

> <Gold.PLP.ligand.torsion>
0.9130

> <Gold.PLP.Chemscore.Hbond>
0.0000

> <Gold.PLP.Chemscore.CHOScore>
1.0000

> <Gold.PLP.Chemscore.Metal>
0.0000

> <Gold.Chemscore.Hbonds>
donor molecule, donor type, donor heavy atom, donor atom, acceptor molecule, acceptor atom, score
      L1  C    20    46       P1  8028  1.00

> <Gold.PLP.Chemscore.Internal.Correction>
0.1357

> <Gold.Rescore>
     Score         DG    S(hbond)    S(metal)    S(lipo)     H(rot)  DE(clash)    DE(int)     intcor
     10.90     -14.21       0.00        0.00     110.06       1.62       1.48       1.83       ----

> <Gold.Chemscore.Fitness>
10.8964

> <Gold.Chemscore.DG>
-14.2086

> <Gold.Chemscore.ZeroCoef>
-5.4800

> <Gold.Chemscore.Hbond>
0.0000

> <Gold.Chemscore.Metal>
0.0000

> <Gold.Chemscore.Lipo>
110.0578

> <Gold.Chemscore.Internal_Hbond>
0.0000

> <Gold.Chemscore.DEClash>
1.4846

> <Gold.Chemscore.DEInternal>
1.8275

> <Gold.Chemscore.Rot>
1.6204

> <Gold.Chemscore.Internal.Correction>
   9.000000E+99

> <Gold.Chemscore.Hbond.Weighted>
-0.0000

> <Gold.Chemscore.Metal.Weighted>
-0.0000

> <Gold.Chemscore.Lipo.Weighted>
-12.8768

> <Gold.Chemscore.Internal_Hbond.Weighted>
0.0000

> <Gold.Chemscore.DEClash.Weighted>
1.4846

> <Gold.Chemscore.DEInternal.Weighted>
1.8275

> <Gold.Chemscore.Rot.Weighted>
4.1482

> <Gold.Chemscore.Internal.Correction.Weighted>
   9.000000E+99

> <Gold.Protein.RotatedTorsions>
[ 6907 6896 6895 6894 ] final  -24.12 input  -60.11 | X-H torsion
[ 7974 7965 7964 7962 ] final   29.33 input  175.53 | X-H torsion
[ 8008 7997 7996 7995 ] final  101.31 input   59.86 | X-H torsion
[ 10167 10162 10161 10158 ] final   12.33 input  -65.29 | X-H torsion
[ 10718 10713 10712 10709 ] final   93.11 input   66.30 | X-H torsion
[ 10763 10752 10751 10750 ] final -114.88 input  -60.55 | X-H torsion
[ 11005 11000 10999 10996 ] final   57.99 input  -57.11 | X-H torsion

> <Gold.Protein.ActiveResidues>
 VAL166  LYS551  ARG553  GLY616  TRP617  ASP618  TYR619  PRO620  LYS621  CYS622 
 ASP623  PHE694  ASN695  SER759  ASP760  ASP761  ALA762  ILE779  LEU786  VAL792 
 PHE793  MET794  SER795  GLU796  ALA797  LYS798  CYS799  TRP800  GLU811  SER814 

> <Gold.Protein.RotatedAtoms>
  151.1941  135.0415  159.8844 H   0  0  0  0  0  0  0  0  0  0  0  0  # atno 6907 bound_to 6896
  152.5437  134.0924  159.8292 H   0  0  0  0  0  0  0  0  0  0  0  0  # atno 6908 bound_to 6896
  151.1056  133.5164  159.2640 H   0  0  0  0  0  0  0  0  0  0  0  0  # atno 6909 bound_to 6896
  146.1677  139.6936  142.8989 H   0  0  0  0  0  0  0  0  0  0  0  0  # atno 7974 bound_to 7965
  156.1287  140.3199  155.8316 H   0  0  0  0  0  0  0  0  0  0  0  0  # atno 8008 bound_to 7997
  155.4372  140.0523  157.3030 H   0  0  0  0  0  0  0  0  0  0  0  0  # atno 8009 bound_to 7997
  154.4882  140.2081  155.9620 H   0  0  0  0  0  0  0  0  0  0  0  0  # atno 8010 bound_to 7997
  140.6075  143.8478  150.7029 H   0  0  0  0  0  0  0  0  0  0  0  0  # atno 10167 bound_to 10162
  157.6956  131.0466  150.3983 H   0  0  0  0  0  0  0  0  0  0  0  0  # atno 10718 bound_to 10713
  154.8458  135.4402  154.1575 H   0  0  0  0  0  0  0  0  0  0  0  0  # atno 10763 bound_to 10752
  153.2720  135.6946  153.7477 H   0  0  0  0  0  0  0  0  0  0  0  0  # atno 10764 bound_to 10752
  153.6714  135.3418  155.3129 H   0  0  0  0  0  0  0  0  0  0  0  0  # atno 10765 bound_to 10752
  140.0411  134.5872  155.9381 H   0  0  0  0  0  0  0  0  0  0  0  0  # atno 11005 bound_to 11000
  145.4422  141.0423  143.2851 LP  0  0  0  0  0  0  0  0  0  0  0  0  # atno 17320 bound_to 7965
  144.8117  139.5950  143.7026 LP  0  0  0  0  0  0  0  0  0  0  0  0  # atno 17321 bound_to 7965
  140.2038  143.3938  152.1771 LP  0  0  0  0  0  0  0  0  0  0  0  0  # atno 17342 bound_to 10162
  139.5336  144.7185  151.4971 LP  0  0  0  0  0  0  0  0  0  0  0  0  # atno 17343 bound_to 10162
  156.4379  130.3985  149.6716 LP  0  0  0  0  0  0  0  0  0  0  0  0  # atno 17370 bound_to 10713
  156.3910  130.7627  151.2628 LP  0  0  0  0  0  0  0  0  0  0  0  0  # atno 17371 bound_to 10713
  141.1883  133.6562  156.5320 LP  0  0  0  0  0  0  0  0  0  0  0  0  # atno 17394 bound_to 11000
  140.4068  134.7308  157.4812 LP  0  0  0  0  0  0  0  0  0  0  0  0  # atno 17395 bound_to 11000

$$$$
