AV-unprocessed.smi:1794|AV-procd|sdf|7232|dock1
  -GOLD-   22720 8473D 1   1.00000     0.00000
 Structure written by MMmdl.
 54 56  0  0  0  0  0  0  0  0  1 V2000
  149.8432  139.1824  154.1643 C   0  0  0  0  0  0  0  0  0  0  0  0
  150.1819  138.5389  155.5334 C   0  0  0  0  0  0  0  0  0  0  0  0
  148.8418  138.1317  156.1923 C   0  0  0  0  0  0  0  0  0  0  0  0
  150.9577  137.2274  155.2170 C   0  0  0  0  0  0  0  0  0  0  0  0
  150.1207  136.2413  154.5346 N   0  0  0  0  0  0  0  0  0  0  0  0
  150.1070  134.9224  154.7696 C   0  0  0  0  0  0  0  0  0  0  0  0
  150.8355  134.3668  155.5913 O   0  0  0  0  0  0  0  0  0  0  0  0
  149.2069  134.3069  153.9850 N   0  0  0  0  0  0  0  0  0  0  0  0
  148.9301  132.9148  153.8642 C   0  0  0  0  0  0  0  0  0  0  0  0
  149.7907  131.9069  154.3641 C   0  0  0  0  0  0  0  0  0  0  0  0
  149.4273  130.5568  154.2089 C   0  0  0  0  0  0  0  0  0  0  0  0
  148.2109  130.2603  153.5686 C   0  0  0  0  0  0  0  0  0  0  0  0
  147.3723  131.2076  153.1021 N   0  0  0  0  0  0  0  0  0  0  0  0
  147.7182  132.5101  153.2476 C   0  0  0  0  0  0  0  0  0  0  0  0
  146.8235  133.4810  152.7629 N   0  0  0  0  0  0  0  0  0  0  0  0
  146.5071  133.4073  151.3467 C   0  0  0  0  0  0  0  0  0  0  0  0
  145.2882  134.3132  151.1634 C   0  0  0  0  0  0  0  0  0  0  0  0
  144.6240  134.3599  152.5454 C   0  0  0  0  0  0  0  0  0  0  0  0
  145.5497  133.5500  153.4589 C   0  0  0  0  0  0  0  0  0  0  0  0
  150.9874  139.4670  156.3767 N   0  0  0  0  0  0  0  0  0  0  0  0
  151.4509  138.9011  157.6495 C   0  0  0  0  0  0  0  0  0  0  0  0
  152.3753  139.8676  158.4095 C   0  0  0  0  0  0  0  0  0  0  0  0
  151.7022  141.1009  158.6291 O   0  0  0  0  0  0  0  0  0  0  0  0
  151.2871  141.7150  157.4152 C   0  0  0  0  0  0  0  0  0  0  0  0
  150.3554  140.7642  156.6443 C   0  0  0  0  0  0  0  0  0  0  0  0
  149.4098  138.4549  153.4770 H   0  0  0  0  0  0  0  0  0  0  0  0
  150.7304  139.5940  153.6819 H   0  0  0  0  0  0  0  0  0  0  0  0
  149.1135  139.9871  154.2536 H   0  0  0  0  0  0  0  0  0  0  0  0
  148.2742  137.4640  155.5430 H   0  0  0  0  0  0  0  0  0  0  0  0
  148.2021  138.9911  156.3914 H   0  0  0  0  0  0  0  0  0  0  0  0
  148.9899  137.6023  157.1333 H   0  0  0  0  0  0  0  0  0  0  0  0
  151.8278  137.4232  154.5910 H   0  0  0  0  0  0  0  0  0  0  0  0
  151.3729  136.8129  156.1376 H   0  0  0  0  0  0  0  0  0  0  0  0
  149.4811  136.6030  153.8423 H   0  0  0  0  0  0  0  0  0  0  0  0
  148.7309  134.8951  153.3166 H   0  0  0  0  0  0  0  0  0  0  0  0
  150.7119  132.1405  154.8744 H   0  0  0  0  0  0  0  0  0  0  0  0
  150.0647  129.7667  154.5773 H   0  0  0  0  0  0  0  0  0  0  0  0
  147.8993  129.2352  153.4345 H   0  0  0  0  0  0  0  0  0  0  0  0
  147.3487  133.7378  150.7371 H   0  0  0  0  0  0  0  0  0  0  0  0
  146.2609  132.3842  151.0588 H   0  0  0  0  0  0  0  0  0  0  0  0
  145.6064  135.3154  150.8737 H   0  0  0  0  0  0  0  0  0  0  0  0
  144.6178  133.9399  150.3885 H   0  0  0  0  0  0  0  0  0  0  0  0
  144.5515  135.3921  152.8905 H   0  0  0  0  0  0  0  0  0  0  0  0
  143.6169  133.9424  152.5325 H   0  0  0  0  0  0  0  0  0  0  0  0
  145.1443  132.5491  153.6128 H   0  0  0  0  0  0  0  0  0  0  0  0
  145.6626  134.0215  154.4355 H   0  0  0  0  0  0  0  0  0  0  0  0
  150.6003  138.6555  158.2856 H   0  0  0  0  0  0  0  0  0  0  0  0
  152.0029  137.9772  157.4878 H   0  0  0  0  0  0  0  0  0  0  0  0
  152.6604  139.4417  159.3715 H   0  0  0  0  0  0  0  0  0  0  0  0
  153.2963  140.0405  157.8503 H   0  0  0  0  0  0  0  0  0  0  0  0
  150.7699  142.6463  157.6464 H   0  0  0  0  0  0  0  0  0  0  0  0
  152.1592  141.9734  156.8124 H   0  0  0  0  0  0  0  0  0  0  0  0
  150.0731  141.2584  155.7166 H   0  0  0  0  0  0  0  0  0  0  0  0
  149.4410  140.6268  157.2218 H   0  0  0  0  0  0  0  0  0  0  0  0
  1  2  1  0  0  0  0
  1 26  1  0  0  0  0
  1 27  1  0  0  0  0
  1 28  1  0  0  0  0
  2  3  1  0  0  0  0
  2  4  1  0  0  0  0
  2 20  1  0  0  0  0
  3 29  1  0  0  0  0
  3 30  1  0  0  0  0
  3 31  1  0  0  0  0
  4  5  1  0  0  0  0
  4 32  1  0  0  0  0
  4 33  1  0  0  0  0
  5  6  1  0  0  0  0
  5 34  1  0  0  0  0
  6  7  2  0  0  0  0
  6  8  1  0  0  0  0
  8  9  1  0  0  0  0
  8 35  1  0  0  0  0
  9 14  1  0  0  0  0
  9 10  2  0  0  0  0
 10 11  1  0  0  0  0
 10 36  1  0  0  0  0
 11 12  2  0  0  0  0
 11 37  1  0  0  0  0
 12 13  1  0  0  0  0
 12 38  1  0  0  0  0
 13 14  2  0  0  0  0
 14 15  1  0  0  0  0
 15 19  1  0  0  0  0
 15 16  1  0  0  0  0
 16 17  1  0  0  0  0
 16 39  1  0  0  0  0
 16 40  1  0  0  0  0
 17 18  1  0  0  0  0
 17 41  1  0  0  0  0
 17 42  1  0  0  0  0
 18 19  1  0  0  0  0
 18 43  1  0  0  0  0
 18 44  1  0  0  0  0
 19 45  1  0  0  0  0
 19 46  1  0  0  0  0
 20 25  1  0  0  0  0
 20 21  1  0  0  0  0
 21 22  1  0  0  0  0
 21 47  1  0  0  0  0
 21 48  1  0  0  0  0
 22 23  1  0  0  0  0
 22 49  1  0  0  0  0
 22 50  1  0  0  0  0
 23 24  1  0  0  0  0
 24 25  1  0  0  0  0
 24 51  1  0  0  0  0
 24 52  1  0  0  0  0
 25 53  1  0  0  0  0
 25 54  1  0  0  0  0
M  END
> <s_m_source_file>
AV-unprocessed.smi

> <i_m_source_file_index>
1794

> <i_lp_mmshare_version>
43012

> <i_f3d_flags>
0

> <s_epik_input>
W0NIMl0xW0NIMl1PW0NIMl1bQ0gyXU4xQyhbQ0gzXSkoW0NIM10pW0NIMl1bTkhdQyg9TylbTkhdYzJbY0hdW2NIXVtjSF1uYzJOM1tDSDJdW0NIMl1bQ0gyXVtDSDJdMw==

> <s_epik_cmdline>
J2VwaWtfcHl0aG9uJywgJy1waCcsICc3LjAnLCAnLXRuJywgJzgnLCAnLW1hJywgJzIwMCcsICctbWV0YWxfYmluZGluZycsICctaW1hZScsICc8aW5maWxlLm1hZT4nLCAnLW9tYWUnLCAnPG91dGZpbGUubWFlPic=

> <r_lp_tautomer_probability>
1

> <r_epik_Ionization_Penalty>
0.366523

> <r_epik_Ionization_Penalty_Charging>
0

> <r_epik_Ionization_Penalty_Neutral>
0.366523

> <r_epik_State_Penalty>
0.351681

> <r_epik_Charging_Adjusted_Penalty>
0.351681

> <i_epik_Tot_Q>
0

> <i_epik_Tot_abs_Q>
0

> <r_epik_Metal_State_Penalty>
0.334668

> <b_epik_Metal_Only>
0

> <s_lp_Force_Field>
OPLS_2005

> <r_lp_Energy>
72.3516

> <b_lp_Chiralities_Consistent>
1

> <s_lp_Variant>
AV-unprocessed.smi:1794-1

> <Gold.Version>
5.8.1

> <Gold.Id.Protein>
6NUR|6NUR_protein|mol2

> <Gold.PLP.Fitness>
41.5078

> <Gold.PLP.PLP>
-36.2445

> <Gold.PLP.part.hbond>
-2.4927

> <Gold.PLP.part.metal>
0.0000

> <Gold.PLP.part.buried>
-4.9146

> <Gold.PLP.part.nonpolar>
-29.3553

> <Gold.PLP.part.repulsive>
0.4145

> <Gold.PLP.ligand.clash>
0.0000

> <Gold.PLP.ligand.torsion>
0.3013

> <Gold.PLP.Chemscore.Hbond>
1.8960

> <Gold.PLP.Chemscore.CHOScore>
0.0000

> <Gold.PLP.Chemscore.Metal>
0.0000

> <Gold.Chemscore.Hbonds>
donor molecule, donor type, donor heavy atom, donor atom, acceptor molecule, acceptor atom, score
      L1  H     5    34       P1  7948  0.71
      L1  H     8    35       P1  7948  0.88

> <Gold.PLP.Chemscore.Internal.Correction>
0.1780

> <Gold.Rescore>
     Score         DG    S(hbond)    S(metal)    S(lipo)     H(rot)  DE(clash)    DE(int)     intcor
     13.26     -14.92       1.23        0.00      79.47       1.55       0.08       1.58       ----

> <Gold.Chemscore.Fitness>
13.2573

> <Gold.Chemscore.DG>
-14.9223

> <Gold.Chemscore.ZeroCoef>
-5.4800

> <Gold.Chemscore.Hbond>
1.2304

> <Gold.Chemscore.Metal>
0.0000

> <Gold.Chemscore.Lipo>
79.4740

> <Gold.Chemscore.Internal_Hbond>
0.0000

> <Gold.Chemscore.DEClash>
0.0820

> <Gold.Chemscore.DEInternal>
1.5830

> <Gold.Chemscore.Rot>
1.5491

> <Gold.Chemscore.Internal.Correction>
   9.000000E+99

> <Gold.Chemscore.Hbonds>
donor molecule, donor type, donor heavy atom, donor atom, acceptor molecule, acceptor atom, score
      L1  H     5    34       P1  7948  0.57
      L1  H     8    35       P1  7948  0.38

> <Gold.Chemscore.Hbond.Weighted>
-4.1096

> <Gold.Chemscore.Metal.Weighted>
-0.0000

> <Gold.Chemscore.Lipo.Weighted>
-9.2985

> <Gold.Chemscore.Internal_Hbond.Weighted>
0.0000

> <Gold.Chemscore.DEClash.Weighted>
0.0820

> <Gold.Chemscore.DEInternal.Weighted>
1.5830

> <Gold.Chemscore.Rot.Weighted>
3.9657

> <Gold.Chemscore.Internal.Correction.Weighted>
   9.000000E+99

> <Gold.Protein.RotatedTorsions>
[ 6907 6896 6895 6894 ] final  135.66 input  -60.11 | X-H torsion
[ 7974 7965 7964 7962 ] final  -47.02 input  175.53 | X-H torsion
[ 8008 7997 7996 7995 ] final  -63.83 input   59.86 | X-H torsion
[ 10167 10162 10161 10158 ] final   25.38 input  -65.29 | X-H torsion
[ 10718 10713 10712 10709 ] final   76.63 input   66.30 | X-H torsion
[ 10763 10752 10751 10750 ] final  -91.97 input  -60.55 | X-H torsion
[ 11005 11000 10999 10996 ] final -153.88 input  -57.11 | X-H torsion

> <Gold.Protein.ActiveResidues>
 VAL166  LYS551  ARG553  GLY616  TRP617  ASP618  TYR619  PRO620  LYS621  CYS622 
 ASP623  PHE694  ASN695  SER759  ASP760  ASP761  ALA762  ILE779  LEU786  VAL792 
 PHE793  MET794  SER795  GLU796  ALA797  LYS798  CYS799  TRP800  GLU811  SER814 

> <Gold.Protein.RotatedAtoms>
  152.2980  133.5627  159.5599 H   0  0  0  0  0  0  0  0  0  0  0  0  # atno 6907 bound_to 6896
  150.7265  134.0333  159.3749 H   0  0  0  0  0  0  0  0  0  0  0  0  # atno 6908 bound_to 6896
  151.8234  135.0645  160.0479 H   0  0  0  0  0  0  0  0  0  0  0  0  # atno 6909 bound_to 6896
  145.9659  140.7432  142.9434 H   0  0  0  0  0  0  0  0  0  0  0  0  # atno 7974 bound_to 7965
  154.4576  140.0966  156.6803 H   0  0  0  0  0  0  0  0  0  0  0  0  # atno 8008 bound_to 7997
  155.5090  140.3476  155.4366 H   0  0  0  0  0  0  0  0  0  0  0  0  # atno 8009 bound_to 7997
  156.0809  140.1373  156.9703 H   0  0  0  0  0  0  0  0  0  0  0  0  # atno 8010 bound_to 7997
  140.5111  144.0159  150.6373 H   0  0  0  0  0  0  0  0  0  0  0  0  # atno 10167 bound_to 10162
  157.6681  130.9783  150.1525 H   0  0  0  0  0  0  0  0  0  0  0  0  # atno 10718 bound_to 10713
  154.6814  135.5248  153.8268 H   0  0  0  0  0  0  0  0  0  0  0  0  # atno 10763 bound_to 10752
  153.0567  135.6553  154.0569 H   0  0  0  0  0  0  0  0  0  0  0  0  # atno 10764 bound_to 10752
  154.0456  135.2973  155.3328 H   0  0  0  0  0  0  0  0  0  0  0  0  # atno 10765 bound_to 10752
  140.7033  134.3913  157.5207 H   0  0  0  0  0  0  0  0  0  0  0  0  # atno 11005 bound_to 11000
  144.6825  140.2668  143.7311 LP  0  0  0  0  0  0  0  0  0  0  0  0  # atno 17320 bound_to 7965
  145.7974  139.1951  143.2068 LP  0  0  0  0  0  0  0  0  0  0  0  0  # atno 17321 bound_to 7965
  140.3482  143.2979  152.0516 LP  0  0  0  0  0  0  0  0  0  0  0  0  # atno 17342 bound_to 10162
  139.4896  144.6393  151.6909 LP  0  0  0  0  0  0  0  0  0  0  0  0  # atno 17343 bound_to 10162
  156.2320  130.3683  149.8433 LP  0  0  0  0  0  0  0  0  0  0  0  0  # atno 17370 bound_to 10713
  156.6257  130.8645  151.3485 LP  0  0  0  0  0  0  0  0  0  0  0  0  # atno 17371 bound_to 10713
  139.8891  134.8840  156.2440 LP  0  0  0  0  0  0  0  0  0  0  0  0  # atno 17394 bound_to 11000
  141.0145  133.7076  156.1166 LP  0  0  0  0  0  0  0  0  0  0  0  0  # atno 17395 bound_to 11000

$$$$
