AV-unprocessed.smi:269|AV-procd|sdf|2042|dock4
  -GOLD-   2262021263D 1   1.00000     0.00000
 Structure written by MMmdl.
 62 65  0  0  0  0  0  0  0  0  2 V2000
  146.3149  134.1811  151.0626 C   0  0  0  0  0  0  0  0  0  0  0  0
  145.4882  135.4737  151.0475 C   0  0  0  0  0  0  0  0  0  0  0  0
  146.2126  136.5840  151.6557 N   0  0  0  0  0  0  0  0  0  0  0  0
  145.8816  137.1783  152.8121 C   0  0  0  0  0  0  0  0  0  0  0  0
  144.9224  136.8306  153.5017 O   0  0  0  0  0  0  0  0  0  0  0  0
  146.7824  138.3329  153.2633 C   0  0  0  0  0  0  0  0  0  0  0  0
  148.1364  137.8846  153.6784 N   0  3  0  0  0  0  0  0  0  0  0  0
  148.1283  137.0661  154.9210 C   0  0  0  0  0  0  0  0  0  0  0  0
  149.5405  136.5559  155.2562 C   0  0  0  0  0  0  0  0  0  0  0  0
  150.4861  137.6663  155.3343 N   0  0  0  0  0  0  0  0  0  0  0  0
  150.6392  138.2431  156.5568 C   0  0  0  0  0  0  0  0  0  0  0  0
  150.9511  137.4730  157.6333 N   0  0  0  0  0  0  0  0  0  0  0  0
  151.1200  138.0267  158.8371 C   0  0  0  0  0  0  0  0  0  0  0  0
  151.0220  139.3102  159.1845 N   0  0  0  0  0  0  0  0  0  0  0  0
  150.6925  140.0903  158.1163 C   0  0  0  0  0  0  0  0  0  0  0  0
  150.4881  139.6425  156.7797 C   0  0  0  0  0  0  0  0  0  0  0  0
  150.1662  140.7227  155.9672 N   0  0  0  0  0  0  0  0  0  0  0  0
  150.1957  141.7493  156.7715 C   0  0  0  0  0  0  0  0  0  0  0  0
  150.4855  141.4597  158.0865 N   0  0  0  0  0  0  0  0  0  0  0  0
  150.5857  142.4088  159.1882 C   0  0  0  0  0  0  0  0  0  0  0  0
  152.0316  142.9096  159.5040 C   0  0  0  0  0  0  0  0  0  0  0  0
  152.9482  141.7330  159.9333 C   0  0  0  0  0  0  0  0  0  0  0  0
  154.3029  142.1224  160.0445 O   0  0  0  0  0  0  0  0  0  0  0  0
  152.6850  143.5907  158.2748 C   0  0  0  0  0  0  0  0  0  0  0  0
  152.0518  144.9538  157.9396 C   0  0  0  0  0  0  0  0  0  0  0  0
  152.1273  145.8126  159.0697 O   0  0  0  0  0  0  0  0  0  0  0  0
  151.4046  145.3131  160.1873 C   0  0  0  0  0  0  0  0  0  0  0  0
  151.9971  143.9653  160.6380 C   0  0  0  0  0  0  0  0  0  0  0  0
  150.5140  138.5065  154.1366 C   0  0  0  0  0  0  0  0  0  0  0  0
  149.1044  139.0083  153.7635 C   0  0  0  0  0  0  0  0  0  0  0  0
  145.7712  133.3697  150.5784 H   0  0  0  0  0  0  0  0  0  0  0  0
  146.5405  133.8645  152.0815 H   0  0  0  0  0  0  0  0  0  0  0  0
  147.2597  134.3102  150.5333 H   0  0  0  0  0  0  0  0  0  0  0  0
  145.2508  135.7456  150.0187 H   0  0  0  0  0  0  0  0  0  0  0  0
  144.5346  135.3205  151.5555 H   0  0  0  0  0  0  0  0  0  0  0  0
  147.0204  136.9273  151.1560 H   0  0  0  0  0  0  0  0  0  0  0  0
  146.8672  139.0138  152.4153 H   0  0  0  0  0  0  0  0  0  0  0  0
  146.3119  138.8954  154.0718 H   0  0  0  0  0  0  0  0  0  0  0  0
  147.7436  137.6658  155.7476 H   0  0  0  0  0  0  0  0  0  0  0  0
  147.4572  136.2142  154.8103 H   0  0  0  0  0  0  0  0  0  0  0  0
  149.5079  135.9767  156.1775 H   0  0  0  0  0  0  0  0  0  0  0  0
  149.8806  135.8704  154.4789 H   0  0  0  0  0  0  0  0  0  0  0  0
  151.3699  137.3442  159.6363 H   0  0  0  0  0  0  0  0  0  0  0  0
  149.9974  142.7525  156.4236 H   0  0  0  0  0  0  0  0  0  0  0  0
  149.9221  143.2431  158.9649 H   0  0  0  0  0  0  0  0  0  0  0  0
  150.1556  141.9341  160.0709 H   0  0  0  0  0  0  0  0  0  0  0  0
  152.6241  141.3058  160.8821 H   0  0  0  0  0  0  0  0  0  0  0  0
  152.8962  140.9218  159.2059 H   0  0  0  0  0  0  0  0  0  0  0  0
  154.6584  142.2281  159.1757 H   0  0  0  0  0  0  0  0  0  0  0  0
  153.7440  143.7595  158.4756 H   0  0  0  0  0  0  0  0  0  0  0  0
  152.6561  142.9377  157.4031 H   0  0  0  0  0  0  0  0  0  0  0  0
  152.5905  145.4184  157.1138 H   0  0  0  0  0  0  0  0  0  0  0  0
  151.0159  144.8517  157.6168 H   0  0  0  0  0  0  0  0  0  0  0  0
  151.4776  146.0377  160.9985 H   0  0  0  0  0  0  0  0  0  0  0  0
  150.3453  145.2257  159.9440 H   0  0  0  0  0  0  0  0  0  0  0  0
  151.4373  143.5889  161.4950 H   0  0  0  0  0  0  0  0  0  0  0  0
  153.0108  144.1470  160.9980 H   0  0  0  0  0  0  0  0  0  0  0  0
  151.2030  139.3432  154.2583 H   0  0  0  0  0  0  0  0  0  0  0  0
  150.9135  137.9072  153.3178 H   0  0  0  0  0  0  0  0  0  0  0  0
  149.1490  139.5308  152.8073 H   0  0  0  0  0  0  0  0  0  0  0  0
  148.7507  139.7304  154.5007 H   0  0  0  0  0  0  0  0  0  0  0  0
  148.4710  137.2827  152.9391 H   0  0  0  0  0  0  0  0  0  0  0  0
  1  2  1  0  0  0  0
  1 31  1  0  0  0  0
  1 32  1  0  0  0  0
  1 33  1  0  0  0  0
  2  3  1  0  0  0  0
  2 34  1  0  0  0  0
  2 35  1  0  0  0  0
  3  4  1  0  0  0  0
  3 36  1  0  0  0  0
  4  5  2  0  0  0  0
  4  6  1  0  0  0  0
  6  7  1  0  0  0  0
  6 37  1  0  0  0  0
  6 38  1  0  0  0  0
  7 30  1  0  0  0  0
  7  8  1  0  0  0  0
  7 62  1  0  0  0  0
  8  9  1  0  0  0  0
  8 39  1  0  0  0  0
  8 40  1  0  0  0  0
  9 10  1  0  0  0  0
  9 41  1  0  0  0  0
  9 42  1  0  0  0  0
 10 11  1  0  0  0  0
 10 29  1  0  0  0  0
 11 16  1  0  0  0  0
 11 12  2  0  0  0  0
 12 13  1  0  0  0  0
 13 14  2  0  0  0  0
 13 43  1  0  0  0  0
 14 15  1  0  0  0  0
 15 19  1  0  0  0  0
 15 16  2  0  0  0  0
 16 17  1  0  0  0  0
 17 18  2  0  0  0  0
 18 19  1  0  0  0  0
 18 44  1  0  0  0  0
 19 20  1  0  0  0  0
 20 21  1  0  0  0  0
 20 45  1  0  0  0  0
 20 46  1  0  0  0  0
 21 28  1  0  0  0  0
 21 22  1  0  0  0  0
 21 24  1  0  0  0  0
 22 23  1  0  0  0  0
 22 47  1  0  0  0  0
 22 48  1  0  0  0  0
 23 49  1  0  0  0  0
 24 25  1  0  0  0  0
 24 50  1  0  0  0  0
 24 51  1  0  0  0  0
 25 26  1  0  0  0  0
 25 52  1  0  0  0  0
 25 53  1  0  0  0  0
 26 27  1  0  0  0  0
 27 28  1  0  0  0  0
 27 54  1  0  0  0  0
 27 55  1  0  0  0  0
 28 56  1  0  0  0  0
 28 57  1  0  0  0  0
 29 30  1  0  0  0  0
 29 58  1  0  0  0  0
 29 59  1  0  0  0  0
 30 60  1  0  0  0  0
 30 61  1  0  0  0  0
M  CHG  1   7   1
M  END
> <s_m_source_file>
AV-unprocessed.smi

> <i_m_source_file_index>
269

> <i_lp_mmshare_version>
43012

> <i_f3d_flags>
0

> <s_epik_input>
W0NIM11bQ0gyXVtOSF1DKD1PKVtDSDJdTjFbQ0gyXVtDSDJdTihbQ0gyXVtDSDJdMSljKG5bY0hdbjIpYyhjMjMpbltjSF1uM1tDSDJdQzQoW0NIMl1bT0hdKVtDSDJdW0NIMl1PW0NIMl1bQ0gyXTQ=

> <s_epik_cmdline>
J2VwaWtfcHl0aG9uJywgJy1waCcsICc3LjAnLCAnLXRuJywgJzgnLCAnLW1hJywgJzIwMCcsICctbWV0YWxfYmluZGluZycsICctaW1hZScsICc8aW5maWxlLm1hZT4nLCAnLW9tYWUnLCAnPG91dGZpbGUubWFlPic=

> <r_lp_tautomer_probability>
1

> <r_epik_Ionization_Penalty>
0.146524

> <r_epik_Ionization_Penalty_Charging>
0.146459

> <r_epik_Ionization_Penalty_Neutral>
6.45448e-05

> <r_epik_State_Penalty>
0.136576

> <r_epik_Charging_Adjusted_Penalty>
0.283035

> <i_epik_Tot_Q>
1

> <i_epik_Tot_abs_Q>
1

> <r_epik_Metal_State_Penalty>
0.148847

> <b_epik_Metal_Only>
0

> <s_lp_Force_Field>
OPLS_2005

> <r_lp_Energy>
42.6281

> <b_lp_Chiralities_Consistent>
1

> <s_lp_Variant>
AV-unprocessed.smi:269-1

> <Gold.Version>
5.8.1

> <Gold.Id.Protein>
6NUR|6NUR_protein|mol2

> <Gold.PLP.Fitness>
52.3907

> <Gold.PLP.PLP>
-43.6288

> <Gold.PLP.part.hbond>
-3.6439

> <Gold.PLP.part.metal>
0.0000

> <Gold.PLP.part.buried>
-1.7575

> <Gold.PLP.part.nonpolar>
-38.9532

> <Gold.PLP.part.repulsive>
0.4297

> <Gold.PLP.ligand.clash>
0.0000

> <Gold.PLP.ligand.torsion>
0.8438

> <Gold.PLP.Chemscore.Hbond>
2.2631

> <Gold.PLP.Chemscore.CHOScore>
1.0000

> <Gold.PLP.Chemscore.Metal>
0.0000

> <Gold.Chemscore.Hbonds>
donor molecule, donor type, donor heavy atom, donor atom, acceptor molecule, acceptor atom, score
      L1  H     3    36       P1  7948  0.26
      L1  H     7    62       P1  7948  2.00
      L1  C    18    44       P1  8028  1.00

> <Gold.PLP.Chemscore.Internal.Correction>
0.6601

> <Gold.Rescore>
     Score         DG    S(hbond)    S(metal)    S(lipo)     H(rot)  DE(clash)    DE(int)     intcor
     12.17     -15.61       1.63        0.00     113.81       3.37       1.32       2.12       ----

> <Gold.Chemscore.Fitness>
12.1724

> <Gold.Chemscore.DG>
-15.6084

> <Gold.Chemscore.ZeroCoef>
-5.4800

> <Gold.Chemscore.Hbond>
1.6317

> <Gold.Chemscore.Metal>
0.0000

> <Gold.Chemscore.Lipo>
113.8065

> <Gold.Chemscore.Internal_Hbond>
0.0000

> <Gold.Chemscore.DEClash>
1.3151

> <Gold.Chemscore.DEInternal>
2.1209

> <Gold.Chemscore.Rot>
3.3738

> <Gold.Chemscore.Internal.Correction>
   9.000000E+99

> <Gold.Chemscore.Hbonds>
donor molecule, donor type, donor heavy atom, donor atom, acceptor molecule, acceptor atom, score
      L1  H     3    36       P1  7948  0.25
      L1  H     7    62       P1  7948  0.97

> <Gold.Chemscore.Hbond.Weighted>
-5.4499

> <Gold.Chemscore.Metal.Weighted>
-0.0000

> <Gold.Chemscore.Lipo.Weighted>
-13.3154

> <Gold.Chemscore.Internal_Hbond.Weighted>
0.0000

> <Gold.Chemscore.DEClash.Weighted>
1.3151

> <Gold.Chemscore.DEInternal.Weighted>
2.1209

> <Gold.Chemscore.Rot.Weighted>
8.6369

> <Gold.Chemscore.Internal.Correction.Weighted>
   9.000000E+99

> <Gold.Protein.RotatedTorsions>
[ 6907 6896 6895 6894 ] final  106.59 input  -60.11 | X-H torsion
[ 7974 7965 7964 7962 ] final -102.70 input  175.53 | X-H torsion
[ 8008 7997 7996 7995 ] final   32.04 input   59.86 | X-H torsion
[ 10167 10162 10161 10158 ] final -142.04 input  -65.29 | X-H torsion
[ 10718 10713 10712 10709 ] final  -49.39 input   66.30 | X-H torsion
[ 10763 10752 10751 10750 ] final  -90.99 input  -60.55 | X-H torsion
[ 11005 11000 10999 10996 ] final -128.08 input  -57.11 | X-H torsion

> <Gold.Protein.ActiveResidues>
 VAL166  LYS551  ARG553  GLY616  TRP617  ASP618  TYR619  PRO620  LYS621  CYS622 
 ASP623  PHE694  ASN695  SER759  ASP760  ASP761  ALA762  ILE779  LEU786  VAL792 
 PHE793  MET794  SER795  GLU796  ALA797  LYS798  CYS799  TRP800  GLU811  SER814 

> <Gold.Protein.RotatedAtoms>
  152.5188  133.9359  159.7602 H   0  0  0  0  0  0  0  0  0  0  0  0  # atno 6907 bound_to 6896
  150.9700  133.6346  159.2746 H   0  0  0  0  0  0  0  0  0  0  0  0  # atno 6908 bound_to 6896
  151.3561  135.0900  159.9472 H   0  0  0  0  0  0  0  0  0  0  0  0  # atno 6909 bound_to 6896
  145.2654  140.9282  143.3017 H   0  0  0  0  0  0  0  0  0  0  0  0  # atno 7974 bound_to 7965
  155.1160  140.3243  155.4509 H   0  0  0  0  0  0  0  0  0  0  0  0  # atno 8008 bound_to 7997
  156.2677  140.2035  156.6231 H   0  0  0  0  0  0  0  0  0  0  0  0  # atno 8009 bound_to 7997
  154.6720  140.0535  157.0162 H   0  0  0  0  0  0  0  0  0  0  0  0  # atno 8010 bound_to 7997
  139.8127  143.7681  152.2664 H   0  0  0  0  0  0  0  0  0  0  0  0  # atno 10167 bound_to 10162
  156.1898  130.4152  149.9387 H   0  0  0  0  0  0  0  0  0  0  0  0  # atno 10718 bound_to 10713
  154.6714  135.5284  153.8143 H   0  0  0  0  0  0  0  0  0  0  0  0  # atno 10763 bound_to 10752
  153.0504  135.6530  154.0718 H   0  0  0  0  0  0  0  0  0  0  0  0  # atno 10764 bound_to 10752
  154.0617  135.2961  155.3303 H   0  0  0  0  0  0  0  0  0  0  0  0  # atno 10765 bound_to 10752
  140.9546  134.1019  157.4029 H   0  0  0  0  0  0  0  0  0  0  0  0  # atno 11005 bound_to 11000
  144.9381  139.4220  143.6462 LP  0  0  0  0  0  0  0  0  0  0  0  0  # atno 17320 bound_to 7965
  146.3262  139.8327  142.8905 LP  0  0  0  0  0  0  0  0  0  0  0  0  # atno 17321 bound_to 7965
  139.7835  144.7436  151.0055 LP  0  0  0  0  0  0  0  0  0  0  0  0  # atno 17342 bound_to 10162
  140.7817  143.4517  151.0403 LP  0  0  0  0  0  0  0  0  0  0  0  0  # atno 17343 bound_to 10162
  156.7131  130.8978  151.3611 LP  0  0  0  0  0  0  0  0  0  0  0  0  # atno 17370 bound_to 10713
  157.6922  130.9245  150.0544 LP  0  0  0  0  0  0  0  0  0  0  0  0  # atno 17371 bound_to 10713
  139.8858  135.0075  156.6458 LP  0  0  0  0  0  0  0  0  0  0  0  0  # atno 17394 bound_to 11000
  140.7555  133.8862  155.8378 LP  0  0  0  0  0  0  0  0  0  0  0  0  # atno 17395 bound_to 11000

$$$$
