AV-unprocessed.smi:517|AV-procd|sdf|2790|dock3
  -GOLD-   2262023263D 1   1.00000     0.00000
 Structure written by MMmdl.
 36 37  0  0  0  0  0  0  0  0  2 V2000
  154.2305  137.3254  157.3572 C   0  0  0  0  0  0  0  0  0  0  0  0
  152.8227  136.7836  157.0993 C   0  0  0  0  0  0  0  0  0  0  0  0
  152.4001  137.2135  155.8177 O   0  0  0  0  0  0  0  0  0  0  0  0
  152.2754  138.6231  155.7182 C   0  0  0  0  0  0  0  0  0  0  0  0
  151.4080  139.1376  156.8757 C   0  0  0  0  0  0  0  0  0  0  0  0
  151.1391  140.5785  156.7647 N   0  0  0  0  0  0  0  0  0  0  0  0
  150.3387  141.2664  155.8988 C   0  0  0  0  0  0  0  0  0  0  0  0
  149.5141  140.6984  154.7850 C   0  0  2  0  0  0  0  0  0  0  0  0
  148.4049  139.7922  155.3341 C   0  0  0  0  0  0  0  0  0  0  0  0
  150.2955  139.9594  153.8698 O   0  0  0  0  0  0  0  0  0  0  0  0
  150.4402  142.5875  156.2232 N   0  3  0  0  0  0  0  0  0  0  0  0
  151.2995  142.7444  157.3109 C   0  0  0  0  0  0  0  0  0  0  0  0
  151.7068  143.8863  157.9941 C   0  0  0  0  0  0  0  0  0  0  0  0
  152.5976  143.6954  159.0709 C   0  0  0  0  0  0  0  0  0  0  0  0
  153.0464  142.4086  159.4332 C   0  0  0  0  0  0  0  0  0  0  0  0
  152.6261  141.2585  158.7330 C   0  0  0  0  0  0  0  0  0  0  0  0
  151.7489  141.4567  157.6670 C   0  0  0  0  0  0  0  0  0  0  0  0
  154.5941  137.0159  158.3374 H   0  0  0  0  0  0  0  0  0  0  0  0
  154.2419  138.4151  157.3247 H   0  0  0  0  0  0  0  0  0  0  0  0
  154.9333  136.9598  156.6082 H   0  0  0  0  0  0  0  0  0  0  0  0
  152.8283  135.6938  157.1492 H   0  0  0  0  0  0  0  0  0  0  0  0
  152.1359  137.1475  157.8648 H   0  0  0  0  0  0  0  0  0  0  0  0
  153.2619  139.0877  155.7549 H   0  0  0  0  0  0  0  0  0  0  0  0
  151.8210  138.8947  154.7645 H   0  0  0  0  0  0  0  0  0  0  0  0
  150.4612  138.5995  156.9277 H   0  0  0  0  0  0  0  0  0  0  0  0
  151.9099  138.9637  157.8278 H   0  0  0  0  0  0  0  0  0  0  0  0
  149.0591  141.5162  154.2265 H   0  0  0  0  0  0  0  0  0  0  0  0
  147.7507  140.3424  156.0114 H   0  0  0  0  0  0  0  0  0  0  0  0
  148.8164  138.9450  155.8840 H   0  0  0  0  0  0  0  0  0  0  0  0
  147.7855  139.3970  154.5282 H   0  0  0  0  0  0  0  0  0  0  0  0
  149.8301  139.9128  153.0483 H   0  0  0  0  0  0  0  0  0  0  0  0
  151.3621  144.8727  157.7198 H   0  0  0  0  0  0  0  0  0  0  0  0
  152.9425  144.5525  159.6310 H   0  0  0  0  0  0  0  0  0  0  0  0
  153.7272  142.3012  160.2653 H   0  0  0  0  0  0  0  0  0  0  0  0
  152.9744  140.2775  159.0203 H   0  0  0  0  0  0  0  0  0  0  0  0
  149.9488  143.3241  155.7332 H   0  0  0  0  0  0  0  0  0  0  0  0
  1  2  1  0  0  0  0
  1 18  1  0  0  0  0
  1 19  1  0  0  0  0
  1 20  1  0  0  0  0
  2  3  1  0  0  0  0
  2 21  1  0  0  0  0
  2 22  1  0  0  0  0
  3  4  1  0  0  0  0
  4  5  1  0  0  0  0
  4 23  1  0  0  0  0
  4 24  1  0  0  0  0
  5  6  1  0  0  0  0
  5 25  1  0  0  0  0
  5 26  1  0  0  0  0
  6 17  1  0  0  0  0
  6  7  1  0  0  0  0
  7  8  1  0  0  0  0
  7 11  2  0  0  0  0
  8  9  1  0  0  0  0
  8 10  1  0  0  0  0
  8 27  1  0  0  0  0
  9 28  1  0  0  0  0
  9 29  1  0  0  0  0
  9 30  1  0  0  0  0
 10 31  1  0  0  0  0
 11 12  1  0  0  0  0
 11 36  1  0  0  0  0
 12 17  2  0  0  0  0
 12 13  1  0  0  0  0
 13 14  2  0  0  0  0
 13 32  1  0  0  0  0
 14 15  1  0  0  0  0
 14 33  1  0  0  0  0
 15 16  2  0  0  0  0
 15 34  1  0  0  0  0
 16 17  1  0  0  0  0
 16 35  1  0  0  0  0
M  CHG  1  11   1
M  END
> <s_m_source_file>
AV-unprocessed.smi

> <i_m_source_file_index>
517

> <i_lp_mmshare_version>
43012

> <i_f3d_flags>
0

> <s_epik_input>
W0NIM11bQ0gyXU9bQ0gyXVtDSDJdbihjKG4xKVtDQEhdKFtDSDNdKVtPSF0pYyhjMTIpW2NIXVtjSF1bY0hdW2NIXTI=

> <s_epik_cmdline>
J2VwaWtfcHl0aG9uJywgJy1waCcsICc3LjAnLCAnLXRuJywgJzgnLCAnLW1hJywgJzIwMCcsICctbWV0YWxfYmluZGluZycsICctaW1hZScsICc8aW5maWxlLm1hZT4nLCAnLW9tYWUnLCAnPG91dGZpbGUubWFlPic=

> <r_epik_Ionization_Penalty>
1.46962

> <r_epik_Ionization_Penalty_Charging>
1.46959

> <r_epik_Ionization_Penalty_Neutral>
2.92192e-05

> <r_epik_State_Penalty>
1.55729

> <r_epik_Charging_Adjusted_Penalty>
3.02688

> <i_epik_Tot_Q>
1

> <i_epik_Tot_abs_Q>
1

> <r_epik_Metal_State_Penalty>
5.60569

> <b_epik_Metal_Only>
0

> <s_lp_Force_Field>
OPLS_2005

> <r_lp_Energy>
10.0589

> <b_lp_Chiralities_Consistent>
1

> <s_lp_Variant>
AV-unprocessed.smi:517-3

> <Gold.Version>
5.8.1

> <Gold.Id.Protein>
6NUR|6NUR_protein|mol2

> <Gold.PLP.Fitness>
48.5622

> <Gold.PLP.PLP>
-34.6787

> <Gold.PLP.part.hbond>
-4.0000

> <Gold.PLP.part.metal>
0.0000

> <Gold.PLP.part.buried>
-4.6905

> <Gold.PLP.part.nonpolar>
-26.7228

> <Gold.PLP.part.repulsive>
0.1194

> <Gold.PLP.ligand.clash>
0.0000

> <Gold.PLP.ligand.torsion>
0.1711

> <Gold.PLP.Chemscore.Hbond>
4.7277

> <Gold.PLP.Chemscore.CHOScore>
0.0000

> <Gold.PLP.Chemscore.Metal>
0.0000

> <Gold.Chemscore.Hbonds>
donor molecule, donor type, donor heavy atom, donor atom, acceptor molecule, acceptor atom, score
      L1  H    10    31       P1  7957  1.00
      L1  H    11    36       P1  8028  2.00
      P1  H  7989  7998       L1    10  0.94
      P1  H 10752 10765       L1     3  0.69

> <Gold.PLP.Chemscore.Internal.Correction>
0.0428

> <Gold.Rescore>
     Score         DG    S(hbond)    S(metal)    S(lipo)     H(rot)  DE(clash)    DE(int)     intcor
     19.85     -20.24       2.86        0.00      92.28       2.18       0.01       0.38       ----

> <Gold.Chemscore.Fitness>
19.8497

> <Gold.Chemscore.DG>
-20.2412

> <Gold.Chemscore.ZeroCoef>
-5.4800

> <Gold.Chemscore.Hbond>
2.8577

> <Gold.Chemscore.Metal>
0.0000

> <Gold.Chemscore.Lipo>
92.2795

> <Gold.Chemscore.Internal_Hbond>
0.0000

> <Gold.Chemscore.DEClash>
0.0081

> <Gold.Chemscore.DEInternal>
0.3834

> <Gold.Chemscore.Rot>
2.1797

> <Gold.Chemscore.Internal.Correction>
   9.000000E+99

> <Gold.Chemscore.Hbonds>
donor molecule, donor type, donor heavy atom, donor atom, acceptor molecule, acceptor atom, score
      L1  H    10    31       P1  7957  0.98
      L1  H    11    36       P1  8028  0.98
      P1  H  7989  7998       L1    10  0.21
      P1  H 10752 10765       L1     3  0.13

> <Gold.Chemscore.Hbond.Weighted>
-9.5447

> <Gold.Chemscore.Metal.Weighted>
-0.0000

> <Gold.Chemscore.Lipo.Weighted>
-10.7967

> <Gold.Chemscore.Internal_Hbond.Weighted>
0.0000

> <Gold.Chemscore.DEClash.Weighted>
0.0081

> <Gold.Chemscore.DEInternal.Weighted>
0.3834

> <Gold.Chemscore.Rot.Weighted>
5.5801

> <Gold.Chemscore.Internal.Correction.Weighted>
   9.000000E+99

> <Gold.Protein.RotatedTorsions>
[ 6907 6896 6895 6894 ] final   82.25 input  -60.11 | X-H torsion
[ 7974 7965 7964 7962 ] final  -52.75 input  175.53 | X-H torsion
[ 8008 7997 7996 7995 ] final  133.33 input   59.86 | X-H torsion
[ 10167 10162 10161 10158 ] final -155.51 input  -65.29 | X-H torsion
[ 10718 10713 10712 10709 ] final    1.18 input   66.30 | X-H torsion
[ 10763 10752 10751 10750 ] final -170.31 input  -60.55 | X-H torsion
[ 11005 11000 10999 10996 ] final   23.54 input  -57.11 | X-H torsion

> <Gold.Protein.ActiveResidues>
 VAL166  LYS551  ARG553  GLY616  TRP617  ASP618  TYR619  PRO620  LYS621  CYS622 
 ASP623  PHE694  ASN695  SER759  ASP760  ASP761  ALA762  ILE779  LEU786  VAL792 
 PHE793  MET794  SER795  GLU796  ALA797  LYS798  CYS799  TRP800  GLU811  SER814 

> <Gold.Protein.RotatedAtoms>
  152.5293  134.3078  159.9102 H   0  0  0  0  0  0  0  0  0  0  0  0  # atno 6907 bound_to 6896
  151.3028  133.4108  159.2648 H   0  0  0  0  0  0  0  0  0  0  0  0  # atno 6908 bound_to 6896
  151.0104  134.9409  159.8061 H   0  0  0  0  0  0  0  0  0  0  0  0  # atno 6909 bound_to 6896
  145.9045  140.7967  142.9726 H   0  0  0  0  0  0  0  0  0  0  0  0  # atno 7974 bound_to 7965
  156.2991  140.2524  156.3236 H   0  0  0  0  0  0  0  0  0  0  0  0  # atno 8008 bound_to 7997
  154.9212  140.0400  157.2018 H   0  0  0  0  0  0  0  0  0  0  0  0  # atno 8009 bound_to 7997
  154.8309  140.2875  155.5727 H   0  0  0  0  0  0  0  0  0  0  0  0  # atno 8010 bound_to 7997
  139.6925  143.9396  152.2392 H   0  0  0  0  0  0  0  0  0  0  0  0  # atno 10167 bound_to 10162
  156.8444  130.5532  149.5675 H   0  0  0  0  0  0  0  0  0  0  0  0  # atno 10718 bound_to 10713
  154.6429  135.2901  155.0082 H   0  0  0  0  0  0  0  0  0  0  0  0  # atno 10763 bound_to 10752
  154.1202  135.6549  153.4905 H   0  0  0  0  0  0  0  0  0  0  0  0  # atno 10764 bound_to 10752
  153.0336  135.5286  154.7303 H   0  0  0  0  0  0  0  0  0  0  0  0  # atno 10765 bound_to 10752
  140.3685  134.2048  155.7668 H   0  0  0  0  0  0  0  0  0  0  0  0  # atno 11005 bound_to 11000
  144.6738  140.1728  143.7413 LP  0  0  0  0  0  0  0  0  0  0  0  0  # atno 17320 bound_to 7965
  145.8750  139.2292  143.1639 LP  0  0  0  0  0  0  0  0  0  0  0  0  # atno 17321 bound_to 7965
  139.9217  144.6796  150.8455 LP  0  0  0  0  0  0  0  0  0  0  0  0  # atno 17342 bound_to 10162
  140.7687  143.3370  151.2287 LP  0  0  0  0  0  0  0  0  0  0  0  0  # atno 17343 bound_to 10162
  156.0863  130.5860  150.9653 LP  0  0  0  0  0  0  0  0  0  0  0  0  # atno 17370 bound_to 10713
  157.6338  131.0918  150.8389 LP  0  0  0  0  0  0  0  0  0  0  0  0  # atno 17371 bound_to 10713
  141.1962  133.8088  157.0682 LP  0  0  0  0  0  0  0  0  0  0  0  0  # atno 17394 bound_to 11000
  140.0570  134.9775  157.1238 LP  0  0  0  0  0  0  0  0  0  0  0  0  # atno 17395 bound_to 11000

$$$$
