AV-unprocessed.smi:3345|AV-procd|sdf|12901|dock6
  -GOLD-   2272019313D 1   1.00000     0.00000
 Structure written by MMmdl.
 40 41  0  0  0  0  0  0  0  0  1 V2000
  151.3841  140.5853  156.0411 C   0  0  0  0  0  0  0  0  0  0  0  0
  150.4970  141.8086  156.3200 C   0  0  2  0  0  0  0  0  0  0  0  0
  149.8483  141.7316  157.7195 C   0  0  0  0  0  0  0  0  0  0  0  0
  150.6608  142.2659  158.8128 N   0  0  0  0  0  0  0  0  0  0  0  0
  151.7954  141.4074  159.1460 C   0  0  0  0  0  0  0  0  0  0  0  0
  152.6512  141.9998  160.2793 C   0  0  0  0  0  0  0  0  0  0  0  0
  153.0897  143.3049  159.9168 O   0  0  0  0  0  0  0  0  0  0  0  0
  152.0089  144.1870  159.6326 C   0  0  0  0  0  0  0  0  0  0  0  0
  151.1537  143.6022  158.4952 C   0  0  0  0  0  0  0  0  0  0  0  0
  149.4586  141.8750  155.2941 N   0  0  0  0  0  0  0  0  0  0  0  0
  148.7491  140.8332  154.8319 C   0  0  0  0  0  0  0  0  0  0  0  0
  148.9105  139.6775  155.2252 O   0  0  0  0  0  0  0  0  0  0  0  0
  147.6870  141.1511  153.7701 C   0  0  1  0  0  0  0  0  0  0  0  0
  147.0339  139.8717  153.2089 C   0  0  0  0  0  0  0  0  0  0  0  0
  146.7120  142.0925  154.3092 N   0  0  0  0  0  0  0  0  0  0  0  0
  146.3633  143.3051  153.8731 C   0  0  0  0  0  0  0  0  0  0  0  0
  145.4733  143.9196  154.6399 N   0  0  0  0  0  0  0  0  0  0  0  0
  145.3149  142.9707  155.6095 C   0  0  0  0  0  0  0  0  0  0  0  0
  146.0422  141.8631  155.4667 N   0  0  0  0  0  0  0  0  0  0  0  0
  152.1915  140.5118  156.7701 H   0  0  0  0  0  0  0  0  0  0  0  0
  151.8418  140.6477  155.0533 H   0  0  0  0  0  0  0  0  0  0  0  0
  150.8102  139.6589  156.0848 H   0  0  0  0  0  0  0  0  0  0  0  0
  151.1361  142.6930  156.2785 H   0  0  0  0  0  0  0  0  0  0  0  0
  148.8634  142.2021  157.7123 H   0  0  0  0  0  0  0  0  0  0  0  0
  149.6599  140.6792  157.9358 H   0  0  0  0  0  0  0  0  0  0  0  0
  151.4456  140.4231  159.4553 H   0  0  0  0  0  0  0  0  0  0  0  0
  152.4182  141.2574  158.2628 H   0  0  0  0  0  0  0  0  0  0  0  0
  152.0817  142.0456  161.2090 H   0  0  0  0  0  0  0  0  0  0  0  0
  153.5208  141.3700  160.4674 H   0  0  0  0  0  0  0  0  0  0  0  0
  151.4075  144.3396  160.5301 H   0  0  0  0  0  0  0  0  0  0  0  0
  152.4085  145.1594  159.3447 H   0  0  0  0  0  0  0  0  0  0  0  0
  151.7468  143.5701  157.5800 H   0  0  0  0  0  0  0  0  0  0  0  0
  150.3141  144.2699  158.2994 H   0  0  0  0  0  0  0  0  0  0  0  0
  149.2601  142.7877  154.9107 H   0  0  0  0  0  0  0  0  0  0  0  0
  148.1806  141.6523  152.9354 H   0  0  0  0  0  0  0  0  0  0  0  0
  147.7811  139.2174  152.7581 H   0  0  0  0  0  0  0  0  0  0  0  0
  146.3044  140.1147  152.4359 H   0  0  0  0  0  0  0  0  0  0  0  0
  146.5189  139.2982  153.9808 H   0  0  0  0  0  0  0  0  0  0  0  0
  146.7729  143.7496  152.9780 H   0  0  0  0  0  0  0  0  0  0  0  0
  144.6486  143.1026  156.4493 H   0  0  0  0  0  0  0  0  0  0  0  0
  1  2  1  0  0  0  0
  1 20  1  0  0  0  0
  1 21  1  0  0  0  0
  1 22  1  0  0  0  0
  2  3  1  0  0  0  0
  2 10  1  0  0  0  0
  2 23  1  0  0  0  0
  3  4  1  0  0  0  0
  3 24  1  0  0  0  0
  3 25  1  0  0  0  0
  4  9  1  0  0  0  0
  4  5  1  0  0  0  0
  5  6  1  0  0  0  0
  5 26  1  0  0  0  0
  5 27  1  0  0  0  0
  6  7  1  0  0  0  0
  6 28  1  0  0  0  0
  6 29  1  0  0  0  0
  7  8  1  0  0  0  0
  8  9  1  0  0  0  0
  8 30  1  0  0  0  0
  8 31  1  0  0  0  0
  9 32  1  0  0  0  0
  9 33  1  0  0  0  0
 10 11  1  0  0  0  0
 10 34  1  0  0  0  0
 11 12  2  0  0  0  0
 11 13  1  0  0  0  0
 13 14  1  0  0  0  0
 13 15  1  0  0  0  0
 13 35  1  0  0  0  0
 14 36  1  0  0  0  0
 14 37  1  0  0  0  0
 14 38  1  0  0  0  0
 15 19  1  0  0  0  0
 15 16  1  0  0  0  0
 16 17  2  0  0  0  0
 16 39  1  0  0  0  0
 17 18  1  0  0  0  0
 18 19  2  0  0  0  0
 18 40  1  0  0  0  0
M  END
> <s_m_source_file>
AV-unprocessed.smi

> <i_m_source_file_index>
3345

> <i_lp_mmshare_version>
43012

> <i_f3d_flags>
0

> <s_epik_input>
W0NIMl0xW0NIMl1PW0NIMl1bQ0gyXU4xW0NIMl1bQ0BASF0oW0NIM10pW05IXUMoPU8pW0NASF0oW0NIM10pbjJbY0hdbltjSF1uMg==

> <s_epik_cmdline>
J2VwaWtfcHl0aG9uJywgJy1waCcsICc3LjAnLCAnLXRuJywgJzgnLCAnLW1hJywgJzIwMCcsICctbWV0YWxfYmluZGluZycsICctaW1hZScsICc8aW5maWxlLm1hZT4nLCAnLW9tYWUnLCAnPG91dGZpbGUubWFlPic=

> <r_lp_tautomer_probability>
1

> <r_epik_Ionization_Penalty>
0.211373

> <r_epik_Ionization_Penalty_Charging>
0

> <r_epik_Ionization_Penalty_Neutral>
0.211373

> <r_epik_State_Penalty>
0.201459

> <r_epik_Charging_Adjusted_Penalty>
0.201459

> <i_epik_Tot_Q>
0

> <i_epik_Tot_abs_Q>
0

> <r_epik_Metal_State_Penalty>
0.201458

> <b_epik_Metal_Only>
0

> <s_lp_Force_Field>
OPLS_2005

> <r_lp_Energy>
31.9389

> <b_lp_Chiralities_Consistent>
1

> <s_lp_Variant>
AV-unprocessed.smi:3345-3

> <Gold.Version>
5.8.1

> <Gold.Id.Protein>
6NUR|6NUR_protein|mol2

> <Gold.PLP.Fitness>
39.2809

> <Gold.PLP.PLP>
-38.2925

> <Gold.PLP.part.hbond>
-1.0000

> <Gold.PLP.part.metal>
0.0000

> <Gold.PLP.part.buried>
-6.1881

> <Gold.PLP.part.nonpolar>
-31.6885

> <Gold.PLP.part.repulsive>
0.5918

> <Gold.PLP.ligand.clash>
0.0000

> <Gold.PLP.ligand.torsion>
0.7536

> <Gold.PLP.Chemscore.Hbond>
0.7840

> <Gold.PLP.Chemscore.CHOScore>
0.0000

> <Gold.PLP.Chemscore.Metal>
0.0000

> <Gold.Chemscore.Hbonds>
donor molecule, donor type, donor heavy atom, donor atom, acceptor molecule, acceptor atom, score
      L1  H    10    34       P1  8028  0.64

> <Gold.PLP.Chemscore.Internal.Correction>
0.1436

> <Gold.Rescore>
     Score         DG    S(hbond)    S(metal)    S(lipo)     H(rot)  DE(clash)    DE(int)     intcor
      8.62     -10.73       0.91        0.00      74.36       2.54       0.03       2.08       ----

> <Gold.Chemscore.Fitness>
8.6227

> <Gold.Chemscore.DG>
-10.7272

> <Gold.Chemscore.ZeroCoef>
-5.4800

> <Gold.Chemscore.Hbond>
0.9093

> <Gold.Chemscore.Metal>
0.0000

> <Gold.Chemscore.Lipo>
74.3649

> <Gold.Chemscore.Internal_Hbond>
0.0000

> <Gold.Chemscore.DEClash>
0.0264

> <Gold.Chemscore.DEInternal>
2.0781

> <Gold.Chemscore.Rot>
2.5353

> <Gold.Chemscore.Internal.Correction>
   9.000000E+99

> <Gold.Chemscore.Hbonds>
donor molecule, donor type, donor heavy atom, donor atom, acceptor molecule, acceptor atom, score
      L1  H    10    34       P1  8028  0.62

> <Gold.Chemscore.Hbond.Weighted>
-3.0369

> <Gold.Chemscore.Metal.Weighted>
-0.0000

> <Gold.Chemscore.Lipo.Weighted>
-8.7007

> <Gold.Chemscore.Internal_Hbond.Weighted>
0.0000

> <Gold.Chemscore.DEClash.Weighted>
0.0264

> <Gold.Chemscore.DEInternal.Weighted>
2.0781

> <Gold.Chemscore.Rot.Weighted>
6.4905

> <Gold.Chemscore.Internal.Correction.Weighted>
   9.000000E+99

> <Gold.Protein.RotatedTorsions>
[ 6907 6896 6895 6894 ] final   32.19 input  -60.11 | X-H torsion
[ 7974 7965 7964 7962 ] final  -52.97 input  175.53 | X-H torsion
[ 8008 7997 7996 7995 ] final   83.96 input   59.86 | X-H torsion
[ 10167 10162 10161 10158 ] final  -89.48 input  -65.29 | X-H torsion
[ 10718 10713 10712 10709 ] final  -15.14 input   66.30 | X-H torsion
[ 10763 10752 10751 10750 ] final    2.70 input  -60.55 | X-H torsion
[ 11005 11000 10999 10996 ] final  -74.21 input  -57.11 | X-H torsion

> <Gold.Protein.ActiveResidues>
 VAL166  LYS551  ARG553  GLY616  TRP617  ASP618  TYR619  PRO620  LYS621  CYS622 
 ASP623  PHE694  ASN695  SER759  ASP760  ASP761  ALA762  ILE779  LEU786  VAL792 
 PHE793  MET794  SER795  GLU796  ALA797  LYS798  CYS799  TRP800  GLU811  SER814 

> <Gold.Protein.RotatedAtoms>
  152.0709  134.9534  160.0574 H   0  0  0  0  0  0  0  0  0  0  0  0  # atno 6907 bound_to 6896
  152.0860  133.4172  159.4531 H   0  0  0  0  0  0  0  0  0  0  0  0  # atno 6908 bound_to 6896
  150.6836  134.2846  159.4685 H   0  0  0  0  0  0  0  0  0  0  0  0  # atno 6909 bound_to 6896
  145.9020  140.7986  142.9738 H   0  0  0  0  0  0  0  0  0  0  0  0  # atno 7974 bound_to 7965
  155.9308  140.3415  155.6247 H   0  0  0  0  0  0  0  0  0  0  0  0  # atno 8008 bound_to 7997
  155.7160  140.0777  157.2370 H   0  0  0  0  0  0  0  0  0  0  0  0  # atno 8009 bound_to 7997
  154.4085  140.1614  156.2336 H   0  0  0  0  0  0  0  0  0  0  0  0  # atno 8010 bound_to 7997
  140.3644  143.2825  151.9575 H   0  0  0  0  0  0  0  0  0  0  0  0  # atno 10167 bound_to 10162
  156.6060  130.4836  149.6221 H   0  0  0  0  0  0  0  0  0  0  0  0  # atno 10718 bound_to 10713
  153.2924  135.6949  153.7280 H   0  0  0  0  0  0  0  0  0  0  0  0  # atno 10763 bound_to 10752
  153.6226  135.3424  155.3016 H   0  0  0  0  0  0  0  0  0  0  0  0  # atno 10764 bound_to 10752
  154.8528  135.4390  154.2010 H   0  0  0  0  0  0  0  0  0  0  0  0  # atno 10765 bound_to 10752
  141.1632  133.6903  156.7329 H   0  0  0  0  0  0  0  0  0  0  0  0  # atno 11005 bound_to 11000
  144.6736  140.1692  143.7416 LP  0  0  0  0  0  0  0  0  0  0  0  0  # atno 17320 bound_to 7965
  145.8779  139.2307  143.1623 LP  0  0  0  0  0  0  0  0  0  0  0  0  # atno 17321 bound_to 7965
  139.4810  144.5963  151.7684 LP  0  0  0  0  0  0  0  0  0  0  0  0  # atno 17342 bound_to 10162
  140.5095  144.1047  150.5991 LP  0  0  0  0  0  0  0  0  0  0  0  0  # atno 17343 bound_to 10162
  156.2430  130.6862  151.1573 LP  0  0  0  0  0  0  0  0  0  0  0  0  # atno 17370 bound_to 10713
  157.7267  131.0644  150.5898 LP  0  0  0  0  0  0  0  0  0  0  0  0  # atno 17371 bound_to 10713
  140.2732  134.8376  157.3866 LP  0  0  0  0  0  0  0  0  0  0  0  0  # atno 17394 bound_to 11000
  140.1502  134.4859  155.7967 LP  0  0  0  0  0  0  0  0  0  0  0  0  # atno 17395 bound_to 11000

$$$$
