AV-unprocessed.smi:1898|AV-procd|sdf|7700|dock10
  -GOLD-   22720 9433D 1   1.00000     0.00000
 Structure written by MMmdl.
 46 47  0  0  0  0  0  0  0  0  1 V2000
  144.6782  135.5617  151.7750 C   0  0  0  0  0  0  0  0  0  0  0  0
  145.1539  136.9291  151.6360 N   0  0  0  0  0  0  0  0  0  0  0  0
  145.8981  137.5660  152.5518 C   0  0  0  0  0  0  0  0  0  0  0  0
  146.2659  137.0463  153.6050 O   0  0  0  0  0  0  0  0  0  0  0  0
  146.2937  139.0121  152.2301 C   0  0  0  0  0  0  0  0  0  0  0  0
  147.0209  139.7150  153.3136 N   0  0  0  0  0  0  0  0  0  0  0  0
  147.3048  141.0899  152.8880 C   0  0  0  0  0  0  0  0  0  0  0  0
  147.9535  141.8929  154.0296 C   0  0  0  0  0  0  0  0  0  0  0  0
  149.2494  141.2250  154.5097 C   0  0  0  0  0  0  0  0  0  0  0  0
  149.7833  141.9425  155.6639 N   0  0  0  0  0  0  0  0  0  0  0  0
  150.7892  141.5159  156.4406 C   0  0  0  0  0  0  0  0  0  0  0  0
  151.3845  140.4542  156.2574 O   0  0  0  0  0  0  0  0  0  0  0  0
  151.0341  142.3840  157.4365 N   0  0  0  0  0  0  0  0  0  0  0  0
  151.9924  142.2890  158.4835 C   0  0  0  0  0  0  0  0  0  0  0  0
  152.6116  141.0772  158.8756 C   0  0  0  0  0  0  0  0  0  0  0  0
  153.5605  141.0998  159.9144 C   0  0  0  0  0  0  0  0  0  0  0  0
  153.8636  142.3334  160.5185 C   0  0  0  0  0  0  0  0  0  0  0  0
  153.2934  143.4977  160.1464 N   0  0  0  0  0  0  0  0  0  0  0  0
  152.3777  143.4785  159.1452 C   0  0  0  0  0  0  0  0  0  0  0  0
  151.7981  144.6733  158.7623 O   0  0  0  0  0  0  0  0  0  0  0  0
  152.1019  145.8465  159.5089 C   0  0  0  0  0  0  0  0  0  0  0  0
  148.9503  139.7588  154.8622 C   0  0  0  0  0  0  0  0  0  0  0  0
  148.2671  139.0314  153.6911 C   0  0  0  0  0  0  0  0  0  0  0  0
  144.0917  135.2803  150.9007 H   0  0  0  0  0  0  0  0  0  0  0  0
  144.0445  135.4604  152.6569 H   0  0  0  0  0  0  0  0  0  0  0  0
  145.5135  134.8661  151.8647 H   0  0  0  0  0  0  0  0  0  0  0  0
  144.8929  137.4299  150.7985 H   0  0  0  0  0  0  0  0  0  0  0  0
  146.8958  139.0186  151.3194 H   0  0  0  0  0  0  0  0  0  0  0  0
  145.3758  139.5543  151.9976 H   0  0  0  0  0  0  0  0  0  0  0  0
  147.9548  141.0898  152.0109 H   0  0  0  0  0  0  0  0  0  0  0  0
  146.3774  141.5836  152.5943 H   0  0  0  0  0  0  0  0  0  0  0  0
  148.1608  142.9092  153.6922 H   0  0  0  0  0  0  0  0  0  0  0  0
  147.2480  141.9797  154.8574 H   0  0  0  0  0  0  0  0  0  0  0  0
  149.9772  141.2581  153.6965 H   0  0  0  0  0  0  0  0  0  0  0  0
  149.3491  142.8252  155.8907 H   0  0  0  0  0  0  0  0  0  0  0  0
  150.4091  143.1745  157.4990 H   0  0  0  0  0  0  0  0  0  0  0  0
  152.3912  140.1371  158.3949 H   0  0  0  0  0  0  0  0  0  0  0  0
  154.0487  140.1919  160.2364 H   0  0  0  0  0  0  0  0  0  0  0  0
  154.5880  142.3877  161.3175 H   0  0  0  0  0  0  0  0  0  0  0  0
  151.5764  146.6964  159.0736 H   0  0  0  0  0  0  0  0  0  0  0  0
  153.1693  146.0707  159.4839 H   0  0  0  0  0  0  0  0  0  0  0  0
  151.7788  145.7540  160.5467 H   0  0  0  0  0  0  0  0  0  0  0  0
  149.8720  139.2388  155.1256 H   0  0  0  0  0  0  0  0  0  0  0  0
  148.3071  139.7104  155.7423 H   0  0  0  0  0  0  0  0  0  0  0  0
  148.0716  138.0057  154.0033 H   0  0  0  0  0  0  0  0  0  0  0  0
  148.9408  138.9768  152.8342 H   0  0  0  0  0  0  0  0  0  0  0  0
  1  2  1  0  0  0  0
  1 24  1  0  0  0  0
  1 25  1  0  0  0  0
  1 26  1  0  0  0  0
  2  3  1  0  0  0  0
  2 27  1  0  0  0  0
  3  4  2  0  0  0  0
  3  5  1  0  0  0  0
  5  6  1  0  0  0  0
  5 28  1  0  0  0  0
  5 29  1  0  0  0  0
  6 23  1  0  0  0  0
  6  7  1  0  0  0  0
  7  8  1  0  0  0  0
  7 30  1  0  0  0  0
  7 31  1  0  0  0  0
  8  9  1  0  0  0  0
  8 32  1  0  0  0  0
  8 33  1  0  0  0  0
  9 10  1  0  0  0  0
  9 22  1  0  0  0  0
  9 34  1  0  0  0  0
 10 11  1  0  0  0  0
 10 35  1  0  0  0  0
 11 12  2  0  0  0  0
 11 13  1  0  0  0  0
 13 14  1  0  0  0  0
 13 36  1  0  0  0  0
 14 19  1  0  0  0  0
 14 15  2  0  0  0  0
 15 16  1  0  0  0  0
 15 37  1  0  0  0  0
 16 17  2  0  0  0  0
 16 38  1  0  0  0  0
 17 18  1  0  0  0  0
 17 39  1  0  0  0  0
 18 19  2  0  0  0  0
 19 20  1  0  0  0  0
 20 21  1  0  0  0  0
 21 40  1  0  0  0  0
 21 41  1  0  0  0  0
 21 42  1  0  0  0  0
 22 23  1  0  0  0  0
 22 43  1  0  0  0  0
 22 44  1  0  0  0  0
 23 45  1  0  0  0  0
 23 46  1  0  0  0  0
M  END
> <s_m_source_file>
AV-unprocessed.smi

> <i_m_source_file_index>
1898

> <i_lp_mmshare_version>
43012

> <i_f3d_flags>
0

> <s_epik_input>
W0NIM11bTkhdQyg9TylbQ0gyXU4xW0NIMl1bQ0gyXVtDSF0oW0NIMl1bQ0gyXTEpW05IXUMoPU8pW05IXWMyW2NIXVtjSF1bY0hdbmMyT1tDSDNd

> <s_epik_cmdline>
J2VwaWtfcHl0aG9uJywgJy1waCcsICc3LjAnLCAnLXRuJywgJzgnLCAnLW1hJywgJzIwMCcsICctbWV0YWxfYmluZGluZycsICctaW1hZScsICc8aW5maWxlLm1hZT4nLCAnLW9tYWUnLCAnPG91dGZpbGUubWFlPic=

> <r_lp_tautomer_probability>
1

> <r_epik_Ionization_Penalty>
0.16483

> <r_epik_Ionization_Penalty_Charging>
0

> <r_epik_Ionization_Penalty_Neutral>
0.16483

> <r_epik_State_Penalty>
0.154069

> <r_epik_Charging_Adjusted_Penalty>
0.154069

> <i_epik_Tot_Q>
0

> <i_epik_Tot_abs_Q>
0

> <r_epik_Metal_State_Penalty>
0.158584

> <b_epik_Metal_Only>
0

> <s_lp_Force_Field>
OPLS_2005

> <r_lp_Energy>
15.9116

> <b_lp_Chiralities_Consistent>
1

> <s_lp_Variant>
AV-unprocessed.smi:1898-1

> <Gold.Version>
5.8.1

> <Gold.Id.Protein>
6NUR|6NUR_protein|mol2

> <Gold.PLP.Fitness>
47.7044

> <Gold.PLP.PLP>
-42.6054

> <Gold.PLP.part.hbond>
-2.0000

> <Gold.PLP.part.metal>
0.0000

> <Gold.PLP.part.buried>
-4.1976

> <Gold.PLP.part.nonpolar>
-38.6889

> <Gold.PLP.part.repulsive>
0.9755

> <Gold.PLP.ligand.clash>
0.0000

> <Gold.PLP.ligand.torsion>
0.2389

> <Gold.PLP.Chemscore.Hbond>
1.8560

> <Gold.PLP.Chemscore.CHOScore>
0.0000

> <Gold.PLP.Chemscore.Metal>
0.0000

> <Gold.Chemscore.Hbonds>
donor molecule, donor type, donor heavy atom, donor atom, acceptor molecule, acceptor atom, score
      L1  H     2    27       P1 10171  1.00
      L1  H    10    35       P1  8028  1.00

> <Gold.PLP.Chemscore.Internal.Correction>
0.0089

> <Gold.Rescore>
     Score         DG    S(hbond)    S(metal)    S(lipo)     H(rot)  DE(clash)    DE(int)     intcor
     11.82     -17.06       1.51        0.00      98.83       1.96       1.56       3.68       ----

> <Gold.Chemscore.Fitness>
11.8195

> <Gold.Chemscore.DG>
-17.0599

> <Gold.Chemscore.ZeroCoef>
-5.4800

> <Gold.Chemscore.Hbond>
1.5108

> <Gold.Chemscore.Metal>
0.0000

> <Gold.Chemscore.Lipo>
98.8283

> <Gold.Chemscore.Internal_Hbond>
0.0000

> <Gold.Chemscore.DEClash>
1.5638

> <Gold.Chemscore.DEInternal>
3.6766

> <Gold.Chemscore.Rot>
1.9645

> <Gold.Chemscore.Internal.Correction>
   9.000000E+99

> <Gold.Chemscore.Hbonds>
donor molecule, donor type, donor heavy atom, donor atom, acceptor molecule, acceptor atom, score
      L1  H     2    27       P1 10171  0.98
      L1  H    10    35       P1  8028  0.97

> <Gold.Chemscore.Hbond.Weighted>
-5.0460

> <Gold.Chemscore.Metal.Weighted>
-0.0000

> <Gold.Chemscore.Lipo.Weighted>
-11.5629

> <Gold.Chemscore.Internal_Hbond.Weighted>
0.0000

> <Gold.Chemscore.DEClash.Weighted>
1.5638

> <Gold.Chemscore.DEInternal.Weighted>
3.6766

> <Gold.Chemscore.Rot.Weighted>
5.0290

> <Gold.Chemscore.Internal.Correction.Weighted>
   9.000000E+99

> <Gold.Protein.RotatedTorsions>
[ 6907 6896 6895 6894 ] final -133.35 input  -60.11 | X-H torsion
[ 7974 7965 7964 7962 ] final  156.28 input  175.53 | X-H torsion
[ 8008 7997 7996 7995 ] final  -63.86 input   59.86 | X-H torsion
[ 10167 10162 10161 10158 ] final -123.65 input  -65.29 | X-H torsion
[ 10718 10713 10712 10709 ] final -104.12 input   66.30 | X-H torsion
[ 10763 10752 10751 10750 ] final   12.75 input  -60.55 | X-H torsion
[ 11005 11000 10999 10996 ] final  -50.30 input  -57.11 | X-H torsion

> <Gold.Protein.ActiveResidues>
 VAL166  LYS551  ARG553  GLY616  TRP617  ASP618  TYR619  PRO620  LYS621  CYS622 
 ASP623  PHE694  ASN695  SER759  ASP760  ASP761  ALA762  ILE779  LEU786  VAL792 
 PHE793  MET794  SER795  GLU796  ALA797  LYS798  CYS799  TRP800  GLU811  SER814 

> <Gold.Protein.RotatedAtoms>
  150.9730  133.6324  159.2734 H   0  0  0  0  0  0  0  0  0  0  0  0  # atno 6907 bound_to 6896
  151.3607  135.0902  159.9443 H   0  0  0  0  0  0  0  0  0  0  0  0  # atno 6908 bound_to 6896
  152.5189  133.9304  159.7632 H   0  0  0  0  0  0  0  0  0  0  0  0  # atno 6909 bound_to 6896
  144.7973  139.7182  143.6197 H   0  0  0  0  0  0  0  0  0  0  0  0  # atno 7974 bound_to 7965
  154.4578  140.0966  156.6808 H   0  0  0  0  0  0  0  0  0  0  0  0  # atno 8008 bound_to 7997
  155.5084  140.3475  155.4365 H   0  0  0  0  0  0  0  0  0  0  0  0  # atno 8009 bound_to 7997
  156.0812  140.1373  156.9698 H   0  0  0  0  0  0  0  0  0  0  0  0  # atno 8010 bound_to 7997
  140.0012  143.5538  152.2302 H   0  0  0  0  0  0  0  0  0  0  0  0  # atno 10167 bound_to 10162
  156.0292  130.5500  150.7351 H   0  0  0  0  0  0  0  0  0  0  0  0  # atno 10718 bound_to 10713
  153.1791  135.6825  153.8503 H   0  0  0  0  0  0  0  0  0  0  0  0  # atno 10763 bound_to 10752
  153.7841  135.3178  155.3371 H   0  0  0  0  0  0  0  0  0  0  0  0  # atno 10764 bound_to 10752
  154.8048  135.4755  154.0459 H   0  0  0  0  0  0  0  0  0  0  0  0  # atno 10765 bound_to 10752
  141.0808  133.6654  156.3711 H   0  0  0  0  0  0  0  0  0  0  0  0  # atno 11005 bound_to 11000
  146.2244  139.5696  142.9597 LP  0  0  0  0  0  0  0  0  0  0  0  0  # atno 17320 bound_to 7965
  145.5642  141.0401  143.2209 LP  0  0  0  0  0  0  0  0  0  0  0  0  # atno 17321 bound_to 7965
  139.6270  144.7639  151.2617 LP  0  0  0  0  0  0  0  0  0  0  0  0  # atno 17342 bound_to 10162
  140.7418  143.6546  150.8218 LP  0  0  0  0  0  0  0  0  0  0  0  0  # atno 17343 bound_to 10162
  157.4934  131.0913  151.0400 LP  0  0  0  0  0  0  0  0  0  0  0  0  # atno 17370 bound_to 10713
  157.0801  130.5899  149.5419 LP  0  0  0  0  0  0  0  0  0  0  0  0  # atno 17371 bound_to 10713
  140.5472  134.6063  157.5397 LP  0  0  0  0  0  0  0  0  0  0  0  0  # atno 17394 bound_to 11000
  139.9622  134.7433  156.0213 LP  0  0  0  0  0  0  0  0  0  0  0  0  # atno 17395 bound_to 11000

$$$$
