#       Name:                AV-unprocessed.smi:1691
#       Creating user name   scv26
#       Creation time:       Fri Mar 27 07:53:40 2020


#       File generated by GOLD software.
#

@<TRIPOS>MOLECULE
AV-unprocessed.smi:1691
    49    50     1
SMALL
NO_CHARGES


@<TRIPOS>ATOM
      1 ****        -2.4016  -0.4949  -1.5872 C.3            1 S1                 0.0000
      2 ****        -1.6859   0.4701  -0.6212 C.3            1 S1                 0.0000
      3 ****        -2.3126   1.8740  -0.6749 C.3            1 S1                 0.0000
      4 ****        -0.1261   0.5123  -0.6956 C.3            1 S1                 0.0000
      5 ****         0.5454  -0.8873  -0.5967 C.3            1 S1                 0.0000
      6 ****         0.0881  -1.6567   0.5563 N.am           1 S1                 0.0000
      7 ****         0.4901  -1.4590   1.8195 C.2            1 S1                 0.0000
      8 ****         1.3079  -0.5985   2.1467 O.2            1 S1                 0.0000
      9 ****        -0.1138  -2.3119   2.6631 N.am           1 S1                 0.0000
     10 ****         0.0507  -2.3932   4.0691 C.2            1 S1                 0.0000
     11 ****        -0.6162  -3.3255   4.9094 C.2            1 S1                 0.0000
     12 ****        -0.2687  -3.1675   6.1786 N.2            1 S1                 0.0000
     13 ****         0.6135  -2.1430   6.1566 N.pl3          1 S1                 0.0000
     14 ****         0.8388  -1.6405   4.8940 C.2            1 S1                 0.0000
     15 ****         0.4246   1.3874  -1.7493 N.3            1 S1                 0.0000
     16 ****         0.3928   0.8394  -3.1047 C.3            1 S1                 0.0000
     17 ****         0.9002   1.8573  -4.1412 C.3            1 S1                 0.0000
     18 ****         2.2116   2.2881  -3.7920 O.3            1 S1                 0.0000
     19 ****         2.2693   2.8734  -2.4954 C.3            1 S1                 0.0000
     20 ****         1.7762   1.8577  -1.4513 C.3            1 S1                 0.0000
     21 ****         1.0493  -1.8025   7.0020 H              1 S1                 0.0000
     22 ****        -2.4098  -0.1327  -2.6126 H              1 S1                 0.0000
     23 ****        -3.4458  -0.6095  -1.2955 H              1 S1                 0.0000
     24 ****        -1.9632  -1.4918  -1.5791 H              1 S1                 0.0000
     25 ****        -1.9207   0.0942   0.3753 H              1 S1                 0.0000
     26 ****        -2.1934   2.3286  -1.6590 H              1 S1                 0.0000
     27 ****        -1.8533   2.5383   0.0576 H              1 S1                 0.0000
     28 ****        -3.3804   1.8352  -0.4583 H              1 S1                 0.0000
     29 ****         0.1371   1.0074   0.2402 H              1 S1                 0.0000
     30 ****         0.3399  -1.4783  -1.4886 H              1 S1                 0.0000
     31 ****         1.6307  -0.8000  -0.5435 H              1 S1                 0.0000
     32 ****        -0.5872  -2.3857   0.3783 H              1 S1                 0.0000
     33 ****        -0.7625  -2.9706   2.2580 H              1 S1                 0.0000
     34 ****        -1.3259  -4.0958   4.6459 H              1 S1                 0.0000
     35 ****         1.5172  -0.8207   4.7105 H              1 S1                 0.0000
     36 ****         1.0093  -0.0580  -3.1621 H              1 S1                 0.0000
     37 ****        -0.6149   0.5477  -3.3813 H              1 S1                 0.0000
     38 ****         0.9256   1.4067  -5.1335 H              1 S1                 0.0000
     39 ****         0.2307   2.7170  -4.1969 H              1 S1                 0.0000
     40 ****         3.2969   3.1679  -2.2821 H              1 S1                 0.0000
     41 ****         1.6628   3.7801  -2.4696 H              1 S1                 0.0000
     42 ****         1.8017   2.3203  -0.4642 H              1 S1                 0.0000
     43 ****         2.4724   1.0196  -1.4233 H              1 S1                 0.0000
     44 ****         1.7097  -0.0010   1.4527 LP             1 S1                 0.0000
     45 ****         1.5702  -0.4972   3.1063 LP             1 S1                 0.0000
     46 ****        -0.5865  -3.6873   6.9715 LP             1 S1                 0.0000
     47 ****        -0.2097   2.1605  -1.7383 LP             1 S1                 0.0000
     48 ****         2.5154   2.9649  -4.4626 LP             1 S1                 0.0000
     49 ****         2.8246   1.4983  -3.8143 LP             1 S1                 0.0000
@<TRIPOS>BOND
    1    1    2 1     
    2    1   22 1     
    3    1   23 1     
    4    1   24 1     
    5    2    3 1     
    6    2    4 1     
    7    2   25 1     
    8    3   26 1     
    9    3   27 1     
   10    3   28 1     
   11    4    5 1     
   12    4   15 1     
   13    4   29 1     
   14    5    6 1     
   15    5   30 1     
   16    5   31 1     
   17    6    7 am    
   18    6   32 1     
   19    7    8 2     
   20    7    9 am    
   21    9   10 1     
   22    9   33 1     
   23   10   14 2     
   24   10   11 1     
   25   11   12 2     
   26   11   34 1     
   27   12   13 1     
   28   13   21 1     
   29   13   14 1     
   30   14   35 1     
   31   15   20 1     
   32   15   16 1     
   33   16   17 1     
   34   16   36 1     
   35   16   37 1     
   36   17   18 1     
   37   17   38 1     
   38   17   39 1     
   39   18   19 1     
   40   19   20 1     
   41   19   40 1     
   42   19   41 1     
   43   20   42 1     
   44   20   43 1     
   45    8   44 1     
   46    8   45 1     
   47   12   46 1     
   48   15   47 1     
   49   18   48 1     
   50   18   49 1     
@<TRIPOS>SUBSTRUCTURE
      1 S1             1
@<TRIPOS>SET
LONE_PAIRS      STATIC     ATOMS    <user>   **** ""
6 44 45 46 47 48 49
DONOR_HYDROGENS      STATIC     ATOMS    <user>   **** ""
3 32 33 21
ATOM$BLUE        STATIC     ATOMS    COLORGROUP SYSTEM
6 44 45 46 47 48 49
ATOM$RED        STATIC     ATOMS    COLORGROUP SYSTEM
3 32 33 21
