AV-unprocessed.smi:1712|AV-procd|sdf|6902|dock10
  -GOLD-   22720 8103D 1   1.00000     0.00000
 Structure written by MMmdl.
 37 38  0  0  0  0  0  0  0  0  1 V2000
  147.5896  139.9847  152.6153 C   0  0  0  0  0  0  0  0  0  0  0  0
  147.4661  139.7643  154.1448 C   0  0  1  0  0  0  0  0  0  0  0  0
  146.6094  138.4931  154.4093 C   0  0  0  0  0  0  0  0  0  0  0  0
  146.7538  137.4752  153.3705 N   0  0  0  0  0  0  0  0  0  0  0  0
  145.7469  136.8728  152.7211 C   0  0  0  0  0  0  0  0  0  0  0  0
  144.5573  137.1053  152.9367 O   0  0  0  0  0  0  0  0  0  0  0  0
  146.2086  135.9899  151.8204 N   0  0  0  0  0  0  0  0  0  0  0  0
  145.4467  135.1484  150.9710 C   0  0  0  0  0  0  0  0  0  0  0  0
  145.7331  133.7789  150.7206 C   0  0  0  0  0  0  0  0  0  0  0  0
  144.8501  133.2442  149.8894 N   0  0  0  0  0  0  0  0  0  0  0  0
  144.0022  134.2591  149.6075 N   0  0  0  0  0  0  0  0  0  0  0  0
  144.3263  135.4371  150.2435 C   0  0  0  0  0  0  0  0  0  0  0  0
  148.7812  139.7298  154.8285 N   0  0  0  0  0  0  0  0  0  0  0  0
  149.7496  138.8581  154.1528 C   0  0  0  0  0  0  0  0  0  0  0  0
  151.1234  138.8398  154.8451 C   0  0  0  0  0  0  0  0  0  0  0  0
  151.6355  140.1622  154.9271 O   0  0  0  0  0  0  0  0  0  0  0  0
  150.7653  141.0259  155.6448 C   0  0  0  0  0  0  0  0  0  0  0  0
  149.3874  141.0603  154.9615 C   0  0  0  0  0  0  0  0  0  0  0  0
  143.2155  134.1338  148.9864 H   0  0  0  0  0  0  0  0  0  0  0  0
  146.6202  140.0002  152.1192 H   0  0  0  0  0  0  0  0  0  0  0  0
  148.1841  139.1977  152.1499 H   0  0  0  0  0  0  0  0  0  0  0  0
  148.0425  140.9431  152.3666 H   0  0  0  0  0  0  0  0  0  0  0  0
  146.9055  140.6128  154.5407 H   0  0  0  0  0  0  0  0  0  0  0  0
  146.8346  138.0898  155.3981 H   0  0  0  0  0  0  0  0  0  0  0  0
  145.5468  138.7273  154.4112 H   0  0  0  0  0  0  0  0  0  0  0  0
  147.6973  137.2136  153.1251 H   0  0  0  0  0  0  0  0  0  0  0  0
  147.2112  135.9040  151.7394 H   0  0  0  0  0  0  0  0  0  0  0  0
  146.5356  133.1676  151.1067 H   0  0  0  0  0  0  0  0  0  0  0  0
  143.7450  136.3391  150.1213 H   0  0  0  0  0  0  0  0  0  0  0  0
  149.3931  137.8301  154.1336 H   0  0  0  0  0  0  0  0  0  0  0  0
  149.8707  139.1729  153.1153 H   0  0  0  0  0  0  0  0  0  0  0  0
  151.0470  138.4074  155.8440 H   0  0  0  0  0  0  0  0  0  0  0  0
  151.8229  138.2223  154.2817 H   0  0  0  0  0  0  0  0  0  0  0  0
  150.6754  140.6892  156.6787 H   0  0  0  0  0  0  0  0  0  0  0  0
  151.1994  142.0256  155.6711 H   0  0  0  0  0  0  0  0  0  0  0  0
  149.4838  141.5228  153.9781 H   0  0  0  0  0  0  0  0  0  0  0  0
  148.7569  141.7144  155.5601 H   0  0  0  0  0  0  0  0  0  0  0  0
  1  2  1  0  0  0  0
  1 20  1  0  0  0  0
  1 21  1  0  0  0  0
  1 22  1  0  0  0  0
  2  3  1  0  0  0  0
  2 13  1  0  0  0  0
  2 23  1  0  0  0  0
  3  4  1  0  0  0  0
  3 24  1  0  0  0  0
  3 25  1  0  0  0  0
  4  5  1  0  0  0  0
  4 26  1  0  0  0  0
  5  6  2  0  0  0  0
  5  7  1  0  0  0  0
  7  8  1  0  0  0  0
  7 27  1  0  0  0  0
  8 12  2  0  0  0  0
  8  9  1  0  0  0  0
  9 10  2  0  0  0  0
  9 28  1  0  0  0  0
 10 11  1  0  0  0  0
 11 19  1  0  0  0  0
 11 12  1  0  0  0  0
 12 29  1  0  0  0  0
 13 18  1  0  0  0  0
 13 14  1  0  0  0  0
 14 15  1  0  0  0  0
 14 30  1  0  0  0  0
 14 31  1  0  0  0  0
 15 16  1  0  0  0  0
 15 32  1  0  0  0  0
 15 33  1  0  0  0  0
 16 17  1  0  0  0  0
 17 18  1  0  0  0  0
 17 34  1  0  0  0  0
 17 35  1  0  0  0  0
 18 36  1  0  0  0  0
 18 37  1  0  0  0  0
M  END
> <s_m_source_file>
AV-unprocessed.smi

> <i_m_source_file_index>
1712

> <i_lp_mmshare_version>
43012

> <i_f3d_flags>
0

> <s_epik_input>
W0NIMl0xW0NIMl1PW0NIMl1bQ0gyXU4xW0NASF0oW0NIM10pW0NIMl1bTkhdQyg9TylbTkhdYzJbY0hdbltuSF1bY0hdMg==

> <s_epik_cmdline>
J2VwaWtfcHl0aG9uJywgJy1waCcsICc3LjAnLCAnLXRuJywgJzgnLCAnLW1hJywgJzIwMCcsICctbWV0YWxfYmluZGluZycsICctaW1hZScsICc8aW5maWxlLm1hZT4nLCAnLW9tYWUnLCAnPG91dGZpbGUubWFlPic=

> <r_lp_tautomer_probability>
0.5

> <r_epik_Ionization_Penalty>
0.242772

> <r_epik_Ionization_Penalty_Charging>
0

> <r_epik_Ionization_Penalty_Neutral>
0.242772

> <r_epik_State_Penalty>
0.233765

> <r_epik_Charging_Adjusted_Penalty>
0.233765

> <i_epik_Tot_Q>
0

> <i_epik_Tot_abs_Q>
0

> <r_epik_Metal_State_Penalty>
0.233764

> <b_epik_Metal_Only>
0

> <s_lp_Force_Field>
OPLS_2005

> <r_lp_Energy>
31.3121

> <b_lp_Chiralities_Consistent>
1

> <s_lp_Variant>
AV-unprocessed.smi:1712-2

> <Gold.Version>
5.8.1

> <Gold.Id.Protein>
6NUR|6NUR_protein|mol2

> <Gold.PLP.Fitness>
37.7034

> <Gold.PLP.PLP>
-27.7786

> <Gold.PLP.part.hbond>
-4.8301

> <Gold.PLP.part.metal>
0.0000

> <Gold.PLP.part.buried>
1.0229

> <Gold.PLP.part.nonpolar>
-23.4251

> <Gold.PLP.part.repulsive>
1.2549

> <Gold.PLP.ligand.clash>
0.0000

> <Gold.PLP.ligand.torsion>
1.0389

> <Gold.PLP.Chemscore.Hbond>
2.9844

> <Gold.PLP.Chemscore.CHOScore>
1.0000

> <Gold.PLP.Chemscore.Metal>
0.0000

> <Gold.Chemscore.Hbonds>
donor molecule, donor type, donor heavy atom, donor atom, acceptor molecule, acceptor atom, score
      L1  H     4    26       P1  7948  0.97
      L1  H     7    27       P1  7948  1.00
      L1  H    11    19       P1 10186  0.19
      P1  H  7989  7998       L1    16  1.00
      L1  C    12    29       P1 10171  1.00

> <Gold.PLP.Chemscore.Internal.Correction>
0.0495

> <Gold.Rescore>
     Score         DG    S(hbond)    S(metal)    S(lipo)     H(rot)  DE(clash)    DE(int)     intcor
     15.88     -18.86       3.03        0.00      63.68       1.63       1.76       1.22       ----

> <Gold.Chemscore.Fitness>
15.8779

> <Gold.Chemscore.DG>
-18.8632

> <Gold.Chemscore.ZeroCoef>
-5.4800

> <Gold.Chemscore.Hbond>
3.0265

> <Gold.Chemscore.Metal>
0.0000

> <Gold.Chemscore.Lipo>
63.6794

> <Gold.Chemscore.Internal_Hbond>
0.0000

> <Gold.Chemscore.DEClash>
1.7616

> <Gold.Chemscore.DEInternal>
1.2237

> <Gold.Chemscore.Rot>
1.6311

> <Gold.Chemscore.Internal.Correction>
   9.000000E+99

> <Gold.Chemscore.Hbonds>
donor molecule, donor type, donor heavy atom, donor atom, acceptor molecule, acceptor atom, score
      L1  H     4    26       P1  7948  0.86
      L1  H     7    27       P1  7948  1.00
      L1  H    11    19       P1 10186  0.18
      P1  H  7989  7998       L1    16  0.23

> <Gold.Chemscore.Hbond.Weighted>
-10.1084

> <Gold.Chemscore.Metal.Weighted>
-0.0000

> <Gold.Chemscore.Lipo.Weighted>
-7.4505

> <Gold.Chemscore.Internal_Hbond.Weighted>
0.0000

> <Gold.Chemscore.DEClash.Weighted>
1.7616

> <Gold.Chemscore.DEInternal.Weighted>
1.2237

> <Gold.Chemscore.Rot.Weighted>
4.1757

> <Gold.Chemscore.Internal.Correction.Weighted>
   9.000000E+99

> <Gold.Protein.RotatedTorsions>
[ 6907 6896 6895 6894 ] final  -42.79 input  -60.11 | X-H torsion
[ 7974 7965 7964 7962 ] final  -91.82 input  175.53 | X-H torsion
[ 8008 7997 7996 7995 ] final  -24.24 input   59.86 | X-H torsion
[ 10167 10162 10161 10158 ] final  -69.49 input  -65.29 | X-H torsion
[ 10718 10713 10712 10709 ] final   64.79 input   66.30 | X-H torsion
[ 10763 10752 10751 10750 ] final  -55.81 input  -60.55 | X-H torsion
[ 11005 11000 10999 10996 ] final -157.53 input  -57.11 | X-H torsion

> <Gold.Protein.ActiveResidues>
 VAL166  LYS551  ARG553  GLY616  TRP617  ASP618  TYR619  PRO620  LYS621  CYS622 
 ASP623  PHE694  ASN695  SER759  ASP760  ASP761  ALA762  ILE779  LEU786  VAL792 
 PHE793  MET794  SER795  GLU796  ALA797  LYS798  CYS799  TRP800  GLU811  SER814 

> <Gold.Protein.RotatedAtoms>
  150.9512  134.8912  159.7673 H   0  0  0  0  0  0  0  0  0  0  0  0  # atno 6907 bound_to 6896
  152.5120  134.3803  159.9359 H   0  0  0  0  0  0  0  0  0  0  0  0  # atno 6908 bound_to 6896
  151.3819  133.3778  159.2746 H   0  0  0  0  0  0  0  0  0  0  0  0  # atno 6909 bound_to 6896
  145.4080  140.9543  143.2250 H   0  0  0  0  0  0  0  0  0  0  0  0  # atno 7974 bound_to 7965
  154.4540  140.1959  156.0434 H   0  0  0  0  0  0  0  0  0  0  0  0  # atno 8008 bound_to 7997
  156.0708  140.3285  155.7545 H   0  0  0  0  0  0  0  0  0  0  0  0  # atno 8009 bound_to 7997
  155.5267  140.0574  157.2887 H   0  0  0  0  0  0  0  0  0  0  0  0  # atno 8010 bound_to 7997
  140.5426  143.2314  151.7060 H   0  0  0  0  0  0  0  0  0  0  0  0  # atno 10167 bound_to 10162
  157.6062  130.9179  149.9891 H   0  0  0  0  0  0  0  0  0  0  0  0  # atno 10718 bound_to 10713
  154.1966  135.6418  153.5075 H   0  0  0  0  0  0  0  0  0  0  0  0  # atno 10763 bound_to 10752
  153.0022  135.5441  154.6359 H   0  0  0  0  0  0  0  0  0  0  0  0  # atno 10764 bound_to 10752
  154.5761  135.2921  155.0752 H   0  0  0  0  0  0  0  0  0  0  0  0  # atno 10765 bound_to 10752
  140.6636  134.4323  157.5234 H   0  0  0  0  0  0  0  0  0  0  0  0  # atno 11005 bound_to 11000
  144.8328  139.5599  143.6936 LP  0  0  0  0  0  0  0  0  0  0  0  0  # atno 17320 bound_to 7965
  146.2719  139.6656  142.9290 LP  0  0  0  0  0  0  0  0  0  0  0  0  # atno 17321 bound_to 7965
  139.4995  144.3944  152.0246 LP  0  0  0  0  0  0  0  0  0  0  0  0  # atno 17342 bound_to 10162
  140.3054  144.3598  150.6048 LP  0  0  0  0  0  0  0  0  0  0  0  0  # atno 17343 bound_to 10162
  156.1150  130.3648  149.9984 LP  0  0  0  0  0  0  0  0  0  0  0  0  # atno 17370 bound_to 10713
  156.8075  130.9313  151.3645 LP  0  0  0  0  0  0  0  0  0  0  0  0  # atno 17371 bound_to 10713
  139.9005  134.8568  156.1918 LP  0  0  0  0  0  0  0  0  0  0  0  0  # atno 17394 bound_to 11000
  141.0446  133.6920  156.1661 LP  0  0  0  0  0  0  0  0  0  0  0  0  # atno 17395 bound_to 11000

$$$$
