AV-unprocessed.smi:2821|AV-procd|sdf|10857|dock5
  -GOLD-   2272015303D 1   1.00000     0.00000
 Structure written by MMmdl.
 36 37  0  0  0  0  0  0  0  0  1 V2000
  153.5697  142.2681  163.1642 C   0  0  0  0  0  0  0  0  0  0  0  0
  152.7912  143.3232  162.3753 C   0  0  0  0  0  0  0  0  0  0  0  0
  152.1001  142.6808  161.3078 O   0  0  0  0  0  0  0  0  0  0  0  0
  151.8108  143.4207  160.1799 C   0  0  0  0  0  0  0  0  0  0  0  0
  152.2074  144.7733  160.1111 C   0  0  0  0  0  0  0  0  0  0  0  0
  151.9621  145.5359  159.0228 N   0  0  0  0  0  0  0  0  0  0  0  0
  151.3182  144.9372  157.9963 C   0  0  0  0  0  0  0  0  0  0  0  0
  150.9131  143.5852  158.0509 C   0  0  0  0  0  0  0  0  0  0  0  0
  150.2503  143.0209  156.9502 N   0  0  0  0  0  0  0  0  0  0  0  0
  150.7587  141.8408  156.2553 C   0  0  1  0  0  0  0  0  0  0  0  0
  150.8150  140.6690  157.2489 C   0  0  0  0  0  0  0  0  0  0  0  0
  149.8901  141.5034  155.0204 C   0  0  2  0  0  0  0  0  0  0  0  0
  148.4054  141.2967  155.3309 C   0  0  0  0  0  0  0  0  0  0  0  0
  147.9610  140.4221  154.1821 C   0  0  0  0  0  0  0  0  0  0  0  0
  149.1661  139.5055  154.0139 C   0  0  0  0  0  0  0  0  0  0  0  0
  150.2953  140.2725  154.4206 O   0  0  0  0  0  0  0  0  0  0  0  0
  151.1535  142.8314  159.1500 N   0  0  0  0  0  0  0  0  0  0  0  0
  154.1135  142.7239  163.9918 H   0  0  0  0  0  0  0  0  0  0  0  0
  154.2937  141.7589  162.5278 H   0  0  0  0  0  0  0  0  0  0  0  0
  152.8984  141.5158  163.5791 H   0  0  0  0  0  0  0  0  0  0  0  0
  152.0856  143.8269  163.0382 H   0  0  0  0  0  0  0  0  0  0  0  0
  153.4814  144.0726  161.9847 H   0  0  0  0  0  0  0  0  0  0  0  0
  152.7288  145.2440  160.9313 H   0  0  0  0  0  0  0  0  0  0  0  0
  151.1263  145.5445  157.1236 H   0  0  0  0  0  0  0  0  0  0  0  0
  149.4663  143.5123  156.5461 H   0  0  0  0  0  0  0  0  0  0  0  0
  151.7809  142.0292  155.9255 H   0  0  0  0  0  0  0  0  0  0  0  0
  151.2608  139.7818  156.7994 H   0  0  0  0  0  0  0  0  0  0  0  0
  149.8195  140.3987  157.6029 H   0  0  0  0  0  0  0  0  0  0  0  0
  151.4196  140.9238  158.1201 H   0  0  0  0  0  0  0  0  0  0  0  0
  149.9874  142.2855  154.2656 H   0  0  0  0  0  0  0  0  0  0  0  0
  148.2807  140.7622  156.2739 H   0  0  0  0  0  0  0  0  0  0  0  0
  147.8481  142.2320  155.3908 H   0  0  0  0  0  0  0  0  0  0  0  0
  147.0367  139.8802  154.3846 H   0  0  0  0  0  0  0  0  0  0  0  0
  147.8177  141.0259  153.2850 H   0  0  0  0  0  0  0  0  0  0  0  0
  149.0823  138.6393  154.6715 H   0  0  0  0  0  0  0  0  0  0  0  0
  149.2756  139.1457  152.9907 H   0  0  0  0  0  0  0  0  0  0  0  0
  1  2  1  0  0  0  0
  1 18  1  0  0  0  0
  1 19  1  0  0  0  0
  1 20  1  0  0  0  0
  2  3  1  0  0  0  0
  2 21  1  0  0  0  0
  2 22  1  0  0  0  0
  3  4  1  0  0  0  0
  4 17  1  0  0  0  0
  4  5  2  0  0  0  0
  5  6  1  0  0  0  0
  5 23  1  0  0  0  0
  6  7  2  0  0  0  0
  7  8  1  0  0  0  0
  7 24  1  0  0  0  0
  8  9  1  0  0  0  0
  8 17  2  0  0  0  0
  9 10  1  0  0  0  0
  9 25  1  0  0  0  0
 10 11  1  0  0  0  0
 10 12  1  0  0  0  0
 10 26  1  0  0  0  0
 11 27  1  0  0  0  0
 11 28  1  0  0  0  0
 11 29  1  0  0  0  0
 12 16  1  0  0  0  0
 12 13  1  0  0  0  0
 12 30  1  0  0  0  0
 13 14  1  0  0  0  0
 13 31  1  0  0  0  0
 13 32  1  0  0  0  0
 14 15  1  0  0  0  0
 14 33  1  0  0  0  0
 14 34  1  0  0  0  0
 15 16  1  0  0  0  0
 15 35  1  0  0  0  0
 15 36  1  0  0  0  0
M  END
> <s_m_source_file>
AV-unprocessed.smi

> <i_m_source_file_index>
2821

> <i_lp_mmshare_version>
43012

> <i_f3d_flags>
0

> <s_epik_input>
W0NIM11bQ0gyXU9jMVtjSF1uW2NIXWMobjEpW05IXVtDQEhdKFtDSDNdKVtDQEBIXTJbQ0gyXVtDSDJdW0NIMl1PMg==

> <s_epik_cmdline>
J2VwaWtfcHl0aG9uJywgJy1waCcsICc3LjAnLCAnLXRuJywgJzgnLCAnLW1hJywgJzIwMCcsICctbWV0YWxfYmluZGluZycsICctaW1hZScsICc8aW5maWxlLm1hZT4nLCAnLW9tYWUnLCAnPG91dGZpbGUubWFlPic=

> <r_lp_tautomer_probability>
1

> <r_epik_Ionization_Penalty>
4.69533e-05

> <r_epik_Ionization_Penalty_Charging>
0

> <r_epik_Ionization_Penalty_Neutral>
4.69533e-05

> <r_epik_State_Penalty>
-0

> <r_epik_Charging_Adjusted_Penalty>
0

> <i_epik_Tot_Q>
0

> <i_epik_Tot_abs_Q>
0

> <r_epik_Metal_State_Penalty>
-0

> <b_epik_Metal_Only>
0

> <s_lp_Force_Field>
OPLS_2005

> <r_lp_Energy>
28.2268

> <b_lp_Chiralities_Consistent>
1

> <s_lp_Variant>
AV-unprocessed.smi:2821-2

> <Gold.Version>
5.8.1

> <Gold.Id.Protein>
6NUR|6NUR_protein|mol2

> <Gold.PLP.Fitness>
41.9993

> <Gold.PLP.PLP>
-36.4191

> <Gold.PLP.part.hbond>
-3.0343

> <Gold.PLP.part.metal>
0.0000

> <Gold.PLP.part.buried>
-4.4872

> <Gold.PLP.part.nonpolar>
-28.2673

> <Gold.PLP.part.repulsive>
0.3275

> <Gold.PLP.ligand.clash>
0.0000

> <Gold.PLP.ligand.torsion>
0.7372

> <Gold.PLP.Chemscore.Hbond>
1.9120

> <Gold.PLP.Chemscore.CHOScore>
0.4319

> <Gold.PLP.Chemscore.Metal>
0.0000

> <Gold.Chemscore.Hbonds>
donor molecule, donor type, donor heavy atom, donor atom, acceptor molecule, acceptor atom, score
      L1  H     9    25       P1  8028  1.00
      P1  H  7989  7998       L1    16  0.90
      L1  C     7    24       P1  8028  0.32

> <Gold.PLP.Chemscore.Internal.Correction>
0.0230

> <Gold.Rescore>
     Score         DG    S(hbond)    S(metal)    S(lipo)     H(rot)  DE(clash)    DE(int)     intcor
     13.77     -17.41       1.70        0.00      87.31       1.55       1.77       1.87       ----

> <Gold.Chemscore.Fitness>
13.7739

> <Gold.Chemscore.DG>
-17.4086

> <Gold.Chemscore.ZeroCoef>
-5.4800

> <Gold.Chemscore.Hbond>
1.7022

> <Gold.Chemscore.Metal>
0.0000

> <Gold.Chemscore.Lipo>
87.3063

> <Gold.Chemscore.Internal_Hbond>
0.0000

> <Gold.Chemscore.DEClash>
1.7662

> <Gold.Chemscore.DEInternal>
1.8685

> <Gold.Chemscore.Rot>
1.5514

> <Gold.Chemscore.Internal.Correction>
   9.000000E+99

> <Gold.Chemscore.Hbonds>
donor molecule, donor type, donor heavy atom, donor atom, acceptor molecule, acceptor atom, score
      L1  H     9    25       P1  8028  0.93
      P1  H  6933  6945       L1     3  0.02
      P1  H  7989  7998       L1    16  0.17

> <Gold.Chemscore.Hbond.Weighted>
-5.6852

> <Gold.Chemscore.Metal.Weighted>
-0.0000

> <Gold.Chemscore.Lipo.Weighted>
-10.2148

> <Gold.Chemscore.Internal_Hbond.Weighted>
0.0000

> <Gold.Chemscore.DEClash.Weighted>
1.7662

> <Gold.Chemscore.DEInternal.Weighted>
1.8685

> <Gold.Chemscore.Rot.Weighted>
3.9715

> <Gold.Chemscore.Internal.Correction.Weighted>
   9.000000E+99

> <Gold.Protein.RotatedTorsions>
[ 6907 6896 6895 6894 ] final  100.03 input  -60.11 | X-H torsion
[ 7974 7965 7964 7962 ] final -167.13 input  175.53 | X-H torsion
[ 8008 7997 7996 7995 ] final   28.87 input   59.86 | X-H torsion
[ 10167 10162 10161 10158 ] final  -33.64 input  -65.29 | X-H torsion
[ 10718 10713 10712 10709 ] final   40.77 input   66.30 | X-H torsion
[ 10763 10752 10751 10750 ] final  151.22 input  -60.55 | X-H torsion
[ 11005 11000 10999 10996 ] final -153.39 input  -57.11 | X-H torsion

> <Gold.Protein.ActiveResidues>
 VAL166  LYS551  ARG553  GLY616  TRP617  ASP618  TYR619  PRO620  LYS621  CYS622 
 ASP623  PHE694  ASN695  SER759  ASP760  ASP761  ALA762  ILE779  LEU786  VAL792 
 PHE793  MET794  SER795  GLU796  ALA797  LYS798  CYS799  TRP800  GLU811  SER814 

> <Gold.Protein.RotatedAtoms>
  152.5380  134.0338  159.8036 H   0  0  0  0  0  0  0  0  0  0  0  0  # atno 6907 bound_to 6896
  151.0505  133.5621  159.2650 H   0  0  0  0  0  0  0  0  0  0  0  0  # atno 6908 bound_to 6896
  151.2557  135.0645  159.9132 H   0  0  0  0  0  0  0  0  0  0  0  0  # atno 6909 bound_to 6896
  144.7230  140.2564  143.6271 H   0  0  0  0  0  0  0  0  0  0  0  0  # atno 7974 bound_to 7965
  155.0655  140.3194  155.4647 H   0  0  0  0  0  0  0  0  0  0  0  0  # atno 8008 bound_to 7997
  156.2803  140.2121  156.5727 H   0  0  0  0  0  0  0  0  0  0  0  0  # atno 8009 bound_to 7997
  154.7097  140.0499  157.0526 H   0  0  0  0  0  0  0  0  0  0  0  0  # atno 8010 bound_to 7997
  140.7201  143.3606  151.1971 H   0  0  0  0  0  0  0  0  0  0  0  0  # atno 10167 bound_to 10162
  157.3859  130.7779  149.7230 H   0  0  0  0  0  0  0  0  0  0  0  0  # atno 10718 bound_to 10713
  154.1002  135.2846  155.3253 H   0  0  0  0  0  0  0  0  0  0  0  0  # atno 10763 bound_to 10752
  154.6561  135.5351  153.7963 H   0  0  0  0  0  0  0  0  0  0  0  0  # atno 10764 bound_to 10752
  153.0382  135.6522  154.1166 H   0  0  0  0  0  0  0  0  0  0  0  0  # atno 10765 bound_to 10752
  140.7087  134.3857  157.5200 H   0  0  0  0  0  0  0  0  0  0  0  0  # atno 11005 bound_to 11000
  145.8178  139.2030  143.1955 LP  0  0  0  0  0  0  0  0  0  0  0  0  # atno 17320 bound_to 7965
  146.0540  140.8040  142.9767 LP  0  0  0  0  0  0  0  0  0  0  0  0  # atno 17321 bound_to 7965
  139.7157  143.9305  152.2965 LP  0  0  0  0  0  0  0  0  0  0  0  0  # atno 17342 bound_to 10162
  139.9045  144.6893  150.8629 LP  0  0  0  0  0  0  0  0  0  0  0  0  # atno 17343 bound_to 10162
  155.9786  130.4049  150.3635 LP  0  0  0  0  0  0  0  0  0  0  0  0  # atno 17370 bound_to 10713
  157.1745  131.0377  151.2779 LP  0  0  0  0  0  0  0  0  0  0  0  0  # atno 17371 bound_to 10713
  139.8877  134.8875  156.2512 LP  0  0  0  0  0  0  0  0  0  0  0  0  # atno 17394 bound_to 11000
  141.0103  133.7099  156.1101 LP  0  0  0  0  0  0  0  0  0  0  0  0  # atno 17395 bound_to 11000

$$$$
