AV-unprocessed.smi:1998|AV-procd|sdf|8091|dock10
  -GOLD-   2272010313D 1   1.00000     0.00000
 Structure written by MMmdl.
 48 49  0  0  0  0  0  0  0  0  2 V2000
  154.0087  141.5838  161.1164 C   0  0  0  0  0  0  0  0  0  0  0  0
  152.9349  142.1948  160.2651 C   0  0  0  0  0  0  0  0  0  0  0  0
  152.2589  143.4327  160.4528 C   0  0  0  0  0  0  0  0  0  0  0  0
  151.3877  143.5042  159.4026 C   0  0  0  0  0  0  0  0  0  0  0  0
  150.3990  144.5629  159.0398 C   0  0  0  0  0  0  0  0  0  0  0  0
  151.5654  142.3535  158.6551 N   0  0  0  0  0  0  0  0  0  0  0  0
  150.8840  141.9356  157.4379 C   0  0  0  0  0  0  0  0  0  0  0  0
  151.2336  140.5017  157.0210 C   0  0  0  0  0  0  0  0  0  0  0  0
  152.4044  140.1476  156.8754 O   0  0  0  0  0  0  0  0  0  0  0  0
  150.1891  139.6835  156.8177 N   0  0  0  0  0  0  0  0  0  0  0  0
  150.2674  138.2861  156.3908 C   0  0  0  0  0  0  0  0  0  0  0  0
  150.2149  138.0918  154.8437 C   0  0  0  0  0  0  0  0  0  0  0  0
  148.9351  138.8006  154.3255 C   0  0  0  0  0  0  0  0  0  0  0  0
  151.4334  138.7640  154.1639 C   0  0  0  0  0  0  0  0  0  0  0  0
  150.1760  136.6111  154.5482 N   0  3  0  0  0  0  0  0  0  0  0  0
  151.4139  135.8407  154.8633 C   0  0  0  0  0  0  0  0  0  0  0  0
  151.2919  134.3824  154.3856 C   0  0  0  0  0  0  0  0  0  0  0  0
  150.1462  133.7722  154.9603 O   0  0  0  0  0  0  0  0  0  0  0  0
  148.9533  134.4381  154.5754 C   0  0  0  0  0  0  0  0  0  0  0  0
  148.9926  135.8841  155.0934 C   0  0  0  0  0  0  0  0  0  0  0  0
  152.5164  141.5541  159.1861 N   0  0  0  0  0  0  0  0  0  0  0  0
  154.2688  142.2359  161.9503 H   0  0  0  0  0  0  0  0  0  0  0  0
  154.9161  141.4073  160.5383 H   0  0  0  0  0  0  0  0  0  0  0  0
  153.6854  140.6286  161.5308 H   0  0  0  0  0  0  0  0  0  0  0  0
  152.3931  144.1588  161.2411 H   0  0  0  0  0  0  0  0  0  0  0  0
  150.3868  145.3564  159.7871 H   0  0  0  0  0  0  0  0  0  0  0  0
  149.3925  144.1498  158.9730 H   0  0  0  0  0  0  0  0  0  0  0  0
  150.6472  145.0120  158.0780 H   0  0  0  0  0  0  0  0  0  0  0  0
  149.8082  142.0256  157.5924 H   0  0  0  0  0  0  0  0  0  0  0  0
  151.1463  142.6166  156.6268 H   0  0  0  0  0  0  0  0  0  0  0  0
  149.2637  140.0626  156.9582 H   0  0  0  0  0  0  0  0  0  0  0  0
  151.1596  137.8374  156.8251 H   0  0  0  0  0  0  0  0  0  0  0  0
  149.4283  137.7625  156.8501 H   0  0  0  0  0  0  0  0  0  0  0  0
  148.9010  139.8504  154.6168 H   0  0  0  0  0  0  0  0  0  0  0  0
  148.0314  138.3294  154.7136 H   0  0  0  0  0  0  0  0  0  0  0  0
  148.8774  138.8025  153.2369 H   0  0  0  0  0  0  0  0  0  0  0  0
  151.3928  139.8498  154.2550 H   0  0  0  0  0  0  0  0  0  0  0  0
  151.4762  138.5397  153.0982 H   0  0  0  0  0  0  0  0  0  0  0  0
  152.3768  138.4486  154.6099 H   0  0  0  0  0  0  0  0  0  0  0  0
  152.2867  136.2599  154.3655 H   0  0  0  0  0  0  0  0  0  0  0  0
  151.6059  135.8670  155.9365 H   0  0  0  0  0  0  0  0  0  0  0  0
  151.2342  134.3340  153.2969 H   0  0  0  0  0  0  0  0  0  0  0  0
  152.1760  133.8170  154.6804 H   0  0  0  0  0  0  0  0  0  0  0  0
  148.8329  134.4108  153.4911 H   0  0  0  0  0  0  0  0  0  0  0  0
  148.1021  133.9089  155.0037 H   0  0  0  0  0  0  0  0  0  0  0  0
  149.0334  135.8622  156.1830 H   0  0  0  0  0  0  0  0  0  0  0  0
  148.0588  136.3706  154.8212 H   0  0  0  0  0  0  0  0  0  0  0  0
  150.0905  136.5544  153.5433 H   0  0  0  0  0  0  0  0  0  0  0  0
  1  2  1  0  0  0  0
  1 22  1  0  0  0  0
  1 23  1  0  0  0  0
  1 24  1  0  0  0  0
  2 21  2  0  0  0  0
  2  3  1  0  0  0  0
  3  4  2  0  0  0  0
  3 25  1  0  0  0  0
  4  5  1  0  0  0  0
  4  6  1  0  0  0  0
  5 26  1  0  0  0  0
  5 27  1  0  0  0  0
  5 28  1  0  0  0  0
  6  7  1  0  0  0  0
  6 21  1  0  0  0  0
  7  8  1  0  0  0  0
  7 29  1  0  0  0  0
  7 30  1  0  0  0  0
  8  9  2  0  0  0  0
  8 10  1  0  0  0  0
 10 11  1  0  0  0  0
 10 31  1  0  0  0  0
 11 12  1  0  0  0  0
 11 32  1  0  0  0  0
 11 33  1  0  0  0  0
 12 13  1  0  0  0  0
 12 14  1  0  0  0  0
 12 15  1  0  0  0  0
 13 34  1  0  0  0  0
 13 35  1  0  0  0  0
 13 36  1  0  0  0  0
 14 37  1  0  0  0  0
 14 38  1  0  0  0  0
 14 39  1  0  0  0  0
 15 20  1  0  0  0  0
 15 16  1  0  0  0  0
 15 48  1  0  0  0  0
 16 17  1  0  0  0  0
 16 40  1  0  0  0  0
 16 41  1  0  0  0  0
 17 18  1  0  0  0  0
 17 42  1  0  0  0  0
 17 43  1  0  0  0  0
 18 19  1  0  0  0  0
 19 20  1  0  0  0  0
 19 44  1  0  0  0  0
 19 45  1  0  0  0  0
 20 46  1  0  0  0  0
 20 47  1  0  0  0  0
M  CHG  1  15   1
M  END
> <s_m_source_file>
AV-unprocessed.smi

> <i_m_source_file_index>
1998

> <i_lp_mmshare_version>
43012

> <i_f3d_flags>
0

> <s_epik_input>
W0NIM11jMVtjSF1jKFtDSDNdKW4objEpW0NIMl1DKD1PKVtOSF1bQ0gyXUMoW0NIM10pKFtDSDNdKU4yW0NIMl1bQ0gyXU9bQ0gyXVtDSDJdMg==

> <s_epik_cmdline>
J2VwaWtfcHl0aG9uJywgJy1waCcsICc3LjAnLCAnLXRuJywgJzgnLCAnLW1hJywgJzIwMCcsICctbWV0YWxfYmluZGluZycsICctaW1hZScsICc8aW5maWxlLm1hZT4nLCAnLW9tYWUnLCAnPG91dGZpbGUubWFlPic=

> <r_lp_tautomer_probability>
1

> <r_epik_Ionization_Penalty>
0.748602

> <r_epik_Ionization_Penalty_Charging>
0.748396

> <r_epik_Ionization_Penalty_Neutral>
0.000205295

> <r_epik_State_Penalty>
0.775162

> <r_epik_Charging_Adjusted_Penalty>
1.52356

> <i_epik_Tot_Q>
1

> <i_epik_Tot_abs_Q>
1

> <r_epik_Metal_State_Penalty>
0.775274

> <b_epik_Metal_Only>
0

> <s_lp_Force_Field>
OPLS_2005

> <r_lp_Energy>
25.5475

> <b_lp_Chiralities_Consistent>
1

> <s_lp_Variant>
AV-unprocessed.smi:1998-2

> <Gold.Version>
5.8.1

> <Gold.Id.Protein>
6NUR|6NUR_protein|mol2

> <Gold.PLP.Fitness>
48.1336

> <Gold.PLP.PLP>
-39.7270

> <Gold.PLP.part.hbond>
-2.0000

> <Gold.PLP.part.metal>
0.0000

> <Gold.PLP.part.buried>
-4.3035

> <Gold.PLP.part.nonpolar>
-31.9332

> <Gold.PLP.part.repulsive>
0.1093

> <Gold.PLP.ligand.clash>
0.0000

> <Gold.PLP.ligand.torsion>
0.3506

> <Gold.PLP.Chemscore.Hbond>
3.0000

> <Gold.PLP.Chemscore.CHOScore>
0.0000

> <Gold.PLP.Chemscore.Metal>
0.0000

> <Gold.Chemscore.Hbonds>
donor molecule, donor type, donor heavy atom, donor atom, acceptor molecule, acceptor atom, score
      L1  H    15    48       P1  7948  1.50
      P1  H  7997  8009       L1     9  1.00

> <Gold.PLP.Chemscore.Internal.Correction>
0.1077

> <Gold.Rescore>
     Score         DG    S(hbond)    S(metal)    S(lipo)     H(rot)  DE(clash)    DE(int)     intcor
     16.58     -18.20       1.87        0.00      93.23       1.74       0.04       1.57       ----

> <Gold.Chemscore.Fitness>
16.5816

> <Gold.Chemscore.DG>
-18.1953

> <Gold.Chemscore.ZeroCoef>
-5.4800

> <Gold.Chemscore.Hbond>
1.8735

> <Gold.Chemscore.Metal>
0.0000

> <Gold.Chemscore.Lipo>
93.2296

> <Gold.Chemscore.Internal_Hbond>
0.0000

> <Gold.Chemscore.DEClash>
0.0431

> <Gold.Chemscore.DEInternal>
1.5706

> <Gold.Chemscore.Rot>
1.7383

> <Gold.Chemscore.Internal.Correction>
   9.000000E+99

> <Gold.Chemscore.Hbonds>
donor molecule, donor type, donor heavy atom, donor atom, acceptor molecule, acceptor atom, score
      L1  H    15    48       P1  7948  0.09
      P1  H  7997  8009       L1     9  0.96

> <Gold.Chemscore.Hbond.Weighted>
-6.2576

> <Gold.Chemscore.Metal.Weighted>
-0.0000

> <Gold.Chemscore.Lipo.Weighted>
-10.9079

> <Gold.Chemscore.Internal_Hbond.Weighted>
0.0000

> <Gold.Chemscore.DEClash.Weighted>
0.0431

> <Gold.Chemscore.DEInternal.Weighted>
1.5706

> <Gold.Chemscore.Rot.Weighted>
4.4501

> <Gold.Chemscore.Internal.Correction.Weighted>
   9.000000E+99

> <Gold.Protein.RotatedTorsions>
[ 6907 6896 6895 6894 ] final   95.56 input  -60.11 | X-H torsion
[ 7974 7965 7964 7962 ] final  176.09 input  175.53 | X-H torsion
[ 8008 7997 7996 7995 ] final -171.19 input   59.86 | X-H torsion
[ 10167 10162 10161 10158 ] final   -2.31 input  -65.29 | X-H torsion
[ 10718 10713 10712 10709 ] final  -82.99 input   66.30 | X-H torsion
[ 10763 10752 10751 10750 ] final  -18.11 input  -60.55 | X-H torsion
[ 11005 11000 10999 10996 ] final  -69.67 input  -57.11 | X-H torsion

> <Gold.Protein.ActiveResidues>
 VAL166  LYS551  ARG553  GLY616  TRP617  ASP618  TYR619  PRO620  LYS621  CYS622 
 ASP623  PHE694  ASN695  SER759  ASP760  ASP761  ALA762  ILE779  LEU786  VAL792 
 PHE793  MET794  SER795  GLU796  ALA797  LYS798  CYS799  TRP800  GLU811  SER814 

> <Gold.Protein.RotatedAtoms>
  152.5442  134.1021  159.8321 H   0  0  0  0  0  0  0  0  0  0  0  0  # atno 6907 bound_to 6896
  151.1097  133.5174  159.2613 H   0  0  0  0  0  0  0  0  0  0  0  0  # atno 6908 bound_to 6896
  151.1898  135.0407  159.8882 H   0  0  0  0  0  0  0  0  0  0  0  0  # atno 6909 bound_to 6896
  144.7190  140.0045  143.6440 H   0  0  0  0  0  0  0  0  0  0  0  0  # atno 7974 bound_to 7965
  155.9282  140.1086  157.1153 H   0  0  0  0  0  0  0  0  0  0  0  0  # atno 8008 bound_to 7997
  154.4066  140.1242  156.4834 H   0  0  0  0  0  0  0  0  0  0  0  0  # atno 8009 bound_to 7997
  155.7112  140.3471  155.4977 H   0  0  0  0  0  0  0  0  0  0  0  0  # atno 8010 bound_to 7997
  140.6846  143.6672  150.8216 H   0  0  0  0  0  0  0  0  0  0  0  0  # atno 10167 bound_to 10162
  156.0025  130.4651  150.4189 H   0  0  0  0  0  0  0  0  0  0  0  0  # atno 10718 bound_to 10713
  153.5843  135.7004  153.5450 H   0  0  0  0  0  0  0  0  0  0  0  0  # atno 10763 bound_to 10752
  153.3234  135.4067  155.1435 H   0  0  0  0  0  0  0  0  0  0  0  0  # atno 10764 bound_to 10752
  154.8612  135.3701  154.5372 H   0  0  0  0  0  0  0  0  0  0  0  0  # atno 10765 bound_to 10752
  141.1559  133.6770  156.6635 H   0  0  0  0  0  0  0  0  0  0  0  0  # atno 11005 bound_to 11000
  146.0309  139.3334  143.0756 LP  0  0  0  0  0  0  0  0  0  0  0  0  # atno 17320 bound_to 7965
  145.8454  140.9558  143.0777 LP  0  0  0  0  0  0  0  0  0  0  0  0  # atno 17321 bound_to 7965
  140.0377  143.5378  152.2732 LP  0  0  0  0  0  0  0  0  0  0  0  0  # atno 17342 bound_to 10162
  139.6194  144.7626  151.2774 LP  0  0  0  0  0  0  0  0  0  0  0  0  # atno 17343 bound_to 10162
  157.2247  131.0490  151.2526 LP  0  0  0  0  0  0  0  0  0  0  0  0  # atno 17370 bound_to 10713
  157.3767  130.7210  149.6602 LP  0  0  0  0  0  0  0  0  0  0  0  0  # atno 17371 bound_to 10713
  140.3229  134.7992  157.4267 LP  0  0  0  0  0  0  0  0  0  0  0  0  # atno 17394 bound_to 11000
  140.1081  134.5382  155.8291 LP  0  0  0  0  0  0  0  0  0  0  0  0  # atno 17395 bound_to 11000

$$$$
