AV-unprocessed.smi:1307|AV-procd|sdf|5437|dock4
  -GOLD-   22720 5 03D 1   1.00000     0.00000
 Structure written by MMmdl.
 41 41  0  0  0  0  0  0  0  0  1 V2000
  147.6111  132.9216  160.9976 C   0  0  0  0  0  0  0  0  0  0  0  0
  146.9714  134.0402  161.8449 C   0  0  0  0  0  0  0  0  0  0  0  0
  145.5397  133.6315  162.2358 C   0  0  0  0  0  0  0  0  0  0  0  0
  147.0178  135.4205  161.1365 C   0  0  1  0  0  0  0  0  0  0  0  0
  146.6366  136.5920  162.0617 C   0  0  0  0  0  0  0  0  0  0  0  0
  148.3548  135.6596  160.5986 N   0  0  0  0  0  0  0  0  0  0  0  0
  148.7163  136.6768  159.7974 C   0  0  0  0  0  0  0  0  0  0  0  0
  147.9370  137.5627  159.4498 O   0  0  0  0  0  0  0  0  0  0  0  0
  150.1733  136.7221  159.2975 C   0  0  0  0  0  0  0  0  0  0  0  0
  150.3495  136.4704  157.8425 N   0  0  0  0  0  0  0  0  0  0  0  0
  150.9597  137.4625  157.0121 C   0  0  0  0  0  0  0  0  0  0  0  0
  151.4566  138.7719  157.6415 C   0  0  0  0  0  0  0  0  0  0  0  0
  152.0158  139.5647  156.7260 F   0  0  0  0  0  0  0  0  0  0  0  0
  150.4445  139.4544  158.1775 F   0  0  0  0  0  0  0  0  0  0  0  0
  152.3848  138.5564  158.5735 F   0  0  0  0  0  0  0  0  0  0  0  0
  151.1200  137.2275  155.6968 C   0  0  0  0  0  0  0  0  0  0  0  0
  150.6783  135.9859  155.1246 C   0  0  0  0  0  0  0  0  0  0  0  0
  150.1006  135.0367  155.8952 C   0  0  0  0  0  0  0  0  0  0  0  0
  149.6422  133.7365  155.3541 C   0  0  0  0  0  0  0  0  0  0  0  0
  149.6855  133.6500  154.0185 N   0  0  0  0  0  0  0  0  0  0  0  0
  149.2428  132.7658  155.9967 O   0  0  0  0  0  0  0  0  0  0  0  0
  149.9042  135.2630  157.3503 C   0  0  0  0  0  0  0  0  0  0  0  0
  149.3863  134.4391  158.1102 O   0  0  0  0  0  0  0  0  0  0  0  0
  147.1189  132.8298  160.0289 H   0  0  0  0  0  0  0  0  0  0  0  0
  147.5356  131.9567  161.4995 H   0  0  0  0  0  0  0  0  0  0  0  0
  148.6712  133.0997  160.8172 H   0  0  0  0  0  0  0  0  0  0  0  0
  147.5511  134.1143  162.7664 H   0  0  0  0  0  0  0  0  0  0  0  0
  144.8866  133.5929  161.3632 H   0  0  0  0  0  0  0  0  0  0  0  0
  145.1003  134.3231  162.9539 H   0  0  0  0  0  0  0  0  0  0  0  0
  145.5270  132.6456  162.7013 H   0  0  0  0  0  0  0  0  0  0  0  0
  146.3095  135.3946  160.3061 H   0  0  0  0  0  0  0  0  0  0  0  0
  145.6023  136.5227  162.3969 H   0  0  0  0  0  0  0  0  0  0  0  0
  146.7358  137.5490  161.5482 H   0  0  0  0  0  0  0  0  0  0  0  0
  147.2751  136.6240  162.9451 H   0  0  0  0  0  0  0  0  0  0  0  0
  149.0604  134.9779  160.8357 H   0  0  0  0  0  0  0  0  0  0  0  0
  150.5844  137.6976  159.5636 H   0  0  0  0  0  0  0  0  0  0  0  0
  150.7586  136.0487  159.9159 H   0  0  0  0  0  0  0  0  0  0  0  0
  151.5856  137.9587  155.0527 H   0  0  0  0  0  0  0  0  0  0  0  0
  150.8357  135.8488  154.0649 H   0  0  0  0  0  0  0  0  0  0  0  0
  149.3930  132.8020  153.5559 H   0  0  0  0  0  0  0  0  0  0  0  0
  150.0126  134.4380  153.4779 H   0  0  0  0  0  0  0  0  0  0  0  0
  1  2  1  0  0  0  0
  1 24  1  0  0  0  0
  1 25  1  0  0  0  0
  1 26  1  0  0  0  0
  2  3  1  0  0  0  0
  2  4  1  0  0  0  0
  2 27  1  0  0  0  0
  3 28  1  0  0  0  0
  3 29  1  0  0  0  0
  3 30  1  0  0  0  0
  4  5  1  0  0  0  0
  4  6  1  0  0  0  0
  4 31  1  0  0  0  0
  5 32  1  0  0  0  0
  5 33  1  0  0  0  0
  5 34  1  0  0  0  0
  6  7  1  0  0  0  0
  6 35  1  0  0  0  0
  7  8  2  0  0  0  0
  7  9  1  0  0  0  0
  9 10  1  0  0  0  0
  9 36  1  0  0  0  0
  9 37  1  0  0  0  0
 10 22  1  0  0  0  0
 10 11  1  0  0  0  0
 11 12  1  0  0  0  0
 11 16  2  0  0  0  0
 12 13  1  0  0  0  0
 12 14  1  0  0  0  0
 12 15  1  0  0  0  0
 16 17  1  0  0  0  0
 16 38  1  0  0  0  0
 17 18  2  0  0  0  0
 17 39  1  0  0  0  0
 18 19  1  0  0  0  0
 18 22  1  0  0  0  0
 19 20  1  0  0  0  0
 19 21  2  0  0  0  0
 20 40  1  0  0  0  0
 20 41  1  0  0  0  0
 22 23  2  0  0  0  0
M  END
> <s_m_source_file>
AV-unprocessed.smi

> <i_m_source_file_index>
1307

> <i_lp_mmshare_version>
43012

> <i_f3d_flags>
0

> <s_epik_input>
W0NIM11bQ0hdKFtDSDNdKVtDQEhdKFtDSDNdKVtOSF1DKD1PKVtDSDJdbjFjKEMoRikoRilGKVtjSF1bY0hdYyhjMT1PKUMoPU8pW05IMl0=

> <s_epik_cmdline>
J2VwaWtfcHl0aG9uJywgJy1waCcsICc3LjAnLCAnLXRuJywgJzgnLCAnLW1hJywgJzIwMCcsICctbWV0YWxfYmluZGluZycsICctaW1hZScsICc8aW5maWxlLm1hZT4nLCAnLW9tYWUnLCAnPG91dGZpbGUubWFlPic=

> <r_lp_tautomer_probability>
1

> <r_epik_Ionization_Penalty>
2.05992e-06

> <r_epik_Ionization_Penalty_Charging>
8.21357e-10

> <r_epik_Ionization_Penalty_Neutral>
2.0591e-06

> <r_epik_State_Penalty>
-0

> <r_epik_Charging_Adjusted_Penalty>
8.21357e-10

> <i_epik_Tot_Q>
0

> <i_epik_Tot_abs_Q>
0

> <r_epik_Metal_State_Penalty>
-0

> <b_epik_Metal_Only>
0

> <s_lp_Force_Field>
OPLS_2005

> <r_lp_Energy>
26.9387

> <b_lp_Chiralities_Consistent>
1

> <s_lp_Variant>
AV-unprocessed.smi:1307-2

> <Gold.Version>
5.8.1

> <Gold.Id.Protein>
6NUR|6NUR_protein|mol2

> <Gold.PLP.Fitness>
36.8408

> <Gold.PLP.PLP>
-32.1939

> <Gold.PLP.part.hbond>
-2.1637

> <Gold.PLP.part.metal>
0.0000

> <Gold.PLP.part.buried>
-6.1084

> <Gold.PLP.part.nonpolar>
-25.2788

> <Gold.PLP.part.repulsive>
0.1893

> <Gold.PLP.ligand.clash>
3.9459

> <Gold.PLP.ligand.torsion>
0.2549

> <Gold.PLP.Chemscore.Hbond>
1.7007

> <Gold.PLP.Chemscore.CHOScore>
0.0000

> <Gold.PLP.Chemscore.Metal>
0.0000

> <Gold.Chemscore.Hbonds>
donor molecule, donor type, donor heavy atom, donor atom, acceptor molecule, acceptor atom, score
      P1  H  6896  6909       L1    23  1.00
      P1  H  6934  6947       L1     8  0.34

> <Gold.PLP.Chemscore.Internal.Correction>
4.0005

> <Gold.Rescore>
     Score         DG    S(hbond)    S(metal)    S(lipo)     H(rot)  DE(clash)    DE(int)     intcor
     11.08     -15.82       2.57        0.00      58.23       1.97       0.50       4.25       ----

> <Gold.Chemscore.Fitness>
11.0752

> <Gold.Chemscore.DG>
-15.8224

> <Gold.Chemscore.ZeroCoef>
-5.4800

> <Gold.Chemscore.Hbond>
2.5682

> <Gold.Chemscore.Metal>
0.0000

> <Gold.Chemscore.Lipo>
58.2346

> <Gold.Chemscore.Internal_Hbond>
0.0000

> <Gold.Chemscore.DEClash>
0.4966

> <Gold.Chemscore.DEInternal>
4.2506

> <Gold.Chemscore.Rot>
1.9723

> <Gold.Chemscore.Internal.Correction>
   9.000000E+99

> <Gold.Chemscore.Hbonds>
donor molecule, donor type, donor heavy atom, donor atom, acceptor molecule, acceptor atom, score
      P1  H  6896  6909       L1    23  0.40
      P1  H  6934  6947       L1     8  0.33

> <Gold.Chemscore.Hbond.Weighted>
-8.5779

> <Gold.Chemscore.Metal.Weighted>
-0.0000

> <Gold.Chemscore.Lipo.Weighted>
-6.8135

> <Gold.Chemscore.Internal_Hbond.Weighted>
0.0000

> <Gold.Chemscore.DEClash.Weighted>
0.4966

> <Gold.Chemscore.DEInternal.Weighted>
4.2506

> <Gold.Chemscore.Rot.Weighted>
5.0490

> <Gold.Chemscore.Internal.Correction.Weighted>
   9.000000E+99

> <Gold.Protein.RotatedTorsions>
[ 6907 6896 6895 6894 ] final   26.30 input  -60.11 | X-H torsion
[ 7974 7965 7964 7962 ] final  -24.67 input  175.53 | X-H torsion
[ 8008 7997 7996 7995 ] final -128.83 input   59.86 | X-H torsion
[ 10167 10162 10161 10158 ] final   40.63 input  -65.29 | X-H torsion
[ 10718 10713 10712 10709 ] final -100.66 input   66.30 | X-H torsion
[ 10763 10752 10751 10750 ] final  124.06 input  -60.55 | X-H torsion
[ 11005 11000 10999 10996 ] final   11.16 input  -57.11 | X-H torsion

> <Gold.Protein.ActiveResidues>
 VAL166  LYS551  ARG553  GLY616  TRP617  ASP618  TYR619  PRO620  LYS621  CYS622 
 ASP623  PHE694  ASN695  SER759  ASP760  ASP761  ALA762  ILE779  LEU786  VAL792 
 PHE793  MET794  SER795  GLU796  ALA797  LYS798  CYS799  TRP800  GLU811  SER814 

> <Gold.Protein.RotatedAtoms>
  151.9854  135.0007  160.0559 H   0  0  0  0  0  0  0  0  0  0  0  0  # atno 6907 bound_to 6896
  152.1658  133.4606  159.4892 H   0  0  0  0  0  0  0  0  0  0  0  0  # atno 6908 bound_to 6896
  150.6894  134.1933  159.4336 H   0  0  0  0  0  0  0  0  0  0  0  0  # atno 6909 bound_to 6896
  146.1540  140.4782  142.8599 H   0  0  0  0  0  0  0  0  0  0  0  0  # atno 7974 bound_to 7965
  155.2692  140.0439  157.3005 H   0  0  0  0  0  0  0  0  0  0  0  0  # atno 8008 bound_to 7997
  154.5664  140.2361  155.8226 H   0  0  0  0  0  0  0  0  0  0  0  0  # atno 8009 bound_to 7997
  156.2088  140.3005  155.9694 H   0  0  0  0  0  0  0  0  0  0  0  0  # atno 8010 bound_to 7997
  140.3723  144.2089  150.6133 H   0  0  0  0  0  0  0  0  0  0  0  0  # atno 10167 bound_to 10162
  156.0170  130.5338  150.6850 H   0  0  0  0  0  0  0  0  0  0  0  0  # atno 10718 bound_to 10713
  153.6555  135.3355  155.3112 H   0  0  0  0  0  0  0  0  0  0  0  0  # atno 10763 bound_to 10752
  154.8527  135.4351  154.1860 H   0  0  0  0  0  0  0  0  0  0  0  0  # atno 10764 bound_to 10752
  153.2813  135.7009  153.7458 H   0  0  0  0  0  0  0  0  0  0  0  0  # atno 10765 bound_to 10752
  140.5063  134.0696  155.7806 H   0  0  0  0  0  0  0  0  0  0  0  0  # atno 11005 bound_to 11000
  144.7940  140.6086  143.6522 LP  0  0  0  0  0  0  0  0  0  0  0  0  # atno 17320 bound_to 7965
  145.4754  139.1500  143.3791 LP  0  0  0  0  0  0  0  0  0  0  0  0  # atno 17321 bound_to 7965
  140.5021  143.2315  151.8663 LP  0  0  0  0  0  0  0  0  0  0  0  0  # atno 17342 bound_to 10162
  139.4802  144.5048  151.9013 LP  0  0  0  0  0  0  0  0  0  0  0  0  # atno 17343 bound_to 10162
  157.4544  131.0876  151.0812 LP  0  0  0  0  0  0  0  0  0  0  0  0  # atno 17370 bound_to 10713
  157.1318  130.6105  149.5531 LP  0  0  0  0  0  0  0  0  0  0  0  0  # atno 17371 bound_to 10713
  141.1409  133.9140  157.2328 LP  0  0  0  0  0  0  0  0  0  0  0  0  # atno 17394 bound_to 11000
  139.9684  135.0135  156.9448 LP  0  0  0  0  0  0  0  0  0  0  0  0  # atno 17395 bound_to 11000

$$$$
