AV-unprocessed.smi:15|AV-procd|sdf|84|dock1
  -GOLD-   2262015213D 1   1.00000     0.00000
 Structure written by MMmdl.
 53 56  0  0  0  0  0  0  0  0  1 V2000
  147.7056  141.6563  155.3358 C   0  0  0  0  0  0  0  0  0  0  0  0
  148.8767  140.9090  154.6849 C   0  0  0  0  0  0  0  0  0  0  0  0
  149.9777  140.6680  155.6170 N   0  0  0  0  0  0  0  0  0  0  0  0
  150.7920  141.7883  156.0929 C   0  0  0  0  0  0  0  0  0  0  0  0
  150.8485  141.8913  157.6303 C   0  0  1  0  0  0  0  0  0  0  0  0
  151.7693  140.8607  158.2804 C   0  0  0  0  0  0  0  0  0  0  0  0
  152.1808  141.5183  159.5900 C   0  0  0  0  0  0  0  0  0  0  0  0
  151.7690  142.9827  159.4183 C   0  0  0  0  0  0  0  0  0  0  0  0
  151.4513  143.1093  158.0412 O   0  0  0  0  0  0  0  0  0  0  0  0
  150.6706  139.5139  155.4659 C   0  0  0  0  0  0  0  0  0  0  0  0
  151.8375  139.5712  154.7752 N   0  0  0  0  0  0  0  0  0  0  0  0
  152.5413  138.4579  154.5519 C   0  0  0  0  0  0  0  0  0  0  0  0
  152.2562  137.2044  154.9090 N   0  0  0  0  0  0  0  0  0  0  0  0
  151.0773  137.1399  155.5919 C   0  0  0  0  0  0  0  0  0  0  0  0
  150.2336  138.2370  155.9243 C   0  0  0  0  0  0  0  0  0  0  0  0
  149.1188  137.7796  156.6182 N   0  0  0  0  0  0  0  0  0  0  0  0
  149.2948  136.4893  156.6921 C   0  0  0  0  0  0  0  0  0  0  0  0
  150.4324  136.0163  156.0786 N   0  0  0  0  0  0  0  0  0  0  0  0
  150.8611  134.6300  155.9832 C   0  0  0  0  0  0  0  0  0  0  0  0
  149.8053  133.6617  155.3874 C   0  0  1  0  0  0  0  0  0  0  0  0
  148.7832  133.5468  156.3629 O   0  0  0  0  0  0  0  0  0  0  0  0
  149.1757  134.1189  154.0788 C   0  0  0  0  0  0  0  0  0  0  0  0
  148.5832  132.8277  153.5234 C   0  0  0  0  0  0  0  0  0  0  0  0
  149.4590  131.7915  153.9529 O   0  0  0  0  0  0  0  0  0  0  0  0
  150.3225  132.2617  154.9867 C   0  0  2  0  0  0  0  0  0  0  0  0
  150.4506  131.2285  156.1165 C   0  0  0  0  0  0  0  0  0  0  0  0
  146.8765  141.7526  154.6349 H   0  0  0  0  0  0  0  0  0  0  0  0
  147.9876  142.6622  155.6452 H   0  0  0  0  0  0  0  0  0  0  0  0
  147.3377  141.1227  156.2125 H   0  0  0  0  0  0  0  0  0  0  0  0
  148.5053  139.9562  154.3049 H   0  0  0  0  0  0  0  0  0  0  0  0
  149.2375  141.4699  153.8229 H   0  0  0  0  0  0  0  0  0  0  0  0
  151.8032  141.6663  155.7071 H   0  0  0  0  0  0  0  0  0  0  0  0
  150.4298  142.7256  155.6682 H   0  0  0  0  0  0  0  0  0  0  0  0
  149.8519  141.8138  158.0678 H   0  0  0  0  0  0  0  0  0  0  0  0
  151.2823  139.8961  158.4250 H   0  0  0  0  0  0  0  0  0  0  0  0
  152.6526  140.7013  157.6603 H   0  0  0  0  0  0  0  0  0  0  0  0
  151.6693  141.0716  160.4431 H   0  0  0  0  0  0  0  0  0  0  0  0
  153.2546  141.4189  159.7517 H   0  0  0  0  0  0  0  0  0  0  0  0
  150.8815  143.2060  160.0122 H   0  0  0  0  0  0  0  0  0  0  0  0
  152.5564  143.6794  159.7063 H   0  0  0  0  0  0  0  0  0  0  0  0
  153.4606  138.5893  154.0007 H   0  0  0  0  0  0  0  0  0  0  0  0
  148.5849  135.8400  157.1838 H   0  0  0  0  0  0  0  0  0  0  0  0
  151.7714  134.6011  155.3827 H   0  0  0  0  0  0  0  0  0  0  0  0
  151.1484  134.2982  156.9820 H   0  0  0  0  0  0  0  0  0  0  0  0
  147.9476  133.6306  155.9295 H   0  0  0  0  0  0  0  0  0  0  0  0
  148.4371  134.9119  154.2008 H   0  0  0  0  0  0  0  0  0  0  0  0
  149.9347  134.4747  153.3831 H   0  0  0  0  0  0  0  0  0  0  0  0
  147.5946  132.6470  153.9470 H   0  0  0  0  0  0  0  0  0  0  0  0
  148.4877  132.8444  152.4376 H   0  0  0  0  0  0  0  0  0  0  0  0
  151.2939  132.3606  154.5042 H   0  0  0  0  0  0  0  0  0  0  0  0
  151.1034  131.5943  156.9091 H   0  0  0  0  0  0  0  0  0  0  0  0
  150.8763  130.2983  155.7400 H   0  0  0  0  0  0  0  0  0  0  0  0
  149.4830  130.9900  156.5584 H   0  0  0  0  0  0  0  0  0  0  0  0
  1  2  1  0  0  0  0
  1 27  1  0  0  0  0
  1 28  1  0  0  0  0
  1 29  1  0  0  0  0
  2  3  1  0  0  0  0
  2 30  1  0  0  0  0
  2 31  1  0  0  0  0
  3  4  1  0  0  0  0
  3 10  1  0  0  0  0
  4  5  1  0  0  0  0
  4 32  1  0  0  0  0
  4 33  1  0  0  0  0
  5  9  1  0  0  0  0
  5  6  1  0  0  0  0
  5 34  1  0  0  0  0
  6  7  1  0  0  0  0
  6 35  1  0  0  0  0
  6 36  1  0  0  0  0
  7  8  1  0  0  0  0
  7 37  1  0  0  0  0
  7 38  1  0  0  0  0
  8  9  1  0  0  0  0
  8 39  1  0  0  0  0
  8 40  1  0  0  0  0
 10 15  1  0  0  0  0
 10 11  2  0  0  0  0
 11 12  1  0  0  0  0
 12 13  2  0  0  0  0
 12 41  1  0  0  0  0
 13 14  1  0  0  0  0
 14 18  1  0  0  0  0
 14 15  2  0  0  0  0
 15 16  1  0  0  0  0
 16 17  2  0  0  0  0
 17 18  1  0  0  0  0
 17 42  1  0  0  0  0
 18 19  1  0  0  0  0
 19 20  1  0  0  0  0
 19 43  1  0  0  0  0
 19 44  1  0  0  0  0
 20 25  1  0  0  0  0
 20 21  1  0  0  0  0
 20 22  1  0  0  0  0
 21 45  1  0  0  0  0
 22 23  1  0  0  0  0
 22 46  1  0  0  0  0
 22 47  1  0  0  0  0
 23 24  1  0  0  0  0
 23 48  1  0  0  0  0
 23 49  1  0  0  0  0
 24 25  1  0  0  0  0
 25 26  1  0  0  0  0
 25 50  1  0  0  0  0
 26 51  1  0  0  0  0
 26 52  1  0  0  0  0
 26 53  1  0  0  0  0
M  END
> <s_m_source_file>
AV-unprocessed.smi

> <i_m_source_file_index>
15

> <i_lp_mmshare_version>
43012

> <i_f3d_flags>
0

> <s_epik_input>
TzFbQ0gyXVtDSDJdW0NIMl1bQ0BIXTFbQ0gyXU4oW0NIMl1bQ0gzXSljKG5bY0hdbjIpYyhjMjMpbltjSF1uM1tDSDJdW0NAQF00KFtPSF0pW0NIMl1bQ0gyXU9bQ0BIXTRbQ0gzXQ==

> <s_epik_cmdline>
J2VwaWtfcHl0aG9uJywgJy1waCcsICc3LjAnLCAnLXRuJywgJzgnLCAnLW1hJywgJzIwMCcsICctbWV0YWxfYmluZGluZycsICctaW1hZScsICc8aW5maWxlLm1hZT4nLCAnLW9tYWUnLCAnPG91dGZpbGUubWFlPic=

> <r_lp_tautomer_probability>
1

> <r_epik_Ionization_Penalty>
0.00360814

> <r_epik_Ionization_Penalty_Charging>
0

> <r_epik_Ionization_Penalty_Neutral>
0.00360814

> <r_epik_State_Penalty>
0.00237482

> <r_epik_Charging_Adjusted_Penalty>
0.00237482

> <i_epik_Tot_Q>
0

> <i_epik_Tot_abs_Q>
0

> <r_epik_Metal_State_Penalty>
-0

> <b_epik_Metal_Only>
0

> <s_lp_Force_Field>
OPLS_2005

> <r_lp_Energy>
47.1955

> <b_lp_Chiralities_Consistent>
1

> <s_lp_Variant>
AV-unprocessed.smi:15-6

> <Gold.Version>
5.8.1

> <Gold.Id.Protein>
6NUR|6NUR_protein|mol2

> <Gold.PLP.Fitness>
45.1326

> <Gold.PLP.PLP>
-42.0008

> <Gold.PLP.part.hbond>
-2.0000

> <Gold.PLP.part.metal>
0.0000

> <Gold.PLP.part.buried>
-5.5865

> <Gold.PLP.part.nonpolar>
-34.5868

> <Gold.PLP.part.repulsive>
0.3084

> <Gold.PLP.ligand.clash>
0.0000

> <Gold.PLP.ligand.torsion>
1.7814

> <Gold.PLP.Chemscore.Hbond>
1.8640

> <Gold.PLP.Chemscore.CHOScore>
0.0000

> <Gold.PLP.Chemscore.Metal>
0.0000

> <Gold.Chemscore.Hbonds>
donor molecule, donor type, donor heavy atom, donor atom, acceptor molecule, acceptor atom, score
      P1  H  7989  7998       L1    11  1.00
      P1  H 10752 10765       L1    13  0.77

> <Gold.PLP.Chemscore.Internal.Correction>
1.1027

> <Gold.Rescore>
     Score         DG    S(hbond)    S(metal)    S(lipo)     H(rot)  DE(clash)    DE(int)     intcor
     13.07     -15.24       1.81        0.00      85.37       2.44       0.07       2.11       ----

> <Gold.Chemscore.Fitness>
13.0678

> <Gold.Chemscore.DG>
-15.2443

> <Gold.Chemscore.ZeroCoef>
-5.4800

> <Gold.Chemscore.Hbond>
1.8057

> <Gold.Chemscore.Metal>
0.0000

> <Gold.Chemscore.Lipo>
85.3656

> <Gold.Chemscore.Internal_Hbond>
0.0000

> <Gold.Chemscore.DEClash>
0.0693

> <Gold.Chemscore.DEInternal>
2.1072

> <Gold.Chemscore.Rot>
2.4431

> <Gold.Chemscore.Internal.Correction>
   9.000000E+99

> <Gold.Chemscore.Hbonds>
donor molecule, donor type, donor heavy atom, donor atom, acceptor molecule, acceptor atom, score
      P1  H  7989  7998       L1    11  0.61
      P1  H 10752 10765       L1    13  0.72

> <Gold.Chemscore.Hbond.Weighted>
-6.0309

> <Gold.Chemscore.Metal.Weighted>
-0.0000

> <Gold.Chemscore.Lipo.Weighted>
-9.9878

> <Gold.Chemscore.Internal_Hbond.Weighted>
0.0000

> <Gold.Chemscore.DEClash.Weighted>
0.0693

> <Gold.Chemscore.DEInternal.Weighted>
2.1072

> <Gold.Chemscore.Rot.Weighted>
6.2544

> <Gold.Chemscore.Internal.Correction.Weighted>
   9.000000E+99

> <Gold.Protein.RotatedTorsions>
[ 6907 6896 6895 6894 ] final  116.70 input  -60.11 | X-H torsion
[ 7974 7965 7964 7962 ] final   92.55 input  175.53 | X-H torsion
[ 8008 7997 7996 7995 ] final   18.05 input   59.86 | X-H torsion
[ 10167 10162 10161 10158 ] final  -76.83 input  -65.29 | X-H torsion
[ 10718 10713 10712 10709 ] final  144.51 input   66.30 | X-H torsion
[ 10763 10752 10751 10750 ] final  169.10 input  -60.55 | X-H torsion
[ 11005 11000 10999 10996 ] final  -10.13 input  -57.11 | X-H torsion

> <Gold.Protein.ActiveResidues>
 VAL166  LYS551  ARG553  GLY616  TRP617  ASP618  TYR619  PRO620  LYS621  CYS622 
 ASP623  PHE694  ASN695  SER759  ASP760  ASP761  ALA762  ILE779  LEU786  VAL792 
 PHE793  MET794  SER795  GLU796  ALA797  LYS798  CYS799  TRP800  GLU811  SER814 

> <Gold.Protein.RotatedAtoms>
  152.4661  133.7925  159.6909 H   0  0  0  0  0  0  0  0  0  0  0  0  # atno 6907 bound_to 6896
  150.8626  133.7612  159.2994 H   0  0  0  0  0  0  0  0  0  0  0  0  # atno 6908 bound_to 6896
  151.5173  135.1069  159.9921 H   0  0  0  0  0  0  0  0  0  0  0  0  # atno 6909 bound_to 6896
  145.4907  139.2276  143.2831 H   0  0  0  0  0  0  0  0  0  0  0  0  # atno 7974 bound_to 7965
  154.9003  140.2999  155.5321 H   0  0  0  0  0  0  0  0  0  0  0  0  # atno 8008 bound_to 7997
  156.3019  140.2408  156.3964 H   0  0  0  0  0  0  0  0  0  0  0  0  # atno 8009 bound_to 7997
  154.8528  140.0408  157.1604 H   0  0  0  0  0  0  0  0  0  0  0  0  # atno 8010 bound_to 7997
  140.4823  143.2399  151.8038 H   0  0  0  0  0  0  0  0  0  0  0  0  # atno 10167 bound_to 10162
  157.3563  131.0958  151.0955 H   0  0  0  0  0  0  0  0  0  0  0  0  # atno 10718 bound_to 10713
  154.3783  135.2753  155.2226 H   0  0  0  0  0  0  0  0  0  0  0  0  # atno 10763 bound_to 10752
  154.4344  135.5969  153.6092 H   0  0  0  0  0  0  0  0  0  0  0  0  # atno 10764 bound_to 10752
  152.9835  135.6003  154.4022 H   0  0  0  0  0  0  0  0  0  0  0  0  # atno 10765 bound_to 10752
  140.7414  133.8667  155.8971 H   0  0  0  0  0  0  0  0  0  0  0  0  # atno 11005 bound_to 11000
  146.2285  140.5701  142.8985 LP  0  0  0  0  0  0  0  0  0  0  0  0  # atno 17320 bound_to 7965
  144.7835  140.5889  143.6589 LP  0  0  0  0  0  0  0  0  0  0  0  0  # atno 17321 bound_to 7965
  139.4835  144.4756  151.9370 LP  0  0  0  0  0  0  0  0  0  0  0  0  # atno 17342 bound_to 10162
  140.3842  144.2698  150.5905 LP  0  0  0  0  0  0  0  0  0  0  0  0  # atno 17343 bound_to 10162
  157.2111  130.6438  149.5774 LP  0  0  0  0  0  0  0  0  0  0  0  0  # atno 17370 bound_to 10713
  155.9730  130.4659  150.6272 LP  0  0  0  0  0  0  0  0  0  0  0  0  # atno 17371 bound_to 10713
  140.9833  134.1377  157.4475 LP  0  0  0  0  0  0  0  0  0  0  0  0  # atno 17394 bound_to 11000
  139.8805  135.0017  156.6085 LP  0  0  0  0  0  0  0  0  0  0  0  0  # atno 17395 bound_to 11000

$$$$
