#       Name:                AV-unprocessed.smi:1938
#       Creating user name   scv26
#       Creation time:       Fri Mar 27 09:58:15 2020


#       File generated by GOLD software.
#

@<TRIPOS>MOLECULE
AV-unprocessed.smi:1938
    42    43     1
SMALL
NO_CHARGES


@<TRIPOS>ATOM
      1 ****        -3.2053  -3.6561  -1.1849 C.3            1 S1                 0.0000
      2 ****        -2.5278  -2.4068  -1.1053 O.3            1 S1                 0.0000
      3 ****        -3.2569  -1.2802  -0.7749 C.ar           1 S1                 0.0000
      4 ****        -4.5874  -1.4170  -0.5464 N.ar           1 S1                 0.0000
      5 ****        -5.3012  -0.3176  -0.2285 C.ar           1 S1                 0.0000
      6 ****        -4.7350   0.9664  -0.1286 C.ar           1 S1                 0.0000
      7 ****        -3.3552   1.1108  -0.3640 C.ar           1 S1                 0.0000
      8 ****        -2.5892  -0.0364  -0.6842 C.ar           1 S1                 0.0000
      9 ****        -1.1943  -0.0008  -0.9598 N.am           1 S1                 0.0000
     10 ****        -0.2844   0.9048  -0.5633 C.2            1 S1                 0.0000
     11 ****        -0.5164   1.8887   0.1393 O.2            1 S1                 0.0000
     12 ****         0.9376   0.5901  -1.0141 N.am           1 S1                 0.0000
     13 ****         2.1550   1.3407  -0.7294 C.3            1 S1                 0.0000
     14 ****         2.7281   0.9829   0.6515 C.3            1 S1                 0.0000
     15 ****         3.9856   1.7663   1.0182 C.3            1 S1                 0.0000
     16 ****         4.6045   0.8666   2.0637 C.3            1 S1                 0.0000
     17 ****         4.2930  -0.5250   1.5157 C.3            1 S1                 0.0000
     18 ****         3.1403  -0.3805   0.6887 O.3            1 S1                 0.0000
     19 ****        -2.4923  -4.4360  -1.4518 H              1 S1                 0.0000
     20 ****        -3.9814  -3.6415  -1.9515 H              1 S1                 0.0000
     21 ****        -3.6514  -3.9302  -0.2279 H              1 S1                 0.0000
     22 ****        -6.3570  -0.4651  -0.0556 H              1 S1                 0.0000
     23 ****        -5.3461   1.8221   0.1178 H              1 S1                 0.0000
     24 ****        -2.9181   2.0956  -0.3098 H              1 S1                 0.0000
     25 ****        -0.8344  -0.8013  -1.4587 H              1 S1                 0.0000
     26 ****         1.0391  -0.2418  -1.5766 H              1 S1                 0.0000
     27 ****         2.8857   1.1186  -1.5074 H              1 S1                 0.0000
     28 ****         1.9541   2.4118  -0.7895 H              1 S1                 0.0000
     29 ****         1.9781   1.1334   1.4299 H              1 S1                 0.0000
     30 ****         4.6514   1.8531   0.1583 H              1 S1                 0.0000
     31 ****         3.7703   2.7687   1.3891 H              1 S1                 0.0000
     32 ****         5.6714   1.0414   2.2047 H              1 S1                 0.0000
     33 ****         4.1046   1.0121   3.0226 H              1 S1                 0.0000
     34 ****         5.1159  -0.8902   0.9002 H              1 S1                 0.0000
     35 ****         4.1192  -1.2491   2.3122 H              1 S1                 0.0000
     36 ****        -2.1135  -2.2383  -1.9997 LP             1 S1                 0.0000
     37 ****        -1.8082  -2.5046  -0.4178 LP             1 S1                 0.0000
     38 ****        -5.0285  -2.3120  -0.6122 LP             1 S1                 0.0000
     39 ****        -1.4463   2.0643   0.4625 LP             1 S1                 0.0000
     40 ****         0.2250   2.5124   0.3868 LP             1 S1                 0.0000
     41 ****         3.3589  -0.6847  -0.2385 LP             1 S1                 0.0000
     42 ****         2.3977  -0.9400   1.0567 LP             1 S1                 0.0000
@<TRIPOS>BOND
    1    1    2 1     
    2    1   19 1     
    3    1   20 1     
    4    1   21 1     
    5    2    3 1     
    6    3    8 ar    
    7    3    4 ar    
    8    4    5 ar    
    9    5    6 ar    
   10    5   22 1     
   11    6    7 ar    
   12    6   23 1     
   13    7    8 ar    
   14    7   24 1     
   15    8    9 1     
   16    9   10 am    
   17    9   25 1     
   18   10   11 2     
   19   10   12 am    
   20   12   13 1     
   21   12   26 1     
   22   13   14 1     
   23   13   27 1     
   24   13   28 1     
   25   14   18 1     
   26   14   15 1     
   27   14   29 1     
   28   15   16 1     
   29   15   30 1     
   30   15   31 1     
   31   16   17 1     
   32   16   32 1     
   33   16   33 1     
   34   17   18 1     
   35   17   34 1     
   36   17   35 1     
   37    2   36 1     
   38    2   37 1     
   39    4   38 1     
   40   11   39 1     
   41   11   40 1     
   42   18   41 1     
   43   18   42 1     
@<TRIPOS>SUBSTRUCTURE
      1 S1             1
@<TRIPOS>SET
LONE_PAIRS      STATIC     ATOMS    <user>   **** ""
7 36 37 38 39 40 41 42
DONOR_HYDROGENS      STATIC     ATOMS    <user>   **** ""
2 25 26
ATOM$BLUE        STATIC     ATOMS    COLORGROUP SYSTEM
7 36 37 38 39 40 41 42
ATOM$RED        STATIC     ATOMS    COLORGROUP SYSTEM
2 25 26
