#       Name:                AV-unprocessed.smi:2034
#       Creating user name   scv26
#       Creation time:       Fri Mar 27 10:53:56 2020


#       File generated by GOLD software.
#

@<TRIPOS>MOLECULE
AV-unprocessed.smi:2034
    58    60     1
SMALL
NO_CHARGES


@<TRIPOS>ATOM
      1 ****        -6.2917  -0.4817   2.3733 C.3            1 S1                 0.0000
      2 ****        -5.6721   0.1828   1.1392 C.3            1 S1                 0.0000
      3 ****        -4.1372   0.2532   1.2341 C.3            1 S1                 0.0000
      4 ****        -3.6019   0.9877   0.0971 N.3            1 S1                 0.0000
      5 ****        -2.2034   0.9590   0.0221 C.ar           1 S1                 0.0000
      6 ****        -1.3964   1.5666   1.0107 C.ar           1 S1                 0.0000
      7 ****         0.0028   1.4982   0.8749 C.ar           1 S1                 0.0000
      8 ****         0.5543   0.8214  -0.2314 C.ar           1 S1                 0.0000
      9 ****         1.9690   0.7843  -0.3538 N.am           1 S1                 0.0000
     10 ****         2.7240  -0.0796  -1.0533 C.2            1 S1                 0.0000
     11 ****         2.2989  -1.0383  -1.6975 O.2            1 S1                 0.0000
     12 ****         4.0257   0.2183  -0.9425 N.am           1 S1                 0.0000
     13 ****         5.1140  -0.5460  -1.5404 C.3            1 S1                 0.0000
     14 ****         5.4937  -1.7563  -0.6721 C.3            1 S1                 0.0000
     15 ****         6.5956  -2.6241  -1.2766 C.3            1 S1                 0.0000
     16 ****         7.1732  -3.2822  -0.0447 C.3            1 S1                 0.0000
     17 ****         7.1181  -2.1437   0.9692 C.3            1 S1                 0.0000
     18 ****         6.0128  -1.3291   0.5858 O.3            1 S1                 0.0000
     19 ****        -0.3410   0.2569  -1.1723 C.ar           1 S1                 0.0000
     20 ****        -1.6840   0.3215  -1.0488 N.ar           1 S1                 0.0000
     21 ****        -4.1638   2.3269  -0.0167 C.3            1 S1                 0.0000
     22 ****        -5.7032   2.2671  -0.0708 C.3            1 S1                 0.0000
     23 ****        -6.2502   1.7671  -1.4198 C.3            1 S1                 0.0000
     24 ****        -6.2037   1.5045   1.0315 O.3            1 S1                 0.0000
     25 ****        -5.9264  -1.5017   2.4956 H              1 S1                 0.0000
     26 ****        -7.3778  -0.5263   2.2875 H              1 S1                 0.0000
     27 ****        -6.0516   0.0713   3.2818 H              1 S1                 0.0000
     28 ****        -5.9582  -0.3995   0.2630 H              1 S1                 0.0000
     29 ****        -3.8424   0.7458   2.1619 H              1 S1                 0.0000
     30 ****        -3.7152  -0.7526   1.2534 H              1 S1                 0.0000
     31 ****        -1.8353   2.0753   1.8563 H              1 S1                 0.0000
     32 ****         0.6416   1.9566   1.6157 H              1 S1                 0.0000
     33 ****         2.4701   1.4641   0.1992 H              1 S1                 0.0000
     34 ****         4.2861   1.0188  -0.3854 H              1 S1                 0.0000
     35 ****         4.8337  -0.8725  -2.5433 H              1 S1                 0.0000
     36 ****         5.9730   0.1146  -1.6594 H              1 S1                 0.0000
     37 ****         4.6192  -2.3806  -0.4808 H              1 S1                 0.0000
     38 ****         6.2200  -3.3395  -2.0086 H              1 S1                 0.0000
     39 ****         7.3543  -2.0059  -1.7589 H              1 S1                 0.0000
     40 ****         6.5316  -4.1041   0.2764 H              1 S1                 0.0000
     41 ****         8.1804  -3.6715  -0.1957 H              1 S1                 0.0000
     42 ****         7.0114  -2.5042   1.9925 H              1 S1                 0.0000
     43 ****         8.0256  -1.5411   0.9150 H              1 S1                 0.0000
     44 ****         0.0055  -0.2439  -2.0627 H              1 S1                 0.0000
     45 ****        -3.8552   2.9206   0.8449 H              1 S1                 0.0000
     46 ****        -3.7707   2.8248  -0.9042 H              1 S1                 0.0000
     47 ****        -6.0792   3.2815   0.0650 H              1 S1                 0.0000
     48 ****        -5.9545   2.4370  -2.2274 H              1 S1                 0.0000
     49 ****        -7.3394   1.7268  -1.4071 H              1 S1                 0.0000
     50 ****        -5.8809   0.7737  -1.6738 H              1 S1                 0.0000
     51 ****        -3.9087   0.4938  -0.7165 LP             1 S1                 0.0000
     52 ****         1.3168  -1.2241  -1.7282 LP             1 S1                 0.0000
     53 ****         2.9356  -1.6315  -2.1901 LP             1 S1                 0.0000
     54 ****         5.2957  -1.3991   1.2793 LP             1 S1                 0.0000
     55 ****         6.3139  -0.3784   0.5124 LP             1 S1                 0.0000
     56 ****        -2.2808  -0.0937  -1.7353 LP             1 S1                 0.0000
     57 ****        -5.9856   1.9966   1.8743 LP             1 S1                 0.0000
     58 ****        -7.1964   1.4331   0.9346 LP             1 S1                 0.0000
@<TRIPOS>BOND
    1    1    2 1     
    2    1   25 1     
    3    1   26 1     
    4    1   27 1     
    5    2   24 1     
    6    2    3 1     
    7    2   28 1     
    8    3    4 1     
    9    3   29 1     
   10    3   30 1     
   11    4    5 1     
   12    4   21 1     
   13    5   20 ar    
   14    5    6 ar    
   15    6    7 ar    
   16    6   31 1     
   17    7    8 ar    
   18    7   32 1     
   19    8    9 1     
   20    8   19 ar    
   21    9   10 am    
   22    9   33 1     
   23   10   11 2     
   24   10   12 am    
   25   12   13 1     
   26   12   34 1     
   27   13   14 1     
   28   13   35 1     
   29   13   36 1     
   30   14   18 1     
   31   14   15 1     
   32   14   37 1     
   33   15   16 1     
   34   15   38 1     
   35   15   39 1     
   36   16   17 1     
   37   16   40 1     
   38   16   41 1     
   39   17   18 1     
   40   17   42 1     
   41   17   43 1     
   42   19   20 ar    
   43   19   44 1     
   44   21   22 1     
   45   21   45 1     
   46   21   46 1     
   47   22   23 1     
   48   22   24 1     
   49   22   47 1     
   50   23   48 1     
   51   23   49 1     
   52   23   50 1     
   53    4   51 1     
   54   11   52 1     
   55   11   53 1     
   56   18   54 1     
   57   18   55 1     
   58   20   56 1     
   59   24   57 1     
   60   24   58 1     
@<TRIPOS>SUBSTRUCTURE
      1 S1             1
@<TRIPOS>SET
LONE_PAIRS      STATIC     ATOMS    <user>   **** ""
8 51 52 53 54 55 56 57 58
DONOR_HYDROGENS      STATIC     ATOMS    <user>   **** ""
2 33 34
ATOM$BLUE        STATIC     ATOMS    COLORGROUP SYSTEM
8 51 52 53 54 55 56 57 58
ATOM$RED        STATIC     ATOMS    COLORGROUP SYSTEM
2 33 34
