AV-unprocessed.smi:2923|AV-procd|sdf|11209|dock1
  -GOLD-   2272016103D 1   1.00000     0.00000
 Structure written by MMmdl.
 47 49  0  0  0  0  0  0  0  0  2 V2000
  149.4976  128.6072  155.6409 C   0  0  0  0  0  0  0  0  0  0  0  0
  150.3016  129.2789  154.6309 N   0  0  0  0  0  0  0  0  0  0  0  0
  151.7297  129.0009  154.6619 C   0  0  0  0  0  0  0  0  0  0  0  0
  150.0121  130.6461  154.5264 C   0  0  0  0  0  0  0  0  0  0  0  0
  150.5439  131.5792  155.4402 C   0  0  0  0  0  0  0  0  0  0  0  0
  150.2312  132.9460  155.2936 C   0  0  0  0  0  0  0  0  0  0  0  0
  149.3854  133.3633  154.2430 C   0  0  0  0  0  0  0  0  0  0  0  0
  149.1135  134.7530  154.1245 N   0  0  0  0  0  0  0  0  0  0  0  0
  149.0459  135.6781  155.0973 C   0  0  0  0  0  0  0  0  0  0  0  0
  149.2497  135.4709  156.2931 O   0  0  0  0  0  0  0  0  0  0  0  0
  148.7381  136.8823  154.5985 N   0  0  0  0  0  0  0  0  0  0  0  0
  148.6147  138.1080  155.3943 C   0  0  1  0  0  0  0  0  0  0  0  0
  149.9750  138.7030  155.7674 C   0  0  1  0  0  0  0  0  0  0  0  0
  151.3767  138.2111  155.8109 C   0  0  0  0  0  0  0  0  0  0  0  0
  152.0451  139.4782  155.2115 C   0  0  0  0  0  0  0  0  0  0  0  0
  150.9606  140.3103  154.7252 O   0  0  0  0  0  0  0  0  0  0  0  0
  149.9357  139.3869  154.4159 C   0  0  2  0  0  0  0  0  0  0  0  0
  148.3996  139.4411  154.5718 C   0  0  0  0  0  0  0  0  0  0  0  0
  147.6022  139.3391  153.2666 C   0  0  0  0  0  0  0  0  0  0  0  0
  147.8133  140.6485  155.3258 C   0  0  0  0  0  0  0  0  0  0  0  0
  148.8878  132.3830  153.3496 C   0  0  0  0  0  0  0  0  0  0  0  0
  149.2132  131.0838  153.5244 N   0  3  0  0  0  0  0  0  0  0  0  0
  148.4410  128.8516  155.5229 H   0  0  0  0  0  0  0  0  0  0  0  0
  149.8087  128.8972  156.6453 H   0  0  0  0  0  0  0  0  0  0  0  0
  149.6045  127.5261  155.5498 H   0  0  0  0  0  0  0  0  0  0  0  0
  152.2470  129.5351  153.8640 H   0  0  0  0  0  0  0  0  0  0  0  0
  151.9082  127.9345  154.5226 H   0  0  0  0  0  0  0  0  0  0  0  0
  152.1662  129.2985  155.6161 H   0  0  0  0  0  0  0  0  0  0  0  0
  151.1868  131.2532  156.2450 H   0  0  0  0  0  0  0  0  0  0  0  0
  150.6373  133.6665  155.9886 H   0  0  0  0  0  0  0  0  0  0  0  0
  148.9985  135.0941  153.1814 H   0  0  0  0  0  0  0  0  0  0  0  0
  148.5887  136.9669  153.6038 H   0  0  0  0  0  0  0  0  0  0  0  0
  147.9448  138.0140  156.2508 H   0  0  0  0  0  0  0  0  0  0  0  0
  149.8277  139.3977  156.5977 H   0  0  0  0  0  0  0  0  0  0  0  0
  151.7200  137.9934  156.8225 H   0  0  0  0  0  0  0  0  0  0  0  0
  151.5269  137.3321  155.1826 H   0  0  0  0  0  0  0  0  0  0  0  0
  152.6212  140.0267  155.9573 H   0  0  0  0  0  0  0  0  0  0  0  0
  152.7162  139.2121  154.3938 H   0  0  0  0  0  0  0  0  0  0  0  0
  150.2409  138.7467  153.5816 H   0  0  0  0  0  0  0  0  0  0  0  0
  147.6034  140.2832  152.7207 H   0  0  0  0  0  0  0  0  0  0  0  0
  146.5626  139.0693  153.4557 H   0  0  0  0  0  0  0  0  0  0  0  0
  148.0135  138.5877  152.5925 H   0  0  0  0  0  0  0  0  0  0  0  0
  147.9899  141.5763  154.7808 H   0  0  0  0  0  0  0  0  0  0  0  0
  148.2318  140.7862  156.3212 H   0  0  0  0  0  0  0  0  0  0  0  0
  146.7354  140.5481  155.4565 H   0  0  0  0  0  0  0  0  0  0  0  0
  148.2566  132.5806  152.4964 H   0  0  0  0  0  0  0  0  0  0  0  0
  148.8408  130.3997  152.8652 H   0  0  0  0  0  0  0  0  0  0  0  0
  1  2  1  0  0  0  0
  1 23  1  0  0  0  0
  1 24  1  0  0  0  0
  1 25  1  0  0  0  0
  2  3  1  0  0  0  0
  2  4  1  0  0  0  0
  3 26  1  0  0  0  0
  3 27  1  0  0  0  0
  3 28  1  0  0  0  0
  4 22  1  0  0  0  0
  4  5  2  0  0  0  0
  5  6  1  0  0  0  0
  5 29  1  0  0  0  0
  6  7  2  0  0  0  0
  6 30  1  0  0  0  0
  7  8  1  0  0  0  0
  7 21  1  0  0  0  0
  8  9  1  0  0  0  0
  8 31  1  0  0  0  0
  9 10  2  0  0  0  0
  9 11  1  0  0  0  0
 11 12  1  0  0  0  0
 11 32  1  0  0  0  0
 12 18  1  0  0  0  0
 12 13  1  0  0  0  0
 12 33  1  0  0  0  0
 13 17  1  0  0  0  0
 13 14  1  0  0  0  0
 13 34  1  0  0  0  0
 14 15  1  0  0  0  0
 14 35  1  0  0  0  0
 14 36  1  0  0  0  0
 15 16  1  0  0  0  0
 15 37  1  0  0  0  0
 15 38  1  0  0  0  0
 16 17  1  0  0  0  0
 17 18  1  0  0  0  0
 17 39  1  0  0  0  0
 18 19  1  0  0  0  0
 18 20  1  0  0  0  0
 19 40  1  0  0  0  0
 19 41  1  0  0  0  0
 19 42  1  0  0  0  0
 20 43  1  0  0  0  0
 20 44  1  0  0  0  0
 20 45  1  0  0  0  0
 21 22  2  0  0  0  0
 21 46  1  0  0  0  0
 22 47  1  0  0  0  0
M  CHG  1  22   1
M  END
> <s_m_source_file>
AV-unprocessed.smi

> <i_m_source_file_index>
2923

> <i_lp_mmshare_version>
43012

> <i_f3d_flags>
0

> <s_epik_input>
W0NIM11OKFtDSDNdKWMxW2NIXVtjSF1jKFtjSF1uMSlbTkhdQyg9TylbTkhdW0NASF0yQyhbQ0gzXSkoW0NIM10pW0NAQEhdKFtDQEhdMjMpT1tDSDJdW0NIMl0z

> <s_epik_cmdline>
J2VwaWtfcHl0aG9uJywgJy1waCcsICc3LjAnLCAnLXRuJywgJzgnLCAnLW1hJywgJzIwMCcsICctbWV0YWxfYmluZGluZycsICctaW1hZScsICc8aW5maWxlLm1hZT4nLCAnLW9tYWUnLCAnPG91dGZpbGUubWFlPic=

> <r_lp_tautomer_probability>
0.999994

> <r_epik_Ionization_Penalty>
0.252205

> <r_epik_Ionization_Penalty_Charging>
0.252185

> <r_epik_Ionization_Penalty_Neutral>
1.99479e-05

> <r_epik_State_Penalty>
0.243573

> <r_epik_Charging_Adjusted_Penalty>
0.495758

> <i_epik_Tot_Q>
1

> <i_epik_Tot_abs_Q>
1

> <r_epik_Metal_State_Penalty>
0.534372

> <b_epik_Metal_Only>
0

> <s_lp_Force_Field>
OPLS_2005

> <r_lp_Energy>
76.1275

> <b_lp_Chiralities_Consistent>
1

> <s_lp_Variant>
AV-unprocessed.smi:2923-8

> <Gold.Version>
5.8.1

> <Gold.Id.Protein>
6NUR|6NUR_protein|mol2

> <Gold.PLP.Fitness>
37.8998

> <Gold.PLP.PLP>
-29.9237

> <Gold.PLP.part.hbond>
-3.2691

> <Gold.PLP.part.metal>
0.0000

> <Gold.PLP.part.buried>
-0.4533

> <Gold.PLP.part.nonpolar>
-25.7063

> <Gold.PLP.part.repulsive>
0.2002

> <Gold.PLP.ligand.clash>
0.0000

> <Gold.PLP.ligand.torsion>
0.6341

> <Gold.PLP.Chemscore.Hbond>
2.9280

> <Gold.PLP.Chemscore.CHOScore>
0.0000

> <Gold.PLP.Chemscore.Metal>
0.0000

> <Gold.Chemscore.Hbonds>
donor molecule, donor type, donor heavy atom, donor atom, acceptor molecule, acceptor atom, score
      L1  H     8    31       P1  7948  1.00
      L1  H    11    32       P1  7948  0.91
      P1  H  7989  7998       L1    16  0.90

> <Gold.PLP.Chemscore.Internal.Correction>
0.4603

> <Gold.Rescore>
     Score         DG    S(hbond)    S(metal)    S(lipo)     H(rot)  DE(clash)    DE(int)     intcor
     15.09     -17.03       1.94        0.00      69.80       1.20       0.18       1.76       ----

> <Gold.Chemscore.Fitness>
15.0917

> <Gold.Chemscore.DG>
-17.0253

> <Gold.Chemscore.ZeroCoef>
-5.4800

> <Gold.Chemscore.Hbond>
1.9352

> <Gold.Chemscore.Metal>
0.0000

> <Gold.Chemscore.Lipo>
69.7976

> <Gold.Chemscore.Internal_Hbond>
0.0000

> <Gold.Chemscore.DEClash>
0.1770

> <Gold.Chemscore.DEInternal>
1.7566

> <Gold.Chemscore.Rot>
1.2049

> <Gold.Chemscore.Internal.Correction>
   9.000000E+99

> <Gold.Chemscore.Hbonds>
donor molecule, donor type, donor heavy atom, donor atom, acceptor molecule, acceptor atom, score
      L1  H     8    31       P1  7948  0.25
      L1  H    11    32       P1  7948  0.89
      P1  H  7989  7998       L1    16  0.16

> <Gold.Chemscore.Hbond.Weighted>
-6.4636

> <Gold.Chemscore.Metal.Weighted>
-0.0000

> <Gold.Chemscore.Lipo.Weighted>
-8.1663

> <Gold.Chemscore.Internal_Hbond.Weighted>
0.0000

> <Gold.Chemscore.DEClash.Weighted>
0.1770

> <Gold.Chemscore.DEInternal.Weighted>
1.7566

> <Gold.Chemscore.Rot.Weighted>
3.0846

> <Gold.Chemscore.Internal.Correction.Weighted>
   9.000000E+99

> <Gold.Protein.RotatedTorsions>
[ 6907 6896 6895 6894 ] final -143.43 input  -60.11 | X-H torsion
[ 7974 7965 7964 7962 ] final   98.91 input  175.53 | X-H torsion
[ 8008 7997 7996 7995 ] final -161.39 input   59.86 | X-H torsion
[ 10167 10162 10161 10158 ] final   44.74 input  -65.29 | X-H torsion
[ 10718 10713 10712 10709 ] final  -94.34 input   66.30 | X-H torsion
[ 10763 10752 10751 10750 ] final   69.44 input  -60.55 | X-H torsion
[ 11005 11000 10999 10996 ] final   92.90 input  -57.11 | X-H torsion

> <Gold.Protein.ActiveResidues>
 VAL166  LYS551  ARG553  GLY616  TRP617  ASP618  TYR619  PRO620  LYS621  CYS622 
 ASP623  PHE694  ASN695  SER759  ASP760  ASP761  ALA762  ILE779  LEU786  VAL792 
 PHE793  MET794  SER795  GLU796  ALA797  LYS798  CYS799  TRP800  GLU811  SER814 

> <Gold.Protein.RotatedAtoms>
  151.1004  133.5248  159.2610 H   0  0  0  0  0  0  0  0  0  0  0  0  # atno 6907 bound_to 6896
  151.2081  135.0469  159.8910 H   0  0  0  0  0  0  0  0  0  0  0  0  # atno 6908 bound_to 6896
  152.5442  134.0823  159.8294 H   0  0  0  0  0  0  0  0  0  0  0  0  # atno 6909 bound_to 6896
  145.4058  139.2341  143.3275 H   0  0  0  0  0  0  0  0  0  0  0  0  # atno 7974 bound_to 7965
  155.7914  140.0879  157.2006 H   0  0  0  0  0  0  0  0  0  0  0  0  # atno 8008 bound_to 7997
  154.3985  140.1489  156.3226 H   0  0  0  0  0  0  0  0  0  0  0  0  # atno 8009 bound_to 7997
  155.8554  140.3432  155.5724 H   0  0  0  0  0  0  0  0  0  0  0  0  # atno 8010 bound_to 7997
  140.3312  144.2586  150.6168 H   0  0  0  0  0  0  0  0  0  0  0  0  # atno 10167 bound_to 10162
  156.0026  130.5064  150.5912 H   0  0  0  0  0  0  0  0  0  0  0  0  # atno 10718 bound_to 10713
  153.0287  135.5210  154.7289 H   0  0  0  0  0  0  0  0  0  0  0  0  # atno 10763 bound_to 10752
  154.6322  135.2902  155.0205 H   0  0  0  0  0  0  0  0  0  0  0  0  # atno 10764 bound_to 10752
  154.1152  135.6616  153.4945 H   0  0  0  0  0  0  0  0  0  0  0  0  # atno 10765 bound_to 10752
  139.8817  134.8759  156.3639 H   0  0  0  0  0  0  0  0  0  0  0  0  # atno 11005 bound_to 11000
  146.2729  140.4762  142.8807 LP  0  0  0  0  0  0  0  0  0  0  0  0  # atno 17320 bound_to 7965
  144.8342  140.6756  143.6271 LP  0  0  0  0  0  0  0  0  0  0  0  0  # atno 17321 bound_to 7965
  140.5395  143.2226  151.8108 LP  0  0  0  0  0  0  0  0  0  0  0  0  # atno 17342 bound_to 10162
  139.4856  144.4618  151.9532 LP  0  0  0  0  0  0  0  0  0  0  0  0  # atno 17343 bound_to 10162
  157.3776  131.0776  151.1504 LP  0  0  0  0  0  0  0  0  0  0  0  0  # atno 17370 bound_to 10713
  157.2237  130.6493  149.5821 LP  0  0  0  0  0  0  0  0  0  0  0  0  # atno 17371 bound_to 10713
  140.9510  133.7451  156.0272 LP  0  0  0  0  0  0  0  0  0  0  0  0  # atno 17394 bound_to 11000
  140.8105  134.3404  157.5413 LP  0  0  0  0  0  0  0  0  0  0  0  0  # atno 17395 bound_to 11000

$$$$
