AV-unprocessed.smi:153|AV-procd|sdf|1258|dock9
  -GOLD-   2262018503D 1   1.00000     0.00000
 Structure written by MMmdl.
 59 62  0  0  0  0  0  0  0  0  1 V2000
  147.6671  133.2036  162.1160 C   0  0  0  0  0  0  0  0  0  0  0  0
  147.0909  134.5484  162.5844 C   0  0  2  0  0  0  0  0  0  0  0  0
  145.7110  134.3648  162.8856 O   0  0  0  0  0  0  0  0  0  0  0  0
  145.0529  135.6090  162.7304 C   0  0  0  0  0  0  0  0  0  0  0  0
  145.6762  136.1420  161.4498 C   0  0  0  0  0  0  0  0  0  0  0  0
  147.1431  135.7312  161.5755 C   0  0  1  0  0  0  0  0  0  0  0  0
  147.8397  136.7960  162.2004 O   0  0  0  0  0  0  0  0  0  0  0  0
  147.8220  135.4458  160.2091 C   0  0  0  0  0  0  0  0  0  0  0  0
  147.9644  136.6316  159.3771 N   0  0  0  0  0  0  0  0  0  0  0  0
  146.9568  137.3075  158.7298 C   0  0  0  0  0  0  0  0  0  0  0  0
  147.3387  138.3532  158.0509 N   0  0  0  0  0  0  0  0  0  0  0  0
  148.7177  138.4063  158.2323 C   0  0  0  0  0  0  0  0  0  0  0  0
  149.7582  139.2798  157.7858 C   0  0  0  0  0  0  0  0  0  0  0  0
  149.5641  140.3904  157.0136 N   0  0  0  0  0  0  0  0  0  0  0  0
  148.2100  140.9063  156.8499 C   0  0  0  0  0  0  0  0  0  0  0  0
  150.6722  141.3177  156.7705 C   0  0  0  0  0  0  0  0  0  0  0  0
  150.7611  142.4335  157.8361 C   0  0  2  0  0  0  0  0  0  0  0  0
  149.8389  143.4494  157.4950 O   0  0  0  0  0  0  0  0  0  0  0  0
  152.1658  143.0727  157.8739 C   0  0  0  0  0  0  0  0  0  0  0  0
  152.7499  143.2262  159.2072 N   0  0  0  0  0  0  0  0  0  0  0  0
  153.0416  141.9254  159.8005 C   0  0  0  0  0  0  0  0  0  0  0  0
  153.6522  142.0569  161.2065 C   0  0  0  0  0  0  0  0  0  0  0  0
  152.7681  142.7976  162.0410 O   0  0  0  0  0  0  0  0  0  0  0  0
  152.4865  144.0942  161.5253 C   0  0  0  0  0  0  0  0  0  0  0  0
  151.8786  143.9714  160.1173 C   0  0  0  0  0  0  0  0  0  0  0  0
  151.0252  138.9626  158.1709 N   0  0  0  0  0  0  0  0  0  0  0  0
  151.2663  137.8998  158.9418 C   0  0  0  0  0  0  0  0  0  0  0  0
  150.3986  137.0200  159.4393 N   0  0  0  0  0  0  0  0  0  0  0  0
  149.1248  137.3137  159.0542 C   0  0  0  0  0  0  0  0  0  0  0  0
  148.7273  133.2876  161.8777 H   0  0  0  0  0  0  0  0  0  0  0  0
  147.1461  132.8267  161.2362 H   0  0  0  0  0  0  0  0  0  0  0  0
  147.5679  132.4514  162.8989 H   0  0  0  0  0  0  0  0  0  0  0  0
  147.5873  134.8256  163.5166 H   0  0  0  0  0  0  0  0  0  0  0  0
  143.9720  135.4882  162.6574 H   0  0  0  0  0  0  0  0  0  0  0  0
  145.2761  136.2578  163.5790 H   0  0  0  0  0  0  0  0  0  0  0  0
  145.2150  135.6315  160.6036 H   0  0  0  0  0  0  0  0  0  0  0  0
  145.5258  137.2138  161.3123 H   0  0  0  0  0  0  0  0  0  0  0  0
  148.6629  136.9202  161.7531 H   0  0  0  0  0  0  0  0  0  0  0  0
  148.8103  135.0076  160.3547 H   0  0  0  0  0  0  0  0  0  0  0  0
  147.2418  134.7178  159.6416 H   0  0  0  0  0  0  0  0  0  0  0  0
  145.9214  137.0029  158.7816 H   0  0  0  0  0  0  0  0  0  0  0  0
  147.6520  140.2974  156.1384 H   0  0  0  0  0  0  0  0  0  0  0  0
  148.2225  141.9276  156.4682 H   0  0  0  0  0  0  0  0  0  0  0  0
  147.6773  140.9173  157.8015 H   0  0  0  0  0  0  0  0  0  0  0  0
  151.6000  140.7456  156.7355 H   0  0  0  0  0  0  0  0  0  0  0  0
  150.5781  141.7463  155.7716 H   0  0  0  0  0  0  0  0  0  0  0  0
  150.4905  142.0327  158.8116 H   0  0  0  0  0  0  0  0  0  0  0  0
  149.8581  144.1116  158.1686 H   0  0  0  0  0  0  0  0  0  0  0  0
  152.8494  142.4748  157.2689 H   0  0  0  0  0  0  0  0  0  0  0  0
  152.1152  144.0434  157.3778 H   0  0  0  0  0  0  0  0  0  0  0  0
  152.1282  141.3312  159.8589 H   0  0  0  0  0  0  0  0  0  0  0  0
  153.7322  141.3742  159.1612 H   0  0  0  0  0  0  0  0  0  0  0  0
  153.8135  141.0713  161.6435 H   0  0  0  0  0  0  0  0  0  0  0  0
  154.6237  142.5518  161.1619 H   0  0  0  0  0  0  0  0  0  0  0  0
  151.7915  144.6007  162.1950 H   0  0  0  0  0  0  0  0  0  0  0  0
  153.4004  144.6898  161.5002 H   0  0  0  0  0  0  0  0  0  0  0  0
  151.6887  144.9736  159.7368 H   0  0  0  0  0  0  0  0  0  0  0  0
  150.9080  143.4775  160.1880 H   0  0  0  0  0  0  0  0  0  0  0  0
  152.3022  137.7332  159.1989 H   0  0  0  0  0  0  0  0  0  0  0  0
  1  2  1  0  0  0  0
  1 30  1  0  0  0  0
  1 31  1  0  0  0  0
  1 32  1  0  0  0  0
  2  6  1  0  0  0  0
  2  3  1  0  0  0  0
  2 33  1  0  0  0  0
  3  4  1  0  0  0  0
  4  5  1  0  0  0  0
  4 34  1  0  0  0  0
  4 35  1  0  0  0  0
  5  6  1  0  0  0  0
  5 36  1  0  0  0  0
  5 37  1  0  0  0  0
  6  7  1  0  0  0  0
  6  8  1  0  0  0  0
  7 38  1  0  0  0  0
  8  9  1  0  0  0  0
  8 39  1  0  0  0  0
  8 40  1  0  0  0  0
  9 29  1  0  0  0  0
  9 10  1  0  0  0  0
 10 11  2  0  0  0  0
 10 41  1  0  0  0  0
 11 12  1  0  0  0  0
 12 29  2  0  0  0  0
 12 13  1  0  0  0  0
 13 14  1  0  0  0  0
 13 26  2  0  0  0  0
 14 15  1  0  0  0  0
 14 16  1  0  0  0  0
 15 42  1  0  0  0  0
 15 43  1  0  0  0  0
 15 44  1  0  0  0  0
 16 17  1  0  0  0  0
 16 45  1  0  0  0  0
 16 46  1  0  0  0  0
 17 18  1  0  0  0  0
 17 19  1  0  0  0  0
 17 47  1  0  0  0  0
 18 48  1  0  0  0  0
 19 20  1  0  0  0  0
 19 49  1  0  0  0  0
 19 50  1  0  0  0  0
 20 25  1  0  0  0  0
 20 21  1  0  0  0  0
 21 22  1  0  0  0  0
 21 51  1  0  0  0  0
 21 52  1  0  0  0  0
 22 23  1  0  0  0  0
 22 53  1  0  0  0  0
 22 54  1  0  0  0  0
 23 24  1  0  0  0  0
 24 25  1  0  0  0  0
 24 55  1  0  0  0  0
 24 56  1  0  0  0  0
 25 57  1  0  0  0  0
 25 58  1  0  0  0  0
 26 27  1  0  0  0  0
 27 28  2  0  0  0  0
 27 59  1  0  0  0  0
 28 29  1  0  0  0  0
M  END
> <s_m_source_file>
AV-unprocessed.smi

> <i_m_source_file_index>
153

> <i_lp_mmshare_version>
43012

> <i_f3d_flags>
0

> <s_epik_input>
W0NIMl0xW0NIMl1PW0NAQEhdKFtDSDNdKVtDQEBdMShbT0hdKVtDSDJdbihbY0hdbjIpYyhjMjMpbltjSF1uYzNOKFtDSDNdKVtDSDJdW0NASF0oW09IXSlbQ0gyXU40W0NIMl1bQ0gyXU9bQ0gyXVtDSDJdNA==

> <s_epik_cmdline>
J2VwaWtfcHl0aG9uJywgJy1waCcsICc3LjAnLCAnLXRuJywgJzgnLCAnLW1hJywgJzIwMCcsICctbWV0YWxfYmluZGluZycsICctaW1hZScsICc8aW5maWxlLm1hZT4nLCAnLW9tYWUnLCAnPG91dGZpbGUubWFlPic=

> <r_lp_tautomer_probability>
1

> <r_epik_Ionization_Penalty>
0.424123

> <r_epik_Ionization_Penalty_Charging>
0

> <r_epik_Ionization_Penalty_Neutral>
0.424123

> <r_epik_State_Penalty>
0.421495

> <r_epik_Charging_Adjusted_Penalty>
0.421495

> <i_epik_Tot_Q>
0

> <i_epik_Tot_abs_Q>
0

> <r_epik_Metal_State_Penalty>
0.421223

> <b_epik_Metal_Only>
0

> <s_lp_Force_Field>
OPLS_2005

> <r_lp_Energy>
56.4475

> <b_lp_Chiralities_Consistent>
1

> <s_lp_Variant>
AV-unprocessed.smi:153-9

> <Gold.Version>
5.8.1

> <Gold.Id.Protein>
6NUR|6NUR_protein|mol2

> <Gold.PLP.Fitness>
53.9589

> <Gold.PLP.PLP>
-53.2089

> <Gold.PLP.part.hbond>
-4.2170

> <Gold.PLP.part.metal>
0.0000

> <Gold.PLP.part.buried>
-11.3644

> <Gold.PLP.part.nonpolar>
-37.7357

> <Gold.PLP.part.repulsive>
0.1346

> <Gold.PLP.ligand.clash>
0.0000

> <Gold.PLP.ligand.torsion>
1.3357

> <Gold.PLP.Chemscore.Hbond>
0.9913

> <Gold.PLP.Chemscore.CHOScore>
0.0000

> <Gold.PLP.Chemscore.Metal>
0.0000

> <Gold.Chemscore.Hbonds>
donor molecule, donor type, donor heavy atom, donor atom, acceptor molecule, acceptor atom, score
      P1  H  6896  6908       L1    28  0.68

> <Gold.PLP.Chemscore.Internal.Correction>
0.4478

> <Gold.Rescore>
     Score         DG    S(hbond)    S(metal)    S(lipo)     H(rot)  DE(clash)    DE(int)     intcor
      9.76     -12.55       0.97        0.00     109.67       3.52       0.27       2.52       ----

> <Gold.Chemscore.Fitness>
9.7646

> <Gold.Chemscore.DG>
-12.5497

> <Gold.Chemscore.ZeroCoef>
-5.4800

> <Gold.Chemscore.Hbond>
0.9705

> <Gold.Chemscore.Metal>
0.0000

> <Gold.Chemscore.Lipo>
109.6736

> <Gold.Chemscore.Internal_Hbond>
0.0000

> <Gold.Chemscore.DEClash>
0.2652

> <Gold.Chemscore.DEInternal>
2.5199

> <Gold.Chemscore.Rot>
3.5170

> <Gold.Chemscore.Internal.Correction>
   9.000000E+99

> <Gold.Chemscore.Hbonds>
donor molecule, donor type, donor heavy atom, donor atom, acceptor molecule, acceptor atom, score
      P1  H  6896  6908       L1    28  0.65

> <Gold.Chemscore.Hbond.Weighted>
-3.2415

> <Gold.Chemscore.Metal.Weighted>
-0.0000

> <Gold.Chemscore.Lipo.Weighted>
-12.8318

> <Gold.Chemscore.Internal_Hbond.Weighted>
0.0000

> <Gold.Chemscore.DEClash.Weighted>
0.2652

> <Gold.Chemscore.DEInternal.Weighted>
2.5199

> <Gold.Chemscore.Rot.Weighted>
9.0036

> <Gold.Chemscore.Internal.Correction.Weighted>
   9.000000E+99

> <Gold.Protein.RotatedTorsions>
[ 6907 6896 6895 6894 ] final -163.30 input  -60.11 | X-H torsion
[ 7974 7965 7964 7962 ] final  179.55 input  175.53 | X-H torsion
[ 8008 7997 7996 7995 ] final -148.98 input   59.86 | X-H torsion
[ 10167 10162 10161 10158 ] final -175.59 input  -65.29 | X-H torsion
[ 10718 10713 10712 10709 ] final  139.92 input   66.30 | X-H torsion
[ 10763 10752 10751 10750 ] final  121.93 input  -60.55 | X-H torsion
[ 11005 11000 10999 10996 ] final   32.66 input  -57.11 | X-H torsion

> <Gold.Protein.ActiveResidues>
 VAL166  LYS551  ARG553  GLY616  TRP617  ASP618  TYR619  PRO620  LYS621  CYS622 
 ASP623  PHE694  ASN695  SER759  ASP760  ASP761  ALA762  ILE779  LEU786  VAL792 
 PHE793  MET794  SER795  GLU796  ALA797  LYS798  CYS799  TRP800  GLU811  SER814 

> <Gold.Protein.RotatedAtoms>
  151.3938  133.3780  159.2723 H   0  0  0  0  0  0  0  0  0  0  0  0  # atno 6907 bound_to 6896
  150.9485  134.8888  159.7667 H   0  0  0  0  0  0  0  0  0  0  0  0  # atno 6908 bound_to 6896
  152.5102  134.3892  159.9430 H   0  0  0  0  0  0  0  0  0  0  0  0  # atno 6909 bound_to 6896
  144.7144  140.0565  143.6434 H   0  0  0  0  0  0  0  0  0  0  0  0  # atno 7974 bound_to 7965
  155.6003  140.0661  157.2735 H   0  0  0  0  0  0  0  0  0  0  0  0  # atno 8008 bound_to 7997
  154.4281  140.1819  156.1213 H   0  0  0  0  0  0  0  0  0  0  0  0  # atno 8009 bound_to 7997
  156.0164  140.3321  155.6997 H   0  0  0  0  0  0  0  0  0  0  0  0  # atno 8010 bound_to 7997
  139.5573  144.1958  152.1180 H   0  0  0  0  0  0  0  0  0  0  0  0  # atno 10167 bound_to 10162
  157.4091  131.1026  151.0473 H   0  0  0  0  0  0  0  0  0  0  0  0  # atno 10718 bound_to 10713
  153.6218  135.3412  155.3013 H   0  0  0  0  0  0  0  0  0  0  0  0  # atno 10763 bound_to 10752
  154.8598  135.4275  154.2199 H   0  0  0  0  0  0  0  0  0  0  0  0  # atno 10764 bound_to 10752
  153.3074  135.7029  153.7220 H   0  0  0  0  0  0  0  0  0  0  0  0  # atno 10765 bound_to 10752
  140.2711  134.3081  155.7827 H   0  0  0  0  0  0  0  0  0  0  0  0  # atno 11005 bound_to 11000
  145.9900  139.3007  143.0991 LP  0  0  0  0  0  0  0  0  0  0  0  0  # atno 17320 bound_to 7965
  145.8914  140.9301  143.0550 LP  0  0  0  0  0  0  0  0  0  0  0  0  # atno 17321 bound_to 7965
  140.1464  144.5155  150.6713 LP  0  0  0  0  0  0  0  0  0  0  0  0  # atno 17342 bound_to 10162
  140.6847  143.2344  151.5290 LP  0  0  0  0  0  0  0  0  0  0  0  0  # atno 17343 bound_to 10162
  157.1444  130.6157  149.5564 LP  0  0  0  0  0  0  0  0  0  0  0  0  # atno 17370 bound_to 10713
  155.9845  130.4870  150.6986 LP  0  0  0  0  0  0  0  0  0  0  0  0  # atno 17371 bound_to 10713
  141.2177  133.7467  156.9336 LP  0  0  0  0  0  0  0  0  0  0  0  0  # atno 17394 bound_to 11000
  140.1372  134.9317  157.2417 LP  0  0  0  0  0  0  0  0  0  0  0  0  # atno 17395 bound_to 11000

$$$$
