AV-unprocessed.smi:2568|AV-procd|sdf|10090|dock9
  -GOLD-   2272014113D 1   1.00000     0.00000
 Structure written by MMmdl.
 24 25  0  0  0  0  0  0  0  0  1 V2000
  153.5113  137.5359  156.9316 C   0  0  0  0  0  0  0  0  0  0  0  0
  152.7390  138.5631  157.6877 C   0  0  0  0  0  0  0  0  0  0  0  0
  151.8620  138.2346  158.6376 N   0  0  0  0  0  0  0  0  0  0  0  0
  151.3094  139.3576  159.1431 N   0  0  0  0  0  0  0  0  0  0  0  0
  151.9301  140.3111  158.4487 C   0  0  0  0  0  0  0  0  0  0  0  0
  151.5909  141.7550  158.6564 C   0  0  2  0  0  0  0  0  0  0  0  0
  150.9665  142.3914  157.3989 C   0  0  0  0  0  0  0  0  0  0  0  0
  150.7439  143.8209  157.6116 N   0  0  0  0  0  0  0  0  0  0  0  0
  151.9781  144.4933  158.0156 C   0  0  0  0  0  0  0  0  0  0  0  0
  152.5839  143.8047  159.2522 C   0  0  0  0  0  0  0  0  0  0  0  0
  152.8082  142.4273  158.9715 O   0  0  0  0  0  0  0  0  0  0  0  0
  152.8249  139.8762  157.5075 N   0  0  0  0  0  0  0  0  0  0  0  0
  151.6153  137.3074  158.9535 H   0  0  0  0  0  0  0  0  0  0  0  0
  154.2214  138.0135  156.2555 H   0  0  0  0  0  0  0  0  0  0  0  0
  152.8339  136.9159  156.3444 H   0  0  0  0  0  0  0  0  0  0  0  0
  154.0633  136.8979  157.6221 H   0  0  0  0  0  0  0  0  0  0  0  0
  150.9039  141.8356  159.5016 H   0  0  0  0  0  0  0  0  0  0  0  0
  151.6287  142.2445  156.5446 H   0  0  0  0  0  0  0  0  0  0  0  0
  150.0253  141.8984  157.1549 H   0  0  0  0  0  0  0  0  0  0  0  0
  150.3916  144.2412  156.7575 H   0  0  0  0  0  0  0  0  0  0  0  0
  152.6976  144.4723  157.1960 H   0  0  0  0  0  0  0  0  0  0  0  0
  151.7789  145.5432  158.2309 H   0  0  0  0  0  0  0  0  0  0  0  0
  153.5349  144.2701  159.5119 H   0  0  0  0  0  0  0  0  0  0  0  0
  151.9300  143.9111  160.1193 H   0  0  0  0  0  0  0  0  0  0  0  0
  1 14  1  0  0  0  0
  1 15  1  0  0  0  0
  1 16  1  0  0  0  0
  1  2  1  0  0  0  0
  2 12  2  0  0  0  0
  2  3  1  0  0  0  0
  3  4  1  0  0  0  0
  3 13  1  0  0  0  0
  4  5  2  0  0  0  0
  5 12  1  0  0  0  0
  5  6  1  0  0  0  0
  6 11  1  0  0  0  0
  6  7  1  0  0  0  0
  6 17  1  0  0  0  0
  7  8  1  0  0  0  0
  7 18  1  0  0  0  0
  7 19  1  0  0  0  0
  8  9  1  0  0  0  0
  8 20  1  0  0  0  0
  9 10  1  0  0  0  0
  9 21  1  0  0  0  0
  9 22  1  0  0  0  0
 10 11  1  0  0  0  0
 10 23  1  0  0  0  0
 10 24  1  0  0  0  0
M  END
> <s_m_source_file>
AV-unprocessed.smi

> <i_m_source_file_index>
2568

> <i_lp_mmshare_version>
43012

> <i_f3d_flags>
0

> <s_epik_input>
W0NIM11jMW5bbkhdYyhuMSlbQ0BASF0yW0NIMl1bTkhdW0NIMl1bQ0gyXU8y

> <s_epik_cmdline>
J2VwaWtfcHl0aG9uJywgJy1waCcsICc3LjAnLCAnLXRuJywgJzgnLCAnLW1hJywgJzIwMCcsICctbWV0YWxfYmluZGluZycsICctaW1hZScsICc8aW5maWxlLm1hZT4nLCAnLW9tYWUnLCAnPG91dGZpbGUubWFlPic=

> <r_epik_Ionization_Penalty>
1.10101

> <r_epik_Ionization_Penalty_Charging>
0

> <r_epik_Ionization_Penalty_Neutral>
1.10101

> <r_epik_State_Penalty>
1.26524

> <r_epik_Charging_Adjusted_Penalty>
1.26524

> <i_epik_Tot_Q>
0

> <i_epik_Tot_abs_Q>
0

> <r_epik_Metal_State_Penalty>
1.56429

> <b_epik_Metal_Only>
0

> <s_lp_Force_Field>
OPLS_2005

> <r_lp_Energy>
12.1745

> <b_lp_Chiralities_Consistent>
1

> <s_lp_Variant>
AV-unprocessed.smi:2568-3

> <Gold.Version>
5.8.1

> <Gold.Id.Protein>
6NUR|6NUR_protein|mol2

> <Gold.PLP.Fitness>
27.1386

> <Gold.PLP.PLP>
-21.2016

> <Gold.PLP.part.hbond>
-2.0000

> <Gold.PLP.part.metal>
0.0000

> <Gold.PLP.part.buried>
-3.6550

> <Gold.PLP.part.nonpolar>
-15.6881

> <Gold.PLP.part.repulsive>
0.0912

> <Gold.PLP.ligand.clash>
0.0000

> <Gold.PLP.ligand.torsion>
0.0258

> <Gold.PLP.Chemscore.Hbond>
1.9920

> <Gold.PLP.Chemscore.CHOScore>
0.0000

> <Gold.PLP.Chemscore.Metal>
0.0000

> <Gold.Chemscore.Hbonds>
donor molecule, donor type, donor heavy atom, donor atom, acceptor molecule, acceptor atom, score
      L1  H     8    20       P1  8028  0.99
      P1  H  7997  8010       L1    12  1.00

> <Gold.PLP.Chemscore.Internal.Correction>
0.0126

> <Gold.Rescore>
     Score         DG    S(hbond)    S(metal)    S(lipo)     H(rot)  DE(clash)    DE(int)     intcor
     14.46     -14.54       1.81        0.00      47.66       1.00       0.00       0.08       ----

> <Gold.Chemscore.Fitness>
14.4607

> <Gold.Chemscore.DG>
-14.5410

> <Gold.Chemscore.ZeroCoef>
-5.4800

> <Gold.Chemscore.Hbond>
1.8097

> <Gold.Chemscore.Metal>
0.0000

> <Gold.Chemscore.Lipo>
47.6626

> <Gold.Chemscore.Internal_Hbond>
0.0000

> <Gold.Chemscore.DEClash>
0.0009

> <Gold.Chemscore.DEInternal>
0.0795

> <Gold.Chemscore.Rot>
1.0000

> <Gold.Chemscore.Internal.Correction>
   9.000000E+99

> <Gold.Chemscore.Hbonds>
donor molecule, donor type, donor heavy atom, donor atom, acceptor molecule, acceptor atom, score
      L1  H     8    20       P1  8028  0.92
      P1  H  7997  8010       L1    12  0.39

> <Gold.Chemscore.Hbond.Weighted>
-6.0445

> <Gold.Chemscore.Metal.Weighted>
-0.0000

> <Gold.Chemscore.Lipo.Weighted>
-5.5765

> <Gold.Chemscore.Internal_Hbond.Weighted>
0.0000

> <Gold.Chemscore.DEClash.Weighted>
0.0009

> <Gold.Chemscore.DEInternal.Weighted>
0.0795

> <Gold.Chemscore.Rot.Weighted>
2.5600

> <Gold.Chemscore.Internal.Correction.Weighted>
   9.000000E+99

> <Gold.Protein.RotatedTorsions>
[ 6907 6896 6895 6894 ] final   80.35 input  -60.11 | X-H torsion
[ 7974 7965 7964 7962 ] final  -87.00 input  175.53 | X-H torsion
[ 8008 7997 7996 7995 ] final   51.22 input   59.86 | X-H torsion
[ 10167 10162 10161 10158 ] final   49.37 input  -65.29 | X-H torsion
[ 10718 10713 10712 10709 ] final   31.87 input   66.30 | X-H torsion
[ 10763 10752 10751 10750 ] final   88.63 input  -60.55 | X-H torsion
[ 11005 11000 10999 10996 ] final  -61.82 input  -57.11 | X-H torsion

> <Gold.Protein.ActiveResidues>
 VAL166  LYS551  ARG553  GLY616  TRP617  ASP618  TYR619  PRO620  LYS621  CYS622 
 ASP623  PHE694  ASN695  SER759  ASP760  ASP761  ALA762  ILE779  LEU786  VAL792 
 PHE793  MET794  SER795  GLU796  ALA797  LYS798  CYS799  TRP800  GLU811  SER814 

> <Gold.Protein.RotatedAtoms>
  152.5232  134.3371  159.9203 H   0  0  0  0  0  0  0  0  0  0  0  0  # atno 6907 bound_to 6896
  151.3320  133.3990  159.2671 H   0  0  0  0  0  0  0  0  0  0  0  0  # atno 6908 bound_to 6896
  150.9873  134.9233  159.7936 H   0  0  0  0  0  0  0  0  0  0  0  0  # atno 6909 bound_to 6896
  145.4723  140.9559  143.1910 H   0  0  0  0  0  0  0  0  0  0  0  0  # atno 7974 bound_to 7965
  155.4318  140.3451  155.4281 H   0  0  0  0  0  0  0  0  0  0  0  0  # atno 8008 bound_to 7997
  156.1332  140.1520  156.9065 H   0  0  0  0  0  0  0  0  0  0  0  0  # atno 8009 bound_to 7997
  154.4911  140.0841  156.7576 H   0  0  0  0  0  0  0  0  0  0  0  0  # atno 8010 bound_to 7997
  140.2835  144.3128  150.6258 H   0  0  0  0  0  0  0  0  0  0  0  0  # atno 10167 bound_to 10162
  157.2780  130.7241  149.6541 H   0  0  0  0  0  0  0  0  0  0  0  0  # atno 10718 bound_to 10713
  153.1788  135.4500  155.0000 H   0  0  0  0  0  0  0  0  0  0  0  0  # atno 10763 bound_to 10752
  154.8016  135.3258  154.7538 H   0  0  0  0  0  0  0  0  0  0  0  0  # atno 10764 bound_to 10752
  153.8005  135.6963  153.4911 H   0  0  0  0  0  0  0  0  0  0  0  0  # atno 10765 bound_to 10752
  141.1338  133.6634  156.5433 H   0  0  0  0  0  0  0  0  0  0  0  0  # atno 11005 bound_to 11000
  144.7937  139.6276  143.7102 LP  0  0  0  0  0  0  0  0  0  0  0  0  # atno 17320 bound_to 7965
  146.2389  139.5961  142.9505 LP  0  0  0  0  0  0  0  0  0  0  0  0  # atno 17321 bound_to 7965
  140.5791  143.2174  151.7460 LP  0  0  0  0  0  0  0  0  0  0  0  0  # atno 17342 bound_to 10162
  139.4956  144.4106  152.0085 LP  0  0  0  0  0  0  0  0  0  0  0  0  # atno 17343 bound_to 10162
  155.9664  130.4347  150.5059 LP  0  0  0  0  0  0  0  0  0  0  0  0  # atno 17370 bound_to 10713
  157.2997  131.0643  151.2077 LP  0  0  0  0  0  0  0  0  0  0  0  0  # atno 17371 bound_to 10713
  140.4122  134.7262  157.4842 LP  0  0  0  0  0  0  0  0  0  0  0  0  # atno 17394 bound_to 11000
  140.0419  134.6255  155.8970 LP  0  0  0  0  0  0  0  0  0  0  0  0  # atno 17395 bound_to 11000

$$$$
