AV-unprocessed.smi:227|AV-procd|sdf|1730|dock8
  -GOLD-   2262020223D 1   1.00000     0.00000
 Structure written by MMmdl.
 54 58  0  0  0  0  0  0  0  0  1 V2000
  149.7935  139.6476  153.9443 O   0  0  0  0  0  0  0  0  0  0  0  0
  149.9877  140.6045  154.9656 C   0  0  0  0  0  0  0  0  0  0  0  0
  149.7170  140.0014  156.3661 C   0  0  1  0  0  0  0  0  0  0  0  0
  150.4292  138.6424  156.5805 C   0  0  0  0  0  0  0  0  0  0  0  0
  149.9042  137.8960  157.7108 N   0  0  0  0  0  0  0  0  0  0  0  0
  150.6386  137.2450  158.6736 C   0  0  0  0  0  0  0  0  0  0  0  0
  149.9359  136.6465  159.5951 N   0  0  0  0  0  0  0  0  0  0  0  0
  148.6138  136.9018  159.2460 C   0  0  0  0  0  0  0  0  0  0  0  0
  147.3453  136.5618  159.8041 C   0  0  0  0  0  0  0  0  0  0  0  0
  147.1722  135.8288  160.9394 N   0  0  0  0  0  0  0  0  0  0  0  0
  147.6162  136.3281  162.2311 C   0  0  1  0  0  0  0  0  0  0  0  0
  146.5893  137.4227  162.5821 C   0  0  0  0  0  0  0  0  0  0  0  0
  145.3049  136.8330  161.9778 C   0  0  0  0  0  0  0  0  0  0  0  0
  145.8278  135.5006  161.3985 C   0  0  2  0  0  0  0  0  0  0  0  0
  146.0878  134.5203  162.5611 C   0  0  1  0  0  0  0  0  0  0  0  0
  146.2262  133.0623  162.0875 C   0  0  0  0  0  0  0  0  0  0  0  0
  147.2985  132.9436  161.1768 O   0  0  0  0  0  0  0  0  0  0  0  0
  147.3897  135.1100  163.1422 C   0  0  0  0  0  0  0  0  0  0  0  0
  146.2406  136.9842  159.1330 N   0  0  0  0  0  0  0  0  0  0  0  0
  146.3561  137.7067  158.0159 C   0  0  0  0  0  0  0  0  0  0  0  0
  147.4655  138.1096  157.3965 N   0  0  0  0  0  0  0  0  0  0  0  0
  148.5805  137.6774  158.0505 C   0  0  0  0  0  0  0  0  0  0  0  0
  150.0368  141.0010  157.5061 C   0  0  2  0  0  0  0  0  0  0  0  0
  149.2682  142.3091  157.4425 C   0  0  0  0  0  0  0  0  0  0  0  0
  150.0989  143.2117  158.3472 C   0  0  0  0  0  0  0  0  0  0  0  0
  151.4458  142.7867  158.1757 O   0  0  0  0  0  0  0  0  0  0  0  0
  151.4776  141.5241  157.5165 C   0  0  0  0  0  0  0  0  0  0  0  0
  149.9234  140.0689  153.1083 H   0  0  0  0  0  0  0  0  0  0  0  0
  151.0069  140.9842  154.8966 H   0  0  0  0  0  0  0  0  0  0  0  0
  149.3386  141.4588  154.7735 H   0  0  0  0  0  0  0  0  0  0  0  0
  148.6450  139.8020  156.4081 H   0  0  0  0  0  0  0  0  0  0  0  0
  150.3478  138.0260  155.6844 H   0  0  0  0  0  0  0  0  0  0  0  0
  151.4950  138.7905  156.7539 H   0  0  0  0  0  0  0  0  0  0  0  0
  151.7190  137.2322  158.6722 H   0  0  0  0  0  0  0  0  0  0  0  0
  148.6471  136.6730  162.2780 H   0  0  0  0  0  0  0  0  0  0  0  0
  146.5123  137.5979  163.6557 H   0  0  0  0  0  0  0  0  0  0  0  0
  146.8431  138.3680  162.1006 H   0  0  0  0  0  0  0  0  0  0  0  0
  144.5129  136.6944  162.7143 H   0  0  0  0  0  0  0  0  0  0  0  0
  144.9198  137.4811  161.1895 H   0  0  0  0  0  0  0  0  0  0  0  0
  145.1694  135.0794  160.6376 H   0  0  0  0  0  0  0  0  0  0  0  0
  145.2756  134.5759  163.2878 H   0  0  0  0  0  0  0  0  0  0  0  0
  146.4229  132.4071  162.9366 H   0  0  0  0  0  0  0  0  0  0  0  0
  145.3078  132.7109  161.6159 H   0  0  0  0  0  0  0  0  0  0  0  0
  147.9354  132.3468  161.5394 H   0  0  0  0  0  0  0  0  0  0  0  0
  148.2208  134.4094  163.0507 H   0  0  0  0  0  0  0  0  0  0  0  0
  147.2971  135.3827  164.1940 H   0  0  0  0  0  0  0  0  0  0  0  0
  145.4269  138.0037  157.5525 H   0  0  0  0  0  0  0  0  0  0  0  0
  149.8313  140.5327  158.4701 H   0  0  0  0  0  0  0  0  0  0  0  0
  149.2629  142.7016  156.4246 H   0  0  0  0  0  0  0  0  0  0  0  0
  148.2355  142.2207  157.7814 H   0  0  0  0  0  0  0  0  0  0  0  0
  149.9790  144.2686  158.1088 H   0  0  0  0  0  0  0  0  0  0  0  0
  149.8184  143.0648  159.3911 H   0  0  0  0  0  0  0  0  0  0  0  0
  152.1639  140.8405  158.0168 H   0  0  0  0  0  0  0  0  0  0  0  0
  151.8409  141.6815  156.5001 H   0  0  0  0  0  0  0  0  0  0  0  0
  1  2  1  0  0  0  0
  1 28  1  0  0  0  0
  2  3  1  0  0  0  0
  2 29  1  0  0  0  0
  2 30  1  0  0  0  0
  3  4  1  0  0  0  0
  3 23  1  0  0  0  0
  3 31  1  0  0  0  0
  4  5  1  0  0  0  0
  4 32  1  0  0  0  0
  4 33  1  0  0  0  0
  5 22  1  0  0  0  0
  5  6  1  0  0  0  0
  6  7  2  0  0  0  0
  6 34  1  0  0  0  0
  7  8  1  0  0  0  0
  8 22  2  0  0  0  0
  8  9  1  0  0  0  0
  9 10  1  0  0  0  0
  9 19  2  0  0  0  0
 10 14  1  0  0  0  0
 10 11  1  0  0  0  0
 11 18  1  0  0  0  0
 11 12  1  0  0  0  0
 11 35  1  0  0  0  0
 12 13  1  0  0  0  0
 12 36  1  0  0  0  0
 12 37  1  0  0  0  0
 13 14  1  0  0  0  0
 13 38  1  0  0  0  0
 13 39  1  0  0  0  0
 14 15  1  0  0  0  0
 14 40  1  0  0  0  0
 15 16  1  0  0  0  0
 15 18  1  0  0  0  0
 15 41  1  0  0  0  0
 16 17  1  0  0  0  0
 16 42  1  0  0  0  0
 16 43  1  0  0  0  0
 17 44  1  0  0  0  0
 18 45  1  0  0  0  0
 18 46  1  0  0  0  0
 19 20  1  0  0  0  0
 20 21  2  0  0  0  0
 20 47  1  0  0  0  0
 21 22  1  0  0  0  0
 23 27  1  0  0  0  0
 23 24  1  0  0  0  0
 23 48  1  0  0  0  0
 24 25  1  0  0  0  0
 24 49  1  0  0  0  0
 24 50  1  0  0  0  0
 25 26  1  0  0  0  0
 25 51  1  0  0  0  0
 25 52  1  0  0  0  0
 26 27  1  0  0  0  0
 27 53  1  0  0  0  0
 27 54  1  0  0  0  0
M  END
> <s_m_source_file>
AV-unprocessed.smi

> <i_m_source_file_index>
227

> <i_lp_mmshare_version>
43012

> <i_f3d_flags>
0

> <s_epik_input>
W0NIMl0xT1tDSDJdW0NIMl1bQ0BIXTFbQ0BIXShbQ0gyXVtPSF0pW0NIMl1uKFtjSF1uMiljKGMyMyluW2NIXW5jM04oW0NASF00NSlbQ0BASF0oW0NIMl1bQ0gyXTQpW0NASF0oW0NIMl01KVtDSDJdW09IXQ==

> <s_epik_cmdline>
J2VwaWtfcHl0aG9uJywgJy1waCcsICc3LjAnLCAnLXRuJywgJzgnLCAnLW1hJywgJzIwMCcsICctbWV0YWxfYmluZGluZycsICctaW1hZScsICc8aW5maWxlLm1hZT4nLCAnLW9tYWUnLCAnPG91dGZpbGUubWFlPic=

> <r_lp_tautomer_probability>
1

> <r_epik_Ionization_Penalty>
0.0055791

> <r_epik_Ionization_Penalty_Charging>
0

> <r_epik_Ionization_Penalty_Neutral>
0.0055791

> <r_epik_State_Penalty>
0.00401299

> <r_epik_Charging_Adjusted_Penalty>
0.00401299

> <i_epik_Tot_Q>
0

> <i_epik_Tot_abs_Q>
0

> <r_epik_Metal_State_Penalty>
-0

> <b_epik_Metal_Only>
0

> <s_lp_Force_Field>
OPLS_2005

> <r_lp_Energy>
89.0098

> <b_lp_Chiralities_Consistent>
1

> <s_lp_Variant>
AV-unprocessed.smi:227-4

> <Gold.Version>
5.8.1

> <Gold.Id.Protein>
6NUR|6NUR_protein|mol2

> <Gold.PLP.Fitness>
43.6670

> <Gold.PLP.PLP>
-39.0698

> <Gold.PLP.part.hbond>
-2.9300

> <Gold.PLP.part.metal>
0.0000

> <Gold.PLP.part.buried>
-4.5036

> <Gold.PLP.part.nonpolar>
-31.1007

> <Gold.PLP.part.repulsive>
0.0221

> <Gold.PLP.ligand.clash>
0.0000

> <Gold.PLP.ligand.torsion>
0.3727

> <Gold.PLP.Chemscore.Hbond>
1.7160

> <Gold.PLP.Chemscore.CHOScore>
0.0000

> <Gold.PLP.Chemscore.Metal>
0.0000

> <Gold.Chemscore.Hbonds>
donor molecule, donor type, donor heavy atom, donor atom, acceptor molecule, acceptor atom, score
      L1  H     1    28       P1  7957  0.96
      P1  H  6896  6907       L1     7  0.98

> <Gold.PLP.Chemscore.Internal.Correction>
0.1946

> <Gold.Rescore>
     Score         DG    S(hbond)    S(metal)    S(lipo)     H(rot)  DE(clash)    DE(int)     intcor
     11.00     -13.27       1.67        0.00      97.81       3.61       0.07       2.20       ----

> <Gold.Chemscore.Fitness>
11.0005

> <Gold.Chemscore.DG>
-13.2703

> <Gold.Chemscore.ZeroCoef>
-5.4800

> <Gold.Chemscore.Hbond>
1.6710

> <Gold.Chemscore.Metal>
0.0000

> <Gold.Chemscore.Lipo>
97.8065

> <Gold.Chemscore.Internal_Hbond>
0.0000

> <Gold.Chemscore.DEClash>
0.0705

> <Gold.Chemscore.DEInternal>
2.1993

> <Gold.Chemscore.Rot>
3.6071

> <Gold.Chemscore.Internal.Correction>
   9.000000E+99

> <Gold.Chemscore.Hbonds>
donor molecule, donor type, donor heavy atom, donor atom, acceptor molecule, acceptor atom, score
      L1  H     1    28       P1  7957  0.91
      P1  H  6896  6907       L1     7  0.35

> <Gold.Chemscore.Hbond.Weighted>
-5.5812

> <Gold.Chemscore.Metal.Weighted>
-0.0000

> <Gold.Chemscore.Lipo.Weighted>
-11.4434

> <Gold.Chemscore.Internal_Hbond.Weighted>
0.0000

> <Gold.Chemscore.DEClash.Weighted>
0.0705

> <Gold.Chemscore.DEInternal.Weighted>
2.1993

> <Gold.Chemscore.Rot.Weighted>
9.2342

> <Gold.Chemscore.Internal.Correction.Weighted>
   9.000000E+99

> <Gold.Protein.RotatedTorsions>
[ 6907 6896 6895 6894 ] final  -56.67 input  -60.11 | X-H torsion
[ 7974 7965 7964 7962 ] final   30.55 input  175.53 | X-H torsion
[ 8008 7997 7996 7995 ] final  -47.95 input   59.86 | X-H torsion
[ 10167 10162 10161 10158 ] final  149.78 input  -65.29 | X-H torsion
[ 10718 10713 10712 10709 ] final   37.63 input   66.30 | X-H torsion
[ 10763 10752 10751 10750 ] final  116.93 input  -60.55 | X-H torsion
[ 11005 11000 10999 10996 ] final  -81.98 input  -57.11 | X-H torsion

> <Gold.Protein.ActiveResidues>
 VAL166  LYS551  ARG553  GLY616  TRP617  ASP618  TYR619  PRO620  LYS621  CYS622 
 ASP623  PHE694  ASN695  SER759  ASP760  ASP761  ALA762  ILE779  LEU786  VAL792 
 PHE793  MET794  SER795  GLU796  ALA797  LYS798  CYS799  TRP800  GLU811  SER814 

> <Gold.Protein.RotatedAtoms>
  150.8148  134.7324  159.6720 H   0  0  0  0  0  0  0  0  0  0  0  0  # atno 6907 bound_to 6896
  152.4267  134.5851  159.9968 H   0  0  0  0  0  0  0  0  0  0  0  0  # atno 6908 bound_to 6896
  151.6051  133.3315  159.3091 H   0  0  0  0  0  0  0  0  0  0  0  0  # atno 6909 bound_to 6896
  146.1605  139.6774  142.9037 H   0  0  0  0  0  0  0  0  0  0  0  0  # atno 7974 bound_to 7965
  154.4023  140.1333  156.4259 H   0  0  0  0  0  0  0  0  0  0  0  0  # atno 8008 bound_to 7997
  155.7597  140.3486  155.5172 H   0  0  0  0  0  0  0  0  0  0  0  0  # atno 8009 bound_to 7997
  155.8870  140.0997  157.1435 H   0  0  0  0  0  0  0  0  0  0  0  0  # atno 8010 bound_to 7997
  139.4857  144.5575  151.7292 H   0  0  0  0  0  0  0  0  0  0  0  0  # atno 10167 bound_to 10162
  157.3493  130.7589  149.6967 H   0  0  0  0  0  0  0  0  0  0  0  0  # atno 10718 bound_to 10713
  153.5446  135.3552  155.2733 H   0  0  0  0  0  0  0  0  0  0  0  0  # atno 10763 bound_to 10752
  154.8713  135.4099  154.3005 H   0  0  0  0  0  0  0  0  0  0  0  0  # atno 10764 bound_to 10752
  153.3719  135.7064  153.6699 H   0  0  0  0  0  0  0  0  0  0  0  0  # atno 10765 bound_to 10752
  141.1665  133.7222  156.8504 H   0  0  0  0  0  0  0  0  0  0  0  0  # atno 11005 bound_to 11000
  145.4600  141.0432  143.2757 LP  0  0  0  0  0  0  0  0  0  0  0  0  # atno 17320 bound_to 7965
  144.8020  139.6122  143.7067 LP  0  0  0  0  0  0  0  0  0  0  0  0  # atno 17321 bound_to 7965
  140.5139  144.0983  150.6003 LP  0  0  0  0  0  0  0  0  0  0  0  0  # atno 17342 bound_to 10162
  140.3918  143.2748  152.0051 LP  0  0  0  0  0  0  0  0  0  0  0  0  # atno 17343 bound_to 10162
  155.9719  130.4145  150.4136 LP  0  0  0  0  0  0  0  0  0  0  0  0  # atno 17370 bound_to 10713
  157.2196  131.0479  151.2554 LP  0  0  0  0  0  0  0  0  0  0  0  0  # atno 17371 bound_to 10713
  140.1920  134.8959  157.3071 LP  0  0  0  0  0  0  0  0  0  0  0  0  # atno 17394 bound_to 11000
  140.2280  134.3943  155.7535 LP  0  0  0  0  0  0  0  0  0  0  0  0  # atno 17395 bound_to 11000

$$$$
