AV-unprocessed.smi:110|AV-procd|sdf|1070|dock2
  -GOLD-   2262018153D 1   1.00000     0.00000
 Structure written by MMmdl.
 46 50  0  0  0  0  0  0  0  0  1 V2000
  147.3915  136.0144  154.4239 O   0  0  0  0  0  0  0  0  0  0  0  0
  146.5958  137.1749  154.5375 C   0  0  0  0  0  0  0  0  0  0  0  0
  147.3049  138.3688  153.8744 C   0  0  2  0  0  0  0  0  0  0  0  0
  148.5194  138.6737  154.5427 O   0  0  0  0  0  0  0  0  0  0  0  0
  148.9154  139.9562  154.1792 C   0  0  2  0  0  0  0  0  0  0  0  0
  149.6381  140.5649  155.3360 N   0  0  0  0  0  0  0  0  0  0  0  0
  149.3551  141.7515  155.9724 C   0  0  0  0  0  0  0  0  0  0  0  0
  150.1446  142.0532  156.9671 N   0  0  0  0  0  0  0  0  0  0  0  0
  151.0530  141.0014  157.0177 C   0  0  0  0  0  0  0  0  0  0  0  0
  152.1666  140.6825  157.8494 C   0  0  0  0  0  0  0  0  0  0  0  0
  152.6046  141.4774  158.8600 N   0  0  0  0  0  0  0  0  0  0  0  0
  153.1258  140.8582  160.0888 C   0  0  0  0  0  0  0  0  0  0  0  0
  153.0414  141.8998  161.2185 C   0  0  0  0  0  0  0  0  0  0  0  0
  152.5674  143.0973  160.4644 C   0  0  0  0  0  0  0  0  0  0  0  0
  152.3682  144.3935  160.9707 C   0  0  0  0  0  0  0  0  0  0  0  0
  151.9266  145.3948  160.0806 C   0  0  0  0  0  0  0  0  0  0  0  0
  151.7014  145.0894  158.7187 C   0  0  0  0  0  0  0  0  0  0  0  0
  151.9090  143.7798  158.2323 C   0  0  0  0  0  0  0  0  0  0  0  0
  152.3363  142.7768  159.1295 C   0  0  0  0  0  0  0  0  0  0  0  0
  152.8295  139.5275  157.5818 N   0  0  0  0  0  0  0  0  0  0  0  0
  152.4342  138.7349  156.5828 C   0  0  0  0  0  0  0  0  0  0  0  0
  151.4173  138.9049  155.7378 N   0  0  0  0  0  0  0  0  0  0  0  0
  150.7424  140.0619  155.9929 C   0  0  0  0  0  0  0  0  0  0  0  0
  147.6485  140.7555  153.8234 C   0  0  1  0  0  0  0  0  0  0  0  0
  147.7173  141.2534  152.5019 O   0  0  0  0  0  0  0  0  0  0  0  0
  146.5428  139.7034  153.9094 C   0  0  2  0  0  0  0  0  0  0  0  0
  145.8067  139.8540  155.1090 O   0  0  0  0  0  0  0  0  0  0  0  0
  147.5341  138.1380  152.8320 H   0  0  0  0  0  0  0  0  0  0  0  0
  149.6490  139.9133  153.3725 H   0  0  0  0  0  0  0  0  0  0  0  0
  147.4907  141.5845  154.5157 H   0  0  0  0  0  0  0  0  0  0  0  0
  145.8327  139.7724  153.0838 H   0  0  0  0  0  0  0  0  0  0  0  0
  147.8420  136.0384  153.5937 H   0  0  0  0  0  0  0  0  0  0  0  0
  145.6510  136.9706  154.0333 H   0  0  0  0  0  0  0  0  0  0  0  0
  146.3706  137.3782  155.5852 H   0  0  0  0  0  0  0  0  0  0  0  0
  148.5349  142.3897  155.6775 H   0  0  0  0  0  0  0  0  0  0  0  0
  152.5627  139.9599  160.3453 H   0  0  0  0  0  0  0  0  0  0  0  0
  154.1645  140.5677  159.9293 H   0  0  0  0  0  0  0  0  0  0  0  0
  152.3145  141.6185  161.9808 H   0  0  0  0  0  0  0  0  0  0  0  0
  154.0086  142.0831  161.6872 H   0  0  0  0  0  0  0  0  0  0  0  0
  152.5511  144.6180  162.0113 H   0  0  0  0  0  0  0  0  0  0  0  0
  151.7660  146.4005  160.4401 H   0  0  0  0  0  0  0  0  0  0  0  0
  151.3728  145.8650  158.0427 H   0  0  0  0  0  0  0  0  0  0  0  0
  151.7486  143.5660  157.1863 H   0  0  0  0  0  0  0  0  0  0  0  0
  153.0164  137.8367  156.4390 H   0  0  0  0  0  0  0  0  0  0  0  0
  148.3722  140.7615  152.0306 H   0  0  0  0  0  0  0  0  0  0  0  0
  145.6665  140.7755  155.2630 H   0  0  0  0  0  0  0  0  0  0  0  0
  1  2  1  0  0  0  0
  1 32  1  0  0  0  0
  2  3  1  0  0  0  0
  2 33  1  0  0  0  0
  2 34  1  0  0  0  0
  3 28  1  0  0  0  0
  3 26  1  0  0  0  0
  3  4  1  0  0  0  0
  4  5  1  0  0  0  0
  5 29  1  0  0  0  0
  5  6  1  0  0  0  0
  5 24  1  0  0  0  0
  6 23  1  0  0  0  0
  6  7  1  0  0  0  0
  7  8  2  0  0  0  0
  7 35  1  0  0  0  0
  8  9  1  0  0  0  0
  9 23  2  0  0  0  0
  9 10  1  0  0  0  0
 10 11  1  0  0  0  0
 10 20  2  0  0  0  0
 11 19  1  0  0  0  0
 11 12  1  0  0  0  0
 12 13  1  0  0  0  0
 12 36  1  0  0  0  0
 12 37  1  0  0  0  0
 13 14  1  0  0  0  0
 13 38  1  0  0  0  0
 13 39  1  0  0  0  0
 14 19  2  0  0  0  0
 14 15  1  0  0  0  0
 15 16  2  0  0  0  0
 15 40  1  0  0  0  0
 16 17  1  0  0  0  0
 16 41  1  0  0  0  0
 17 18  2  0  0  0  0
 17 42  1  0  0  0  0
 18 19  1  0  0  0  0
 18 43  1  0  0  0  0
 20 21  1  0  0  0  0
 21 22  2  0  0  0  0
 21 44  1  0  0  0  0
 22 23  1  0  0  0  0
 24 30  1  0  0  0  0
 24 25  1  0  0  0  0
 24 26  1  0  0  0  0
 25 45  1  0  0  0  0
 26 31  1  0  0  0  0
 26 27  1  0  0  0  0
 27 46  1  0  0  0  0
M  END
> <s_m_source_file>
AV-unprocessed.smi

> <i_m_source_file_index>
110

> <i_lp_mmshare_version>
43012

> <i_f3d_flags>
0

> <s_epik_input>
W09IXVtDSDJdW0NASF0xT1tDQEhdKFtDQEhdKFtPSF0pW0NAQEhdMVtPSF0pbihbY0hdbjIpYyhjMjMpbltjSF1uYzNOKFtDSDJdW0NIMl00KWMoYzQ1KVtjSF1bY0hdW2NIXVtjSF01

> <s_epik_cmdline>
J2VwaWtfcHl0aG9uJywgJy1waCcsICc3LjAnLCAnLXRuJywgJzgnLCAnLW1hJywgJzIwMCcsICctbWV0YWxfYmluZGluZycsICctaW1hZScsICc8aW5maWxlLm1hZT4nLCAnLW9tYWUnLCAnPG91dGZpbGUubWFlPic=

> <r_lp_tautomer_probability>
1

> <r_epik_Ionization_Penalty>
0.00068475

> <r_epik_Ionization_Penalty_Charging>
0

> <r_epik_Ionization_Penalty_Neutral>
0.00068475

> <r_epik_State_Penalty>
0.000417442

> <r_epik_Charging_Adjusted_Penalty>
0.000417442

> <i_epik_Tot_Q>
0

> <i_epik_Tot_abs_Q>
0

> <r_epik_Metal_State_Penalty>
-0

> <b_epik_Metal_Only>
0

> <s_epik_Chemistry_Notes>
This compound contains an acetal/aminal-like group ( X-CH(R)-Y where X, Y are N, S, or O) that may be acid/base labile, releasing an aldehyde.

> <s_lp_Force_Field>
OPLS_2005

> <r_lp_Energy>
57.5739

> <b_lp_Chiralities_Consistent>
1

> <s_lp_Variant>
AV-unprocessed.smi:110-8

> <Gold.Version>
5.8.1

> <Gold.Id.Protein>
6NUR|6NUR_protein|mol2

> <Gold.PLP.Fitness>
57.9357

> <Gold.PLP.PLP>
-47.4153

> <Gold.PLP.part.hbond>
-3.5829

> <Gold.PLP.part.metal>
0.0000

> <Gold.PLP.part.buried>
0.1140

> <Gold.PLP.part.nonpolar>
-45.3642

> <Gold.PLP.part.repulsive>
0.2723

> <Gold.PLP.ligand.clash>
0.0000

> <Gold.PLP.ligand.torsion>
0.3847

> <Gold.PLP.Chemscore.Hbond>
3.0000

> <Gold.PLP.Chemscore.CHOScore>
0.7260

> <Gold.PLP.Chemscore.Metal>
0.0000

> <Gold.Chemscore.Hbonds>
donor molecule, donor type, donor heavy atom, donor atom, acceptor molecule, acceptor atom, score
      L1  H     1    32       P1  7948  0.93
      L1  H    25    45       P1  7957  1.00
      P1  H  7997  8009       L1    20  1.00
      L1  C     7    35       P1  8028  0.78

> <Gold.PLP.Chemscore.Internal.Correction>
0.1116

> <Gold.Rescore>
     Score         DG    S(hbond)    S(metal)    S(lipo)     H(rot)  DE(clash)    DE(int)     intcor
     15.09     -18.59       2.50        0.00     114.78       3.38       1.72       1.78       ----

> <Gold.Chemscore.Fitness>
15.0878

> <Gold.Chemscore.DG>
-18.5859

> <Gold.Chemscore.ZeroCoef>
-5.4800

> <Gold.Chemscore.Hbond>
2.4965

> <Gold.Chemscore.Metal>
0.0000

> <Gold.Chemscore.Lipo>
114.7835

> <Gold.Chemscore.Internal_Hbond>
0.0000

> <Gold.Chemscore.DEClash>
1.7180

> <Gold.Chemscore.DEInternal>
1.7801

> <Gold.Chemscore.Rot>
3.3837

> <Gold.Chemscore.Internal.Correction>
   9.000000E+99

> <Gold.Chemscore.Hbonds>
donor molecule, donor type, donor heavy atom, donor atom, acceptor molecule, acceptor atom, score
      L1  H     1    32       P1  7948  0.89
      L1  H    25    45       P1  7957  1.00
      P1  H  7997  8009       L1    20  0.14

> <Gold.Chemscore.Hbond.Weighted>
-8.3384

> <Gold.Chemscore.Metal.Weighted>
-0.0000

> <Gold.Chemscore.Lipo.Weighted>
-13.4297

> <Gold.Chemscore.Internal_Hbond.Weighted>
0.0000

> <Gold.Chemscore.DEClash.Weighted>
1.7180

> <Gold.Chemscore.DEInternal.Weighted>
1.7801

> <Gold.Chemscore.Rot.Weighted>
8.6622

> <Gold.Chemscore.Internal.Correction.Weighted>
   9.000000E+99

> <Gold.Protein.RotatedTorsions>
[ 6907 6896 6895 6894 ] final  179.93 input  -60.11 | X-H torsion
[ 7974 7965 7964 7962 ] final -116.13 input  175.53 | X-H torsion
[ 8008 7997 7996 7995 ] final  160.13 input   59.86 | X-H torsion
[ 10167 10162 10161 10158 ] final -140.20 input  -65.29 | X-H torsion
[ 10718 10713 10712 10709 ] final  -39.20 input   66.30 | X-H torsion
[ 10763 10752 10751 10750 ] final   31.87 input  -60.55 | X-H torsion
[ 11005 11000 10999 10996 ] final -103.19 input  -57.11 | X-H torsion

> <Gold.Protein.ActiveResidues>
 VAL166  LYS551  ARG553  GLY616  TRP617  ASP618  TYR619  PRO620  LYS621  CYS622 
 ASP623  PHE694  ASN695  SER759  ASP760  ASP761  ALA762  ILE779  LEU786  VAL792 
 PHE793  MET794  SER795  GLU796  ALA797  LYS798  CYS799  TRP800  GLU811  SER814 

> <Gold.Protein.RotatedAtoms>
  151.6638  133.3316  159.3179 H   0  0  0  0  0  0  0  0  0  0  0  0  # atno 6907 bound_to 6896
  150.7901  134.6921  159.6512 H   0  0  0  0  0  0  0  0  0  0  0  0  # atno 6908 bound_to 6896
  152.3979  134.6339  160.0134 H   0  0  0  0  0  0  0  0  0  0  0  0  # atno 6909 bound_to 6896
  145.1003  140.8547  143.3930 H   0  0  0  0  0  0  0  0  0  0  0  0  # atno 7974 bound_to 7965
  156.2193  140.1812  156.7515 H   0  0  0  0  0  0  0  0  0  0  0  0  # atno 8008 bound_to 7997
  154.5840  140.0661  156.9173 H   0  0  0  0  0  0  0  0  0  0  0  0  # atno 8009 bound_to 7997
  155.2453  140.3325  155.4290 H   0  0  0  0  0  0  0  0  0  0  0  0  # atno 8010 bound_to 7997
  139.8305  143.7453  152.2666 H   0  0  0  0  0  0  0  0  0  0  0  0  # atno 10167 bound_to 10162
  156.2951  130.4233  149.8199 H   0  0  0  0  0  0  0  0  0  0  0  0  # atno 10718 bound_to 10713
  153.0292  135.6428  154.1266 H   0  0  0  0  0  0  0  0  0  0  0  0  # atno 10763 bound_to 10752
  154.0991  135.2861  155.3257 H   0  0  0  0  0  0  0  0  0  0  0  0  # atno 10764 bound_to 10752
  154.6411  135.5459  153.7854 H   0  0  0  0  0  0  0  0  0  0  0  0  # atno 10765 bound_to 10752
  141.1157  133.8620  157.1454 H   0  0  0  0  0  0  0  0  0  0  0  0  # atno 11005 bound_to 11000
  145.0963  139.2854  143.5709 LP  0  0  0  0  0  0  0  0  0  0  0  0  # atno 17320 bound_to 7965
  146.3530  140.0517  142.8635 LP  0  0  0  0  0  0  0  0  0  0  0  0  # atno 17321 bound_to 7965
  139.7659  144.7492  151.0295 LP  0  0  0  0  0  0  0  0  0  0  0  0  # atno 17342 bound_to 10162
  140.7807  143.4698  151.0162 LP  0  0  0  0  0  0  0  0  0  0  0  0  # atno 17343 bound_to 10162
  156.5598  130.8378  151.3325 LP  0  0  0  0  0  0  0  0  0  0  0  0  # atno 17370 bound_to 10713
  157.7353  130.9760  150.2075 LP  0  0  0  0  0  0  0  0  0  0  0  0  # atno 17371 bound_to 10713
  140.0077  135.0001  157.0328 LP  0  0  0  0  0  0  0  0  0  0  0  0  # atno 17394 bound_to 11000
  140.4653  134.1442  155.7196 LP  0  0  0  0  0  0  0  0  0  0  0  0  # atno 17395 bound_to 11000

$$$$
