#       Name:                AV-unprocessed.smi:1896
#       Creating user name   scv26
#       Creation time:       Fri Mar 27 09:42:24 2020


#       File generated by GOLD software.
#

@<TRIPOS>MOLECULE
AV-unprocessed.smi:1896
    50    51     1
SMALL
NO_CHARGES


@<TRIPOS>ATOM
      1 ****        -2.8227   1.9780  -2.0101 C.3            1 S1                 0.0000
      2 ****        -2.8625   2.5417  -0.6183 C.2            1 S1                 0.0000
      3 ****        -2.9788   3.8485  -0.4517 N.2            1 S1                 0.0000
      4 ****        -2.9764   4.0274   0.8844 N.pl3          1 S1                 0.0000
      5 ****        -3.0922   5.3689   1.4227 C.3            1 S1                 0.0000
      6 ****        -2.8589   2.8306   1.5637 C.2            1 S1                 0.0000
      7 ****        -2.8294   2.7627   3.0567 C.3            1 S1                 0.0000
      8 ****        -2.7794   1.8405   0.6207 C.2            1 S1                 0.0000
      9 ****        -2.6323   0.3544   0.8267 C.3            1 S1                 0.0000
     10 ****        -1.1540   0.0076   1.0000 C.2            1 S1                 0.0000
     11 ****        -0.6599  -0.0355   2.1264 O.2            1 S1                 0.0000
     12 ****        -0.4598  -0.2350  -0.1235 N.am           1 S1                 0.0000
     13 ****         0.9689  -0.5316  -0.1901 C.3            1 S1                 0.0000
     14 ****         1.2687  -2.0370  -0.4126 C.3            1 S1                 0.0000
     15 ****         0.6654  -2.9055   0.7150 C.3            1 S1                 0.0000
     16 ****         2.7393  -2.2593  -0.5360 N.4            1 S1                 1.0000
     17 ****         3.1768  -3.6698  -0.6302 C.3            1 S1                 0.0000
     18 ****         4.5776  -3.6106  -1.2275 C.3            1 S1                 0.0000
     19 ****         4.4720  -2.4699  -2.2323 C.3            1 S1                 0.0000
     20 ****         3.3978  -1.5376  -1.6552 C.3            1 S1                 0.0000
     21 ****        -1.8200   1.6314  -2.2597 H              1 S1                 0.0000
     22 ****        -3.1125   2.7199  -2.7552 H              1 S1                 0.0000
     23 ****        -3.5017   1.1313  -2.1090 H              1 S1                 0.0000
     24 ****        -4.0503   5.4771   1.9311 H              1 S1                 0.0000
     25 ****        -3.0284   6.1105   0.6253 H              1 S1                 0.0000
     26 ****        -2.2876   5.5513   2.1353 H              1 S1                 0.0000
     27 ****        -2.7459   1.7335   3.4052 H              1 S1                 0.0000
     28 ****        -3.7389   3.1868   3.4821 H              1 S1                 0.0000
     29 ****        -1.9784   3.3171   3.4528 H              1 S1                 0.0000
     30 ****        -3.1817   0.0180   1.7067 H              1 S1                 0.0000
     31 ****        -3.0407  -0.2102  -0.0123 H              1 S1                 0.0000
     32 ****        -0.9545  -0.1763  -1.0022 H              1 S1                 0.0000
     33 ****         1.3613   0.0653  -1.0128 H              1 S1                 0.0000
     34 ****         1.4815  -0.1754   0.7053 H              1 S1                 0.0000
     35 ****         0.8070  -2.3461  -1.3520 H              1 S1                 0.0000
     36 ****        -0.4128  -2.7716   0.7939 H              1 S1                 0.0000
     37 ****         1.1013  -2.6551   1.6826 H              1 S1                 0.0000
     38 ****         0.8192  -3.9704   0.5432 H              1 S1                 0.0000
     39 ****         3.1705  -4.1663   0.3406 H              1 S1                 0.0000
     40 ****         2.5138  -4.2187  -1.3014 H              1 S1                 0.0000
     41 ****         5.3018  -3.3573  -0.4519 H              1 S1                 0.0000
     42 ****         4.8859  -4.5522  -1.6831 H              1 S1                 0.0000
     43 ****         5.4255  -1.9650  -2.3910 H              1 S1                 0.0000
     44 ****         4.1400  -2.8598  -3.1956 H              1 S1                 0.0000
     45 ****         2.6872  -1.2714  -2.4394 H              1 S1                 0.0000
     46 ****         3.8364  -0.6139  -1.2763 H              1 S1                 0.0000
     47 ****         3.1612  -1.9015   0.3093 H              1 S1                 0.0000
     48 ****        -3.0523   4.5497  -1.1609 LP             1 S1                 0.0000
     49 ****        -1.2257   0.1564   2.9283 LP             1 S1                 0.0000
     50 ****         0.3074  -0.2624   2.2397 LP             1 S1                 0.0000
@<TRIPOS>BOND
    1    1    2 1     
    2    1   21 1     
    3    1   22 1     
    4    1   23 1     
    5    2    8 1     
    6    2    3 2     
    7    3    4 1     
    8    4    5 1     
    9    4    6 1     
   10    5   24 1     
   11    5   25 1     
   12    5   26 1     
   13    6    7 1     
   14    6    8 2     
   15    7   27 1     
   16    7   28 1     
   17    7   29 1     
   18    8    9 1     
   19    9   10 1     
   20    9   30 1     
   21    9   31 1     
   22   10   11 2     
   23   10   12 am    
   24   12   13 1     
   25   12   32 1     
   26   13   14 1     
   27   13   33 1     
   28   13   34 1     
   29   14   15 1     
   30   14   16 1     
   31   14   35 1     
   32   15   36 1     
   33   15   37 1     
   34   15   38 1     
   35   16   20 1     
   36   16   17 1     
   37   16   47 1     
   38   17   18 1     
   39   17   39 1     
   40   17   40 1     
   41   18   19 1     
   42   18   41 1     
   43   18   42 1     
   44   19   20 1     
   45   19   43 1     
   46   19   44 1     
   47   20   45 1     
   48   20   46 1     
   49    3   48 1     
   50   11   49 1     
   51   11   50 1     
@<TRIPOS>SUBSTRUCTURE
      1 S1             1
@<TRIPOS>SET
LONE_PAIRS      STATIC     ATOMS    <user>   **** ""
3 48 49 50
DONOR_HYDROGENS      STATIC     ATOMS    <user>   **** ""
2 32 47
ATOM$BLUE        STATIC     ATOMS    COLORGROUP SYSTEM
3 48 49 50
ATOM$RED        STATIC     ATOMS    COLORGROUP SYSTEM
2 32 47
