#       Name:                AV-unprocessed.smi:656
#       Creating user name   scv26
#       Creation time:       Fri Mar 27 00:15:43 2020


#       File generated by GOLD software.
#

@<TRIPOS>MOLECULE
AV-unprocessed.smi:656
    45    46     1
SMALL
NO_CHARGES


@<TRIPOS>ATOM
      1 ****        -6.1249   1.4779  -1.7185 C.3            1 S1                 0.0000
      2 ****        -4.6112   1.4768  -1.4797 C.3            1 S1                 0.0000
      3 ****        -4.0809   0.0845  -1.0950 C.3            1 S1                 0.0000
      4 ****        -2.6011   0.0512  -0.9722 N.4            1 S1                 1.0000
      5 ****        -2.0581  -1.3235  -1.1269 C.3            1 S1                 0.0000
      6 ****        -0.5201  -1.3195  -1.1363 C.3            1 S1                 0.0000
      7 ****         0.0398  -0.6643   0.1358 C.3            1 S1                 0.0000
      8 ****         1.4970  -0.6059   0.0662 N.am           1 S1                 0.0000
      9 ****         2.3149  -0.5003   1.1242 C.2            1 S1                 0.0000
     10 ****         1.9130  -0.4317   2.2858 O.2            1 S1                 0.0000
     11 ****         3.6042  -0.4799   0.7442 N.am           1 S1                 0.0000
     12 ****         4.7562  -0.3723   1.5673 C.ar           1 S1                 0.0000
     13 ****         5.9911  -0.3934   0.8847 C.ar           1 S1                 0.0000
     14 ****         7.1719  -0.2899   1.6397 C.ar           1 S1                 0.0000
     15 ****         7.0363  -0.1712   3.0333 C.ar           1 S1                 0.0000
     16 ****         5.8325  -0.1550   3.6454 N.ar           1 S1                 0.0000
     17 ****         4.7129  -0.2544   2.9203 N.ar           1 S1                 0.0000
     18 ****        -0.5624   0.7437   0.2935 C.3            1 S1                 0.0000
     19 ****        -2.0994   0.6969   0.2705 C.3            1 S1                 0.0000
     20 ****        -6.4746   2.4742  -1.9897 H              1 S1                 0.0000
     21 ****        -6.6653   1.1682  -0.8235 H              1 S1                 0.0000
     22 ****        -6.3980   0.7993  -2.5271 H              1 S1                 0.0000
     23 ****        -4.1076   1.8238  -2.3828 H              1 S1                 0.0000
     24 ****        -4.3839   2.2031  -0.7001 H              1 S1                 0.0000
     25 ****        -4.5396  -0.2641  -0.1684 H              1 S1                 0.0000
     26 ****        -4.3886  -0.6161  -1.8728 H              1 S1                 0.0000
     27 ****        -2.4277  -1.9555  -0.3176 H              1 S1                 0.0000
     28 ****        -2.4173  -1.7599  -2.0598 H              1 S1                 0.0000
     29 ****        -0.1505  -2.3420  -1.2246 H              1 S1                 0.0000
     30 ****        -0.1649  -0.7849  -2.0188 H              1 S1                 0.0000
     31 ****        -0.2514  -1.2759   0.9922 H              1 S1                 0.0000
     32 ****         1.9129  -0.6554  -0.8525 H              1 S1                 0.0000
     33 ****         3.7833  -0.5489  -0.2464 H              1 S1                 0.0000
     34 ****         6.0363  -0.4868  -0.1905 H              1 S1                 0.0000
     35 ****         8.1438  -0.3010   1.1692 H              1 S1                 0.0000
     36 ****         7.9056  -0.0876   3.6686 H              1 S1                 0.0000
     37 ****        -0.2264   1.1963   1.2273 H              1 S1                 0.0000
     38 ****        -0.2074   1.3924  -0.5089 H              1 S1                 0.0000
     39 ****        -2.4801   1.7143   0.3518 H              1 S1                 0.0000
     40 ****        -2.4696   0.1522   1.1405 H              1 S1                 0.0000
     41 ****        -2.2394   0.5850  -1.7496 H              1 S1                 0.0000
     42 ****         0.9318  -0.4537   2.4775 LP             1 S1                 0.0000
     43 ****         2.5677  -0.3540   3.0377 LP             1 S1                 0.0000
     44 ****         5.7782  -0.0687   4.6402 LP             1 S1                 0.0000
     45 ****         3.8265  -0.2417   3.3831 LP             1 S1                 0.0000
@<TRIPOS>BOND
    1    1    2 1     
    2    1   20 1     
    3    1   21 1     
    4    1   22 1     
    5    2    3 1     
    6    2   23 1     
    7    2   24 1     
    8    3    4 1     
    9    3   25 1     
   10    3   26 1     
   11    4   19 1     
   12    4    5 1     
   13    4   41 1     
   14    5    6 1     
   15    5   27 1     
   16    5   28 1     
   17    6    7 1     
   18    6   29 1     
   19    6   30 1     
   20    7    8 1     
   21    7   18 1     
   22    7   31 1     
   23    8    9 am    
   24    8   32 1     
   25    9   10 2     
   26    9   11 am    
   27   11   12 1     
   28   11   33 1     
   29   12   17 ar    
   30   12   13 ar    
   31   13   14 ar    
   32   13   34 1     
   33   14   15 ar    
   34   14   35 1     
   35   15   16 ar    
   36   15   36 1     
   37   16   17 ar    
   38   18   19 1     
   39   18   37 1     
   40   18   38 1     
   41   19   39 1     
   42   19   40 1     
   43   10   42 1     
   44   10   43 1     
   45   16   44 1     
   46   17   45 1     
@<TRIPOS>SUBSTRUCTURE
      1 S1             1
@<TRIPOS>SET
LONE_PAIRS      STATIC     ATOMS    <user>   **** ""
4 42 43 44 45
DONOR_HYDROGENS      STATIC     ATOMS    <user>   **** ""
3 41 32 33
ATOM$BLUE        STATIC     ATOMS    COLORGROUP SYSTEM
4 42 43 44 45
ATOM$RED        STATIC     ATOMS    COLORGROUP SYSTEM
3 41 32 33
