AV-unprocessed.smi:578|AV-procd|sdf|2986|dock7
  -GOLD-   2262023493D 1   1.00000     0.00000
 Structure written by MMmdl.
 32 33  0  0  0  0  0  0  0  0  2 V2000
  151.2530  145.1374  158.8852 C   0  0  0  0  0  0  0  0  0  0  0  0
  150.7059  143.8228  159.4691 C   0  0  1  0  0  0  0  0  0  0  0  0
  150.2786  142.8034  158.3938 C   0  0  0  0  0  0  0  0  0  0  0  0
  151.4446  142.1912  157.7709 N   0  0  0  0  0  0  0  0  0  0  0  0
  151.1176  141.3424  156.7045 C   0  0  0  0  0  0  0  0  0  0  0  0
  149.9284  141.5639  155.9839 C   0  0  0  0  0  0  0  0  0  0  0  0
  149.6200  140.7003  154.9160 C   0  0  0  0  0  0  0  0  0  0  0  0
  150.4055  139.6676  154.5474 N   0  0  0  0  0  0  0  0  0  0  0  0
  151.5511  139.4444  155.2362 C   0  0  0  0  0  0  0  0  0  0  0  0
  152.4095  138.2845  154.8069 C   0  0  0  0  0  0  0  0  0  0  0  0
  151.8685  137.3137  154.2310 O   0  0  0  0  0  0  0  0  0  0  0  0
  153.6395  138.3224  155.0371 O   0  5  0  0  0  0  0  0  0  0  0  0
  151.9432  140.2613  156.3236 C   0  0  0  0  0  0  0  0  0  0  0  0
  152.3369  141.5828  158.7470 C   0  0  0  0  0  0  0  0  0  0  0  0
  152.7776  142.6336  159.7817 C   0  0  2  0  0  0  0  0  0  0  0  0
  153.6361  142.0193  160.8918 C   0  0  0  0  0  0  0  0  0  0  0  0
  151.6233  143.2189  160.3858 O   0  0  0  0  0  0  0  0  0  0  0  0
  150.4911  145.6404  158.2896 H   0  0  0  0  0  0  0  0  0  0  0  0
  152.1147  144.9762  158.2380 H   0  0  0  0  0  0  0  0  0  0  0  0
  151.5533  145.8207  159.6799 H   0  0  0  0  0  0  0  0  0  0  0  0
  149.8208  144.0811  160.0510 H   0  0  0  0  0  0  0  0  0  0  0  0
  149.6692  142.0248  158.8551 H   0  0  0  0  0  0  0  0  0  0  0  0
  149.6583  143.2860  157.6373 H   0  0  0  0  0  0  0  0  0  0  0  0
  149.2663  142.3779  156.2402 H   0  0  0  0  0  0  0  0  0  0  0  0
  148.7168  140.8434  154.3416 H   0  0  0  0  0  0  0  0  0  0  0  0
  152.8604  140.0631  156.8591 H   0  0  0  0  0  0  0  0  0  0  0  0
  151.8293  140.7575  159.2483 H   0  0  0  0  0  0  0  0  0  0  0  0
  153.2077  141.1660  158.2391 H   0  0  0  0  0  0  0  0  0  0  0  0
  153.3662  143.4077  159.2888 H   0  0  0  0  0  0  0  0  0  0  0  0
  154.5377  141.5626  160.4823 H   0  0  0  0  0  0  0  0  0  0  0  0
  153.0870  141.2499  161.4350 H   0  0  0  0  0  0  0  0  0  0  0  0
  153.9452  142.7790  161.6100 H   0  0  0  0  0  0  0  0  0  0  0  0
  1  2  1  0  0  0  0
  1 18  1  0  0  0  0
  1 19  1  0  0  0  0
  1 20  1  0  0  0  0
  2 17  1  0  0  0  0
  2  3  1  0  0  0  0
  2 21  1  0  0  0  0
  3  4  1  0  0  0  0
  3 22  1  0  0  0  0
  3 23  1  0  0  0  0
  4  5  1  0  0  0  0
  4 14  1  0  0  0  0
  5 13  1  0  0  0  0
  5  6  2  0  0  0  0
  6  7  1  0  0  0  0
  6 24  1  0  0  0  0
  7  8  2  0  0  0  0
  7 25  1  0  0  0  0
  8  9  1  0  0  0  0
  9 10  1  0  0  0  0
  9 13  2  0  0  0  0
 10 11  2  0  0  0  0
 10 12  1  0  0  0  0
 13 26  1  0  0  0  0
 14 15  1  0  0  0  0
 14 27  1  0  0  0  0
 14 28  1  0  0  0  0
 15 16  1  0  0  0  0
 15 17  1  0  0  0  0
 15 29  1  0  0  0  0
 16 30  1  0  0  0  0
 16 31  1  0  0  0  0
 16 32  1  0  0  0  0
M  CHG  1  12  -1
M  END
> <s_m_source_file>
AV-unprocessed.smi

> <i_m_source_file_index>
578

> <i_lp_mmshare_version>
43012

> <i_f3d_flags>
0

> <s_epik_input>
W0NIM11bQ0BASF0xW0NIMl1OKFtDSDJdW0NASF0oTzEpW0NIM10pYzJbY0hdW2NIXW5jKFtjSF0yKUMoPU8pW09IXQ==

> <s_epik_cmdline>
J2VwaWtfcHl0aG9uJywgJy1waCcsICc3LjAnLCAnLXRuJywgJzgnLCAnLW1hJywgJzIwMCcsICctbWV0YWxfYmluZGluZycsICctaW1hZScsICc8aW5maWxlLm1hZT4nLCAnLW9tYWUnLCAnPG91dGZpbGUubWFlPic=

> <r_epik_Ionization_Penalty>
2.00764

> <r_epik_Ionization_Penalty_Charging>
0.000210348

> <r_epik_Ionization_Penalty_Neutral>
2.00743

> <r_epik_State_Penalty>
2.13668

> <r_epik_Charging_Adjusted_Penalty>
2.13689

> <i_epik_Tot_Q>
-1

> <i_epik_Tot_abs_Q>
1

> <r_epik_Metal_State_Penalty>
0.0208571

> <b_epik_Metal_Only>
0

> <s_lp_Force_Field>
OPLS_2005

> <r_lp_Energy>
23.987

> <b_lp_Chiralities_Consistent>
1

> <s_lp_Variant>
AV-unprocessed.smi:578-6

> <Gold.Version>
5.8.1

> <Gold.Id.Protein>
6NUR|6NUR_protein|mol2

> <Gold.PLP.Fitness>
47.0055

> <Gold.PLP.PLP>
-39.1986

> <Gold.PLP.part.hbond>
-3.4371

> <Gold.PLP.part.metal>
0.0000

> <Gold.PLP.part.buried>
-3.7312

> <Gold.PLP.part.nonpolar>
-30.3527

> <Gold.PLP.part.repulsive>
0.3890

> <Gold.PLP.ligand.clash>
0.6346

> <Gold.PLP.ligand.torsion>
0.9976

> <Gold.PLP.Chemscore.Hbond>
3.4480

> <Gold.PLP.Chemscore.CHOScore>
0.0000

> <Gold.PLP.Chemscore.Metal>
0.0000

> <Gold.Chemscore.Hbonds>
donor molecule, donor type, donor heavy atom, donor atom, acceptor molecule, acceptor atom, score
      P1  H  7989  7998       L1     8  0.06
      P1  H  7997  8010       L1    12  0.94
      P1  H 10752 10763       L1    11  2.00

> <Gold.PLP.Chemscore.Internal.Correction>
0.0928

> <Gold.Rescore>
     Score         DG    S(hbond)    S(metal)    S(lipo)     H(rot)  DE(clash)    DE(int)     intcor
     17.64     -18.57       1.49        0.00      91.27       1.00       0.08       0.85       ----

> <Gold.Chemscore.Fitness>
17.6375

> <Gold.Chemscore.DG>
-18.5711

> <Gold.Chemscore.ZeroCoef>
-5.4800

> <Gold.Chemscore.Hbond>
1.4888

> <Gold.Chemscore.Metal>
0.0000

> <Gold.Chemscore.Lipo>
91.2700

> <Gold.Chemscore.Internal_Hbond>
0.0000

> <Gold.Chemscore.DEClash>
0.0791

> <Gold.Chemscore.DEInternal>
0.8545

> <Gold.Chemscore.Rot>
1.0000

> <Gold.Chemscore.Internal.Correction>
   9.000000E+99

> <Gold.Chemscore.Hbonds>
donor molecule, donor type, donor heavy atom, donor atom, acceptor molecule, acceptor atom, score
      P1  H  7997  8010       L1    12  0.45
      P1  H 10752 10763       L1    11  0.82

> <Gold.Chemscore.Hbond.Weighted>
-4.9725

> <Gold.Chemscore.Metal.Weighted>
-0.0000

> <Gold.Chemscore.Lipo.Weighted>
-10.6786

> <Gold.Chemscore.Internal_Hbond.Weighted>
0.0000

> <Gold.Chemscore.DEClash.Weighted>
0.0791

> <Gold.Chemscore.DEInternal.Weighted>
0.8545

> <Gold.Chemscore.Rot.Weighted>
2.5600

> <Gold.Chemscore.Internal.Correction.Weighted>
   9.000000E+99

> <Gold.Protein.RotatedTorsions>
[ 6907 6896 6895 6894 ] final   25.03 input  -60.11 | X-H torsion
[ 7974 7965 7964 7962 ] final  -66.33 input  175.53 | X-H torsion
[ 8008 7997 7996 7995 ] final  108.03 input   59.86 | X-H torsion
[ 10167 10162 10161 10158 ] final -178.54 input  -65.29 | X-H torsion
[ 10718 10713 10712 10709 ] final   70.25 input   66.30 | X-H torsion
[ 10763 10752 10751 10750 ] final   32.97 input  -60.55 | X-H torsion
[ 11005 11000 10999 10996 ] final  -94.16 input  -57.11 | X-H torsion

> <Gold.Protein.ActiveResidues>
 VAL166  LYS551  ARG553  GLY616  TRP617  ASP618  TYR619  PRO620  LYS621  CYS622 
 ASP623  PHE694  ASN695  SER759  ASP760  ASP761  ALA762  ILE779  LEU786  VAL792 
 PHE793  MET794  SER795  GLU796  ALA797  LYS798  CYS799  TRP800  GLU811  SER814 

> <Gold.Protein.RotatedAtoms>
  151.9664  135.0098  160.0550 H   0  0  0  0  0  0  0  0  0  0  0  0  # atno 6907 bound_to 6896
  152.1822  133.4710  159.4972 H   0  0  0  0  0  0  0  0  0  0  0  0  # atno 6908 bound_to 6896
  150.6919  134.1736  159.4264 H   0  0  0  0  0  0  0  0  0  0  0  0  # atno 6909 bound_to 6896
  145.7431  140.8944  143.0519 H   0  0  0  0  0  0  0  0  0  0  0  0  # atno 7974 bound_to 7965
  156.1871  140.3084  155.9260 H   0  0  0  0  0  0  0  0  0  0  0  0  # atno 8008 bound_to 7997
  155.3256  140.0458  157.3058 H   0  0  0  0  0  0  0  0  0  0  0  0  # atno 8009 bound_to 7997
  154.5408  140.2261  155.8653 H   0  0  0  0  0  0  0  0  0  0  0  0  # atno 8010 bound_to 7997
  139.5427  144.2318  152.0928 H   0  0  0  0  0  0  0  0  0  0  0  0  # atno 10167 bound_to 10162
  157.6389  130.9467  150.0624 H   0  0  0  0  0  0  0  0  0  0  0  0  # atno 10718 bound_to 10713
  153.0235  135.6399  154.1439 H   0  0  0  0  0  0  0  0  0  0  0  0  # atno 10763 bound_to 10752
  154.1171  135.2849  155.3219 H   0  0  0  0  0  0  0  0  0  0  0  0  # atno 10764 bound_to 10752
  154.6290  135.5499  153.7722 H   0  0  0  0  0  0  0  0  0  0  0  0  # atno 10765 bound_to 10752
  141.1478  133.7937  157.0259 H   0  0  0  0  0  0  0  0  0  0  0  0  # atno 11005 bound_to 11000
  144.6866  139.9488  143.7477 LP  0  0  0  0  0  0  0  0  0  0  0  0  # atno 17320 bound_to 7965
  146.0429  139.3438  143.0686 LP  0  0  0  0  0  0  0  0  0  0  0  0  # atno 17321 bound_to 7965
  140.1799  144.4854  150.6534 LP  0  0  0  0  0  0  0  0  0  0  0  0  # atno 17342 bound_to 10162
  140.6664  143.2269  151.5733 LP  0  0  0  0  0  0  0  0  0  0  0  0  # atno 17343 bound_to 10162
  156.1653  130.3645  149.9241 LP  0  0  0  0  0  0  0  0  0  0  0  0  # atno 17370 bound_to 10713
  156.7230  130.9014  151.3619 LP  0  0  0  0  0  0  0  0  0  0  0  0  # atno 17371 bound_to 10713
  140.0785  134.9662  157.1585 LP  0  0  0  0  0  0  0  0  0  0  0  0  # atno 17394 bound_to 11000
  140.3610  134.2494  155.7187 LP  0  0  0  0  0  0  0  0  0  0  0  0  # atno 17395 bound_to 11000

$$$$
