#       Name:                AV-unprocessed.smi:2453
#       Creating user name   scv26
#       Creation time:       Fri Mar 27 13:32:55 2020


#       File generated by GOLD software.
#

@<TRIPOS>MOLECULE
AV-unprocessed.smi:2453
    45    46     1
SMALL
NO_CHARGES


@<TRIPOS>ATOM
      1 ****        -4.4000  -0.3740  -0.7499 C.3            1 S1                 0.0000
      2 ****        -4.2018   1.0550  -0.2757 C.ar           1 S1                 0.0000
      3 ****        -5.2978   1.9442  -0.2440 C.ar           1 S1                 0.0000
      4 ****        -5.2074   3.2262   0.1659 N.ar           1 S1                 0.0000
      5 ****        -4.0005   3.6724   0.5698 C.ar           1 S1                 0.0000
      6 ****        -2.8412   2.8727   0.5804 C.ar           1 S1                 0.0000
      7 ****        -2.9335   1.5310   0.1370 C.ar           1 S1                 0.0000
      8 ****        -1.8299   0.6310   0.1317 N.am           1 S1                 0.0000
      9 ****        -0.5145   0.9076   0.1157 C.2            1 S1                 0.0000
     10 ****        -0.0224   2.0338   0.0477 O.2            1 S1                 0.0000
     11 ****         0.2149  -0.2165   0.1666 N.am           1 S1                 0.0000
     12 ****         1.6757  -0.2782   0.1596 C.3            1 S1                 0.0000
     13 ****         2.2123  -0.0596   1.5908 C.3            1 S1                 0.0000
     14 ****         3.7416  -0.1818   1.6505 C.3            1 S1                 0.0000
     15 ****         4.2072  -1.5379   1.1038 C.3            1 S1                 0.0000
     16 ****         3.6977  -1.7571  -0.3285 C.3            1 S1                 0.0000
     17 ****         2.1608  -1.6340  -0.4183 C.3            1 S1                 0.0000
     18 ****         1.6516  -1.9204  -1.8491 C.3            1 S1                 0.0000
     19 ****         2.0995  -0.9467  -2.7700 O.3            1 S1                 0.0000
     20 ****        -5.4325  -0.5526  -1.0515 H              1 S1                 0.0000
     21 ****        -4.1548  -1.0761   0.0473 H              1 S1                 0.0000
     22 ****        -3.7579  -0.5833  -1.6059 H              1 S1                 0.0000
     23 ****        -6.2798   1.6178  -0.5538 H              1 S1                 0.0000
     24 ****        -3.9575   4.6985   0.9035 H              1 S1                 0.0000
     25 ****        -1.9172   3.2987   0.9389 H              1 S1                 0.0000
     26 ****        -2.0749  -0.3473   0.0946 H              1 S1                 0.0000
     27 ****        -0.2747  -1.0978   0.2154 H              1 S1                 0.0000
     28 ****         2.0606   0.5208  -0.4772 H              1 S1                 0.0000
     29 ****         1.9138   0.9227   1.9592 H              1 S1                 0.0000
     30 ****         1.7664  -0.7897   2.2677 H              1 S1                 0.0000
     31 ****         4.1963   0.6229   1.0713 H              1 S1                 0.0000
     32 ****         4.0848  -0.0566   2.6777 H              1 S1                 0.0000
     33 ****         5.2961  -1.5918   1.1227 H              1 S1                 0.0000
     34 ****         3.8456  -2.3388   1.7501 H              1 S1                 0.0000
     35 ****         4.1682  -1.0286  -0.9899 H              1 S1                 0.0000
     36 ****         4.0145  -2.7398  -0.6793 H              1 S1                 0.0000
     37 ****         1.7476  -2.4194   0.2170 H              1 S1                 0.0000
     38 ****         1.9996  -2.8983  -2.1831 H              1 S1                 0.0000
     39 ****         0.5623  -1.9531  -1.8768 H              1 S1                 0.0000
     40 ****         1.7820  -1.1762  -3.6302 H              1 S1                 0.0000
     41 ****        -6.0081   3.8253   0.1701 LP             1 S1                 0.0000
     42 ****        -0.6163   2.8368  -0.0014 LP             1 S1                 0.0000
     43 ****         0.9713   2.1457   0.0415 LP             1 S1                 0.0000
     44 ****         3.0992  -0.9227  -2.7753 LP             1 S1                 0.0000
     45 ****         1.7459  -0.0484  -2.5091 LP             1 S1                 0.0000
@<TRIPOS>BOND
    1    1    2 1     
    2    1   20 1     
    3    1   21 1     
    4    1   22 1     
    5    2    7 ar    
    6    2    3 ar    
    7    3    4 ar    
    8    3   23 1     
    9    4    5 ar    
   10    5    6 ar    
   11    5   24 1     
   12    6    7 ar    
   13    6   25 1     
   14    7    8 1     
   15    8    9 am    
   16    8   26 1     
   17    9   10 2     
   18    9   11 am    
   19   11   12 1     
   20   11   27 1     
   21   12   17 1     
   22   12   13 1     
   23   12   28 1     
   24   13   14 1     
   25   13   29 1     
   26   13   30 1     
   27   14   15 1     
   28   14   31 1     
   29   14   32 1     
   30   15   16 1     
   31   15   33 1     
   32   15   34 1     
   33   16   17 1     
   34   16   35 1     
   35   16   36 1     
   36   17   18 1     
   37   17   37 1     
   38   18   19 1     
   39   18   38 1     
   40   18   39 1     
   41   19   40 1     
   42    4   41 1     
   43   10   42 1     
   44   10   43 1     
   45   19   44 1     
   46   19   45 1     
@<TRIPOS>SUBSTRUCTURE
      1 S1             1
@<TRIPOS>SET
LONE_PAIRS      STATIC     ATOMS    <user>   **** ""
5 41 42 43 44 45
DONOR_HYDROGENS      STATIC     ATOMS    <user>   **** ""
3 26 27 40
ATOM$BLUE        STATIC     ATOMS    COLORGROUP SYSTEM
5 41 42 43 44 45
ATOM$RED        STATIC     ATOMS    COLORGROUP SYSTEM
3 26 27 40
