AV-unprocessed.smi:1403|AV-procd|sdf|5700|dock10
  -GOLD-   22720 5333D 1   1.00000     0.00000
 Structure written by MMmdl.
 36 37  0  0  0  0  0  0  0  0  1 V2000
  144.5076  134.4539  153.3199 C   0  0  0  0  0  0  0  0  0  0  0  0
  145.6148  133.7878  152.4888 C   0  0  1  0  0  0  0  0  0  0  0  0
  145.9279  132.4920  153.0860 N   0  0  0  0  0  0  0  0  0  0  0  0
  147.1495  131.9434  153.1731 C   0  0  0  0  0  0  0  0  0  0  0  0
  148.1737  132.5065  152.7840 O   0  0  0  0  0  0  0  0  0  0  0  0
  147.2160  130.5492  153.8128 C   0  0  0  0  0  0  0  0  0  0  0  0
  147.7668  129.5284  152.9092 N   0  0  0  0  0  0  0  0  0  0  0  0
  146.9792  128.9828  151.9054 C   0  0  0  0  0  0  0  0  0  0  0  0
  147.4173  128.0302  151.0486 C   0  0  0  0  0  0  0  0  0  0  0  0
  148.7802  127.5187  151.1467 C   0  0  0  0  0  0  0  0  0  0  0  0
  149.2691  126.6587  150.4175 O   0  0  0  0  0  0  0  0  0  0  0  0
  149.5407  128.0907  152.1701 N   0  0  0  0  0  0  0  0  0  0  0  0
  149.0950  129.0719  153.0572 C   0  0  0  0  0  0  0  0  0  0  0  0
  149.8481  129.5065  153.9278 O   0  0  0  0  0  0  0  0  0  0  0  0
  145.2071  133.5942  151.0135 C   0  0  1  0  0  0  0  0  0  0  0  0
  146.1947  132.7802  150.1751 C   0  0  0  0  0  0  0  0  0  0  0  0
  145.3317  132.1854  149.0723 C   0  0  0  0  0  0  0  0  0  0  0  0
  143.8974  132.4089  149.5573 C   0  0  0  0  0  0  0  0  0  0  0  0
  144.0280  132.8100  150.9125 O   0  0  0  0  0  0  0  0  0  0  0  0
  150.4903  127.7655  152.2788 H   0  0  0  0  0  0  0  0  0  0  0  0
  144.2726  135.4497  152.9438 H   0  0  0  0  0  0  0  0  0  0  0  0
  144.8138  134.5656  154.3604 H   0  0  0  0  0  0  0  0  0  0  0  0
  143.5895  133.8658  153.3035 H   0  0  0  0  0  0  0  0  0  0  0  0
  146.4927  134.4352  152.5299 H   0  0  0  0  0  0  0  0  0  0  0  0
  145.1474  131.9571  153.4373 H   0  0  0  0  0  0  0  0  0  0  0  0
  147.8194  130.6210  154.7190 H   0  0  0  0  0  0  0  0  0  0  0  0
  146.2220  130.2497  154.1515 H   0  0  0  0  0  0  0  0  0  0  0  0
  145.9610  129.3285  151.7981 H   0  0  0  0  0  0  0  0  0  0  0  0
  146.7551  127.6435  150.2874 H   0  0  0  0  0  0  0  0  0  0  0  0
  145.0274  134.5606  150.5380 H   0  0  0  0  0  0  0  0  0  0  0  0
  147.0144  133.3860  149.7878 H   0  0  0  0  0  0  0  0  0  0  0  0
  146.6251  131.9756  150.7730 H   0  0  0  0  0  0  0  0  0  0  0  0
  145.4980  132.6847  148.1173 H   0  0  0  0  0  0  0  0  0  0  0  0
  145.5497  131.1251  148.9401 H   0  0  0  0  0  0  0  0  0  0  0  0
  143.4206  133.2106  148.9915 H   0  0  0  0  0  0  0  0  0  0  0  0
  143.2797  131.5150  149.4689 H   0  0  0  0  0  0  0  0  0  0  0  0
  1  2  1  0  0  0  0
  1 21  1  0  0  0  0
  1 22  1  0  0  0  0
  1 23  1  0  0  0  0
  2  3  1  0  0  0  0
  2 15  1  0  0  0  0
  2 24  1  0  0  0  0
  3  4  1  0  0  0  0
  3 25  1  0  0  0  0
  4  5  2  0  0  0  0
  4  6  1  0  0  0  0
  6  7  1  0  0  0  0
  6 26  1  0  0  0  0
  6 27  1  0  0  0  0
  7 13  1  0  0  0  0
  7  8  1  0  0  0  0
  8  9  2  0  0  0  0
  8 28  1  0  0  0  0
  9 10  1  0  0  0  0
  9 29  1  0  0  0  0
 10 11  2  0  0  0  0
 10 12  1  0  0  0  0
 12 20  1  0  0  0  0
 12 13  1  0  0  0  0
 13 14  2  0  0  0  0
 15 19  1  0  0  0  0
 15 16  1  0  0  0  0
 15 30  1  0  0  0  0
 16 17  1  0  0  0  0
 16 31  1  0  0  0  0
 16 32  1  0  0  0  0
 17 18  1  0  0  0  0
 17 33  1  0  0  0  0
 17 34  1  0  0  0  0
 18 19  1  0  0  0  0
 18 35  1  0  0  0  0
 18 36  1  0  0  0  0
M  END
> <s_m_source_file>
AV-unprocessed.smi

> <i_m_source_file_index>
1403

> <i_lp_mmshare_version>
43012

> <i_f3d_flags>
0

> <s_epik_input>
TzFbQ0gyXVtDSDJdW0NIMl1bQ0BIXTFbQ0BIXShbQ0gzXSlbTkhdQyg9TylbQ0gyXW4yW2NIXVtjSF1jKD1PKVtuSF1jMj1P

> <s_epik_cmdline>
J2VwaWtfcHl0aG9uJywgJy1waCcsICc3LjAnLCAnLXRuJywgJzgnLCAnLW1hJywgJzIwMCcsICctbWV0YWxfYmluZGluZycsICctaW1hZScsICc8aW5maWxlLm1hZT4nLCAnLW9tYWUnLCAnPG91dGZpbGUubWFlPic=

> <r_lp_tautomer_probability>
0.999537

> <r_epik_Ionization_Penalty>
0.00331407

> <r_epik_Ionization_Penalty_Charging>
0.00331405

> <r_epik_Ionization_Penalty_Neutral>
2.30132e-08

> <r_epik_State_Penalty>
0.00234266

> <r_epik_Charging_Adjusted_Penalty>
0.00565671

> <i_epik_Tot_Q>
0

> <i_epik_Tot_abs_Q>
0

> <r_epik_Metal_State_Penalty>
0.365604

> <b_epik_Metal_Only>
0

> <s_lp_Force_Field>
OPLS_2005

> <r_lp_Energy>
17.8488

> <b_lp_Chiralities_Consistent>
1

> <s_lp_Variant>
AV-unprocessed.smi:1403-4

> <Gold.Version>
5.8.1

> <Gold.Id.Protein>
6NUR|6NUR_protein|mol2

> <Gold.PLP.Fitness>
36.2423

> <Gold.PLP.PLP>
-34.9870

> <Gold.PLP.part.hbond>
-1.0000

> <Gold.PLP.part.metal>
0.0000

> <Gold.PLP.part.buried>
-7.4377

> <Gold.PLP.part.nonpolar>
-27.7045

> <Gold.PLP.part.repulsive>
0.9619

> <Gold.PLP.ligand.clash>
0.0000

> <Gold.PLP.ligand.torsion>
0.6087

> <Gold.PLP.Chemscore.Hbond>
0.8160

> <Gold.PLP.Chemscore.CHOScore>
0.0000

> <Gold.PLP.Chemscore.Metal>
0.0000

> <Gold.Chemscore.Hbonds>
donor molecule, donor type, donor heavy atom, donor atom, acceptor molecule, acceptor atom, score
      L1  H    12    20       P1 10737  0.96

> <Gold.PLP.Chemscore.Internal.Correction>
0.0247

> <Gold.Rescore>
     Score         DG    S(hbond)    S(metal)    S(lipo)     H(rot)  DE(clash)    DE(int)     intcor
     11.11     -11.82       0.99        0.00      70.66       2.04       0.02       0.68       ----

> <Gold.Chemscore.Fitness>
11.1100

> <Gold.Chemscore.DG>
-11.8164

> <Gold.Chemscore.ZeroCoef>
-5.4800

> <Gold.Chemscore.Hbond>
0.9850

> <Gold.Chemscore.Metal>
0.0000

> <Gold.Chemscore.Lipo>
70.6622

> <Gold.Chemscore.Internal_Hbond>
0.0000

> <Gold.Chemscore.DEClash>
0.0234

> <Gold.Chemscore.DEInternal>
0.6829

> <Gold.Chemscore.Rot>
2.0395

> <Gold.Chemscore.Internal.Correction>
   9.000000E+99

> <Gold.Chemscore.Hbonds>
donor molecule, donor type, donor heavy atom, donor atom, acceptor molecule, acceptor atom, score
      L1  H    12    20       P1 10737  0.92

> <Gold.Chemscore.Hbond.Weighted>
-3.2900

> <Gold.Chemscore.Metal.Weighted>
-0.0000

> <Gold.Chemscore.Lipo.Weighted>
-8.2675

> <Gold.Chemscore.Internal_Hbond.Weighted>
0.0000

> <Gold.Chemscore.DEClash.Weighted>
0.0234

> <Gold.Chemscore.DEInternal.Weighted>
0.6829

> <Gold.Chemscore.Rot.Weighted>
5.2211

> <Gold.Chemscore.Internal.Correction.Weighted>
   9.000000E+99

> <Gold.Protein.RotatedTorsions>
[ 6907 6896 6895 6894 ] final  -58.18 input  -60.11 | X-H torsion
[ 7974 7965 7964 7962 ] final  -85.32 input  175.53 | X-H torsion
[ 8008 7997 7996 7995 ] final   23.72 input   59.86 | X-H torsion
[ 10167 10162 10161 10158 ] final -124.61 input  -65.29 | X-H torsion
[ 10718 10713 10712 10709 ] final   40.46 input   66.30 | X-H torsion
[ 10763 10752 10751 10750 ] final  -46.61 input  -60.55 | X-H torsion
[ 11005 11000 10999 10996 ] final   78.95 input  -57.11 | X-H torsion

> <Gold.Protein.ActiveResidues>
 VAL166  LYS551  ARG553  GLY616  TRP617  ASP618  TYR619  PRO620  LYS621  CYS622 
 ASP623  PHE694  ASN695  SER759  ASP760  ASP761  ALA762  ILE779  LEU786  VAL792 
 PHE793  MET794  SER795  GLU796  ALA797  LYS798  CYS799  TRP800  GLU811  SER814 

> <Gold.Protein.RotatedAtoms>
  150.8027  134.7131  159.6614 H   0  0  0  0  0  0  0  0  0  0  0  0  # atno 6907 bound_to 6896
  152.4144  134.6063  160.0023 H   0  0  0  0  0  0  0  0  0  0  0  0  # atno 6908 bound_to 6896
  151.6297  133.3296  159.3142 H   0  0  0  0  0  0  0  0  0  0  0  0  # atno 6909 bound_to 6896
  145.4949  140.9550  143.1792 H   0  0  0  0  0  0  0  0  0  0  0  0  # atno 7974 bound_to 7965
  154.9852  140.3107  155.4929 H   0  0  0  0  0  0  0  0  0  0  0  0  # atno 8008 bound_to 7997
  156.2948  140.2259  156.4894 H   0  0  0  0  0  0  0  0  0  0  0  0  # atno 8009 bound_to 7997
  154.7753  140.0449  157.1072 H   0  0  0  0  0  0  0  0  0  0  0  0  # atno 8010 bound_to 7997
  139.9910  143.5641  152.2342 H   0  0  0  0  0  0  0  0  0  0  0  0  # atno 10167 bound_to 10162
  157.3823  130.7760  149.7203 H   0  0  0  0  0  0  0  0  0  0  0  0  # atno 10718 bound_to 10713
  154.0479  135.6635  153.4797 H   0  0  0  0  0  0  0  0  0  0  0  0  # atno 10763 bound_to 10752
  153.0475  135.5105  154.7779 H   0  0  0  0  0  0  0  0  0  0  0  0  # atno 10764 bound_to 10752
  154.6776  135.3039  154.9623 H   0  0  0  0  0  0  0  0  0  0  0  0  # atno 10765 bound_to 10752
  139.9192  134.7804  156.1716 H   0  0  0  0  0  0  0  0  0  0  0  0  # atno 11005 bound_to 11000
  144.7813  139.6520  143.7153 LP  0  0  0  0  0  0  0  0  0  0  0  0  # atno 17320 bound_to 7965
  146.2262  139.5726  142.9586 LP  0  0  0  0  0  0  0  0  0  0  0  0  # atno 17321 bound_to 7965
  139.6340  144.7648  151.2476 LP  0  0  0  0  0  0  0  0  0  0  0  0  # atno 17342 bound_to 10162
  140.7455  143.6430  150.8317 LP  0  0  0  0  0  0  0  0  0  0  0  0  # atno 17343 bound_to 10162
  155.9779  130.4058  150.3685 LP  0  0  0  0  0  0  0  0  0  0  0  0  # atno 17370 bound_to 10713
  157.1790  131.0387  151.2758 LP  0  0  0  0  0  0  0  0  0  0  0  0  # atno 17371 bound_to 10713
  141.0697  133.6802  156.2115 LP  0  0  0  0  0  0  0  0  0  0  0  0  # atno 17394 bound_to 11000
  140.6527  134.5050  157.5578 LP  0  0  0  0  0  0  0  0  0  0  0  0  # atno 17395 bound_to 11000

$$$$
