#       Name:                AV-unprocessed.smi:464
#       Creating user name   scv26
#       Creation time:       Thu Mar 26 23:04:36 2020


#       File generated by GOLD software.
#

@<TRIPOS>MOLECULE
AV-unprocessed.smi:464
    31    32     1
SMALL
NO_CHARGES


@<TRIPOS>ATOM
      1 ****        -4.6597   1.2155  -0.0174 O.2            1 S1                 0.0000
      2 ****        -3.5027   0.8030  -0.0125 C.2            1 S1                 0.0000
      3 ****        -3.2113  -0.5617  -0.0060 N.am           1 S1                 0.0000
      4 ****        -1.9076  -1.0107  -0.0006 C.2            1 S1                 0.0000
      5 ****        -0.8439  -0.1682  -0.0002 C.2            1 S1                 0.0000
      6 ****         0.4633  -0.6283   0.0073 N.pl3          1 S1                 0.0000
      7 ****         1.2463  -0.7853   1.2247 C.3            1 S1                 0.0000
      8 ****         2.4776   0.1370   1.1837 C.3            1 S1                 0.0000
      9 ****         3.2337  -0.1290   0.0054 O.3            1 S1                 0.0000
     10 ****         2.4813   0.1064  -1.1818 C.3            1 S1                 0.0000
     11 ****         1.2499  -0.8166  -1.2034 C.3            1 S1                 0.0000
     12 ****        -1.0675   1.2852  -0.0069 C.2            1 S1                 0.0000
     13 ****        -0.1884   2.1458  -0.0076 O.2            1 S1                 0.0000
     14 ****        -2.4129   1.6740  -0.0130 N.am           1 S1                 0.0000
     15 ****        -3.9832  -1.2129  -0.0043 H              1 S1                 0.0000
     16 ****        -2.6090   2.6644  -0.0181 H              1 S1                 0.0000
     17 ****        -1.7425  -2.0787   0.0044 H              1 S1                 0.0000
     18 ****         0.6353  -0.5580   2.0993 H              1 S1                 0.0000
     19 ****         1.5558  -1.8272   1.3165 H              1 S1                 0.0000
     20 ****         2.1807   1.1866   1.2080 H              1 S1                 0.0000
     21 ****         3.1067  -0.0358   2.0568 H              1 S1                 0.0000
     22 ****         2.1843   1.1551  -1.2337 H              1 S1                 0.0000
     23 ****         3.1134  -0.0885  -2.0481 H              1 S1                 0.0000
     24 ****         1.5592  -1.8605  -1.2680 H              1 S1                 0.0000
     25 ****         0.6417  -0.6111  -2.0854 H              1 S1                 0.0000
     26 ****        -4.8398   2.1991  -0.0219 LP             1 S1                 0.0000
     27 ****        -5.4215   0.5677  -0.0169 LP             1 S1                 0.0000
     28 ****         3.5240  -1.0859   0.0183 LP             1 S1                 0.0000
     29 ****         4.0391   0.4636  -0.0010 LP             1 S1                 0.0000
     30 ****         0.7747   1.8767  -0.0033 LP             1 S1                 0.0000
     31 ****        -0.4369   3.1144  -0.0124 LP             1 S1                 0.0000
@<TRIPOS>BOND
    1    1    2 2     
    2    2   14 1     
    3    2    3 1     
    4    3   15 1     
    5    3    4 1     
    6    4    5 2     
    7    4   17 1     
    8    5    6 1     
    9    5   12 1     
   10    6   11 1     
   11    6    7 1     
   12    7    8 1     
   13    7   18 1     
   14    7   19 1     
   15    8    9 1     
   16    8   20 1     
   17    8   21 1     
   18    9   10 1     
   19   10   11 1     
   20   10   22 1     
   21   10   23 1     
   22   11   24 1     
   23   11   25 1     
   24   12   13 2     
   25   12   14 1     
   26   14   16 1     
   27    1   26 1     
   28    1   27 1     
   29    9   28 1     
   30    9   29 1     
   31   13   30 1     
   32   13   31 1     
@<TRIPOS>SUBSTRUCTURE
      1 S1             1
@<TRIPOS>SET
LONE_PAIRS      STATIC     ATOMS    <user>   **** ""
6 26 27 28 29 30 31
DONOR_HYDROGENS      STATIC     ATOMS    <user>   **** ""
2 15 16
ATOM$BLUE        STATIC     ATOMS    COLORGROUP SYSTEM
6 26 27 28 29 30 31
ATOM$RED        STATIC     ATOMS    COLORGROUP SYSTEM
2 15 16
