AV-unprocessed.smi:3336|AV-procd|sdf|12859|dock2
  -GOLD-   2272019253D 1   1.00000     0.00000
 Structure written by MMmdl.
 41 42  0  0  0  0  0  0  0  0  1 V2000
  149.5148  142.4301  158.1775 C   0  0  0  0  0  0  0  0  0  0  0  0
  150.6829  142.3353  157.1823 C   0  0  2  0  0  0  0  0  0  0  0  0
  151.6092  143.5627  157.2905 C   0  0  0  0  0  0  0  0  0  0  0  0
  151.8311  143.9649  158.6684 N   0  0  0  0  0  0  0  0  0  0  0  0
  152.3140  143.2089  159.7161 C   0  0  0  0  0  0  0  0  0  0  0  0
  152.3330  144.0114  160.8207 C   0  0  0  0  0  0  0  0  0  0  0  0
  151.8367  145.2564  160.3424 C   0  0  0  0  0  0  0  0  0  0  0  0
  151.5400  145.2267  159.0531 N   0  0  0  0  0  0  0  0  0  0  0  0
  150.1475  142.2678  155.8216 N   0  0  0  0  0  0  0  0  0  0  0  0
  149.5153  140.9825  155.4644 C   0  0  1  0  0  0  0  0  0  0  0  0
  148.5123  141.2162  154.3229 C   0  0  0  0  0  0  0  0  0  0  0  0
  150.5362  139.8931  155.0553 C   0  0  0  0  0  0  0  0  0  0  0  0
  151.7267  140.2071  154.9957 O   0  0  0  0  0  0  0  0  0  0  0  0
  150.1183  138.6335  154.7714 N   0  0  0  0  0  0  0  0  0  0  0  0
  148.7031  138.2462  154.7901 C   0  0  0  0  0  0  0  0  0  0  0  0
  148.4914  137.2031  155.9008 C   0  0  0  0  0  0  0  0  0  0  0  0
  149.3316  136.0779  155.6606 O   0  0  0  0  0  0  0  0  0  0  0  0
  150.7139  136.4191  155.6147 C   0  0  0  0  0  0  0  0  0  0  0  0
  150.9619  137.4610  154.5081 C   0  0  0  0  0  0  0  0  0  0  0  0
  149.8829  142.5074  159.2010 H   0  0  0  0  0  0  0  0  0  0  0  0
  148.8728  141.5506  158.1328 H   0  0  0  0  0  0  0  0  0  0  0  0
  148.8954  143.3063  157.9828 H   0  0  0  0  0  0  0  0  0  0  0  0
  151.2692  141.4474  157.4213 H   0  0  0  0  0  0  0  0  0  0  0  0
  152.5741  143.3669  156.8206 H   0  0  0  0  0  0  0  0  0  0  0  0
  151.1731  144.4099  156.7590 H   0  0  0  0  0  0  0  0  0  0  0  0
  152.5940  142.1734  159.5904 H   0  0  0  0  0  0  0  0  0  0  0  0
  152.6493  143.7480  161.8190 H   0  0  0  0  0  0  0  0  0  0  0  0
  151.6846  146.1747  160.8902 H   0  0  0  0  0  0  0  0  0  0  0  0
  149.5334  143.0524  155.6580 H   0  0  0  0  0  0  0  0  0  0  0  0
  148.9637  140.6562  156.3435 H   0  0  0  0  0  0  0  0  0  0  0  0
  147.9870  140.2999  154.0525 H   0  0  0  0  0  0  0  0  0  0  0  0
  149.0091  141.5885  153.4256 H   0  0  0  0  0  0  0  0  0  0  0  0
  147.7573  141.9487  154.6101 H   0  0  0  0  0  0  0  0  0  0  0  0
  148.0285  139.0892  154.9453 H   0  0  0  0  0  0  0  0  0  0  0  0
  148.4334  137.8227  153.8215 H   0  0  0  0  0  0  0  0  0  0  0  0
  148.7060  137.6286  156.8824 H   0  0  0  0  0  0  0  0  0  0  0  0
  147.4529  136.8719  155.9149 H   0  0  0  0  0  0  0  0  0  0  0  0
  151.0353  136.7999  156.5854 H   0  0  0  0  0  0  0  0  0  0  0  0
  151.2924  135.5160  155.4191 H   0  0  0  0  0  0  0  0  0  0  0  0
  150.7025  137.0441  153.5340 H   0  0  0  0  0  0  0  0  0  0  0  0
  152.0273  137.6720  154.4694 H   0  0  0  0  0  0  0  0  0  0  0  0
  1  2  1  0  0  0  0
  1 20  1  0  0  0  0
  1 21  1  0  0  0  0
  1 22  1  0  0  0  0
  2  3  1  0  0  0  0
  2  9  1  0  0  0  0
  2 23  1  0  0  0  0
  3  4  1  0  0  0  0
  3 24  1  0  0  0  0
  3 25  1  0  0  0  0
  4  8  1  0  0  0  0
  4  5  1  0  0  0  0
  5  6  2  0  0  0  0
  5 26  1  0  0  0  0
  6  7  1  0  0  0  0
  6 27  1  0  0  0  0
  7  8  2  0  0  0  0
  7 28  1  0  0  0  0
  9 10  1  0  0  0  0
  9 29  1  0  0  0  0
 10 11  1  0  0  0  0
 10 12  1  0  0  0  0
 10 30  1  0  0  0  0
 11 31  1  0  0  0  0
 11 32  1  0  0  0  0
 11 33  1  0  0  0  0
 12 13  2  0  0  0  0
 12 14  1  0  0  0  0
 14 19  1  0  0  0  0
 14 15  1  0  0  0  0
 15 16  1  0  0  0  0
 15 34  1  0  0  0  0
 15 35  1  0  0  0  0
 16 17  1  0  0  0  0
 16 36  1  0  0  0  0
 16 37  1  0  0  0  0
 17 18  1  0  0  0  0
 18 19  1  0  0  0  0
 18 38  1  0  0  0  0
 18 39  1  0  0  0  0
 19 40  1  0  0  0  0
 19 41  1  0  0  0  0
M  END
> <s_m_source_file>
AV-unprocessed.smi

> <i_m_source_file_index>
3336

> <i_lp_mmshare_version>
43012

> <i_f3d_flags>
0

> <s_epik_input>
bjFbY0hdW2NIXVtjSF1uMVtDSDJdW0NAQEhdKFtDSDNdKVtOSF1bQ0BIXShbQ0gzXSlDKD1PKU4yW0NIMl1bQ0gyXU9bQ0gyXVtDSDJdMg==

> <s_epik_cmdline>
J2VwaWtfcHl0aG9uJywgJy1waCcsICc3LjAnLCAnLXRuJywgJzgnLCAnLW1hJywgJzIwMCcsICctbWV0YWxfYmluZGluZycsICctaW1hZScsICc8aW5maWxlLm1hZT4nLCAnLW9tYWUnLCAnPG91dGZpbGUubWFlPic=

> <r_lp_tautomer_probability>
1

> <r_epik_Ionization_Penalty>
0.739958

> <r_epik_Ionization_Penalty_Charging>
0

> <r_epik_Ionization_Penalty_Neutral>
0.739958

> <r_epik_State_Penalty>
0.765967

> <r_epik_Charging_Adjusted_Penalty>
0.765967

> <i_epik_Tot_Q>
0

> <i_epik_Tot_abs_Q>
0

> <r_epik_Metal_State_Penalty>
0.765947

> <b_epik_Metal_Only>
0

> <s_lp_Force_Field>
OPLS_2005

> <r_lp_Energy>
28.023

> <b_lp_Chiralities_Consistent>
1

> <s_lp_Variant>
AV-unprocessed.smi:3336-7

> <Gold.Version>
5.8.1

> <Gold.Id.Protein>
6NUR|6NUR_protein|mol2

> <Gold.PLP.Fitness>
45.2503

> <Gold.PLP.PLP>
-40.6244

> <Gold.PLP.part.hbond>
-1.8515

> <Gold.PLP.part.metal>
0.0000

> <Gold.PLP.part.buried>
-5.0973

> <Gold.PLP.part.nonpolar>
-33.8067

> <Gold.PLP.part.repulsive>
0.2560

> <Gold.PLP.ligand.clash>
0.0000

> <Gold.PLP.ligand.torsion>
0.5380

> <Gold.PLP.Chemscore.Hbond>
1.8496

> <Gold.PLP.Chemscore.CHOScore>
0.0000

> <Gold.PLP.Chemscore.Metal>
0.0000

> <Gold.Chemscore.Hbonds>
donor molecule, donor type, donor heavy atom, donor atom, acceptor molecule, acceptor atom, score
      L1  H     9    29       P1  8028  1.00
      P1  H  7989  7998       L1    13  0.74

> <Gold.PLP.Chemscore.Internal.Correction>
0.1531

> <Gold.Rescore>
     Score         DG    S(hbond)    S(metal)    S(lipo)     H(rot)  DE(clash)    DE(int)     intcor
     16.42     -17.17       1.89        0.00      85.22       1.79       0.12       0.63       ----

> <Gold.Chemscore.Fitness>
16.4170

> <Gold.Chemscore.DG>
-17.1737

> <Gold.Chemscore.ZeroCoef>
-5.4800

> <Gold.Chemscore.Hbond>
1.8905

> <Gold.Chemscore.Metal>
0.0000

> <Gold.Chemscore.Lipo>
85.2199

> <Gold.Chemscore.Internal_Hbond>
0.0000

> <Gold.Chemscore.DEClash>
0.1225

> <Gold.Chemscore.DEInternal>
0.6341

> <Gold.Chemscore.Rot>
1.7935

> <Gold.Chemscore.Internal.Correction>
   9.000000E+99

> <Gold.Chemscore.Hbonds>
donor molecule, donor type, donor heavy atom, donor atom, acceptor molecule, acceptor atom, score
      L1  H     9    29       P1  8028  1.00
      P1  H  7989  7998       L1    13  0.11

> <Gold.Chemscore.Hbond.Weighted>
-6.3142

> <Gold.Chemscore.Metal.Weighted>
-0.0000

> <Gold.Chemscore.Lipo.Weighted>
-9.9707

> <Gold.Chemscore.Internal_Hbond.Weighted>
0.0000

> <Gold.Chemscore.DEClash.Weighted>
0.1225

> <Gold.Chemscore.DEInternal.Weighted>
0.6341

> <Gold.Chemscore.Rot.Weighted>
4.5912

> <Gold.Chemscore.Internal.Correction.Weighted>
   9.000000E+99

> <Gold.Protein.RotatedTorsions>
[ 6907 6896 6895 6894 ] final -117.61 input  -60.11 | X-H torsion
[ 7974 7965 7964 7962 ] final  -45.49 input  175.53 | X-H torsion
[ 8008 7997 7996 7995 ] final -149.07 input   59.86 | X-H torsion
[ 10167 10162 10161 10158 ] final   24.52 input  -65.29 | X-H torsion
[ 10718 10713 10712 10709 ] final  -99.59 input   66.30 | X-H torsion
[ 10763 10752 10751 10750 ] final    8.25 input  -60.55 | X-H torsion
[ 11005 11000 10999 10996 ] final  138.09 input  -57.11 | X-H torsion

> <Gold.Protein.ActiveResidues>
 VAL166  LYS551  ARG553  GLY616  TRP617  ASP618  TYR619  PRO620  LYS621  CYS622 
 ASP623  PHE694  ASN695  SER759  ASP760  ASP761  ALA762  ILE779  LEU786  VAL792 
 PHE793  MET794  SER795  GLU796  ALA797  LYS798  CYS799  TRP800  GLU811  SER814 

> <Gold.Protein.RotatedAtoms>
  150.8151  133.8352  159.3164 H   0  0  0  0  0  0  0  0  0  0  0  0  # atno 6907 bound_to 6896
  151.6127  135.1037  160.0094 H   0  0  0  0  0  0  0  0  0  0  0  0  # atno 6908 bound_to 6896
  152.4242  133.7127  159.6544 H   0  0  0  0  0  0  0  0  0  0  0  0  # atno 6909 bound_to 6896
  145.9815  140.7278  142.9361 H   0  0  0  0  0  0  0  0  0  0  0  0  # atno 7974 bound_to 7965
  155.6018  140.0663  157.2731 H   0  0  0  0  0  0  0  0  0  0  0  0  # atno 8008 bound_to 7997
  154.4277  140.1817  156.1228 H   0  0  0  0  0  0  0  0  0  0  0  0  # atno 8009 bound_to 7997
  156.0153  140.3322  155.6986 H   0  0  0  0  0  0  0  0  0  0  0  0  # atno 8010 bound_to 7997
  140.5181  144.0048  150.6403 H   0  0  0  0  0  0  0  0  0  0  0  0  # atno 10167 bound_to 10162
  156.0138  130.5289  150.6692 H   0  0  0  0  0  0  0  0  0  0  0  0  # atno 10718 bound_to 10713
  153.2271  135.6888  153.7933 H   0  0  0  0  0  0  0  0  0  0  0  0  # atno 10763 bound_to 10752
  153.7110  135.3282  155.3247 H   0  0  0  0  0  0  0  0  0  0  0  0  # atno 10764 bound_to 10752
  154.8297  135.4590  154.1141 H   0  0  0  0  0  0  0  0  0  0  0  0  # atno 10765 bound_to 10752
  140.0159  134.9418  157.0375 H   0  0  0  0  0  0  0  0  0  0  0  0  # atno 11005 bound_to 11000
  144.6863  140.2917  143.7277 LP  0  0  0  0  0  0  0  0  0  0  0  0  # atno 17320 bound_to 7965
  145.7762  139.1875  143.2184 LP  0  0  0  0  0  0  0  0  0  0  0  0  # atno 17321 bound_to 7965
  140.3390  143.3031  152.0608 LP  0  0  0  0  0  0  0  0  0  0  0  0  # atno 17342 bound_to 10162
  139.4915  144.6456  151.6785 LP  0  0  0  0  0  0  0  0  0  0  0  0  # atno 17343 bound_to 10162
  157.4418  131.0862  151.0935 LP  0  0  0  0  0  0  0  0  0  0  0  0  # atno 17370 bound_to 10713
  157.1477  130.6170  149.5573 LP  0  0  0  0  0  0  0  0  0  0  0  0  # atno 17371 bound_to 10713
  140.4471  134.1620  155.7178 LP  0  0  0  0  0  0  0  0  0  0  0  0  # atno 17394 bound_to 11000
  141.1742  133.8547  157.1473 LP  0  0  0  0  0  0  0  0  0  0  0  0  # atno 17395 bound_to 11000

$$$$
