AV-unprocessed.smi:2201|AV-procd|sdf|8928|dock5
  -GOLD-   2272012143D 1   1.00000     0.00000
 Structure written by MMmdl.
 30 30  0  0  0  0  0  0  0  0  2 V2000
  145.7788  135.8793  161.1988 C   0  0  0  0  0  0  0  0  0  0  0  0
  147.2997  135.7051  161.4196 C   0  0  0  0  0  0  0  0  0  0  0  0
  147.7055  136.5535  162.6471 C   0  0  0  0  0  0  0  0  0  0  0  0
  147.5767  134.2108  161.7025 C   0  0  0  0  0  0  0  0  0  0  0  0
  148.0841  136.1673  160.1592 C   0  0  0  0  0  0  0  0  0  0  0  0
  148.8177  135.3715  159.5672 O   0  0  0  0  0  0  0  0  0  0  0  0
  147.8562  137.4683  159.8445 N   0  5  0  0  0  0  0  0  0  0  0  0
  148.0195  137.8850  158.5797 C   0  0  0  0  0  0  0  0  0  0  0  0
  149.0284  137.4776  157.8022 N   0  0  0  0  0  0  0  0  0  0  0  0
  149.0125  138.0407  156.5225 C   0  0  0  0  0  0  0  0  0  0  0  0
  150.0879  137.6948  155.5308 C   0  0  0  0  0  0  0  0  0  0  0  0
  150.2165  138.7650  154.4406 C   0  0  0  0  0  0  0  0  0  0  0  0
  149.8198  138.4458  153.2046 N   0  0  0  0  0  0  0  0  0  0  0  0
  150.6930  139.8664  154.7072 O   0  0  0  0  0  0  0  0  0  0  0  0
  147.9472  138.8801  156.3200 C   0  0  0  0  0  0  0  0  0  0  0  0
  146.9431  138.9998  157.7361 S   0  0  0  0  0  0  0  0  0  0  0  0
  145.2132  135.5590  162.0743 H   0  0  0  0  0  0  0  0  0  0  0  0
  145.4235  135.2882  160.3536 H   0  0  0  0  0  0  0  0  0  0  0  0
  145.5162  136.9214  161.0104 H   0  0  0  0  0  0  0  0  0  0  0  0
  147.5849  137.6199  162.4519 H   0  0  0  0  0  0  0  0  0  0  0  0
  148.7439  136.3868  162.9363 H   0  0  0  0  0  0  0  0  0  0  0  0
  147.0917  136.3093  163.5145 H   0  0  0  0  0  0  0  0  0  0  0  0
  146.9672  133.8476  162.5305 H   0  0  0  0  0  0  0  0  0  0  0  0
  148.6180  134.0300  161.9715 H   0  0  0  0  0  0  0  0  0  0  0  0
  147.3482  133.5921  160.8339 H   0  0  0  0  0  0  0  0  0  0  0  0
  151.0472  137.5809  156.0376 H   0  0  0  0  0  0  0  0  0  0  0  0
  149.8777  136.7370  155.0538 H   0  0  0  0  0  0  0  0  0  0  0  0
  149.9173  139.1164  152.4560 H   0  0  0  0  0  0  0  0  0  0  0  0
  149.4510  137.5246  153.0191 H   0  0  0  0  0  0  0  0  0  0  0  0
  147.6942  139.4351  155.4294 H   0  0  0  0  0  0  0  0  0  0  0  0
  1  2  1  0  0  0  0
  1 17  1  0  0  0  0
  1 18  1  0  0  0  0
  1 19  1  0  0  0  0
  2  3  1  0  0  0  0
  2  4  1  0  0  0  0
  2  5  1  0  0  0  0
  3 20  1  0  0  0  0
  3 21  1  0  0  0  0
  3 22  1  0  0  0  0
  4 23  1  0  0  0  0
  4 24  1  0  0  0  0
  4 25  1  0  0  0  0
  5  6  2  0  0  0  0
  5  7  1  0  0  0  0
  7  8  1  0  0  0  0
  8 16  1  0  0  0  0
  8  9  2  0  0  0  0
  9 10  1  0  0  0  0
 10 11  1  0  0  0  0
 10 15  2  0  0  0  0
 11 12  1  0  0  0  0
 11 26  1  0  0  0  0
 11 27  1  0  0  0  0
 12 13  1  0  0  0  0
 12 14  2  0  0  0  0
 13 28  1  0  0  0  0
 13 29  1  0  0  0  0
 15 16  1  0  0  0  0
 15 30  1  0  0  0  0
M  CHG  1   7  -1
M  END
> <s_m_source_file>
AV-unprocessed.smi

> <i_m_source_file_index>
2201

> <i_lp_mmshare_version>
43012

> <i_f3d_flags>
0

> <s_epik_input>
W0NIM11DKFtDSDNdKShbQ0gzXSlDKD1PKVtOSF1jMW5jKFtjSF1zMSlbQ0gyXUMoPU8pW05IMl0=

> <s_epik_cmdline>
J2VwaWtfcHl0aG9uJywgJy1waCcsICc3LjAnLCAnLXRuJywgJzgnLCAnLW1hJywgJzIwMCcsICctbWV0YWxfYmluZGluZycsICctaW1hZScsICc8aW5maWxlLm1hZT4nLCAnLW9tYWUnLCAnPG91dGZpbGUubWFlPic=

> <r_lp_tautomer_probability>
1

> <r_epik_Ionization_Penalty>
5.6718

> <r_epik_Ionization_Penalty_Charging>
5.12968

> <r_epik_Ionization_Penalty_Neutral>
0.54212

> <r_epik_State_Penalty>
5.12958

> <r_epik_Charging_Adjusted_Penalty>
10.2593

> <i_epik_Tot_Q>
-1

> <i_epik_Tot_abs_Q>
1

> <r_epik_Metal_State_Penalty>
1.2135

> <b_epik_Metal_Only>
1

> <s_lp_Force_Field>
OPLS_2005

> <r_lp_Energy>
3.19374

> <b_lp_Chiralities_Consistent>
1

> <s_lp_Variant>
AV-unprocessed.smi:2201-2

> <Gold.Version>
5.8.1

> <Gold.Id.Protein>
6NUR|6NUR_protein|mol2

> <Gold.PLP.Fitness>
38.0715

> <Gold.PLP.PLP>
-23.7269

> <Gold.PLP.part.hbond>
-5.8556

> <Gold.PLP.part.metal>
0.0000

> <Gold.PLP.part.buried>
-2.0527

> <Gold.PLP.part.nonpolar>
-15.0114

> <Gold.PLP.part.repulsive>
0.1719

> <Gold.PLP.ligand.clash>
0.0000

> <Gold.PLP.ligand.torsion>
0.8786

> <Gold.PLP.Chemscore.Hbond>
5.3520

> <Gold.PLP.Chemscore.CHOScore>
0.0000

> <Gold.PLP.Chemscore.Metal>
0.0000

> <Gold.Chemscore.Hbonds>
donor molecule, donor type, donor heavy atom, donor atom, acceptor molecule, acceptor atom, score
      L1  H    13    28       P1  7957  1.00
      L1  H    13    29       P1  7948  0.99
      P1  H  6896  6908       L1     6  1.00
      P1  H  6934  6947       L1     7  1.38
      P1  H  7989  7998       L1    14  1.00

> <Gold.PLP.Chemscore.Internal.Correction>
0.0457

> <Gold.Rescore>
     Score         DG    S(hbond)    S(metal)    S(lipo)     H(rot)  DE(clash)    DE(int)     intcor
     16.28     -18.72       4.14        0.00      36.23       1.88       0.00       2.44       ----

> <Gold.Chemscore.Fitness>
16.2761

> <Gold.Chemscore.DG>
-18.7188

> <Gold.Chemscore.ZeroCoef>
-5.4800

> <Gold.Chemscore.Hbond>
4.1358

> <Gold.Chemscore.Metal>
0.0000

> <Gold.Chemscore.Lipo>
36.2252

> <Gold.Chemscore.Internal_Hbond>
0.0000

> <Gold.Chemscore.DEClash>
0.0048

> <Gold.Chemscore.DEInternal>
2.4379

> <Gold.Chemscore.Rot>
1.8802

> <Gold.Chemscore.Internal.Correction>
   9.000000E+99

> <Gold.Chemscore.Hbonds>
donor molecule, donor type, donor heavy atom, donor atom, acceptor molecule, acceptor atom, score
      L1  H    13    28       P1  7957  0.69
      L1  H    13    29       P1  7948  0.82
      P1  H  6896  6908       L1     6  0.94
      P1  H  6934  6947       L1     7  0.39
      P1  H  7989  7998       L1    14  0.99

> <Gold.Chemscore.Hbond.Weighted>
-13.8137

> <Gold.Chemscore.Metal.Weighted>
-0.0000

> <Gold.Chemscore.Lipo.Weighted>
-4.2383

> <Gold.Chemscore.Internal_Hbond.Weighted>
0.0000

> <Gold.Chemscore.DEClash.Weighted>
0.0048

> <Gold.Chemscore.DEInternal.Weighted>
2.4379

> <Gold.Chemscore.Rot.Weighted>
4.8132

> <Gold.Chemscore.Internal.Correction.Weighted>
   9.000000E+99

> <Gold.Protein.RotatedTorsions>
[ 6907 6896 6895 6894 ] final  170.16 input  -60.11 | X-H torsion
[ 7974 7965 7964 7962 ] final -128.56 input  175.53 | X-H torsion
[ 8008 7997 7996 7995 ] final   69.28 input   59.86 | X-H torsion
[ 10167 10162 10161 10158 ] final  -28.93 input  -65.29 | X-H torsion
[ 10718 10713 10712 10709 ] final -170.88 input   66.30 | X-H torsion
[ 10763 10752 10751 10750 ] final   34.91 input  -60.55 | X-H torsion
[ 11005 11000 10999 10996 ] final   42.31 input  -57.11 | X-H torsion

> <Gold.Protein.ActiveResidues>
 VAL166  LYS551  ARG553  GLY616  TRP617  ASP618  TYR619  PRO620  LYS621  CYS622 
 ASP623  PHE694  ASN695  SER759  ASP760  ASP761  ALA762  ILE779  LEU786  VAL792 
 PHE793  MET794  SER795  GLU796  ALA797  LYS798  CYS799  TRP800  GLU811  SER814 

> <Gold.Protein.RotatedAtoms>
  151.8204  133.3394  159.3582 H   0  0  0  0  0  0  0  0  0  0  0  0  # atno 6907 bound_to 6896
  150.7296  134.5579  159.5837 H   0  0  0  0  0  0  0  0  0  0  0  0  # atno 6908 bound_to 6896
  152.3010  134.7612  160.0409 H   0  0  0  0  0  0  0  0  0  0  0  0  # atno 6909 bound_to 6896
  144.9658  140.7494  143.4701 H   0  0  0  0  0  0  0  0  0  0  0  0  # atno 7974 bound_to 7965
  155.7212  140.3493  155.5016 H   0  0  0  0  0  0  0  0  0  0  0  0  # atno 8008 bound_to 7997
  155.9268  140.1077  157.1185 H   0  0  0  0  0  0  0  0  0  0  0  0  # atno 8009 bound_to 7997
  154.4078  140.1239  156.4738 H   0  0  0  0  0  0  0  0  0  0  0  0  # atno 8010 bound_to 7997
  140.7265  143.3970  151.1330 H   0  0  0  0  0  0  0  0  0  0  0  0  # atno 10167 bound_to 10162
  156.7327  130.9312  151.3105 H   0  0  0  0  0  0  0  0  0  0  0  0  # atno 10718 bound_to 10713
  153.0142  135.6347  154.1744 H   0  0  0  0  0  0  0  0  0  0  0  0  # atno 10763 bound_to 10752
  154.1484  135.2830  155.3143 H   0  0  0  0  0  0  0  0  0  0  0  0  # atno 10764 bound_to 10752
  154.6072  135.5568  153.7496 H   0  0  0  0  0  0  0  0  0  0  0  0  # atno 10765 bound_to 10752
  140.1751  134.4173  155.8233 H   0  0  0  0  0  0  0  0  0  0  0  0  # atno 11005 bound_to 11000
  145.2632  139.1984  143.4881 LP  0  0  0  0  0  0  0  0  0  0  0  0  # atno 17320 bound_to 7965
  146.3367  140.2565  142.8600 LP  0  0  0  0  0  0  0  0  0  0  0  0  # atno 17321 bound_to 7965
  139.7584  143.8672  152.3094 LP  0  0  0  0  0  0  0  0  0  0  0  0  # atno 17342 bound_to 10162
  139.8550  144.7146  150.9168 LP  0  0  0  0  0  0  0  0  0  0  0  0  # atno 17343 bound_to 10162
  157.6852  130.9178  150.0367 LP  0  0  0  0  0  0  0  0  0  0  0  0  # atno 17370 bound_to 10713
  156.1518  130.3642  149.9427 LP  0  0  0  0  0  0  0  0  0  0  0  0  # atno 17371 bound_to 10713
  141.2220  133.6974  156.7832 LP  0  0  0  0  0  0  0  0  0  0  0  0  # atno 17394 bound_to 11000
  140.2332  134.8670  157.3498 LP  0  0  0  0  0  0  0  0  0  0  0  0  # atno 17395 bound_to 11000

$$$$
