AV-unprocessed.smi:672|AV-procd|sdf|3292|dock4
  -GOLD-   22720 0253D 1   1.00000     0.00000
 Structure written by MMmdl.
 36 37  0  0  0  0  0  0  0  0  1 V2000
  150.7130  141.6435  157.4302 C   0  0  0  0  0  0  0  0  0  0  0  0
  150.7006  141.4858  155.9061 C   0  0  0  0  0  0  0  0  0  0  0  0
  149.6996  140.4818  155.4399 C   0  0  0  0  0  0  0  0  0  0  0  0
  148.3927  140.5827  155.7131 N   0  0  0  0  0  0  0  0  0  0  0  0
  147.6572  139.5458  155.1565 N   0  0  0  0  0  0  0  0  0  0  0  0
  148.4315  138.6987  154.4645 C   0  0  0  0  0  0  0  0  0  0  0  0
  147.9383  137.5501  153.7904 N   0  0  0  0  0  0  0  0  0  0  0  0
  146.8171  136.8527  154.0440 C   0  0  0  0  0  0  0  0  0  0  0  0
  146.0043  137.1086  154.9329 O   0  0  0  0  0  0  0  0  0  0  0  0
  146.6867  135.8195  153.1993 N   0  0  0  0  0  0  0  0  0  0  0  0
  145.5819  134.8631  153.2081 C   0  0  1  0  0  0  0  0  0  0  0  0
  144.2433  135.5677  152.9159 C   0  0  0  0  0  0  0  0  0  0  0  0
  143.5612  134.7464  151.8200 C   0  0  0  0  0  0  0  0  0  0  0  0
  144.7174  134.1326  151.0327 C   0  0  2  0  0  0  0  0  0  0  0  0
  144.2298  132.6821  150.0548 S   0  0  0  0  0  0  0  0  0  0  0  0
  145.8533  132.1196  149.4788 C   0  0  0  0  0  0  0  0  0  0  0  0
  145.7496  133.7933  152.1104 C   0  0  0  0  0  0  0  0  0  0  0  0
  150.1385  139.1063  154.4336 S   0  0  0  0  0  0  0  0  0  0  0  0
  151.4538  142.3819  157.7372 H   0  0  0  0  0  0  0  0  0  0  0  0
  150.9579  140.7012  157.9214 H   0  0  0  0  0  0  0  0  0  0  0  0
  149.7413  141.9722  157.7998 H   0  0  0  0  0  0  0  0  0  0  0  0
  150.4788  142.4438  155.4355 H   0  0  0  0  0  0  0  0  0  0  0  0
  151.6892  141.1877  155.5552 H   0  0  0  0  0  0  0  0  0  0  0  0
  148.5109  137.2164  153.0294 H   0  0  0  0  0  0  0  0  0  0  0  0
  147.4010  135.6829  152.4994 H   0  0  0  0  0  0  0  0  0  0  0  0
  145.5295  134.3773  154.1845 H   0  0  0  0  0  0  0  0  0  0  0  0
  143.6198  135.6507  153.8065 H   0  0  0  0  0  0  0  0  0  0  0  0
  144.4121  136.5807  152.5469 H   0  0  0  0  0  0  0  0  0  0  0  0
  142.9602  133.9582  152.2756 H   0  0  0  0  0  0  0  0  0  0  0  0
  142.9008  135.3518  151.1987 H   0  0  0  0  0  0  0  0  0  0  0  0
  145.1402  134.8848  150.3651 H   0  0  0  0  0  0  0  0  0  0  0  0
  145.7461  131.2068  148.8928 H   0  0  0  0  0  0  0  0  0  0  0  0
  146.5077  131.9118  150.3254 H   0  0  0  0  0  0  0  0  0  0  0  0
  146.3227  132.8773  148.8515 H   0  0  0  0  0  0  0  0  0  0  0  0
  146.7607  133.7395  151.7044 H   0  0  0  0  0  0  0  0  0  0  0  0
  145.5272  132.8142  152.5374 H   0  0  0  0  0  0  0  0  0  0  0  0
  1  2  1  0  0  0  0
  1 19  1  0  0  0  0
  1 20  1  0  0  0  0
  1 21  1  0  0  0  0
  2  3  1  0  0  0  0
  2 22  1  0  0  0  0
  2 23  1  0  0  0  0
  3 18  1  0  0  0  0
  3  4  2  0  0  0  0
  4  5  1  0  0  0  0
  5  6  2  0  0  0  0
  6  7  1  0  0  0  0
  6 18  1  0  0  0  0
  7  8  1  0  0  0  0
  7 24  1  0  0  0  0
  8  9  2  0  0  0  0
  8 10  1  0  0  0  0
 10 11  1  0  0  0  0
 10 25  1  0  0  0  0
 11 17  1  0  0  0  0
 11 12  1  0  0  0  0
 11 26  1  0  0  0  0
 12 13  1  0  0  0  0
 12 27  1  0  0  0  0
 12 28  1  0  0  0  0
 13 14  1  0  0  0  0
 13 29  1  0  0  0  0
 13 30  1  0  0  0  0
 14 15  1  0  0  0  0
 14 17  1  0  0  0  0
 14 31  1  0  0  0  0
 15 16  1  0  0  0  0
 16 32  1  0  0  0  0
 16 33  1  0  0  0  0
 16 34  1  0  0  0  0
 17 35  1  0  0  0  0
 17 36  1  0  0  0  0
M  END
> <s_m_source_file>
AV-unprocessed.smi

> <i_m_source_file_index>
672

> <i_lp_mmshare_version>
43012

> <i_f3d_flags>
0

> <s_epik_input>
W0NIM11bQ0gyXWMxbm5jKHMxKVtOSF1DKD1PKVtOSF1bQ0BASF0yW0NIMl1bQ0gyXVtDQEhdKFtDSDJdMilTW0NIM10=

> <s_epik_cmdline>
J2VwaWtfcHl0aG9uJywgJy1waCcsICc3LjAnLCAnLXRuJywgJzgnLCAnLW1hJywgJzIwMCcsICctbWV0YWxfYmluZGluZycsICctaW1hZScsICc8aW5maWxlLm1hZT4nLCAnLW9tYWUnLCAnPG91dGZpbGUubWFlPic=

> <r_lp_tautomer_probability>
1

> <r_epik_Ionization_Penalty>
0.000422169

> <r_epik_Ionization_Penalty_Charging>
0

> <r_epik_Ionization_Penalty_Neutral>
0.000422169

> <r_epik_State_Penalty>
-0

> <r_epik_Charging_Adjusted_Penalty>
0

> <i_epik_Tot_Q>
0

> <i_epik_Tot_abs_Q>
0

> <r_epik_Metal_State_Penalty>
0.200061

> <b_epik_Metal_Only>
0

> <s_lp_Force_Field>
OPLS_2005

> <r_lp_Energy>
11.6788

> <b_lp_Chiralities_Consistent>
1

> <s_lp_Variant>
AV-unprocessed.smi:672-4

> <Gold.Version>
5.8.1

> <Gold.Id.Protein>
6NUR|6NUR_protein|mol2

> <Gold.PLP.Fitness>
33.3086

> <Gold.PLP.PLP>
-27.7244

> <Gold.PLP.part.hbond>
-2.0000

> <Gold.PLP.part.metal>
0.0000

> <Gold.PLP.part.buried>
-3.9749

> <Gold.PLP.part.nonpolar>
-21.6732

> <Gold.PLP.part.repulsive>
0.1344

> <Gold.PLP.ligand.clash>
0.0000

> <Gold.PLP.ligand.torsion>
0.1577

> <Gold.PLP.Chemscore.Hbond>
1.9600

> <Gold.PLP.Chemscore.CHOScore>
0.0000

> <Gold.PLP.Chemscore.Metal>
0.0000

> <Gold.Chemscore.Hbonds>
donor molecule, donor type, donor heavy atom, donor atom, acceptor molecule, acceptor atom, score
      L1  H     7    24       P1  7948  1.00
      L1  H    10    25       P1  7948  0.96

> <Gold.PLP.Chemscore.Internal.Correction>
0.0195

> <Gold.Rescore>
     Score         DG    S(hbond)    S(metal)    S(lipo)     H(rot)  DE(clash)    DE(int)     intcor
     15.12     -16.45       1.93        0.00      68.52       1.37       0.01       1.32       ----

> <Gold.Chemscore.Fitness>
15.1180

> <Gold.Chemscore.DG>
-16.4521

> <Gold.Chemscore.ZeroCoef>
-5.4800

> <Gold.Chemscore.Hbond>
1.9324

> <Gold.Chemscore.Metal>
0.0000

> <Gold.Chemscore.Lipo>
68.5233

> <Gold.Chemscore.Internal_Hbond>
0.0000

> <Gold.Chemscore.DEClash>
0.0106

> <Gold.Chemscore.DEInternal>
1.3235

> <Gold.Chemscore.Rot>
1.3669

> <Gold.Chemscore.Internal.Correction>
   9.000000E+99

> <Gold.Chemscore.Hbonds>
donor molecule, donor type, donor heavy atom, donor atom, acceptor molecule, acceptor atom, score
      L1  H     7    24       P1  7948  0.97
      L1  H    10    25       P1  7948  0.92

> <Gold.Chemscore.Hbond.Weighted>
-6.4541

> <Gold.Chemscore.Metal.Weighted>
-0.0000

> <Gold.Chemscore.Lipo.Weighted>
-8.0172

> <Gold.Chemscore.Internal_Hbond.Weighted>
0.0000

> <Gold.Chemscore.DEClash.Weighted>
0.0106

> <Gold.Chemscore.DEInternal.Weighted>
1.3235

> <Gold.Chemscore.Rot.Weighted>
3.4992

> <Gold.Chemscore.Internal.Correction.Weighted>
   9.000000E+99

> <Gold.Protein.RotatedTorsions>
[ 6907 6896 6895 6894 ] final  -94.00 input  -60.11 | X-H torsion
[ 7974 7965 7964 7962 ] final  -70.58 input  175.53 | X-H torsion
[ 8008 7997 7996 7995 ] final -158.28 input   59.86 | X-H torsion
[ 10167 10162 10161 10158 ] final   86.46 input  -65.29 | X-H torsion
[ 10718 10713 10712 10709 ] final   42.34 input   66.30 | X-H torsion
[ 10763 10752 10751 10750 ] final  119.38 input  -60.55 | X-H torsion
[ 11005 11000 10999 10996 ] final  -97.87 input  -57.11 | X-H torsion

> <Gold.Protein.ActiveResidues>
 VAL166  LYS551  ARG553  GLY616  TRP617  ASP618  TYR619  PRO620  LYS621  CYS622 
 ASP623  PHE694  ASN695  SER759  ASP760  ASP761  ALA762  ILE779  LEU786  VAL792 
 PHE793  MET794  SER795  GLU796  ALA797  LYS798  CYS799  TRP800  GLU811  SER814 

> <Gold.Protein.RotatedAtoms>
  150.6933  134.1880  159.4273 H   0  0  0  0  0  0  0  0  0  0  0  0  # atno 6907 bound_to 6896
  151.9852  135.0006  160.0568 H   0  0  0  0  0  0  0  0  0  0  0  0  # atno 6908 bound_to 6896
  152.1719  133.4614  159.4950 H   0  0  0  0  0  0  0  0  0  0  0  0  # atno 6909 bound_to 6896
  145.6891  140.9159  143.0791 H   0  0  0  0  0  0  0  0  0  0  0  0  # atno 7974 bound_to 7965
  155.7452  140.0819  157.2227 H   0  0  0  0  0  0  0  0  0  0  0  0  # atno 8008 bound_to 7997
  154.4018  140.1570  156.2717 H   0  0  0  0  0  0  0  0  0  0  0  0  # atno 8009 bound_to 7997
  155.8983  140.3411  155.6010 H   0  0  0  0  0  0  0  0  0  0  0  0  # atno 8010 bound_to 7997
  139.8873  144.6406  150.8777 H   0  0  0  0  0  0  0  0  0  0  0  0  # atno 10167 bound_to 10162
  157.4037  130.7875  149.7370 H   0  0  0  0  0  0  0  0  0  0  0  0  # atno 10718 bound_to 10713
  153.5822  135.3482  155.2879 H   0  0  0  0  0  0  0  0  0  0  0  0  # atno 10763 bound_to 10752
  154.8666  135.4184  154.2608 H   0  0  0  0  0  0  0  0  0  0  0  0  # atno 10764 bound_to 10752
  153.3397  135.7049  153.6948 H   0  0  0  0  0  0  0  0  0  0  0  0  # atno 10765 bound_to 10752
  141.1364  133.8203  157.0764 H   0  0  0  0  0  0  0  0  0  0  0  0  # atno 11005 bound_to 11000
  144.7002  139.8798  143.7446 LP  0  0  0  0  0  0  0  0  0  0  0  0  # atno 17320 bound_to 7965
  146.0897  139.3887  143.0413 LP  0  0  0  0  0  0  0  0  0  0  0  0  # atno 17321 bound_to 7965
  140.7733  143.3538  151.1962 LP  0  0  0  0  0  0  0  0  0  0  0  0  # atno 17342 bound_to 10162
  139.7141  143.9328  152.2959 LP  0  0  0  0  0  0  0  0  0  0  0  0  # atno 17343 bound_to 10162
  155.9830  130.4004  150.3384 LP  0  0  0  0  0  0  0  0  0  0  0  0  # atno 17370 bound_to 10713
  157.1515  131.0322  151.2883 LP  0  0  0  0  0  0  0  0  0  0  0  0  # atno 17371 bound_to 10713
  140.0479  134.9821  157.1082 LP  0  0  0  0  0  0  0  0  0  0  0  0  # atno 17394 bound_to 11000
  140.4035  134.2057  155.7163 LP  0  0  0  0  0  0  0  0  0  0  0  0  # atno 17395 bound_to 11000

$$$$
