AV-unprocessed.smi:447|AV-procd|sdf|2604|dock4
  -GOLD-   2262023 03D 1   1.00000     0.00000
 Structure written by MMmdl.
 46 48  0  0  0  0  0  0  0  0  2 V2000
  146.3483  134.2481  151.6749 C   0  0  0  0  0  0  0  0  0  0  0  0
  146.2395  134.4459  153.1825 C   0  0  0  0  0  0  0  0  0  0  0  0
  145.4305  133.7881  153.8335 O   0  0  0  0  0  0  0  0  0  0  0  0
  147.0551  135.3664  153.7197 N   0  0  0  0  0  0  0  0  0  0  0  0
  147.1806  135.6913  155.1412 C   0  0  1  0  0  0  0  0  0  0  0  0
  147.4869  134.3971  155.9098 C   0  0  0  0  0  0  0  0  0  0  0  0
  148.2237  136.7359  155.4381 C   0  0  0  0  0  0  0  0  0  0  0  0
  149.0712  137.2993  154.5287 N   0  3  0  0  0  0  0  0  0  0  0  0
  149.9281  138.1954  155.1635 C   0  0  0  0  0  0  0  0  0  0  0  0
  150.9436  138.9978  154.6531 C   0  0  0  0  0  0  0  0  0  0  0  0
  151.6471  139.7939  155.5801 C   0  0  0  0  0  0  0  0  0  0  0  0
  151.3338  139.7684  156.9542 C   0  0  0  0  0  0  0  0  0  0  0  0
  150.3016  138.9498  157.4577 C   0  0  0  0  0  0  0  0  0  0  0  0
  149.6024  138.1718  156.5340 C   0  0  0  0  0  0  0  0  0  0  0  0
  148.5374  137.2680  156.6594 N   0  0  0  0  0  0  0  0  0  0  0  0
  147.9787  136.9998  158.0010 C   0  0  0  0  0  0  0  0  0  0  0  0
  148.7457  135.9466  158.8354 C   0  0  1  0  0  0  0  0  0  0  0  0
  150.1010  136.3162  158.9981 O   0  0  0  0  0  0  0  0  0  0  0  0
  148.0536  135.6086  160.1497 C   0  0  0  0  0  0  0  0  0  0  0  0
  147.7013  134.2798  160.4785 C   0  0  0  0  0  0  0  0  0  0  0  0
  147.0478  133.9990  161.6942 C   0  0  0  0  0  0  0  0  0  0  0  0
  146.7550  135.0392  162.5958 C   0  0  0  0  0  0  0  0  0  0  0  0
  147.1090  136.3637  162.2778 C   0  0  0  0  0  0  0  0  0  0  0  0
  147.7527  136.6470  161.0578 C   0  0  0  0  0  0  0  0  0  0  0  0
  146.0921  135.1692  151.1508 H   0  0  0  0  0  0  0  0  0  0  0  0
  145.6715  133.4628  151.3365 H   0  0  0  0  0  0  0  0  0  0  0  0
  147.3645  133.9637  151.4002 H   0  0  0  0  0  0  0  0  0  0  0  0
  147.6775  135.8561  153.0931 H   0  0  0  0  0  0  0  0  0  0  0  0
  146.2147  136.0677  155.4752 H   0  0  0  0  0  0  0  0  0  0  0  0
  147.5308  134.5662  156.9851 H   0  0  0  0  0  0  0  0  0  0  0  0
  148.4447  133.9734  155.6049 H   0  0  0  0  0  0  0  0  0  0  0  0
  146.7188  133.6438  155.7313 H   0  0  0  0  0  0  0  0  0  0  0  0
  151.1881  139.0140  153.6012 H   0  0  0  0  0  0  0  0  0  0  0  0
  152.4440  140.4346  155.2311 H   0  0  0  0  0  0  0  0  0  0  0  0
  151.8950  140.3898  157.6368 H   0  0  0  0  0  0  0  0  0  0  0  0
  150.0695  138.9425  158.5123 H   0  0  0  0  0  0  0  0  0  0  0  0
  147.9401  137.9424  158.5455 H   0  0  0  0  0  0  0  0  0  0  0  0
  146.9391  136.6951  157.8780 H   0  0  0  0  0  0  0  0  0  0  0  0
  148.7659  135.0243  158.2534 H   0  0  0  0  0  0  0  0  0  0  0  0
  150.2902  137.0244  158.4015 H   0  0  0  0  0  0  0  0  0  0  0  0
  147.9305  133.4663  159.8062 H   0  0  0  0  0  0  0  0  0  0  0  0
  146.7812  132.9815  161.9401 H   0  0  0  0  0  0  0  0  0  0  0  0
  146.2599  134.8207  163.5305 H   0  0  0  0  0  0  0  0  0  0  0  0
  146.8842  137.1632  162.9681 H   0  0  0  0  0  0  0  0  0  0  0  0
  148.0181  137.6669  160.8212 H   0  0  0  0  0  0  0  0  0  0  0  0
  149.0559  137.0837  153.5404 H   0  0  0  0  0  0  0  0  0  0  0  0
  1  2  1  0  0  0  0
  1 25  1  0  0  0  0
  1 26  1  0  0  0  0
  1 27  1  0  0  0  0
  2  3  2  0  0  0  0
  2  4  1  0  0  0  0
  4  5  1  0  0  0  0
  4 28  1  0  0  0  0
  5  6  1  0  0  0  0
  5  7  1  0  0  0  0
  5 29  1  0  0  0  0
  6 30  1  0  0  0  0
  6 31  1  0  0  0  0
  6 32  1  0  0  0  0
  7 15  1  0  0  0  0
  7  8  2  0  0  0  0
  8  9  1  0  0  0  0
  8 46  1  0  0  0  0
  9 14  2  0  0  0  0
  9 10  1  0  0  0  0
 10 11  2  0  0  0  0
 10 33  1  0  0  0  0
 11 12  1  0  0  0  0
 11 34  1  0  0  0  0
 12 13  2  0  0  0  0
 12 35  1  0  0  0  0
 13 14  1  0  0  0  0
 13 36  1  0  0  0  0
 14 15  1  0  0  0  0
 15 16  1  0  0  0  0
 16 17  1  0  0  0  0
 16 37  1  0  0  0  0
 16 38  1  0  0  0  0
 17 18  1  0  0  0  0
 17 19  1  0  0  0  0
 17 39  1  0  0  0  0
 18 40  1  0  0  0  0
 19 24  1  0  0  0  0
 19 20  2  0  0  0  0
 20 21  1  0  0  0  0
 20 41  1  0  0  0  0
 21 22  2  0  0  0  0
 21 42  1  0  0  0  0
 22 23  1  0  0  0  0
 22 43  1  0  0  0  0
 23 24  2  0  0  0  0
 23 44  1  0  0  0  0
 24 45  1  0  0  0  0
M  CHG  1   8   1
M  END
> <s_m_source_file>
AV-unprocessed.smi

> <i_m_source_file_index>
447

> <i_lp_mmshare_version>
43012

> <i_f3d_flags>
0

> <s_epik_input>
W0NIM11DKD1PKVtOSF1bQ0BIXShbQ0gzXSljKG4xKW4oYyhjMTIpW2NIXVtjSF1bY0hdW2NIXTIpW0NIMl1bQ0BIXShbT0hdKWMzW2NIXVtjSF1bY0hdW2NIXVtjSF0z

> <s_epik_cmdline>
J2VwaWtfcHl0aG9uJywgJy1waCcsICc3LjAnLCAnLXRuJywgJzgnLCAnLW1hJywgJzIwMCcsICctbWV0YWxfYmluZGluZycsICctaW1hZScsICc8aW5maWxlLm1hZT4nLCAnLW9tYWUnLCAnPG91dGZpbGUubWFlPic=

> <r_epik_Ionization_Penalty>
0.950381

> <r_epik_Ionization_Penalty_Charging>
0.950379

> <r_epik_Ionization_Penalty_Neutral>
1.42115e-06

> <r_epik_State_Penalty>
0.994584

> <r_epik_Charging_Adjusted_Penalty>
1.94496

> <i_epik_Tot_Q>
1

> <i_epik_Tot_abs_Q>
1

> <r_epik_Metal_State_Penalty>
1.10485

> <b_epik_Metal_Only>
0

> <s_lp_Force_Field>
OPLS_2005

> <r_lp_Energy>
11.8

> <b_lp_Chiralities_Consistent>
1

> <s_lp_Variant>
AV-unprocessed.smi:447-8

> <Gold.Version>
5.8.1

> <Gold.Id.Protein>
6NUR|6NUR_protein|mol2

> <Gold.PLP.Fitness>
46.2425

> <Gold.PLP.PLP>
-35.1323

> <Gold.PLP.part.hbond>
-3.0000

> <Gold.PLP.part.metal>
0.0000

> <Gold.PLP.part.buried>
-3.2891

> <Gold.PLP.part.nonpolar>
-28.4631

> <Gold.PLP.part.repulsive>
0.1008

> <Gold.PLP.ligand.clash>
0.0000

> <Gold.PLP.ligand.torsion>
0.5165

> <Gold.PLP.Chemscore.Hbond>
4.0000

> <Gold.PLP.Chemscore.CHOScore>
0.0000

> <Gold.PLP.Chemscore.Metal>
0.0000

> <Gold.Chemscore.Hbonds>
donor molecule, donor type, donor heavy atom, donor atom, acceptor molecule, acceptor atom, score
      L1  H     4    28       P1  7948  1.00
      L1  H     8    46       P1  7948  2.00
      P1  H  6896  6907       L1    18  1.00

> <Gold.PLP.Chemscore.Internal.Correction>
0.1431

> <Gold.Rescore>
     Score         DG    S(hbond)    S(metal)    S(lipo)     H(rot)  DE(clash)    DE(int)     intcor
     18.75     -19.40       2.93        0.00      87.97       2.41       0.01       0.63       ----

> <Gold.Chemscore.Fitness>
18.7532

> <Gold.Chemscore.DG>
-19.3976

> <Gold.Chemscore.ZeroCoef>
-5.4800

> <Gold.Chemscore.Hbond>
2.9335

> <Gold.Chemscore.Metal>
0.0000

> <Gold.Chemscore.Lipo>
87.9701

> <Gold.Chemscore.Internal_Hbond>
0.0000

> <Gold.Chemscore.DEClash>
0.0108

> <Gold.Chemscore.DEInternal>
0.6336

> <Gold.Chemscore.Rot>
2.4112

> <Gold.Chemscore.Internal.Correction>
   9.000000E+99

> <Gold.Chemscore.Hbonds>
donor molecule, donor type, donor heavy atom, donor atom, acceptor molecule, acceptor atom, score
      L1  H     4    28       P1  7948  1.00
      L1  H     8    46       P1  7948  1.00
      P1  H  6896  6907       L1    18  0.55

> <Gold.Chemscore.Hbond.Weighted>
-9.7978

> <Gold.Chemscore.Metal.Weighted>
-0.0000

> <Gold.Chemscore.Lipo.Weighted>
-10.2925

> <Gold.Chemscore.Internal_Hbond.Weighted>
0.0000

> <Gold.Chemscore.DEClash.Weighted>
0.0108

> <Gold.Chemscore.DEInternal.Weighted>
0.6336

> <Gold.Chemscore.Rot.Weighted>
6.1727

> <Gold.Chemscore.Internal.Correction.Weighted>
   9.000000E+99

> <Gold.Protein.RotatedTorsions>
[ 6907 6896 6895 6894 ] final  -44.85 input  -60.11 | X-H torsion
[ 7974 7965 7964 7962 ] final -155.84 input  175.53 | X-H torsion
[ 8008 7997 7996 7995 ] final  155.22 input   59.86 | X-H torsion
[ 10167 10162 10161 10158 ] final   76.38 input  -65.29 | X-H torsion
[ 10718 10713 10712 10709 ] final  -94.01 input   66.30 | X-H torsion
[ 10763 10752 10751 10750 ] final   18.23 input  -60.55 | X-H torsion
[ 11005 11000 10999 10996 ] final   76.33 input  -57.11 | X-H torsion

> <Gold.Protein.ActiveResidues>
 VAL166  LYS551  ARG553  GLY616  TRP617  ASP618  TYR619  PRO620  LYS621  CYS622 
 ASP623  PHE694  ASN695  SER759  ASP760  ASP761  ALA762  ILE779  LEU786  VAL792 
 PHE793  MET794  SER795  GLU796  ALA797  LYS798  CYS799  TRP800  GLU811  SER814 

> <Gold.Protein.RotatedAtoms>
  150.9284  134.8700  159.7534 H   0  0  0  0  0  0  0  0  0  0  0  0  # atno 6907 bound_to 6896
  152.5026  134.4116  159.9460 H   0  0  0  0  0  0  0  0  0  0  0  0  # atno 6908 bound_to 6896
  151.4144  133.3677  159.2783 H   0  0  0  0  0  0  0  0  0  0  0  0  # atno 6909 bound_to 6896
  144.7621  140.4194  143.5969 H   0  0  0  0  0  0  0  0  0  0  0  0  # atno 7974 bound_to 7965
  156.2490  140.1945  156.6768 H   0  0  0  0  0  0  0  0  0  0  0  0  # atno 8008 bound_to 7997
  154.6352  140.0590  156.9806 H   0  0  0  0  0  0  0  0  0  0  0  0  # atno 8009 bound_to 7997
  155.1649  140.3263  155.4407 H   0  0  0  0  0  0  0  0  0  0  0  0  # atno 8010 bound_to 7997
  139.9929  144.5744  150.7803 H   0  0  0  0  0  0  0  0  0  0  0  0  # atno 10167 bound_to 10162
  156.0021  130.5050  150.5863 H   0  0  0  0  0  0  0  0  0  0  0  0  # atno 10718 bound_to 10713
  153.1267  135.6731  153.9245 H   0  0  0  0  0  0  0  0  0  0  0  0  # atno 10763 bound_to 10752
  153.8743  135.3066  155.3444 H   0  0  0  0  0  0  0  0  0  0  0  0  # atno 10764 bound_to 10752
  154.7671  135.4958  153.9657 H   0  0  0  0  0  0  0  0  0  0  0  0  # atno 10765 bound_to 10752
  139.9303  134.7592  156.1382 H   0  0  0  0  0  0  0  0  0  0  0  0  # atno 11005 bound_to 11000
  145.6586  139.1577  143.2821 LP  0  0  0  0  0  0  0  0  0  0  0  0  # atno 17320 bound_to 7965
  146.1694  140.6668  142.9240 LP  0  0  0  0  0  0  0  0  0  0  0  0  # atno 17321 bound_to 7965
  140.7448  143.2866  151.3446 LP  0  0  0  0  0  0  0  0  0  0  0  0  # atno 17342 bound_to 10162
  139.6327  144.0689  152.2490 LP  0  0  0  0  0  0  0  0  0  0  0  0  # atno 17343 bound_to 10162
  157.3735  131.0769  151.1538 LP  0  0  0  0  0  0  0  0  0  0  0  0  # atno 17370 bound_to 10713
  157.2284  130.6513  149.5839 LP  0  0  0  0  0  0  0  0  0  0  0  0  # atno 17371 bound_to 10713
  141.0887  133.6723  156.2493 LP  0  0  0  0  0  0  0  0  0  0  0  0  # atno 17394 bound_to 11000
  140.6221  134.5351  157.5549 LP  0  0  0  0  0  0  0  0  0  0  0  0  # atno 17395 bound_to 11000

$$$$
