#       Name:                AV-unprocessed.smi:1157
#       Creating user name   scv26
#       Creation time:       Fri Mar 27 03:48:15 2020


#       File generated by GOLD software.
#

@<TRIPOS>MOLECULE
AV-unprocessed.smi:1157
    60    62     1
SMALL
NO_CHARGES


@<TRIPOS>ATOM
      1 ****        -3.0932   3.5499   0.2649 C.3            1 S1                 0.0000
      2 ****        -2.3123   3.5121  -1.0738 C.3            1 S1                 0.0000
      3 ****        -2.2766   4.9579  -1.6252 C.3            1 S1                 0.0000
      4 ****        -0.8510   3.1201  -0.7129 C.3            1 S1                 0.0000
      5 ****        -0.7514   1.7442  -0.2361 N.am           1 S1                 0.0000
      6 ****         0.3584   1.1930   0.2697 C.2            1 S1                 0.0000
      7 ****         1.4209   1.8019   0.3941 O.2            1 S1                 0.0000
      8 ****         0.1562  -0.0953   0.5938 N.am           1 S1                 0.0000
      9 ****         1.0771  -1.0170   1.1600 C.ar           1 S1                 0.0000
     10 ****         2.2127  -0.6441   1.9156 C.ar           1 S1                 0.0000
     11 ****         3.0435  -1.6523   2.4409 C.ar           1 S1                 0.0000
     12 ****         2.7184  -3.0087   2.2027 C.ar           1 S1                 0.0000
     13 ****         3.5240  -4.0465   2.7119 N.pl3          1 S1                 0.0000
     14 ****         3.3038  -5.4371   2.3457 C.3            1 S1                 0.0000
     15 ****         4.4656  -6.1939   2.9872 C.3            1 S1                 0.0000
     16 ****         5.6083  -5.1797   2.9388 C.3            1 S1                 0.0000
     17 ****         4.9122  -3.8222   3.0916 C.3            1 S1                 0.0000
     18 ****         1.6183  -3.3632   1.4966 N.ar           1 S1                 0.0000
     19 ****         0.8247  -2.3934   0.9962 C.ar           1 S1                 0.0000
     20 ****        -2.9233   2.5396  -2.0233 N.3            1 S1                 0.0000
     21 ****        -2.1969   2.3733  -3.2879 C.3            1 S1                 0.0000
     22 ****        -2.8087   1.2681  -4.1651 C.3            1 S1                 0.0000
     23 ****        -4.1793   1.5571  -4.4121 O.3            1 S1                 0.0000
     24 ****        -4.9349   1.6687  -3.2122 C.3            1 S1                 0.0000
     25 ****        -4.3401   2.7754  -2.3247 C.3            1 S1                 0.0000
     26 ****        -2.5609   4.1265   1.0224 H              1 S1                 0.0000
     27 ****        -3.2496   2.5493   0.6695 H              1 S1                 0.0000
     28 ****        -4.0709   4.0202   0.1601 H              1 S1                 0.0000
     29 ****        -1.8329   5.6413  -0.9002 H              1 S1                 0.0000
     30 ****        -3.2730   5.3401  -1.8460 H              1 S1                 0.0000
     31 ****        -1.6815   5.0375  -2.5348 H              1 S1                 0.0000
     32 ****        -0.1832   3.2499  -1.5652 H              1 S1                 0.0000
     33 ****        -0.4637   3.7890   0.0581 H              1 S1                 0.0000
     34 ****        -1.5823   1.1757  -0.3121 H              1 S1                 0.0000
     35 ****        -0.7455  -0.4784   0.3497 H              1 S1                 0.0000
     36 ****         2.4542   0.3880   2.1160 H              1 S1                 0.0000
     37 ****         3.9075  -1.3717   3.0246 H              1 S1                 0.0000
     38 ****         2.3395  -5.8006   2.7025 H              1 S1                 0.0000
     39 ****         3.3320  -5.5372   1.2597 H              1 S1                 0.0000
     40 ****         4.2254  -6.4289   4.0251 H              1 S1                 0.0000
     41 ****         4.6989  -7.1271   2.4742 H              1 S1                 0.0000
     42 ****         6.3657  -5.3549   3.7032 H              1 S1                 0.0000
     43 ****         6.0976  -5.2309   1.9653 H              1 S1                 0.0000
     44 ****         5.3934  -3.0666   2.4695 H              1 S1                 0.0000
     45 ****         4.9435  -3.4856   4.1283 H              1 S1                 0.0000
     46 ****        -0.0385  -2.7306   0.4409 H              1 S1                 0.0000
     47 ****        -2.1988   3.3077  -3.8493 H              1 S1                 0.0000
     48 ****        -1.1551   2.1142  -3.1082 H              1 S1                 0.0000
     49 ****        -2.2812   1.2047  -5.1169 H              1 S1                 0.0000
     50 ****        -2.7147   0.2946  -3.6812 H              1 S1                 0.0000
     51 ****        -5.9699   1.9006  -3.4638 H              1 S1                 0.0000
     52 ****        -4.9395   0.7125  -2.6863 H              1 S1                 0.0000
     53 ****        -4.9304   2.8179  -1.4111 H              1 S1                 0.0000
     54 ****        -4.4646   3.7341  -2.8283 H              1 S1                 0.0000
     55 ****         1.4851   2.7587   0.1103 LP             1 S1                 0.0000
     56 ****         2.2199   1.3398   0.7789 LP             1 S1                 0.0000
     57 ****         1.3980  -4.3273   1.3486 LP             1 S1                 0.0000
     58 ****        -2.8498   1.6897  -1.5016 LP             1 S1                 0.0000
     59 ****        -4.5671   0.8224  -4.9687 LP             1 S1                 0.0000
     60 ****        -4.2403   2.4213  -4.9116 LP             1 S1                 0.0000
@<TRIPOS>BOND
    1    1    2 1     
    2    1   26 1     
    3    1   27 1     
    4    1   28 1     
    5    2    3 1     
    6    2    4 1     
    7    2   20 1     
    8    3   29 1     
    9    3   30 1     
   10    3   31 1     
   11    4    5 1     
   12    4   32 1     
   13    4   33 1     
   14    5    6 am    
   15    5   34 1     
   16    6    7 2     
   17    6    8 am    
   18    8    9 1     
   19    8   35 1     
   20    9   19 ar    
   21    9   10 ar    
   22   10   11 ar    
   23   10   36 1     
   24   11   12 ar    
   25   11   37 1     
   26   12   13 1     
   27   12   18 ar    
   28   13   17 1     
   29   13   14 1     
   30   14   15 1     
   31   14   38 1     
   32   14   39 1     
   33   15   16 1     
   34   15   40 1     
   35   15   41 1     
   36   16   17 1     
   37   16   42 1     
   38   16   43 1     
   39   17   44 1     
   40   17   45 1     
   41   18   19 ar    
   42   19   46 1     
   43   20   25 1     
   44   20   21 1     
   45   21   22 1     
   46   21   47 1     
   47   21   48 1     
   48   22   23 1     
   49   22   49 1     
   50   22   50 1     
   51   23   24 1     
   52   24   25 1     
   53   24   51 1     
   54   24   52 1     
   55   25   53 1     
   56   25   54 1     
   57    7   55 1     
   58    7   56 1     
   59   18   57 1     
   60   20   58 1     
   61   23   59 1     
   62   23   60 1     
@<TRIPOS>SUBSTRUCTURE
      1 S1             1
@<TRIPOS>SET
LONE_PAIRS      STATIC     ATOMS    <user>   **** ""
6 55 56 57 58 59 60
DONOR_HYDROGENS      STATIC     ATOMS    <user>   **** ""
2 34 35
ATOM$BLUE        STATIC     ATOMS    COLORGROUP SYSTEM
6 55 56 57 58 59 60
ATOM$RED        STATIC     ATOMS    COLORGROUP SYSTEM
2 34 35
