AV-unprocessed.smi:975|AV-procd|sdf|4301|dock9
  -GOLD-   22720 2203D 1   1.00000     0.00000
 Structure written by MMmdl.
 44 45  0  0  0  0  0  0  0  0  1 V2000
  154.9414  135.4019  164.5392 C   0  0  0  0  0  0  0  0  0  0  0  0
  154.6004  136.0769  163.2266 C   0  0  0  0  0  0  0  0  0  0  0  0
  154.3618  137.5040  163.1675 C   0  0  0  0  0  0  0  0  0  0  0  0
  154.0572  138.0672  161.9882 C   0  0  0  0  0  0  0  0  0  0  0  0
  153.9653  137.3119  160.8052 N   0  0  0  0  0  0  0  0  0  0  0  0
  153.6388  138.0433  159.5674 C   0  0  0  0  0  0  0  0  0  0  0  0
  153.9949  139.5403  159.5875 C   0  0  0  0  0  0  0  0  0  0  0  0
  155.1528  139.8815  159.3495 O   0  0  0  0  0  0  0  0  0  0  0  0
  153.0165  140.4211  159.8604 N   0  0  0  0  0  0  0  0  0  0  0  0
  153.1547  141.8737  159.9199 C   0  0  0  0  0  0  0  0  0  0  0  0
  152.5576  142.3593  161.2607 C   0  0  0  0  0  0  0  0  0  0  0  0
  152.4804  143.8836  161.4626 C   0  0  0  0  0  0  0  0  0  0  0  0
  151.1311  144.5326  161.0793 C   0  0  0  0  0  0  0  0  0  0  0  0
  151.0051  144.9839  159.6124 C   0  0  0  0  0  0  0  0  0  0  0  0
  150.4007  143.9614  158.6264 C   0  0  0  0  0  0  0  0  0  0  0  0
  151.0135  142.5490  158.6171 C   0  0  0  0  0  0  0  0  0  0  0  0
  152.5542  142.5160  158.6496 C   0  0  0  0  0  0  0  0  0  0  0  0
  154.1874  135.9629  160.7906 C   0  0  0  0  0  0  0  0  0  0  0  0
  154.1262  135.2997  159.7554 O   0  0  0  0  0  0  0  0  0  0  0  0
  154.5134  135.3565  162.0866 C   0  0  0  0  0  0  0  0  0  0  0  0
  154.9890  136.1248  165.3543 H   0  0  0  0  0  0  0  0  0  0  0  0
  155.9086  134.9036  164.4694 H   0  0  0  0  0  0  0  0  0  0  0  0
  154.1865  134.6559  164.7892 H   0  0  0  0  0  0  0  0  0  0  0  0
  154.4293  138.1116  164.0584 H   0  0  0  0  0  0  0  0  0  0  0  0
  153.8736  139.1259  161.8732 H   0  0  0  0  0  0  0  0  0  0  0  0
  154.1335  137.5826  158.7105 H   0  0  0  0  0  0  0  0  0  0  0  0
  152.5724  137.9543  159.3544 H   0  0  0  0  0  0  0  0  0  0  0  0
  152.0943  140.0518  160.0408 H   0  0  0  0  0  0  0  0  0  0  0  0
  154.2191  142.1162  159.9350 H   0  0  0  0  0  0  0  0  0  0  0  0
  151.5774  141.9164  161.4399 H   0  0  0  0  0  0  0  0  0  0  0  0
  153.1878  141.9530  162.0533 H   0  0  0  0  0  0  0  0  0  0  0  0
  152.6202  144.0645  162.5292 H   0  0  0  0  0  0  0  0  0  0  0  0
  153.3178  144.3873  160.9781 H   0  0  0  0  0  0  0  0  0  0  0  0
  150.2892  143.9023  161.3682 H   0  0  0  0  0  0  0  0  0  0  0  0
  151.0348  145.4312  161.6901 H   0  0  0  0  0  0  0  0  0  0  0  0
  150.3573  145.8611  159.5885 H   0  0  0  0  0  0  0  0  0  0  0  0
  151.9669  145.3485  159.2522 H   0  0  0  0  0  0  0  0  0  0  0  0
  149.3317  143.8686  158.8214 H   0  0  0  0  0  0  0  0  0  0  0  0
  150.4781  144.3803  157.6224 H   0  0  0  0  0  0  0  0  0  0  0  0
  150.5927  141.9658  159.4349 H   0  0  0  0  0  0  0  0  0  0  0  0
  150.6704  142.0364  157.7176 H   0  0  0  0  0  0  0  0  0  0  0  0
  152.9685  143.5143  158.5203 H   0  0  0  0  0  0  0  0  0  0  0  0
  152.9119  141.9732  157.7736 H   0  0  0  0  0  0  0  0  0  0  0  0
  154.6905  134.2913  162.1239 H   0  0  0  0  0  0  0  0  0  0  0  0
  1  2  1  0  0  0  0
  1 21  1  0  0  0  0
  1 22  1  0  0  0  0
  1 23  1  0  0  0  0
  2 20  2  0  0  0  0
  2  3  1  0  0  0  0
  3  4  2  0  0  0  0
  3 24  1  0  0  0  0
  4  5  1  0  0  0  0
  4 25  1  0  0  0  0
  5  6  1  0  0  0  0
  5 18  1  0  0  0  0
  6  7  1  0  0  0  0
  6 26  1  0  0  0  0
  6 27  1  0  0  0  0
  7  8  2  0  0  0  0
  7  9  1  0  0  0  0
  9 10  1  0  0  0  0
  9 28  1  0  0  0  0
 10 17  1  0  0  0  0
 10 11  1  0  0  0  0
 10 29  1  0  0  0  0
 11 12  1  0  0  0  0
 11 30  1  0  0  0  0
 11 31  1  0  0  0  0
 12 13  1  0  0  0  0
 12 32  1  0  0  0  0
 12 33  1  0  0  0  0
 13 14  1  0  0  0  0
 13 34  1  0  0  0  0
 13 35  1  0  0  0  0
 14 15  1  0  0  0  0
 14 36  1  0  0  0  0
 14 37  1  0  0  0  0
 15 16  1  0  0  0  0
 15 38  1  0  0  0  0
 15 39  1  0  0  0  0
 16 17  1  0  0  0  0
 16 40  1  0  0  0  0
 16 41  1  0  0  0  0
 17 42  1  0  0  0  0
 17 43  1  0  0  0  0
 18 19  2  0  0  0  0
 18 20  1  0  0  0  0
 20 44  1  0  0  0  0
M  END
> <s_m_source_file>
AV-unprocessed.smi

> <i_m_source_file_index>
975

> <i_lp_mmshare_version>
43012

> <i_f3d_flags>
0

> <s_epik_input>
W0NIM11jMVtjSF1bY0hdbihjKD1PKVtjSF0xKVtDSDJdQyg9TylbTkhdW0NIXTJbQ0gyXVtDSDJdW0NIMl1bQ0gyXVtDSDJdW0NIMl1bQ0gyXTI=

> <s_epik_cmdline>
J2VwaWtfcHl0aG9uJywgJy1waCcsICc3LjAnLCAnLXRuJywgJzgnLCAnLW1hJywgJzIwMCcsICctbWV0YWxfYmluZGluZycsICctaW1hZScsICc8aW5maWxlLm1hZT4nLCAnLW9tYWUnLCAnPG91dGZpbGUubWFlPic=

> <r_lp_tautomer_probability>
1

> <r_epik_Ionization_Penalty>
5.54847e-07

> <r_epik_Ionization_Penalty_Charging>
5.34632e-07

> <r_epik_Ionization_Penalty_Neutral>
2.02148e-08

> <r_epik_State_Penalty>
-0

> <r_epik_Charging_Adjusted_Penalty>
5.34632e-07

> <i_epik_Tot_Q>
0

> <i_epik_Tot_abs_Q>
0

> <r_epik_Metal_State_Penalty>
-0

> <b_epik_Metal_Only>
0

> <s_lp_Force_Field>
OPLS_2005

> <r_lp_Energy>
31.8723

> <b_lp_Chiralities_Consistent>
1

> <s_lp_Variant>
AV-unprocessed.smi:975-1

> <Gold.Version>
5.8.1

> <Gold.Id.Protein>
6NUR|6NUR_protein|mol2

> <Gold.PLP.Fitness>
43.5053

> <Gold.PLP.PLP>
-39.0611

> <Gold.PLP.part.hbond>
-2.0000

> <Gold.PLP.part.metal>
0.0000

> <Gold.PLP.part.buried>
-3.7080

> <Gold.PLP.part.nonpolar>
-33.9134

> <Gold.PLP.part.repulsive>
0.1079

> <Gold.PLP.ligand.clash>
0.0000

> <Gold.PLP.ligand.torsion>
0.7913

> <Gold.PLP.Chemscore.Hbond>
2.0000

> <Gold.PLP.Chemscore.CHOScore>
0.0000

> <Gold.PLP.Chemscore.Metal>
0.0000

> <Gold.Chemscore.Hbonds>
donor molecule, donor type, donor heavy atom, donor atom, acceptor molecule, acceptor atom, score
      P1  H  6896  6907       L1    19  1.00
      P1  H  7997  8009       L1     8  1.00

> <Gold.PLP.Chemscore.Internal.Correction>
0.0268

> <Gold.Rescore>
     Score         DG    S(hbond)    S(metal)    S(lipo)     H(rot)  DE(clash)    DE(int)     intcor
     21.54     -22.25       1.85        0.00     119.87       1.34       0.01       0.71       ----

> <Gold.Chemscore.Fitness>
21.5381

> <Gold.Chemscore.DG>
-22.2544

> <Gold.Chemscore.ZeroCoef>
-5.4800

> <Gold.Chemscore.Hbond>
1.8466

> <Gold.Chemscore.Metal>
0.0000

> <Gold.Chemscore.Lipo>
119.8713

> <Gold.Chemscore.Internal_Hbond>
0.0000

> <Gold.Chemscore.DEClash>
0.0098

> <Gold.Chemscore.DEInternal>
0.7065

> <Gold.Chemscore.Rot>
1.3352

> <Gold.Chemscore.Internal.Correction>
   9.000000E+99

> <Gold.Chemscore.Hbonds>
donor molecule, donor type, donor heavy atom, donor atom, acceptor molecule, acceptor atom, score
      P1  H  6896  6907       L1    19  0.35
      P1  H  7997  8009       L1     8  0.70

> <Gold.Chemscore.Hbond.Weighted>
-6.1676

> <Gold.Chemscore.Metal.Weighted>
-0.0000

> <Gold.Chemscore.Lipo.Weighted>
-14.0249

> <Gold.Chemscore.Internal_Hbond.Weighted>
0.0000

> <Gold.Chemscore.DEClash.Weighted>
0.0098

> <Gold.Chemscore.DEInternal.Weighted>
0.7065

> <Gold.Chemscore.Rot.Weighted>
3.4181

> <Gold.Chemscore.Internal.Correction.Weighted>
   9.000000E+99

> <Gold.Protein.RotatedTorsions>
[ 6907 6896 6895 6894 ] final   75.52 input  -60.11 | X-H torsion
[ 7974 7965 7964 7962 ] final -144.44 input  175.53 | X-H torsion
[ 8008 7997 7996 7995 ] final   98.04 input   59.86 | X-H torsion
[ 10167 10162 10161 10158 ] final -101.79 input  -65.29 | X-H torsion
[ 10718 10713 10712 10709 ] final -126.35 input   66.30 | X-H torsion
[ 10763 10752 10751 10750 ] final -147.54 input  -60.55 | X-H torsion
[ 11005 11000 10999 10996 ] final  104.71 input  -57.11 | X-H torsion

> <Gold.Protein.ActiveResidues>
 VAL166  LYS551  ARG553  GLY616  TRP617  ASP618  TYR619  PRO620  LYS621  CYS622 
 ASP623  PHE694  ASN695  SER759  ASP760  ASP761  ALA762  ILE779  LEU786  VAL792 
 PHE793  MET794  SER795  GLU796  ALA797  LYS798  CYS799  TRP800  GLU811  SER814 

> <Gold.Protein.RotatedAtoms>
  152.5030  134.4108  159.9447 H   0  0  0  0  0  0  0  0  0  0  0  0  # atno 6907 bound_to 6896
  151.4076  133.3731  159.2747 H   0  0  0  0  0  0  0  0  0  0  0  0  # atno 6908 bound_to 6896
  150.9315  134.8752  159.7614 H   0  0  0  0  0  0  0  0  0  0  0  0  # atno 6909 bound_to 6896
  144.8297  140.5709  143.5523 H   0  0  0  0  0  0  0  0  0  0  0  0  # atno 7974 bound_to 7965
  156.0964  140.3249  155.7883 H   0  0  0  0  0  0  0  0  0  0  0  0  # atno 8008 bound_to 7997
  155.4911  140.0561  157.2971 H   0  0  0  0  0  0  0  0  0  0  0  0  # atno 8009 bound_to 7997
  154.4669  140.1993  156.0110 H   0  0  0  0  0  0  0  0  0  0  0  0  # atno 8010 bound_to 7997
  140.2375  143.3562  152.0831 H   0  0  0  0  0  0  0  0  0  0  0  0  # atno 10167 bound_to 10162
  156.1757  130.6698  151.0239 H   0  0  0  0  0  0  0  0  0  0  0  0  # atno 10718 bound_to 10713
  154.8280  135.3357  154.6834 H   0  0  0  0  0  0  0  0  0  0  0  0  # atno 10763 bound_to 10752
  153.7457  135.6943  153.4961 H   0  0  0  0  0  0  0  0  0  0  0  0  # atno 10764 bound_to 10752
  153.2212  135.4448  155.0442 H   0  0  0  0  0  0  0  0  0  0  0  0  # atno 10765 bound_to 10752
  139.8794  134.9310  156.5402 H   0  0  0  0  0  0  0  0  0  0  0  0  # atno 11005 bound_to 11000
  145.4923  139.1488  143.3703 LP  0  0  0  0  0  0  0  0  0  0  0  0  # atno 17320 bound_to 7965
  146.2601  140.5061  142.8857 LP  0  0  0  0  0  0  0  0  0  0  0  0  # atno 17321 bound_to 7965
  139.5088  144.6857  151.5893 LP  0  0  0  0  0  0  0  0  0  0  0  0  # atno 17342 bound_to 10162
  140.6139  143.9386  150.6473 LP  0  0  0  0  0  0  0  0  0  0  0  0  # atno 17343 bound_to 10162
  157.6834  131.0832  150.7309 LP  0  0  0  0  0  0  0  0  0  0  0  0  # atno 17370 bound_to 10713
  156.7367  130.4726  149.5487 LP  0  0  0  0  0  0  0  0  0  0  0  0  # atno 17371 bound_to 10713
  140.8316  133.8275  155.8989 LP  0  0  0  0  0  0  0  0  0  0  0  0  # atno 17394 bound_to 11000
  140.9323  134.2006  157.4855 LP  0  0  0  0  0  0  0  0  0  0  0  0  # atno 17395 bound_to 11000

$$$$
