AV-unprocessed.smi:274|AV-procd|sdf|2059|dock7
  -GOLD-   2262021303D 1   1.00000     0.00000
 Structure written by MMmdl.
 50 53  0  0  0  0  0  0  0  0  1 V2000
  151.5458  139.2072  155.2784 C   0  0  0  0  0  0  0  0  0  0  0  0
  150.8826  140.4797  155.8433 C   0  0  0  0  0  0  0  0  0  0  0  0
  151.6089  140.8877  157.1409 C   0  0  0  0  0  0  0  0  0  0  0  0
  149.3414  140.3040  156.0208 C   0  0  1  0  0  0  0  0  0  0  0  0
  148.6450  141.5890  156.5354 C   0  0  0  0  0  0  0  0  0  0  0  0
  148.7352  141.9027  157.7206 O   0  0  0  0  0  0  0  0  0  0  0  0
  147.9193  142.3294  155.6780 N   0  0  0  0  0  0  0  0  0  0  0  0
  147.6655  142.0207  154.2705 C   0  0  0  0  0  0  0  0  0  0  0  0
  148.5383  140.8750  153.7276 C   0  0  0  0  0  0  0  0  0  0  0  0
  148.7414  139.8548  154.7531 N   0  0  0  0  0  0  0  0  0  0  0  0
  147.7988  138.8775  154.7791 C   0  0  0  0  0  0  0  0  0  0  0  0
  147.4691  138.2754  155.9528 N   0  0  0  0  0  0  0  0  0  0  0  0
  146.5314  137.3241  155.9818 C   0  0  0  0  0  0  0  0  0  0  0  0
  145.8127  136.8299  154.9720 N   0  0  0  0  0  0  0  0  0  0  0  0
  146.1425  137.4270  153.7909 C   0  0  0  0  0  0  0  0  0  0  0  0
  147.1114  138.4535  153.6085 C   0  0  0  0  0  0  0  0  0  0  0  0
  147.1715  138.8161  152.2685 N   0  0  0  0  0  0  0  0  0  0  0  0
  146.2844  138.0516  151.6924 C   0  0  0  0  0  0  0  0  0  0  0  0
  145.6276  137.1781  152.5302 N   0  0  0  0  0  0  0  0  0  0  0  0
  144.6031  136.2128  152.1605 C   0  0  0  0  0  0  0  0  0  0  0  0
  145.0885  135.1507  151.1452 C   0  0  1  0  0  0  0  0  0  0  0  0
  145.3820  135.7849  149.9121 O   0  0  0  0  0  0  0  0  0  0  0  0
  146.3363  134.4134  151.6136 C   0  0  0  0  0  0  0  0  0  0  0  0
  146.2019  133.0579  150.9329 C   0  0  0  0  0  0  0  0  0  0  0  0
  144.8146  132.7868  151.0381 O   0  0  0  0  0  0  0  0  0  0  0  0
  144.0906  134.0040  150.8807 C   0  0  0  0  0  0  0  0  0  0  0  0
  151.3745  138.3508  155.9312 H   0  0  0  0  0  0  0  0  0  0  0  0
  152.6239  139.3363  155.1786 H   0  0  0  0  0  0  0  0  0  0  0  0
  151.1672  138.9524  154.2881 H   0  0  0  0  0  0  0  0  0  0  0  0
  151.0608  141.2787  155.1230 H   0  0  0  0  0  0  0  0  0  0  0  0
  151.4022  140.1846  157.9482 H   0  0  0  0  0  0  0  0  0  0  0  0
  151.3187  141.8826  157.4771 H   0  0  0  0  0  0  0  0  0  0  0  0
  152.6891  140.9143  156.9946 H   0  0  0  0  0  0  0  0  0  0  0  0
  149.2015  139.5358  156.7836 H   0  0  0  0  0  0  0  0  0  0  0  0
  147.4744  143.1584  156.0446 H   0  0  0  0  0  0  0  0  0  0  0  0
  146.6147  141.7401  154.1911 H   0  0  0  0  0  0  0  0  0  0  0  0
  147.7955  142.9191  153.6671 H   0  0  0  0  0  0  0  0  0  0  0  0
  148.0963  140.4697  152.8169 H   0  0  0  0  0  0  0  0  0  0  0  0
  149.5122  141.2643  153.4315 H   0  0  0  0  0  0  0  0  0  0  0  0
  146.3278  136.8983  156.9533 H   0  0  0  0  0  0  0  0  0  0  0  0
  146.0875  138.1042  150.6317 H   0  0  0  0  0  0  0  0  0  0  0  0
  144.2473  135.7263  153.0698 H   0  0  0  0  0  0  0  0  0  0  0  0
  143.7511  136.7601  151.7552 H   0  0  0  0  0  0  0  0  0  0  0  0
  145.6876  135.1302  149.3032 H   0  0  0  0  0  0  0  0  0  0  0  0
  147.2676  134.9269  151.3703 H   0  0  0  0  0  0  0  0  0  0  0  0
  146.3082  134.2721  152.6951 H   0  0  0  0  0  0  0  0  0  0  0  0
  146.4856  133.1166  149.8810 H   0  0  0  0  0  0  0  0  0  0  0  0
  146.8012  132.2827  151.4104 H   0  0  0  0  0  0  0  0  0  0  0  0
  143.2706  133.9975  151.5980 H   0  0  0  0  0  0  0  0  0  0  0  0
  143.6518  134.0567  149.8831 H   0  0  0  0  0  0  0  0  0  0  0  0
  1  2  1  0  0  0  0
  1 27  1  0  0  0  0
  1 28  1  0  0  0  0
  1 29  1  0  0  0  0
  2  3  1  0  0  0  0
  2  4  1  0  0  0  0
  2 30  1  0  0  0  0
  3 31  1  0  0  0  0
  3 32  1  0  0  0  0
  3 33  1  0  0  0  0
  4 10  1  0  0  0  0
  4  5  1  0  0  0  0
  4 34  1  0  0  0  0
  5  6  2  0  0  0  0
  5  7  1  0  0  0  0
  7  8  1  0  0  0  0
  7 35  1  0  0  0  0
  8  9  1  0  0  0  0
  8 36  1  0  0  0  0
  8 37  1  0  0  0  0
  9 10  1  0  0  0  0
  9 38  1  0  0  0  0
  9 39  1  0  0  0  0
 10 11  1  0  0  0  0
 11 16  1  0  0  0  0
 11 12  2  0  0  0  0
 12 13  1  0  0  0  0
 13 14  2  0  0  0  0
 13 40  1  0  0  0  0
 14 15  1  0  0  0  0
 15 19  1  0  0  0  0
 15 16  2  0  0  0  0
 16 17  1  0  0  0  0
 17 18  2  0  0  0  0
 18 19  1  0  0  0  0
 18 41  1  0  0  0  0
 19 20  1  0  0  0  0
 20 21  1  0  0  0  0
 20 42  1  0  0  0  0
 20 43  1  0  0  0  0
 21 26  1  0  0  0  0
 21 22  1  0  0  0  0
 21 23  1  0  0  0  0
 22 44  1  0  0  0  0
 23 24  1  0  0  0  0
 23 45  1  0  0  0  0
 23 46  1  0  0  0  0
 24 25  1  0  0  0  0
 24 47  1  0  0  0  0
 24 48  1  0  0  0  0
 25 26  1  0  0  0  0
 26 49  1  0  0  0  0
 26 50  1  0  0  0  0
M  END
> <s_m_source_file>
AV-unprocessed.smi

> <i_m_source_file_index>
274

> <i_lp_mmshare_version>
43012

> <i_f3d_flags>
0

> <s_epik_input>
W0NIM11bQ0hdKFtDSDNdKVtDQEBIXTFDKD1PKVtOSF1bQ0gyXVtDSDJdTjFjKG5bY0hdbjIpYyhjMjMpbltjSF1uM1tDSDJdW0NAQF00KFtPSF0pW0NIMl1bQ0gyXU9bQ0gyXTQ=

> <s_epik_cmdline>
J2VwaWtfcHl0aG9uJywgJy1waCcsICc3LjAnLCAnLXRuJywgJzgnLCAnLW1hJywgJzIwMCcsICctbWV0YWxfYmluZGluZycsICctaW1hZScsICc8aW5maWxlLm1hZT4nLCAnLW9tYWUnLCAnPG91dGZpbGUubWFlPic=

> <r_lp_tautomer_probability>
1

> <r_epik_Ionization_Penalty>
0.000690079

> <r_epik_Ionization_Penalty_Charging>
0

> <r_epik_Ionization_Penalty_Neutral>
0.000690079

> <r_epik_State_Penalty>
0.000321372

> <r_epik_Charging_Adjusted_Penalty>
0.000321372

> <i_epik_Tot_Q>
0

> <i_epik_Tot_abs_Q>
0

> <r_epik_Metal_State_Penalty>
-0

> <b_epik_Metal_Only>
0

> <s_lp_Force_Field>
OPLS_2005

> <r_lp_Energy>
42.7916

> <b_lp_Chiralities_Consistent>
1

> <s_lp_Variant>
AV-unprocessed.smi:274-2

> <Gold.Version>
5.8.1

> <Gold.Id.Protein>
6NUR|6NUR_protein|mol2

> <Gold.PLP.Fitness>
43.0958

> <Gold.PLP.PLP>
-37.4292

> <Gold.PLP.part.hbond>
-3.0000

> <Gold.PLP.part.metal>
0.0000

> <Gold.PLP.part.buried>
-2.7322

> <Gold.PLP.part.nonpolar>
-33.3655

> <Gold.PLP.part.repulsive>
1.7216

> <Gold.PLP.ligand.clash>
0.0000

> <Gold.PLP.ligand.torsion>
0.2503

> <Gold.PLP.Chemscore.Hbond>
1.0081

> <Gold.PLP.Chemscore.CHOScore>
0.9493

> <Gold.PLP.Chemscore.Metal>
0.0000

> <Gold.Chemscore.Hbonds>
donor molecule, donor type, donor heavy atom, donor atom, acceptor molecule, acceptor atom, score
      L1  H     7    35       P1  8028  0.06
      L1  H    22    44       P1  7921  0.90
      L1  C    18    41       P1 10171  0.83

> <Gold.PLP.Chemscore.Internal.Correction>
0.2950

> <Gold.Rescore>
     Score         DG    S(hbond)    S(metal)    S(lipo)     H(rot)  DE(clash)    DE(int)     intcor
      7.71     -11.16       0.99        0.00      67.15       2.14       0.04       3.41       ----

> <Gold.Chemscore.Fitness>
7.7113

> <Gold.Chemscore.DG>
-11.1614

> <Gold.Chemscore.ZeroCoef>
-5.4800

> <Gold.Chemscore.Hbond>
0.9914

> <Gold.Chemscore.Metal>
0.0000

> <Gold.Chemscore.Lipo>
67.1476

> <Gold.Chemscore.Internal_Hbond>
0.0000

> <Gold.Chemscore.DEClash>
0.0424

> <Gold.Chemscore.DEInternal>
3.4077

> <Gold.Chemscore.Rot>
2.1431

> <Gold.Chemscore.Internal.Correction>
   9.000000E+99

> <Gold.Chemscore.Hbonds>
donor molecule, donor type, donor heavy atom, donor atom, acceptor molecule, acceptor atom, score
      L1  H     7    35       P1  8028  0.01
      L1  H    22    44       P1  7921  0.86

> <Gold.Chemscore.Hbond.Weighted>
-3.3114

> <Gold.Chemscore.Metal.Weighted>
-0.0000

> <Gold.Chemscore.Lipo.Weighted>
-7.8563

> <Gold.Chemscore.Internal_Hbond.Weighted>
0.0000

> <Gold.Chemscore.DEClash.Weighted>
0.0424

> <Gold.Chemscore.DEInternal.Weighted>
3.4077

> <Gold.Chemscore.Rot.Weighted>
5.4863

> <Gold.Chemscore.Internal.Correction.Weighted>
   9.000000E+99

> <Gold.Protein.RotatedTorsions>
[ 6907 6896 6895 6894 ] final   36.58 input  -60.11 | X-H torsion
[ 7974 7965 7964 7962 ] final   93.71 input  175.53 | X-H torsion
[ 8008 7997 7996 7995 ] final   66.37 input   59.86 | X-H torsion
[ 10167 10162 10161 10158 ] final -112.71 input  -65.29 | X-H torsion
[ 10718 10713 10712 10709 ] final  -23.78 input   66.30 | X-H torsion
[ 10763 10752 10751 10750 ] final   57.27 input  -60.55 | X-H torsion
[ 11005 11000 10999 10996 ] final  125.76 input  -57.11 | X-H torsion

> <Gold.Protein.ActiveResidues>
 VAL166  LYS551  ARG553  GLY616  TRP617  ASP618  TYR619  PRO620  LYS621  CYS622 
 ASP623  PHE694  ASN695  SER759  ASP760  ASP761  ALA762  ILE779  LEU786  VAL792 
 PHE793  MET794  SER795  GLU796  ALA797  LYS798  CYS799  TRP800  GLU811  SER814 

> <Gold.Protein.RotatedAtoms>
  152.1316  134.9130  160.0558 H   0  0  0  0  0  0  0  0  0  0  0  0  # atno 6907 bound_to 6896
  152.0233  133.3902  159.4275 H   0  0  0  0  0  0  0  0  0  0  0  0  # atno 6908 bound_to 6896
  150.6857  134.3523  159.4958 H   0  0  0  0  0  0  0  0  0  0  0  0  # atno 6909 bound_to 6896
  145.4753  139.2280  143.2912 H   0  0  0  0  0  0  0  0  0  0  0  0  # atno 7974 bound_to 7965
  155.6762  140.3497  155.4837 H   0  0  0  0  0  0  0  0  0  0  0  0  # atno 8008 bound_to 7997
  155.9645  140.1144  157.0889 H   0  0  0  0  0  0  0  0  0  0  0  0  # atno 8009 bound_to 7997
  154.4151  140.1169  156.5210 H   0  0  0  0  0  0  0  0  0  0  0  0  # atno 8010 bound_to 7997
  140.1198  143.4453  152.1698 H   0  0  0  0  0  0  0  0  0  0  0  0  # atno 10167 bound_to 10162
  156.4864  130.4556  149.6781 H   0  0  0  0  0  0  0  0  0  0  0  0  # atno 10718 bound_to 10713
  152.9847  135.5647  154.5363 H   0  0  0  0  0  0  0  0  0  0  0  0  # atno 10763 bound_to 10752
  154.4826  135.2789  155.1561 H   0  0  0  0  0  0  0  0  0  0  0  0  # atno 10764 bound_to 10752
  154.3064  135.6297  153.5499 H   0  0  0  0  0  0  0  0  0  0  0  0  # atno 10765 bound_to 10752
  139.9422  134.9634  156.8606 H   0  0  0  0  0  0  0  0  0  0  0  0  # atno 11005 bound_to 11000
  146.2372  140.5535  142.8949 LP  0  0  0  0  0  0  0  0  0  0  0  0  # atno 17320 bound_to 7965
  144.7921  140.6051  143.6535 LP  0  0  0  0  0  0  0  0  0  0  0  0  # atno 17321 bound_to 7965
  139.5575  144.7383  151.4252 LP  0  0  0  0  0  0  0  0  0  0  0  0  # atno 17342 bound_to 10162
  140.6878  143.7932  150.7212 LP  0  0  0  0  0  0  0  0  0  0  0  0  # atno 17343 bound_to 10162
  156.3470  130.7412  151.2366 LP  0  0  0  0  0  0  0  0  0  0  0  0  # atno 17370 bound_to 10713
  157.7478  131.0388  150.4518 LP  0  0  0  0  0  0  0  0  0  0  0  0  # atno 17371 bound_to 10713
  140.5923  134.0250  155.7504 LP  0  0  0  0  0  0  0  0  0  0  0  0  # atno 17394 bound_to 11000
  141.1061  133.9691  157.2994 LP  0  0  0  0  0  0  0  0  0  0  0  0  # atno 17395 bound_to 11000

$$$$
