AV-unprocessed.smi:3047|AV-procd|sdf|11624|dock5
  -GOLD-   2272017 13D 1   1.00000     0.00000
 Structure written by MMmdl.
 37 38  0  0  0  0  0  0  0  0  1 V2000
  148.3970  131.8321  159.8931 C   0  0  0  0  0  0  0  0  0  0  0  0
  147.9412  133.5179  159.3113 S   0  0  0  0  0  0  0  0  0  0  0  0
  149.0966  134.0764  158.5925 O   0  0  0  0  0  0  0  0  0  0  0  0
  146.6274  133.4518  158.6530 O   0  0  0  0  0  0  0  0  0  0  0  0
  147.7637  134.4180  160.7844 N   0  0  0  0  0  0  0  0  0  0  0  0
  146.8549  134.0002  161.8489 C   0  0  0  0  0  0  0  0  0  0  0  0
  147.1951  134.9246  163.0141 C   0  0  0  0  0  0  0  0  0  0  0  0
  147.6353  136.2212  162.3390 C   0  0  0  0  0  0  0  0  0  0  0  0
  148.2819  135.7801  161.0080 C   0  0  2  0  0  0  0  0  0  0  0  0
  148.0115  136.7776  159.8706 C   0  0  0  0  0  0  0  0  0  0  0  0
  146.8893  137.2586  159.7091 O   0  0  0  0  0  0  0  0  0  0  0  0
  149.0475  137.0574  159.0675 N   0  0  0  0  0  0  0  0  0  0  0  0
  148.9722  137.9169  157.8956 C   0  0  0  0  0  0  0  0  0  0  0  0
  150.3266  138.5886  157.6354 C   0  0  0  0  0  0  0  0  0  0  0  0
  150.5835  138.7328  156.2170 N   0  0  0  0  0  0  0  0  0  0  0  0
  149.8664  138.1638  155.1729 C   0  0  0  0  0  0  0  0  0  0  0  0
  150.4766  138.5735  154.0087 C   0  0  0  0  0  0  0  0  0  0  0  0
  151.5649  139.3888  154.3114 N   0  0  0  0  0  0  0  0  0  0  0  0
  151.5654  139.4369  155.6373 C   0  0  0  0  0  0  0  0  0  0  0  0
  148.6225  131.2041  159.0316 H   0  0  0  0  0  0  0  0  0  0  0  0
  147.5710  131.3888  160.4463 H   0  0  0  0  0  0  0  0  0  0  0  0
  149.2754  131.8916  160.5348 H   0  0  0  0  0  0  0  0  0  0  0  0
  145.8260  134.1447  161.5175 H   0  0  0  0  0  0  0  0  0  0  0  0
  146.9977  132.9493  162.1015 H   0  0  0  0  0  0  0  0  0  0  0  0
  146.3593  135.0662  163.6997 H   0  0  0  0  0  0  0  0  0  0  0  0
  148.0269  134.5063  163.5826 H   0  0  0  0  0  0  0  0  0  0  0  0
  146.7592  136.8524  162.1833 H   0  0  0  0  0  0  0  0  0  0  0  0
  148.3300  136.7830  162.9642 H   0  0  0  0  0  0  0  0  0  0  0  0
  149.3597  135.6923  161.1551 H   0  0  0  0  0  0  0  0  0  0  0  0
  149.9342  136.6131  159.2581 H   0  0  0  0  0  0  0  0  0  0  0  0
  148.6787  137.3212  157.0296 H   0  0  0  0  0  0  0  0  0  0  0  0
  148.1985  138.6711  158.0481 H   0  0  0  0  0  0  0  0  0  0  0  0
  150.3591  139.5768  158.0965 H   0  0  0  0  0  0  0  0  0  0  0  0
  151.1349  138.0037  158.0771 H   0  0  0  0  0  0  0  0  0  0  0  0
  149.0068  137.5315  155.3398 H   0  0  0  0  0  0  0  0  0  0  0  0
  150.2189  138.3456  152.9848 H   0  0  0  0  0  0  0  0  0  0  0  0
  152.2986  139.9961  156.2002 H   0  0  0  0  0  0  0  0  0  0  0  0
  1  2  1  0  0  0  0
  1 20  1  0  0  0  0
  1 21  1  0  0  0  0
  1 22  1  0  0  0  0
  2  3  2  0  0  0  0
  2  4  2  0  0  0  0
  2  5  1  0  0  0  0
  5  9  1  0  0  0  0
  5  6  1  0  0  0  0
  6  7  1  0  0  0  0
  6 23  1  0  0  0  0
  6 24  1  0  0  0  0
  7  8  1  0  0  0  0
  7 25  1  0  0  0  0
  7 26  1  0  0  0  0
  8  9  1  0  0  0  0
  8 27  1  0  0  0  0
  8 28  1  0  0  0  0
  9 10  1  0  0  0  0
  9 29  1  0  0  0  0
 10 11  2  0  0  0  0
 10 12  1  0  0  0  0
 12 13  1  0  0  0  0
 12 30  1  0  0  0  0
 13 14  1  0  0  0  0
 13 31  1  0  0  0  0
 13 32  1  0  0  0  0
 14 15  1  0  0  0  0
 14 33  1  0  0  0  0
 14 34  1  0  0  0  0
 15 19  1  0  0  0  0
 15 16  1  0  0  0  0
 16 17  2  0  0  0  0
 16 35  1  0  0  0  0
 17 18  1  0  0  0  0
 17 36  1  0  0  0  0
 18 19  2  0  0  0  0
 19 37  1  0  0  0  0
M  END
> <s_m_source_file>
AV-unprocessed.smi

> <i_m_source_file_index>
3047

> <i_lp_mmshare_version>
43012

> <i_f3d_flags>
0

> <s_epik_input>
W0NIM11TKD1PKSg9TylOMVtDSDJdW0NIMl1bQ0gyXVtDQEhdMUMoPU8pW05IXVtDSDJdW0NIMl1uMltjSF1bY0hdbltjSF0y

> <s_epik_cmdline>
J2VwaWtfcHl0aG9uJywgJy1waCcsICc3LjAnLCAnLXRuJywgJzgnLCAnLW1hJywgJzIwMCcsICctbWV0YWxfYmluZGluZycsICctaW1hZScsICc8aW5maWxlLm1hZT4nLCAnLW9tYWUnLCAnPG91dGZpbGUubWFlPic=

> <r_lp_tautomer_probability>
1

> <r_epik_Ionization_Penalty>
0.575721

> <r_epik_Ionization_Penalty_Charging>
0.575721

> <r_epik_Ionization_Penalty_Neutral>
1.33078e-07

> <r_epik_State_Penalty>
0.588056

> <r_epik_Charging_Adjusted_Penalty>
1.16378

> <i_epik_Tot_Q>
0

> <i_epik_Tot_abs_Q>
0

> <r_epik_Metal_State_Penalty>
0.294357

> <b_epik_Metal_Only>
0

> <s_lp_Force_Field>
OPLS_2005

> <r_lp_Energy>
9.27481

> <b_lp_Chiralities_Consistent>
1

> <s_lp_Variant>
AV-unprocessed.smi:3047-4

> <Gold.Version>
5.8.1

> <Gold.Id.Protein>
6NUR|6NUR_protein|mol2

> <Gold.PLP.Fitness>
41.2562

> <Gold.PLP.PLP>
-28.7348

> <Gold.PLP.part.hbond>
-3.0000

> <Gold.PLP.part.metal>
0.0000

> <Gold.PLP.part.buried>
-1.6628

> <Gold.PLP.part.nonpolar>
-24.6131

> <Gold.PLP.part.repulsive>
0.3437

> <Gold.PLP.ligand.clash>
0.0000

> <Gold.PLP.ligand.torsion>
2.0806

> <Gold.PLP.Chemscore.Hbond>
3.0000

> <Gold.PLP.Chemscore.CHOScore>
1.8810

> <Gold.PLP.Chemscore.Metal>
0.0000

> <Gold.Chemscore.Hbonds>
donor molecule, donor type, donor heavy atom, donor atom, acceptor molecule, acceptor atom, score
      P1  H  6896  6909       L1     3  1.00
      P1  H  6934  6947       L1    11  0.59
      P1  H  7989  7998       L1    18  1.00
      L1  C    17    36       P1  7948  0.67
      L1  C    17    36       P1  7957  0.92

> <Gold.PLP.Chemscore.Internal.Correction>
2.0395

> <Gold.Rescore>
     Score         DG    S(hbond)    S(metal)    S(lipo)     H(rot)  DE(clash)    DE(int)     intcor
     13.30     -16.35       2.81        0.00      57.01       2.03       0.82       2.23       ----

> <Gold.Chemscore.Fitness>
13.2959

> <Gold.Chemscore.DG>
-16.3510

> <Gold.Chemscore.ZeroCoef>
-5.4800

> <Gold.Chemscore.Hbond>
2.8106

> <Gold.Chemscore.Metal>
0.0000

> <Gold.Chemscore.Lipo>
57.0078

> <Gold.Chemscore.Internal_Hbond>
0.0000

> <Gold.Chemscore.DEClash>
0.8219

> <Gold.Chemscore.DEInternal>
2.2332

> <Gold.Chemscore.Rot>
2.0259

> <Gold.Chemscore.Internal.Correction>
   9.000000E+99

> <Gold.Chemscore.Hbonds>
donor molecule, donor type, donor heavy atom, donor atom, acceptor molecule, acceptor atom, score
      P1  H  6896  6909       L1     3  0.97
      P1  H  6934  6947       L1    11  0.10
      P1  H  7989  7998       L1    18  0.87

> <Gold.Chemscore.Hbond.Weighted>
-9.3873

> <Gold.Chemscore.Metal.Weighted>
-0.0000

> <Gold.Chemscore.Lipo.Weighted>
-6.6699

> <Gold.Chemscore.Internal_Hbond.Weighted>
0.0000

> <Gold.Chemscore.DEClash.Weighted>
0.8219

> <Gold.Chemscore.DEInternal.Weighted>
2.2332

> <Gold.Chemscore.Rot.Weighted>
5.1863

> <Gold.Chemscore.Internal.Correction.Weighted>
   9.000000E+99

> <Gold.Protein.RotatedTorsions>
[ 6907 6896 6895 6894 ] final   34.39 input  -60.11 | X-H torsion
[ 7974 7965 7964 7962 ] final   99.55 input  175.53 | X-H torsion
[ 8008 7997 7996 7995 ] final -118.73 input   59.86 | X-H torsion
[ 10167 10162 10161 10158 ] final  124.10 input  -65.29 | X-H torsion
[ 10718 10713 10712 10709 ] final   81.54 input   66.30 | X-H torsion
[ 10763 10752 10751 10750 ] final  -82.62 input  -60.55 | X-H torsion
[ 11005 11000 10999 10996 ] final  127.08 input  -57.11 | X-H torsion

> <Gold.Protein.ActiveResidues>
 VAL166  LYS551  ARG553  GLY616  TRP617  ASP618  TYR619  PRO620  LYS621  CYS622 
 ASP623  PHE694  ASN695  SER759  ASP760  ASP761  ALA762  ILE779  LEU786  VAL792 
 PHE793  MET794  SER795  GLU796  ALA797  LYS798  CYS799  TRP800  GLU811  SER814 

> <Gold.Protein.RotatedAtoms>
  152.1017  134.9337  160.0569 H   0  0  0  0  0  0  0  0  0  0  0  0  # atno 6907 bound_to 6896
  152.0549  133.4031  159.4401 H   0  0  0  0  0  0  0  0  0  0  0  0  # atno 6908 bound_to 6896
  150.6839  134.3186  159.4820 H   0  0  0  0  0  0  0  0  0  0  0  0  # atno 6909 bound_to 6896
  145.3974  139.2353  143.3319 H   0  0  0  0  0  0  0  0  0  0  0  0  # atno 7974 bound_to 7965
  155.1044  140.0396  157.2706 H   0  0  0  0  0  0  0  0  0  0  0  0  # atno 8008 bound_to 7997
  154.6733  140.2617  155.6958 H   0  0  0  0  0  0  0  0  0  0  0  0  # atno 8009 bound_to 7997
  156.2667  140.2793  156.1251 H   0  0  0  0  0  0  0  0  0  0  0  0  # atno 8010 bound_to 7997
  139.5761  144.6964  151.3650 H   0  0  0  0  0  0  0  0  0  0  0  0  # atno 10167 bound_to 10162
  157.6835  131.0008  150.2242 H   0  0  0  0  0  0  0  0  0  0  0  0  # atno 10718 bound_to 10713
  154.5780  135.5585  153.7158 H   0  0  0  0  0  0  0  0  0  0  0  0  # atno 10763 bound_to 10752
  153.0071  135.6313  154.2022 H   0  0  0  0  0  0  0  0  0  0  0  0  # atno 10764 bound_to 10752
  154.1963  135.2880  155.2985 H   0  0  0  0  0  0  0  0  0  0  0  0  # atno 10765 bound_to 10752
  139.9489  134.9625  156.8802 H   0  0  0  0  0  0  0  0  0  0  0  0  # atno 11005 bound_to 11000
  146.2768  140.4666  142.8792 LP  0  0  0  0  0  0  0  0  0  0  0  0  # atno 17320 bound_to 7965
  144.8398  140.6839  143.6237 LP  0  0  0  0  0  0  0  0  0  0  0  0  # atno 17321 bound_to 7965
  140.7043  143.7553  150.7456 LP  0  0  0  0  0  0  0  0  0  0  0  0  # atno 17342 bound_to 10162
  140.1073  143.4732  152.2391 LP  0  0  0  0  0  0  0  0  0  0  0  0  # atno 17343 bound_to 10162
  156.2887  130.3743  149.7863 LP  0  0  0  0  0  0  0  0  0  0  0  0  # atno 17370 bound_to 10713
  156.5529  130.8349  151.3305 LP  0  0  0  0  0  0  0  0  0  0  0  0  # atno 17371 bound_to 10713
  140.5767  134.0391  155.7449 LP  0  0  0  0  0  0  0  0  0  0  0  0  # atno 17394 bound_to 11000
  141.1147  133.9560  157.2845 LP  0  0  0  0  0  0  0  0  0  0  0  0  # atno 17395 bound_to 11000

$$$$
