AV-unprocessed.smi:658|AV-procd|sdf|3230|dock8
  -GOLD-   22720 0173D 1   1.00000     0.00000
 Structure written by MMmdl.
 38 38  0  0  0  0  0  0  0  0  2 V2000
  151.6187  141.1474  158.0936 C   0  0  0  0  0  0  0  0  0  0  0  0
  150.6852  142.3361  158.3775 C   0  0  2  0  0  0  0  0  0  0  0  0
  150.0004  142.7021  157.1151 N   0  3  0  0  0  0  0  0  0  0  0  0
  148.9376  141.7716  156.6820 C   0  0  0  0  0  0  0  0  0  0  0  0
  148.8702  141.6934  155.1525 C   0  0  0  0  0  0  0  0  0  0  0  0
  147.9836  140.5401  154.6627 C   0  0  0  0  0  0  0  0  0  0  0  0
  148.9781  139.0350  154.2785 S   0  0  0  0  0  0  0  0  0  0  0  0
  148.3454  138.5636  152.7508 N   0  0  0  0  0  0  0  0  0  0  0  0
  150.3823  139.4215  154.0729 O   0  0  0  0  0  0  0  0  0  0  0  0
  148.6189  137.9813  155.2390 O   0  0  0  0  0  0  0  0  0  0  0  0
  151.4404  143.5592  158.9669 C   0  0  2  0  0  0  0  0  0  0  0  0
  152.4031  144.2277  157.9666 C   0  0  0  0  0  0  0  0  0  0  0  0
  152.1624  143.2025  160.1832 N   0  0  0  0  0  0  0  0  0  0  0  0
  152.0497  143.7410  161.4504 C   0  0  0  0  0  0  0  0  0  0  0  0
  152.9581  143.1056  162.2472 C   0  0  0  0  0  0  0  0  0  0  0  0
  153.5978  142.1899  161.3669 C   0  0  0  0  0  0  0  0  0  0  0  0
  153.1276  142.2576  160.1319 N   0  0  0  0  0  0  0  0  0  0  0  0
  152.0525  140.7459  159.0092 H   0  0  0  0  0  0  0  0  0  0  0  0
  152.4368  141.4325  157.4311 H   0  0  0  0  0  0  0  0  0  0  0  0
  151.0762  140.3302  157.6171 H   0  0  0  0  0  0  0  0  0  0  0  0
  149.9404  141.9975  159.1005 H   0  0  0  0  0  0  0  0  0  0  0  0
  149.6017  143.6236  157.2278 H   0  0  0  0  0  0  0  0  0  0  0  0
  149.1352  140.7845  157.1019 H   0  0  0  0  0  0  0  0  0  0  0  0
  147.9751  142.1004  157.0734 H   0  0  0  0  0  0  0  0  0  0  0  0
  148.4851  142.6354  154.7595 H   0  0  0  0  0  0  0  0  0  0  0  0
  149.8769  141.5764  154.7500 H   0  0  0  0  0  0  0  0  0  0  0  0
  147.2672  140.2694  155.4390 H   0  0  0  0  0  0  0  0  0  0  0  0
  147.4149  140.8134  153.7735 H   0  0  0  0  0  0  0  0  0  0  0  0
  148.4712  137.5708  152.5538 H   0  0  0  0  0  0  0  0  0  0  0  0
  148.6138  139.1916  151.9934 H   0  0  0  0  0  0  0  0  0  0  0  0
  150.6984  144.3126  159.2397 H   0  0  0  0  0  0  0  0  0  0  0  0
  151.8672  144.6781  157.1317 H   0  0  0  0  0  0  0  0  0  0  0  0
  153.1181  143.5138  157.5569 H   0  0  0  0  0  0  0  0  0  0  0  0
  152.9693  145.0277  158.4454 H   0  0  0  0  0  0  0  0  0  0  0  0
  151.3411  144.5235  161.6792 H   0  0  0  0  0  0  0  0  0  0  0  0
  153.1396  143.2709  163.2990 H   0  0  0  0  0  0  0  0  0  0  0  0
  154.3874  141.4862  161.5862 H   0  0  0  0  0  0  0  0  0  0  0  0
  150.6922  142.7415  156.3801 H   0  0  0  0  0  0  0  0  0  0  0  0
  1  2  1  0  0  0  0
  1 18  1  0  0  0  0
  1 19  1  0  0  0  0
  1 20  1  0  0  0  0
  2  3  1  0  0  0  0
  2 11  1  0  0  0  0
  2 21  1  0  0  0  0
  3  4  1  0  0  0  0
  3 22  1  0  0  0  0
  3 38  1  0  0  0  0
  4  5  1  0  0  0  0
  4 23  1  0  0  0  0
  4 24  1  0  0  0  0
  5  6  1  0  0  0  0
  5 25  1  0  0  0  0
  5 26  1  0  0  0  0
  6  7  1  0  0  0  0
  6 27  1  0  0  0  0
  6 28  1  0  0  0  0
  7  8  1  0  0  0  0
  7  9  2  0  0  0  0
  7 10  2  0  0  0  0
  8 29  1  0  0  0  0
  8 30  1  0  0  0  0
 11 12  1  0  0  0  0
 11 13  1  0  0  0  0
 11 31  1  0  0  0  0
 12 32  1  0  0  0  0
 12 33  1  0  0  0  0
 12 34  1  0  0  0  0
 13 17  1  0  0  0  0
 13 14  1  0  0  0  0
 14 15  2  0  0  0  0
 14 35  1  0  0  0  0
 15 16  1  0  0  0  0
 15 36  1  0  0  0  0
 16 17  2  0  0  0  0
 16 37  1  0  0  0  0
M  CHG  1   3   1
M  END
> <s_m_source_file>
AV-unprocessed.smi

> <i_m_source_file_index>
658

> <i_lp_mmshare_version>
43012

> <i_f3d_flags>
0

> <s_epik_input>
bjFbY0hdW2NIXVtjSF1uMVtDQEBIXShbQ0gzXSlbQ0BIXShbQ0gzXSlbTkhdW0NIMl1bQ0gyXVtDSDJdUyg9TykoPU8pW05IMl0=

> <s_epik_cmdline>
J2VwaWtfcHl0aG9uJywgJy1waCcsICc3LjAnLCAnLXRuJywgJzgnLCAnLW1hJywgJzIwMCcsICctbWV0YWxfYmluZGluZycsICctaW1hZScsICc8aW5maWxlLm1hZT4nLCAnLW9tYWUnLCAnPG91dGZpbGUubWFlPic=

> <r_lp_tautomer_probability>
1

> <r_epik_Ionization_Penalty>
0.00535781

> <r_epik_Ionization_Penalty_Charging>
0.00511015

> <r_epik_Ionization_Penalty_Neutral>
0.000247661

> <r_epik_State_Penalty>
-0

> <r_epik_Charging_Adjusted_Penalty>
0.00511015

> <i_epik_Tot_Q>
1

> <i_epik_Tot_abs_Q>
1

> <r_epik_Metal_State_Penalty>
0.149106

> <b_epik_Metal_Only>
0

> <s_lp_Force_Field>
OPLS_2005

> <r_lp_Energy>
8.18413

> <b_lp_Chiralities_Consistent>
1

> <s_lp_Variant>
AV-unprocessed.smi:658-1

> <Gold.Version>
5.8.1

> <Gold.Id.Protein>
6NUR|6NUR_protein|mol2

> <Gold.PLP.Fitness>
47.7526

> <Gold.PLP.PLP>
-37.4162

> <Gold.PLP.part.hbond>
-3.9047

> <Gold.PLP.part.metal>
0.0000

> <Gold.PLP.part.buried>
-4.2720

> <Gold.PLP.part.nonpolar>
-29.4972

> <Gold.PLP.part.repulsive>
0.4533

> <Gold.PLP.ligand.clash>
0.0000

> <Gold.PLP.ligand.torsion>
0.9487

> <Gold.PLP.Chemscore.Hbond>
3.9920

> <Gold.PLP.Chemscore.CHOScore>
0.0000

> <Gold.PLP.Chemscore.Metal>
0.0000

> <Gold.Chemscore.Hbonds>
donor molecule, donor type, donor heavy atom, donor atom, acceptor molecule, acceptor atom, score
      L1  H     3    22       P1  8028  0.96
      L1  H     8    29       P1  7948  1.00
      L1  H     8    30       P1  7957  0.99
      P1  H  7989  7998       L1     9  1.00

> <Gold.PLP.Chemscore.Internal.Correction>
0.2578

> <Gold.Rescore>
     Score         DG    S(hbond)    S(metal)    S(lipo)     H(rot)  DE(clash)    DE(int)     intcor
     16.53     -18.93       3.23        0.00      91.16       3.13       0.13       2.27       ----

> <Gold.Chemscore.Fitness>
16.5331

> <Gold.Chemscore.DG>
-18.9272

> <Gold.Chemscore.ZeroCoef>
-5.4800

> <Gold.Chemscore.Hbond>
3.2329

> <Gold.Chemscore.Metal>
0.0000

> <Gold.Chemscore.Lipo>
91.1572

> <Gold.Chemscore.Internal_Hbond>
0.0000

> <Gold.Chemscore.DEClash>
0.1274

> <Gold.Chemscore.DEInternal>
2.2667

> <Gold.Chemscore.Rot>
3.1312

> <Gold.Chemscore.Internal.Correction>
   9.000000E+99

> <Gold.Chemscore.Hbonds>
donor molecule, donor type, donor heavy atom, donor atom, acceptor molecule, acceptor atom, score
      L1  H     3    22       P1  8028  0.37
      L1  H     8    29       P1  7948  0.95
      L1  H     8    30       P1  7957  0.90
      P1  H  7989  7998       L1     9  0.96

> <Gold.Chemscore.Hbond.Weighted>
-10.7977

> <Gold.Chemscore.Metal.Weighted>
-0.0000

> <Gold.Chemscore.Lipo.Weighted>
-10.6654

> <Gold.Chemscore.Internal_Hbond.Weighted>
0.0000

> <Gold.Chemscore.DEClash.Weighted>
0.1274

> <Gold.Chemscore.DEInternal.Weighted>
2.2667

> <Gold.Chemscore.Rot.Weighted>
8.0160

> <Gold.Chemscore.Internal.Correction.Weighted>
   9.000000E+99

> <Gold.Protein.RotatedTorsions>
[ 6907 6896 6895 6894 ] final   11.22 input  -60.11 | X-H torsion
[ 7974 7965 7964 7962 ] final -143.69 input  175.53 | X-H torsion
[ 8008 7997 7996 7995 ] final   14.07 input   59.86 | X-H torsion
[ 10167 10162 10161 10158 ] final  -56.15 input  -65.29 | X-H torsion
[ 10718 10713 10712 10709 ] final   71.11 input   66.30 | X-H torsion
[ 10763 10752 10751 10750 ] final -134.55 input  -60.55 | X-H torsion
[ 11005 11000 10999 10996 ] final  171.27 input  -57.11 | X-H torsion

> <Gold.Protein.ActiveResidues>
 VAL166  LYS551  ARG553  GLY616  TRP617  ASP618  TYR619  PRO620  LYS621  CYS622 
 ASP623  PHE694  ASN695  SER759  ASP760  ASP761  ALA762  ILE779  LEU786  VAL792 
 PHE793  MET794  SER795  GLU796  ALA797  LYS798  CYS799  TRP800  GLU811  SER814 

> <Gold.Protein.RotatedAtoms>
  151.7509  135.0833  160.0330 H   0  0  0  0  0  0  0  0  0  0  0  0  # atno 6907 bound_to 6896
  152.3418  133.6071  159.5890 H   0  0  0  0  0  0  0  0  0  0  0  0  # atno 6908 bound_to 6896
  150.7484  133.9627  159.3562 H   0  0  0  0  0  0  0  0  0  0  0  0  # atno 6909 bound_to 6896
  144.8351  140.5803  143.5489 H   0  0  0  0  0  0  0  0  0  0  0  0  # atno 7974 bound_to 7965
  154.8433  140.2918  155.5645 H   0  0  0  0  0  0  0  0  0  0  0  0  # atno 8008 bound_to 7997
  156.3013  140.2510  156.3311 H   0  0  0  0  0  0  0  0  0  0  0  0  # atno 8009 bound_to 7997
  154.9101  140.0389  157.1931 H   0  0  0  0  0  0  0  0  0  0  0  0  # atno 8010 bound_to 7997
  140.6334  143.2470  151.5183 H   0  0  0  0  0  0  0  0  0  0  0  0  # atno 10167 bound_to 10162
  157.6435  130.9512  150.0744 H   0  0  0  0  0  0  0  0  0  0  0  0  # atno 10718 bound_to 10713
  154.8717  135.3731  154.4754 H   0  0  0  0  0  0  0  0  0  0  0  0  # atno 10763 bound_to 10752
  153.5411  135.7026  153.5641 H   0  0  0  0  0  0  0  0  0  0  0  0  # atno 10764 bound_to 10752
  153.3802  135.3998  155.1816 H   0  0  0  0  0  0  0  0  0  0  0  0  # atno 10765 bound_to 10752
  140.3172  134.7467  157.4037 H   0  0  0  0  0  0  0  0  0  0  0  0  # atno 11005 bound_to 11000
  145.4812  139.1495  143.3761 LP  0  0  0  0  0  0  0  0  0  0  0  0  # atno 17320 bound_to 7965
  146.2651  140.4948  142.8837 LP  0  0  0  0  0  0  0  0  0  0  0  0  # atno 17321 bound_to 7965
  139.5546  144.2309  152.1589 LP  0  0  0  0  0  0  0  0  0  0  0  0  # atno 17342 bound_to 10162
  140.1559  144.5071  150.6660 LP  0  0  0  0  0  0  0  0  0  0  0  0  # atno 17343 bound_to 10162
  156.1739  130.3647  149.9127 LP  0  0  0  0  0  0  0  0  0  0  0  0  # atno 17370 bound_to 10713
  156.7096  130.8965  151.3608 LP  0  0  0  0  0  0  0  0  0  0  0  0  # atno 17371 bound_to 10713
  140.0973  134.5520  155.8386 LP  0  0  0  0  0  0  0  0  0  0  0  0  # atno 17394 bound_to 11000
  141.2095  133.6684  156.6442 LP  0  0  0  0  0  0  0  0  0  0  0  0  # atno 17395 bound_to 11000

$$$$
