AV-unprocessed.smi:1930|AV-procd|sdf|7809|dock9
  -GOLD-   22720 9553D 1   1.00000     0.00000
 Structure written by MMmdl.
 41 42  0  0  0  0  0  0  0  0  1 V2000
  154.4005  134.6864  164.8795 C   0  0  0  0  0  0  0  0  0  0  0  0
  155.6598  134.4790  163.5550 S   0  0  0  0  0  0  0  0  0  0  0  0
  156.9513  134.1753  164.1904 O   0  0  0  0  0  0  0  0  0  0  0  0
  155.1142  133.5659  162.5391 O   0  0  0  0  0  0  0  0  0  0  0  0
  155.7741  136.0618  162.8434 N   0  0  0  0  0  0  0  0  0  0  0  0
  154.6127  136.9774  162.9240 C   0  0  0  0  0  0  0  0  0  0  0  0
  153.8769  137.0801  161.5740 C   0  0  0  0  0  0  0  0  0  0  0  0
  154.8444  137.4608  160.5365 N   0  0  0  0  0  0  0  0  0  0  0  0
  154.9828  138.6838  159.9665 C   0  0  0  0  0  0  0  0  0  0  0  0
  155.8369  138.9395  159.1167 O   0  0  0  0  0  0  0  0  0  0  0  0
  154.0923  139.6000  160.3796 N   0  0  0  0  0  0  0  0  0  0  0  0
  154.0462  140.9784  159.9135 C   0  0  0  0  0  0  0  0  0  0  0  0
  153.1896  141.8356  160.8543 C   0  0  0  0  0  0  0  0  0  0  0  0
  152.6249  143.0583  160.1585 C   0  0  0  0  0  0  0  0  0  0  0  0
  151.9039  144.0316  160.8803 C   0  0  0  0  0  0  0  0  0  0  0  0
  151.3999  145.1518  160.1917 C   0  0  0  0  0  0  0  0  0  0  0  0
  151.6400  145.2513  158.8068 C   0  0  0  0  0  0  0  0  0  0  0  0
  152.3302  144.3264  158.1055 N   0  0  0  0  0  0  0  0  0  0  0  0
  152.8101  143.2552  158.7735 C   0  0  0  0  0  0  0  0  0  0  0  0
  155.8377  136.3984  160.3669 C   0  0  0  0  0  0  0  0  0  0  0  0
  156.6526  136.2648  161.6684 C   0  0  0  0  0  0  0  0  0  0  0  0
  154.2575  133.7334  165.3882 H   0  0  0  0  0  0  0  0  0  0  0  0
  153.4542  135.0016  164.4427 H   0  0  0  0  0  0  0  0  0  0  0  0
  154.7420  135.4267  165.6013 H   0  0  0  0  0  0  0  0  0  0  0  0
  153.9255  136.6539  163.7053 H   0  0  0  0  0  0  0  0  0  0  0  0
  154.9726  137.9636  163.2197 H   0  0  0  0  0  0  0  0  0  0  0  0
  153.4288  136.1218  161.3115 H   0  0  0  0  0  0  0  0  0  0  0  0
  153.0372  137.7685  161.6663 H   0  0  0  0  0  0  0  0  0  0  0  0
  153.4088  139.3241  161.0693 H   0  0  0  0  0  0  0  0  0  0  0  0
  155.0614  141.3759  159.8644 H   0  0  0  0  0  0  0  0  0  0  0  0
  153.6377  141.0063  158.9018 H   0  0  0  0  0  0  0  0  0  0  0  0
  152.3666  141.2427  161.2564 H   0  0  0  0  0  0  0  0  0  0  0  0
  153.7829  142.1602  161.7105 H   0  0  0  0  0  0  0  0  0  0  0  0
  151.7401  143.9236  161.9424 H   0  0  0  0  0  0  0  0  0  0  0  0
  150.8430  145.9166  160.7124 H   0  0  0  0  0  0  0  0  0  0  0  0
  151.2676  146.0968  158.2475 H   0  0  0  0  0  0  0  0  0  0  0  0
  153.3586  142.5349  158.1845 H   0  0  0  0  0  0  0  0  0  0  0  0
  155.3321  135.4617  160.1320 H   0  0  0  0  0  0  0  0  0  0  0  0
  156.5089  136.5836  159.5271 H   0  0  0  0  0  0  0  0  0  0  0  0
  157.2360  137.1723  161.8286 H   0  0  0  0  0  0  0  0  0  0  0  0
  157.3700  135.4492  161.5828 H   0  0  0  0  0  0  0  0  0  0  0  0
  1  2  1  0  0  0  0
  1 22  1  0  0  0  0
  1 23  1  0  0  0  0
  1 24  1  0  0  0  0
  2  3  2  0  0  0  0
  2  4  2  0  0  0  0
  2  5  1  0  0  0  0
  5 21  1  0  0  0  0
  5  6  1  0  0  0  0
  6  7  1  0  0  0  0
  6 25  1  0  0  0  0
  6 26  1  0  0  0  0
  7  8  1  0  0  0  0
  7 27  1  0  0  0  0
  7 28  1  0  0  0  0
  8  9  1  0  0  0  0
  8 20  1  0  0  0  0
  9 10  2  0  0  0  0
  9 11  1  0  0  0  0
 11 12  1  0  0  0  0
 11 29  1  0  0  0  0
 12 13  1  0  0  0  0
 12 30  1  0  0  0  0
 12 31  1  0  0  0  0
 13 14  1  0  0  0  0
 13 32  1  0  0  0  0
 13 33  1  0  0  0  0
 14 19  1  0  0  0  0
 14 15  2  0  0  0  0
 15 16  1  0  0  0  0
 15 34  1  0  0  0  0
 16 17  2  0  0  0  0
 16 35  1  0  0  0  0
 17 18  1  0  0  0  0
 17 36  1  0  0  0  0
 18 19  2  0  0  0  0
 19 37  1  0  0  0  0
 20 21  1  0  0  0  0
 20 38  1  0  0  0  0
 20 39  1  0  0  0  0
 21 40  1  0  0  0  0
 21 41  1  0  0  0  0
M  END
> <s_m_source_file>
AV-unprocessed.smi

> <i_m_source_file_index>
1930

> <i_lp_mmshare_version>
43012

> <i_f3d_flags>
0

> <s_epik_input>
W0NIM11TKD1PKSg9TylOMVtDSDJdW0NIMl1OKFtDSDJdW0NIMl0xKUMoPU8pW05IXVtDSDJdW0NIMl1jMltjSF1bY0hdW2NIXW5bY0hdMg==

> <s_epik_cmdline>
J2VwaWtfcHl0aG9uJywgJy1waCcsICc3LjAnLCAnLXRuJywgJzgnLCAnLW1hJywgJzIwMCcsICctbWV0YWxfYmluZGluZycsICctaW1hZScsICc8aW5maWxlLm1hZT4nLCAnLW9tYWUnLCAnPG91dGZpbGUubWFlPic=

> <r_epik_Ionization_Penalty>
0.0143741

> <r_epik_Ionization_Penalty_Charging>
0

> <r_epik_Ionization_Penalty_Neutral>
0.0143741

> <r_epik_State_Penalty>
0.0112033

> <r_epik_Charging_Adjusted_Penalty>
0.0112033

> <i_epik_Tot_Q>
0

> <i_epik_Tot_abs_Q>
0

> <r_epik_Metal_State_Penalty>
0.0109376

> <b_epik_Metal_Only>
0

> <s_lp_Force_Field>
OPLS_2005

> <r_lp_Energy>
24.8651

> <b_lp_Chiralities_Consistent>
1

> <s_lp_Variant>
AV-unprocessed.smi:1930-1

> <Gold.Version>
5.8.1

> <Gold.Id.Protein>
6NUR|6NUR_protein|mol2

> <Gold.PLP.Fitness>
43.7460

> <Gold.PLP.PLP>
-41.6422

> <Gold.PLP.part.hbond>
-1.0000

> <Gold.PLP.part.metal>
0.0000

> <Gold.PLP.part.buried>
-5.2411

> <Gold.PLP.part.nonpolar>
-36.2874

> <Gold.PLP.part.repulsive>
0.0971

> <Gold.PLP.ligand.clash>
0.0000

> <Gold.PLP.ligand.torsion>
1.5033

> <Gold.PLP.Chemscore.Hbond>
1.0000

> <Gold.PLP.Chemscore.CHOScore>
0.0000

> <Gold.PLP.Chemscore.Metal>
0.0000

> <Gold.Chemscore.Hbonds>
donor molecule, donor type, donor heavy atom, donor atom, acceptor molecule, acceptor atom, score
      P1  H  7997  8010       L1    10  0.84

> <Gold.PLP.Chemscore.Internal.Correction>
2.1103

> <Gold.Rescore>
     Score         DG    S(hbond)    S(metal)    S(lipo)     H(rot)  DE(clash)    DE(int)     intcor
     16.68     -18.19       1.00        0.00     110.85       1.40       0.08       1.43       ----

> <Gold.Chemscore.Fitness>
16.6767

> <Gold.Chemscore.DG>
-18.1886

> <Gold.Chemscore.ZeroCoef>
-5.4800

> <Gold.Chemscore.Hbond>
0.9980

> <Gold.Chemscore.Metal>
0.0000

> <Gold.Chemscore.Lipo>
110.8456

> <Gold.Chemscore.Internal_Hbond>
0.0000

> <Gold.Chemscore.DEClash>
0.0778

> <Gold.Chemscore.DEInternal>
1.4341

> <Gold.Chemscore.Rot>
1.4037

> <Gold.Chemscore.Internal.Correction>
   9.000000E+99

> <Gold.Chemscore.Hbonds>
donor molecule, donor type, donor heavy atom, donor atom, acceptor molecule, acceptor atom, score
      P1  H  7997  8010       L1    10  0.82

> <Gold.Chemscore.Hbond.Weighted>
-3.3332

> <Gold.Chemscore.Metal.Weighted>
-0.0000

> <Gold.Chemscore.Lipo.Weighted>
-12.9689

> <Gold.Chemscore.Internal_Hbond.Weighted>
0.0000

> <Gold.Chemscore.DEClash.Weighted>
0.0778

> <Gold.Chemscore.DEInternal.Weighted>
1.4341

> <Gold.Chemscore.Rot.Weighted>
3.5935

> <Gold.Chemscore.Internal.Correction.Weighted>
   9.000000E+99

> <Gold.Protein.RotatedTorsions>
[ 6907 6896 6895 6894 ] final   86.41 input  -60.11 | X-H torsion
[ 7974 7965 7964 7962 ] final -170.14 input  175.53 | X-H torsion
[ 8008 7997 7996 7995 ] final  -20.24 input   59.86 | X-H torsion
[ 10167 10162 10161 10158 ] final  127.38 input  -65.29 | X-H torsion
[ 10718 10713 10712 10709 ] final  -83.57 input   66.30 | X-H torsion
[ 10763 10752 10751 10750 ] final  -50.55 input  -60.55 | X-H torsion
[ 11005 11000 10999 10996 ] final -152.26 input  -57.11 | X-H torsion

> <Gold.Protein.ActiveResidues>
 VAL166  LYS551  ARG553  GLY616  TRP617  ASP618  TYR619  PRO620  LYS621  CYS622 
 ASP623  PHE694  ASN695  SER759  ASP760  ASP761  ALA762  ILE779  LEU786  VAL792 
 PHE793  MET794  SER795  GLU796  ALA797  LYS798  CYS799  TRP800  GLU811  SER814 

> <Gold.Protein.RotatedAtoms>
  152.5393  134.2436  159.8871 H   0  0  0  0  0  0  0  0  0  0  0  0  # atno 6907 bound_to 6896
  151.2402  133.4397  159.2614 H   0  0  0  0  0  0  0  0  0  0  0  0  # atno 6908 bound_to 6896
  151.0633  134.9765  159.8328 H   0  0  0  0  0  0  0  0  0  0  0  0  # atno 6909 bound_to 6896
  144.7174  140.2116  143.6326 H   0  0  0  0  0  0  0  0  0  0  0  0  # atno 7974 bound_to 7965
  154.4783  140.2067  155.9825 H   0  0  0  0  0  0  0  0  0  0  0  0  # atno 8008 bound_to 7997
  156.1124  140.3227  155.8061 H   0  0  0  0  0  0  0  0  0  0  0  0  # atno 8009 bound_to 7997
  155.4611  140.0524  157.2981 H   0  0  0  0  0  0  0  0  0  0  0  0  # atno 8010 bound_to 7997
  139.5581  144.6863  151.4122 H   0  0  0  0  0  0  0  0  0  0  0  0  # atno 10167 bound_to 10162
  156.0017  130.4670  150.4277 H   0  0  0  0  0  0  0  0  0  0  0  0  # atno 10718 bound_to 10713
  154.1122  135.6547  153.4887 H   0  0  0  0  0  0  0  0  0  0  0  0  # atno 10763 bound_to 10752
  153.0253  135.5250  154.7181 H   0  0  0  0  0  0  0  0  0  0  0  0  # atno 10764 bound_to 10752
  154.6364  135.2982  155.0126 H   0  0  0  0  0  0  0  0  0  0  0  0  # atno 10765 bound_to 10752
  140.7208  134.3730  157.5183 H   0  0  0  0  0  0  0  0  0  0  0  0  # atno 11005 bound_to 11000
  145.8585  139.2211  143.1730 LP  0  0  0  0  0  0  0  0  0  0  0  0  # atno 17320 bound_to 7965
  146.0195  140.8361  142.9930 LP  0  0  0  0  0  0  0  0  0  0  0  0  # atno 17321 bound_to 7965
  140.6857  143.7978  150.7183 LP  0  0  0  0  0  0  0  0  0  0  0  0  # atno 17342 bound_to 10162
  140.1445  143.4411  152.2172 LP  0  0  0  0  0  0  0  0  0  0  0  0  # atno 17343 bound_to 10162
  157.2328  131.0508  151.2482 LP  0  0  0  0  0  0  0  0  0  0  0  0  # atno 17370 bound_to 10713
  157.3695  130.7173  149.6555 LP  0  0  0  0  0  0  0  0  0  0  0  0  # atno 17371 bound_to 10713
  139.8849  134.8953  156.2677 LP  0  0  0  0  0  0  0  0  0  0  0  0  # atno 17394 bound_to 11000
  141.0005  133.7154  156.0953 LP  0  0  0  0  0  0  0  0  0  0  0  0  # atno 17395 bound_to 11000

$$$$
