AV-unprocessed.smi:2044|AV-procd|sdf|8298|dock9
  -GOLD-   2272010563D 1   1.00000     0.00000
 Structure written by MMmdl.
 39 40  0  0  0  0  0  0  0  0  1 V2000
  138.1543  137.1056  153.7473 C   0  0  0  0  0  0  0  0  0  0  0  0
  139.6354  137.1686  153.9000 C   0  0  0  0  0  0  0  0  0  0  0  0
  140.5800  138.0469  153.4485 C   0  0  0  0  0  0  0  0  0  0  0  0
  141.7902  137.5047  153.9573 C   0  0  0  0  0  0  0  0  0  0  0  0
  143.0345  138.1354  153.7017 N   0  0  0  0  0  0  0  0  0  0  0  0
  144.2547  137.7272  154.0900 C   0  0  0  0  0  0  0  0  0  0  0  0
  144.4852  136.7185  154.7579 O   0  0  0  0  0  0  0  0  0  0  0  0
  145.2070  138.5674  153.6602 N   0  0  0  0  0  0  0  0  0  0  0  0
  146.6395  138.4365  153.9204 C   0  0  0  0  0  0  0  0  0  0  0  0
  147.2839  139.7723  154.3760 C   0  0  2  0  0  0  0  0  0  0  0  0
  147.1668  140.7927  153.2214 C   0  0  0  0  0  0  0  0  0  0  0  0
  148.6598  139.6296  154.9018 N   0  0  0  0  0  0  0  0  0  0  0  0
  149.5061  138.7968  154.0415 C   0  0  0  0  0  0  0  0  0  0  0  0
  150.9445  138.6665  154.5717 C   0  0  0  0  0  0  0  0  0  0  0  0
  151.5176  139.9583  154.7248 O   0  0  0  0  0  0  0  0  0  0  0  0
  150.7656  140.7780  155.6094 C   0  0  0  0  0  0  0  0  0  0  0  0
  149.3270  140.9223  155.0837 C   0  0  0  0  0  0  0  0  0  0  0  0
  141.6012  136.3959  154.6564 N   0  0  0  0  0  0  0  0  0  0  0  0
  140.2193  136.1744  154.6226 O   0  0  0  0  0  0  0  0  0  0  0  0
  137.7461  138.0877  153.5078 H   0  0  0  0  0  0  0  0  0  0  0  0
  137.6819  136.7594  154.6670 H   0  0  0  0  0  0  0  0  0  0  0  0
  137.8788  136.4199  152.9462 H   0  0  0  0  0  0  0  0  0  0  0  0
  140.4265  138.9324  152.8500 H   0  0  0  0  0  0  0  0  0  0  0  0
  142.9916  138.9868  153.1614 H   0  0  0  0  0  0  0  0  0  0  0  0
  144.9200  139.3737  153.1249 H   0  0  0  0  0  0  0  0  0  0  0  0
  146.8281  137.6588  154.6622 H   0  0  0  0  0  0  0  0  0  0  0  0
  147.1162  138.0638  153.0146 H   0  0  0  0  0  0  0  0  0  0  0  0
  146.6562  140.1526  155.1833 H   0  0  0  0  0  0  0  0  0  0  0  0
  146.1672  140.7836  152.7861 H   0  0  0  0  0  0  0  0  0  0  0  0
  147.8758  140.5762  152.4218 H   0  0  0  0  0  0  0  0  0  0  0  0
  147.3413  141.8143  153.5575 H   0  0  0  0  0  0  0  0  0  0  0  0
  149.0957  137.7912  153.9606 H   0  0  0  0  0  0  0  0  0  0  0  0
  149.5291  139.2112  153.0324 H   0  0  0  0  0  0  0  0  0  0  0  0
  150.9582  138.1377  155.5261 H   0  0  0  0  0  0  0  0  0  0  0  0
  151.5534  138.0882  153.8763 H   0  0  0  0  0  0  0  0  0  0  0  0
  150.7701  140.3457  156.6113 H   0  0  0  0  0  0  0  0  0  0  0  0
  151.2424  141.7555  155.6805 H   0  0  0  0  0  0  0  0  0  0  0  0
  149.3411  141.4674  154.1386 H   0  0  0  0  0  0  0  0  0  0  0  0
  148.7800  141.5391  155.7948 H   0  0  0  0  0  0  0  0  0  0  0  0
  1  2  1  0  0  0  0
  1 20  1  0  0  0  0
  1 21  1  0  0  0  0
  1 22  1  0  0  0  0
  2 19  1  0  0  0  0
  2  3  2  0  0  0  0
  3  4  1  0  0  0  0
  3 23  1  0  0  0  0
  4  5  1  0  0  0  0
  4 18  2  0  0  0  0
  5  6  1  0  0  0  0
  5 24  1  0  0  0  0
  6  7  2  0  0  0  0
  6  8  1  0  0  0  0
  8  9  1  0  0  0  0
  8 25  1  0  0  0  0
  9 10  1  0  0  0  0
  9 26  1  0  0  0  0
  9 27  1  0  0  0  0
 10 11  1  0  0  0  0
 10 12  1  0  0  0  0
 10 28  1  0  0  0  0
 11 29  1  0  0  0  0
 11 30  1  0  0  0  0
 11 31  1  0  0  0  0
 12 17  1  0  0  0  0
 12 13  1  0  0  0  0
 13 14  1  0  0  0  0
 13 32  1  0  0  0  0
 13 33  1  0  0  0  0
 14 15  1  0  0  0  0
 14 34  1  0  0  0  0
 14 35  1  0  0  0  0
 15 16  1  0  0  0  0
 16 17  1  0  0  0  0
 16 36  1  0  0  0  0
 16 37  1  0  0  0  0
 17 38  1  0  0  0  0
 17 39  1  0  0  0  0
 18 19  1  0  0  0  0
M  END
> <s_m_source_file>
AV-unprocessed.smi

> <i_m_source_file_index>
2044

> <i_lp_mmshare_version>
43012

> <i_f3d_flags>
0

> <s_epik_input>
W0NIM11jMVtjSF1jKG5vMSlbTkhdQyg9TylbTkhdW0NIMl1bQ0BIXShbQ0gzXSlOMltDSDJdW0NIMl1PW0NIMl1bQ0gyXTI=

> <s_epik_cmdline>
J2VwaWtfcHl0aG9uJywgJy1waCcsICc3LjAnLCAnLXRuJywgJzgnLCAnLW1hJywgJzIwMCcsICctbWV0YWxfYmluZGluZycsICctaW1hZScsICc8aW5maWxlLm1hZT4nLCAnLW9tYWUnLCAnPG91dGZpbGUubWFlPic=

> <r_epik_Ionization_Penalty>
0.214073

> <r_epik_Ionization_Penalty_Charging>
0

> <r_epik_Ionization_Penalty_Neutral>
0.214073

> <r_epik_State_Penalty>
0.204211

> <r_epik_Charging_Adjusted_Penalty>
0.204211

> <i_epik_Tot_Q>
0

> <i_epik_Tot_abs_Q>
0

> <r_epik_Metal_State_Penalty>
0.217151

> <b_epik_Metal_Only>
0

> <s_lp_Force_Field>
OPLS_2005

> <r_lp_Energy>
29.787

> <b_lp_Chiralities_Consistent>
1

> <s_lp_Variant>
AV-unprocessed.smi:2044-1

> <Gold.Version>
5.8.1

> <Gold.Id.Protein>
6NUR|6NUR_protein|mol2

> <Gold.PLP.Fitness>
42.6048

> <Gold.PLP.PLP>
-31.2149

> <Gold.PLP.part.hbond>
-4.2382

> <Gold.PLP.part.metal>
0.0000

> <Gold.PLP.part.buried>
-4.1034

> <Gold.PLP.part.nonpolar>
-22.4452

> <Gold.PLP.part.repulsive>
0.2508

> <Gold.PLP.ligand.clash>
0.0000

> <Gold.PLP.ligand.torsion>
0.3294

> <Gold.PLP.Chemscore.Hbond>
4.0000

> <Gold.PLP.Chemscore.CHOScore>
0.0000

> <Gold.PLP.Chemscore.Metal>
0.0000

> <Gold.Chemscore.Hbonds>
donor molecule, donor type, donor heavy atom, donor atom, acceptor molecule, acceptor atom, score
      L1  H     5    24       P1 10175  1.00
      L1  H     8    25       P1 10175  1.00
      P1  H  7989  7998       L1    15  0.99
      P1  H 11000 11005       L1    19  1.00

> <Gold.PLP.Chemscore.Internal.Correction>
0.0487

> <Gold.Rescore>
     Score         DG    S(hbond)    S(metal)    S(lipo)     H(rot)  DE(clash)    DE(int)     intcor
     18.26     -19.88       3.23        0.00      65.19       1.58       0.07       1.55       ----

> <Gold.Chemscore.Fitness>
18.2574

> <Gold.Chemscore.DG>
-19.8792

> <Gold.Chemscore.ZeroCoef>
-5.4800

> <Gold.Chemscore.Hbond>
3.2349

> <Gold.Chemscore.Metal>
0.0000

> <Gold.Chemscore.Lipo>
65.1932

> <Gold.Chemscore.Internal_Hbond>
0.0000

> <Gold.Chemscore.DEClash>
0.0672

> <Gold.Chemscore.DEInternal>
1.5547

> <Gold.Chemscore.Rot>
1.5753

> <Gold.Chemscore.Internal.Correction>
   9.000000E+99

> <Gold.Chemscore.Hbonds>
donor molecule, donor type, donor heavy atom, donor atom, acceptor molecule, acceptor atom, score
      L1  H     5    24       P1 10175  0.99
      L1  H     8    25       P1 10175  0.96
      P1  H  7989  7998       L1    15  0.31
      P1  H 11000 11005       L1    19  0.36

> <Gold.Chemscore.Hbond.Weighted>
-10.8045

> <Gold.Chemscore.Metal.Weighted>
-0.0000

> <Gold.Chemscore.Lipo.Weighted>
-7.6276

> <Gold.Chemscore.Internal_Hbond.Weighted>
0.0000

> <Gold.Chemscore.DEClash.Weighted>
0.0672

> <Gold.Chemscore.DEInternal.Weighted>
1.5547

> <Gold.Chemscore.Rot.Weighted>
4.0329

> <Gold.Chemscore.Internal.Correction.Weighted>
   9.000000E+99

> <Gold.Protein.RotatedTorsions>
[ 6907 6896 6895 6894 ] final -119.29 input  -60.11 | X-H torsion
[ 7974 7965 7964 7962 ] final  -63.25 input  175.53 | X-H torsion
[ 8008 7997 7996 7995 ] final   28.72 input   59.86 | X-H torsion
[ 10167 10162 10161 10158 ] final   89.80 input  -65.29 | X-H torsion
[ 10718 10713 10712 10709 ] final   36.18 input   66.30 | X-H torsion
[ 10763 10752 10751 10750 ] final   33.04 input  -60.55 | X-H torsion
[ 11005 11000 10999 10996 ] final   71.27 input  -57.11 | X-H torsion

> <Gold.Protein.ActiveResidues>
 VAL166  LYS551  ARG553  GLY616  TRP617  ASP618  TYR619  PRO620  LYS621  CYS622 
 ASP623  PHE694  ASN695  SER759  ASP760  ASP761  ALA762  ILE779  LEU786  VAL792 
 PHE793  MET794  SER795  GLU796  ALA797  LYS798  CYS799  TRP800  GLU811  SER814 

> <Gold.Protein.RotatedAtoms>
  150.8293  133.8119  159.3105 H   0  0  0  0  0  0  0  0  0  0  0  0  # atno 6907 bound_to 6896
  151.5854  135.1054  160.0036 H   0  0  0  0  0  0  0  0  0  0  0  0  # atno 6908 bound_to 6896
  152.4374  133.7344  159.6662 H   0  0  0  0  0  0  0  0  0  0  0  0  # atno 6909 bound_to 6896
  145.7814  140.8760  143.0328 H   0  0  0  0  0  0  0  0  0  0  0  0  # atno 7974 bound_to 7965
  155.0631  140.3192  155.4654 H   0  0  0  0  0  0  0  0  0  0  0  0  # atno 8008 bound_to 7997
  156.2808  140.2125  156.5703 H   0  0  0  0  0  0  0  0  0  0  0  0  # atno 8009 bound_to 7997
  154.7115  140.0497  157.0542 H   0  0  0  0  0  0  0  0  0  0  0  0  # atno 8010 bound_to 7997
  139.8536  144.6580  150.9140 H   0  0  0  0  0  0  0  0  0  0  0  0  # atno 10167 bound_to 10162
  157.3317  130.7501  149.6852 H   0  0  0  0  0  0  0  0  0  0  0  0  # atno 10718 bound_to 10713
  153.0232  135.6397  154.1449 H   0  0  0  0  0  0  0  0  0  0  0  0  # atno 10763 bound_to 10752
  154.1181  135.2848  155.3216 H   0  0  0  0  0  0  0  0  0  0  0  0  # atno 10764 bound_to 10752
  154.6283  135.5501  153.7714 H   0  0  0  0  0  0  0  0  0  0  0  0  # atno 10765 bound_to 10752
  139.9552  134.7156  156.0768 H   0  0  0  0  0  0  0  0  0  0  0  0  # atno 11005 bound_to 11000
  144.6796  139.9994  143.7484 LP  0  0  0  0  0  0  0  0  0  0  0  0  # atno 17320 bound_to 7965
  146.0070  139.3138  143.0893 LP  0  0  0  0  0  0  0  0  0  0  0  0  # atno 17321 bound_to 7965
  140.7784  143.3805  151.1485 LP  0  0  0  0  0  0  0  0  0  0  0  0  # atno 17342 bound_to 10162
  139.7441  143.8879  152.3058 LP  0  0  0  0  0  0  0  0  0  0  0  0  # atno 17343 bound_to 10162
  155.9696  130.4193  150.4369 LP  0  0  0  0  0  0  0  0  0  0  0  0  # atno 17370 bound_to 10713
  157.2402  131.0524  151.2441 LP  0  0  0  0  0  0  0  0  0  0  0  0  # atno 17371 bound_to 10713
  141.1223  133.6609  156.3246 LP  0  0  0  0  0  0  0  0  0  0  0  0  # atno 17394 bound_to 11000
  140.5625  134.5920  157.5437 LP  0  0  0  0  0  0  0  0  0  0  0  0  # atno 17395 bound_to 11000

$$$$
