#       Name:                AV-unprocessed.smi:1007
#       Creating user name   scv26
#       Creation time:       Fri Mar 27 02:34:01 2020


#       File generated by GOLD software.
#

@<TRIPOS>MOLECULE
AV-unprocessed.smi:1007
    62    64     1
SMALL
NO_CHARGES


@<TRIPOS>ATOM
      1 ****        -4.3307  -0.5467  -4.4389 C.3            1 S1                 0.0000
      2 ****        -3.8841   0.7940  -4.3097 O.3            1 S1                 0.0000
      3 ****        -2.5677   0.9210  -3.7915 C.3            1 S1                 0.0000
      4 ****        -2.5308   0.6646  -2.2730 C.3            1 S1                 0.0000
      5 ****        -1.2692   1.0239  -1.6183 N.3            1 S1                 0.0000
      6 ****        -1.3594   0.9809  -0.1588 C.3            1 S1                 0.0000
      7 ****        -1.4314  -0.4532   0.4050 C.3            1 S1                 0.0000
      8 ****        -0.2552  -1.2380  -0.0485 N.4            1 S1                 1.0000
      9 ****        -0.1908  -2.5889   0.5619 C.3            1 S1                 0.0000
     10 ****         1.2240  -3.2141   0.5334 C.3            1 S1                 0.0000
     11 ****         1.1067  -4.5475   0.9813 O.3            1 S1                 0.0000
     12 ****         2.2692  -2.5212   1.4372 C.3            1 S1                 0.0000
     13 ****         2.6626  -1.1881   0.9559 N.pl3          1 S1                 0.0000
     14 ****         3.4972  -0.8534  -0.0660 C.2            1 S1                 0.0000
     15 ****         3.5362   0.5055  -0.1370 N.pl3          1 S1                 1.0000
     16 ****         2.7231   1.0483   0.8596 C.ar           1 S1                 0.0000
     17 ****         2.4329   2.3699   1.1753 C.ar           1 S1                 0.0000
     18 ****         1.5495   2.5962   2.2544 C.ar           1 S1                 0.0000
     19 ****         1.2001   4.0294   2.6169 C.3            1 S1                 0.0000
     20 ****         0.9971   1.5125   2.9848 C.ar           1 S1                 0.0000
     21 ****         0.0467   1.7668   4.1423 C.3            1 S1                 0.0000
     22 ****         1.3099   0.1751   2.6522 C.ar           1 S1                 0.0000
     23 ****         2.1722  -0.0318   1.5773 C.ar           1 S1                 0.0000
     24 ****        -0.1587  -1.2292  -1.5313 C.3            1 S1                 0.0000
     25 ****        -0.1163   0.2250  -2.0425 C.3            1 S1                 0.0000
     26 ****        -5.3196  -0.5562  -4.8970 H              1 S1                 0.0000
     27 ****        -4.4114  -1.0420  -3.4716 H              1 S1                 0.0000
     28 ****        -3.6630  -1.1276  -5.0761 H              1 S1                 0.0000
     29 ****        -1.8866   0.2633  -4.3326 H              1 S1                 0.0000
     30 ****        -2.2390   1.9416  -3.9895 H              1 S1                 0.0000
     31 ****        -3.3310   1.2554  -1.8254 H              1 S1                 0.0000
     32 ****        -2.7808  -0.3753  -2.0690 H              1 S1                 0.0000
     33 ****        -0.4882   1.4826   0.2639 H              1 S1                 0.0000
     34 ****        -2.2229   1.5559   0.1776 H              1 S1                 0.0000
     35 ****        -1.4436  -0.4070   1.4943 H              1 S1                 0.0000
     36 ****        -2.3533  -0.9511   0.1017 H              1 S1                 0.0000
     37 ****        -0.5197  -2.5320   1.6008 H              1 S1                 0.0000
     38 ****        -0.9065  -3.2353   0.0508 H              1 S1                 0.0000
     39 ****         1.6025  -3.2669  -0.4869 H              1 S1                 0.0000
     40 ****         0.5519  -5.0247   0.3825 H              1 S1                 0.0000
     41 ****         1.9248  -2.4595   2.4691 H              1 S1                 0.0000
     42 ****         3.1829  -3.1170   1.4627 H              1 S1                 0.0000
     43 ****         4.0275  -1.5413  -0.7092 H              1 S1                 0.0000
     44 ****         2.8594   3.1904   0.6163 H              1 S1                 0.0000
     45 ****         1.5363   4.2609   3.6277 H              1 S1                 0.0000
     46 ****         0.1227   4.1871   2.5643 H              1 S1                 0.0000
     47 ****         1.6729   4.7397   1.9379 H              1 S1                 0.0000
     48 ****        -0.2583   0.8359   4.6210 H              1 S1                 0.0000
     49 ****        -0.8537   2.2725   3.7928 H              1 S1                 0.0000
     50 ****         0.5224   2.3896   4.9004 H              1 S1                 0.0000
     51 ****         0.8811  -0.6449   3.2089 H              1 S1                 0.0000
     52 ****         0.7484  -1.7380  -1.8541 H              1 S1                 0.0000
     53 ****        -0.9963  -1.7754  -1.9667 H              1 S1                 0.0000
     54 ****        -0.0207   0.2368  -3.1276 H              1 S1                 0.0000
     55 ****         0.7934   0.6971  -1.6689 H              1 S1                 0.0000
     56 ****         0.5540  -0.7407   0.2949 H              1 S1                 0.0000
     57 ****         4.0826   1.0225  -0.8147 H              1 S1                 0.0000
     58 ****        -4.5104   1.2757  -3.6967 LP             1 S1                 0.0000
     59 ****        -3.9081   1.2212  -5.2136 LP             1 S1                 0.0000
     60 ****        -1.1137   1.9650  -1.9187 LP             1 S1                 0.0000
     61 ****         0.7022  -4.5599   1.8958 LP             1 S1                 0.0000
     62 ****         2.0115  -4.9722   1.0112 LP             1 S1                 0.0000
@<TRIPOS>BOND
    1    1    2 1     
    2    1   26 1     
    3    1   27 1     
    4    1   28 1     
    5    2    3 1     
    6    3    4 1     
    7    3   29 1     
    8    3   30 1     
    9    4    5 1     
   10    4   31 1     
   11    4   32 1     
   12    5   25 1     
   13    5    6 1     
   14    6    7 1     
   15    6   33 1     
   16    6   34 1     
   17    7    8 1     
   18    7   35 1     
   19    7   36 1     
   20    8    9 1     
   21    8   24 1     
   22    8   56 1     
   23    9   10 1     
   24    9   37 1     
   25    9   38 1     
   26   10   11 1     
   27   10   12 1     
   28   10   39 1     
   29   11   40 1     
   30   12   13 1     
   31   12   41 1     
   32   12   42 1     
   33   13   23 1     
   34   13   14 1     
   35   14   15 2     
   36   14   43 1     
   37   15   16 1     
   38   15   57 1     
   39   16   23 ar    
   40   16   17 ar    
   41   17   18 ar    
   42   17   44 1     
   43   18   19 1     
   44   18   20 ar    
   45   19   45 1     
   46   19   46 1     
   47   19   47 1     
   48   20   21 1     
   49   20   22 ar    
   50   21   48 1     
   51   21   49 1     
   52   21   50 1     
   53   22   23 ar    
   54   22   51 1     
   55   24   25 1     
   56   24   52 1     
   57   24   53 1     
   58   25   54 1     
   59   25   55 1     
   60    2   58 1     
   61    2   59 1     
   62    5   60 1     
   63   11   61 1     
   64   11   62 1     
@<TRIPOS>SUBSTRUCTURE
      1 S1             1
@<TRIPOS>SET
LONE_PAIRS      STATIC     ATOMS    <user>   **** ""
5 58 59 60 61 62
DONOR_HYDROGENS      STATIC     ATOMS    <user>   **** ""
3 56 40 57
ATOM$BLUE        STATIC     ATOMS    COLORGROUP SYSTEM
5 58 59 60 61 62
ATOM$RED        STATIC     ATOMS    COLORGROUP SYSTEM
3 56 40 57
