AV-unprocessed.smi:1199|AV-procd|sdf|5021|dock3
  -GOLD-   22720 4 43D 1   1.00000     0.00000
 Structure written by MMmdl.
 42 43  0  0  0  0  0  0  0  0  2 V2000
  150.1457  135.5503  155.3006 C   0  0  0  0  0  0  0  0  0  0  0  0
  148.6430  135.8556  155.3538 C   0  0  1  0  0  0  0  0  0  0  0  0
  147.7965  134.6305  154.9362 C   0  0  0  0  0  0  0  0  0  0  0  0
  147.1418  134.8046  153.6141 N   0  3  0  0  0  0  0  0  0  0  0  0
  146.6146  133.5441  153.0399 C   0  0  0  0  0  0  0  0  0  0  0  0
  146.0563  133.8026  151.6312 C   0  0  0  0  0  0  0  0  0  0  0  0
  145.0391  134.7947  151.7015 O   0  0  0  0  0  0  0  0  0  0  0  0
  145.5349  136.0360  152.1884 C   0  0  0  0  0  0  0  0  0  0  0  0
  146.0967  135.8542  153.6092 C   0  0  0  0  0  0  0  0  0  0  0  0
  148.2822  136.2898  156.7030 N   0  0  0  0  0  0  0  0  0  0  0  0
  148.7643  135.7792  157.8475 C   0  0  0  0  0  0  0  0  0  0  0  0
  149.5122  134.8035  157.8982 O   0  0  0  0  0  0  0  0  0  0  0  0
  148.3794  136.5186  159.1306 C   0  0  0  0  0  0  0  0  0  0  0  0
  147.9092  135.5768  160.1563 N   0  0  0  0  0  0  0  0  0  0  0  0
  147.9209  134.2512  159.7488 N   0  0  0  0  0  0  0  0  0  0  0  0
  147.5188  133.3245  160.5513 C   0  0  0  0  0  0  0  0  0  0  0  0
  147.5447  132.0266  160.1038 O   0  0  0  0  0  0  0  0  0  0  0  0
  147.0520  133.6394  161.8832 C   0  0  0  0  0  0  0  0  0  0  0  0
  147.0347  134.9341  162.2686 C   0  0  0  0  0  0  0  0  0  0  0  0
  147.4699  136.0113  161.3778 C   0  0  0  0  0  0  0  0  0  0  0  0
  147.4322  137.2001  161.6924 O   0  0  0  0  0  0  0  0  0  0  0  0
  148.2033  132.0052  159.4265 H   0  0  0  0  0  0  0  0  0  0  0  0
  150.4471  135.2427  154.2989 H   0  0  0  0  0  0  0  0  0  0  0  0
  150.4149  134.7488  155.9895 H   0  0  0  0  0  0  0  0  0  0  0  0
  150.7343  136.4292  155.5657 H   0  0  0  0  0  0  0  0  0  0  0  0
  148.4592  136.6665  154.6475 H   0  0  0  0  0  0  0  0  0  0  0  0
  148.3990  133.7210  154.9385 H   0  0  0  0  0  0  0  0  0  0  0  0
  147.0229  134.4840  155.6918 H   0  0  0  0  0  0  0  0  0  0  0  0
  147.3998  132.7907  152.9873 H   0  0  0  0  0  0  0  0  0  0  0  0
  145.8315  133.1434  153.6853 H   0  0  0  0  0  0  0  0  0  0  0  0
  146.8484  134.1196  150.9502 H   0  0  0  0  0  0  0  0  0  0  0  0
  145.6300  132.8868  151.2216 H   0  0  0  0  0  0  0  0  0  0  0  0
  146.3019  136.4195  151.5153 H   0  0  0  0  0  0  0  0  0  0  0  0
  144.7239  136.7642  152.1938 H   0  0  0  0  0  0  0  0  0  0  0  0
  145.2977  135.5800  154.2997 H   0  0  0  0  0  0  0  0  0  0  0  0
  146.5165  136.7983  153.9579 H   0  0  0  0  0  0  0  0  0  0  0  0
  147.6635  137.0854  156.7711 H   0  0  0  0  0  0  0  0  0  0  0  0
  149.2386  137.0855  159.4947 H   0  0  0  0  0  0  0  0  0  0  0  0
  147.6120  137.2620  158.9066 H   0  0  0  0  0  0  0  0  0  0  0  0
  146.7268  132.8524  162.5477 H   0  0  0  0  0  0  0  0  0  0  0  0
  146.6876  135.1839  163.2605 H   0  0  0  0  0  0  0  0  0  0  0  0
  147.8643  135.1285  152.9867 H   0  0  0  0  0  0  0  0  0  0  0  0
  1  2  1  0  0  0  0
  1 23  1  0  0  0  0
  1 24  1  0  0  0  0
  1 25  1  0  0  0  0
  2  3  1  0  0  0  0
  2 10  1  0  0  0  0
  2 26  1  0  0  0  0
  3  4  1  0  0  0  0
  3 27  1  0  0  0  0
  3 28  1  0  0  0  0
  4  9  1  0  0  0  0
  4  5  1  0  0  0  0
  4 42  1  0  0  0  0
  5  6  1  0  0  0  0
  5 29  1  0  0  0  0
  5 30  1  0  0  0  0
  6  7  1  0  0  0  0
  6 31  1  0  0  0  0
  6 32  1  0  0  0  0
  7  8  1  0  0  0  0
  8  9  1  0  0  0  0
  8 33  1  0  0  0  0
  8 34  1  0  0  0  0
  9 35  1  0  0  0  0
  9 36  1  0  0  0  0
 10 11  1  0  0  0  0
 10 37  1  0  0  0  0
 11 12  2  0  0  0  0
 11 13  1  0  0  0  0
 13 38  1  0  0  0  0
 13 39  1  0  0  0  0
 13 14  1  0  0  0  0
 14 15  1  0  0  0  0
 14 20  1  0  0  0  0
 15 16  2  0  0  0  0
 16 17  1  0  0  0  0
 16 18  1  0  0  0  0
 17 22  1  0  0  0  0
 18 40  1  0  0  0  0
 18 19  2  0  0  0  0
 19 41  1  0  0  0  0
 19 20  1  0  0  0  0
 20 21  2  0  0  0  0
M  CHG  1   4   1
M  END
> <s_m_source_file>
AV-unprocessed.smi

> <i_m_source_file_index>
1199

> <i_lp_mmshare_version>
43012

> <i_f3d_flags>
0

> <s_epik_input>
W0NIMl0xW0NIMl1PW0NIMl1bQ0gyXU4xW0NIMl1bQ0BASF0oW0NIM10pW05IXUMoPU8pW0NIMl1uMltuSF1jKD1PKVtjSF1bY0hdYzI9Tw==

> <s_epik_cmdline>
J2VwaWtfcHl0aG9uJywgJy1waCcsICc3LjAnLCAnLXRuJywgJzgnLCAnLW1hJywgJzIwMCcsICctbWV0YWxfYmluZGluZycsICctaW1hZScsICc8aW5maWxlLm1hZT4nLCAnLW9tYWUnLCAnPG91dGZpbGUubWFlPic=

> <r_lp_tautomer_probability>
0.9996

> <r_epik_Ionization_Penalty>
2.86815

> <r_epik_Ionization_Penalty_Charging>
0.656653

> <r_epik_Ionization_Penalty_Neutral>
2.21149

> <r_epik_State_Penalty>
2.43136

> <r_epik_Charging_Adjusted_Penalty>
3.08801

> <i_epik_Tot_Q>
1

> <i_epik_Tot_abs_Q>
1

> <r_epik_Metal_State_Penalty>
2.43136

> <b_epik_Metal_Only>
0

> <s_lp_Force_Field>
OPLS_2005

> <r_lp_Energy>
31.569

> <b_lp_Chiralities_Consistent>
1

> <s_lp_Variant>
AV-unprocessed.smi:1199-8

> <Gold.Version>
5.8.1

> <Gold.Id.Protein>
6NUR|6NUR_protein|mol2

> <Gold.PLP.Fitness>
41.9140

> <Gold.PLP.PLP>
-29.9098

> <Gold.PLP.part.hbond>
-4.0000

> <Gold.PLP.part.metal>
0.0000

> <Gold.PLP.part.buried>
-4.4788

> <Gold.PLP.part.nonpolar>
-21.3760

> <Gold.PLP.part.repulsive>
0.1273

> <Gold.PLP.ligand.clash>
0.0000

> <Gold.PLP.ligand.torsion>
1.2006

> <Gold.PLP.Chemscore.Hbond>
4.7440

> <Gold.PLP.Chemscore.CHOScore>
0.0000

> <Gold.PLP.Chemscore.Metal>
0.0000

> <Gold.Chemscore.Hbonds>
donor molecule, donor type, donor heavy atom, donor atom, acceptor molecule, acceptor atom, score
      L1  H     4    42       P1  7948  2.00
      P1  H  6896  6909       L1    12  1.00
      P1  H  6931  6943       L1    21  0.93
      P1  H  6934  6947       L1    21  0.82

> <Gold.PLP.Chemscore.Internal.Correction>
0.1734

> <Gold.Rescore>
     Score         DG    S(hbond)    S(metal)    S(lipo)     H(rot)  DE(clash)    DE(int)     intcor
     11.19     -15.43       3.67        0.00      46.52       3.03       0.00       4.24       ----

> <Gold.Chemscore.Fitness>
11.1918

> <Gold.Chemscore.DG>
-15.4287

> <Gold.Chemscore.ZeroCoef>
-5.4800

> <Gold.Chemscore.Hbond>
3.6743

> <Gold.Chemscore.Metal>
0.0000

> <Gold.Chemscore.Lipo>
46.5174

> <Gold.Chemscore.Internal_Hbond>
0.0000

> <Gold.Chemscore.DEClash>
0.0000

> <Gold.Chemscore.DEInternal>
4.2369

> <Gold.Chemscore.Rot>
3.0336

> <Gold.Chemscore.Internal.Correction>
   9.000000E+99

> <Gold.Chemscore.Hbonds>
donor molecule, donor type, donor heavy atom, donor atom, acceptor molecule, acceptor atom, score
      L1  H     4    42       P1  7948  0.99
      P1  H  6896  6909       L1    12  0.96
      P1  H  6931  6943       L1    21  0.88
      P1  H  6934  6947       L1    21  0.79

> <Gold.Chemscore.Hbond.Weighted>
-12.2723

> <Gold.Chemscore.Metal.Weighted>
-0.0000

> <Gold.Chemscore.Lipo.Weighted>
-5.4425

> <Gold.Chemscore.Internal_Hbond.Weighted>
0.0000

> <Gold.Chemscore.DEClash.Weighted>
0.0000

> <Gold.Chemscore.DEInternal.Weighted>
4.2369

> <Gold.Chemscore.Rot.Weighted>
7.7661

> <Gold.Chemscore.Internal.Correction.Weighted>
   9.000000E+99

> <Gold.Protein.RotatedTorsions>
[ 6907 6896 6895 6894 ] final   21.27 input  -60.11 | X-H torsion
[ 7974 7965 7964 7962 ] final  141.28 input  175.53 | X-H torsion
[ 8008 7997 7996 7995 ] final  121.38 input   59.86 | X-H torsion
[ 10167 10162 10161 10158 ] final  -23.02 input  -65.29 | X-H torsion
[ 10718 10713 10712 10709 ] final   50.47 input   66.30 | X-H torsion
[ 10763 10752 10751 10750 ] final  -18.80 input  -60.55 | X-H torsion
[ 11005 11000 10999 10996 ] final  -67.96 input  -57.11 | X-H torsion

> <Gold.Protein.ActiveResidues>
 VAL166  LYS551  ARG553  GLY616  TRP617  ASP618  TYR619  PRO620  LYS621  CYS622 
 ASP623  PHE694  ASN695  SER759  ASP760  ASP761  ALA762  ILE779  LEU786  VAL792 
 PHE793  MET794  SER795  GLU796  ALA797  LYS798  CYS799  TRP800  GLU811  SER814 

> <Gold.Protein.RotatedAtoms>
  151.9092  135.0346  160.0512 H   0  0  0  0  0  0  0  0  0  0  0  0  # atno 6907 bound_to 6896
  152.2293  133.5041  159.5215 H   0  0  0  0  0  0  0  0  0  0  0  0  # atno 6908 bound_to 6896
  150.7021  134.1154  159.4058 H   0  0  0  0  0  0  0  0  0  0  0  0  # atno 6909 bound_to 6896
  144.9111  139.5292  143.5708 H   0  0  0  0  0  0  0  0  0  0  0  0  # atno 7974 bound_to 7965
  156.2684  140.2810  156.1298 H   0  0  0  0  0  0  0  0  0  0  0  0  # atno 8008 bound_to 7997
  155.1066  140.0390  157.2730 H   0  0  0  0  0  0  0  0  0  0  0  0  # atno 8009 bound_to 7997
  154.6774  140.2601  155.6949 H   0  0  0  0  0  0  0  0  0  0  0  0  # atno 8010 bound_to 7997
  140.7287  143.4481  151.0557 H   0  0  0  0  0  0  0  0  0  0  0  0  # atno 10167 bound_to 10162
  157.4887  130.8362  149.8177 H   0  0  0  0  0  0  0  0  0  0  0  0  # atno 10718 bound_to 10713
  153.5950  135.7001  153.5408 H   0  0  0  0  0  0  0  0  0  0  0  0  # atno 10763 bound_to 10752
  153.3146  135.4091  155.1365 H   0  0  0  0  0  0  0  0  0  0  0  0  # atno 10764 bound_to 10752
  154.8593  135.3680  154.5483 H   0  0  0  0  0  0  0  0  0  0  0  0  # atno 10765 bound_to 10752
  141.1521  133.6730  156.6373 H   0  0  0  0  0  0  0  0  0  0  0  0  # atno 11005 bound_to 11000
  146.3159  139.7917  142.8984 LP  0  0  0  0  0  0  0  0  0  0  0  0  # atno 17320 bound_to 7965
  145.3453  141.0296  143.3369 LP  0  0  0  0  0  0  0  0  0  0  0  0  # atno 17321 bound_to 7965
  139.8154  143.7893  152.3174 LP  0  0  0  0  0  0  0  0  0  0  0  0  # atno 17342 bound_to 10162
  139.7957  144.7393  150.9894 LP  0  0  0  0  0  0  0  0  0  0  0  0  # atno 17343 bound_to 10162
  156.0161  130.3813  150.2106 LP  0  0  0  0  0  0  0  0  0  0  0  0  # atno 17370 bound_to 10713
  157.0294  131.0003  151.3316 LP  0  0  0  0  0  0  0  0  0  0  0  0  # atno 17371 bound_to 10713
  140.3420  134.7841  157.4405 LP  0  0  0  0  0  0  0  0  0  0  0  0  # atno 17394 bound_to 11000
  140.0930  134.5575  155.8425 LP  0  0  0  0  0  0  0  0  0  0  0  0  # atno 17395 bound_to 11000

$$$$
