#       Name:                AV-unprocessed.smi:2424
#       Creating user name   scv26
#       Creation time:       Fri Mar 27 13:20:16 2020


#       File generated by GOLD software.
#

@<TRIPOS>MOLECULE
AV-unprocessed.smi:2424
    56    57     1
SMALL
NO_CHARGES


@<TRIPOS>ATOM
      1 ****        -4.0630   0.8616  -1.1879 C.3            1 S1                 0.0000
      2 ****        -3.6848  -0.6257  -1.0683 C.3            1 S1                 0.0000
      3 ****        -2.2145  -0.9306  -0.6577 C.3            1 S1                 0.0000
      4 ****        -1.3933  -1.1563  -1.9492 C.3            1 S1                 0.0000
      5 ****        -1.1990   0.0798  -2.8396 C.3            1 S1                 0.0000
      6 ****        -1.6076  -0.0190   0.4545 C.3            1 S1                 0.0000
      7 ****        -0.1427   0.0460   0.4144 N.am           1 S1                 0.0000
      8 ****         0.5857   1.1693   0.4563 C.2            1 S1                 0.0000
      9 ****         0.0932   2.2917   0.5646 O.2            1 S1                 0.0000
     10 ****         1.8961   0.8896   0.3389 N.am           1 S1                 0.0000
     11 ****         2.9867   1.7693   0.3526 C.2            1 S1                 0.0000
     12 ****         2.9875   3.1071   0.7228 C.2            1 S1                 0.0000
     13 ****         4.0308   3.9656   0.7583 N.pl3          1 S1                -1.0000
     14 ****         5.2617   3.5063   0.3929 C.2            1 S1                 0.0000
     15 ****         6.2535   4.2346   0.3981 O.2            1 S1                 0.0000
     16 ****         5.4004   2.0955  -0.0187 C.2            1 S1                 0.0000
     17 ****         6.7710   1.5829  -0.4261 C.3            1 S1                 0.0000
     18 ****         4.3078   1.2930  -0.0277 C.2            1 S1                 0.0000
     19 ****        -2.1089  -1.0245   1.5083 C.3            1 S1                 0.0000
     20 ****        -1.3287  -1.2388   2.8028 C.3            1 S1                 0.0000
     21 ****        -2.0534  -2.0712   0.3845 C.3            1 S1                 0.0000
     22 ****        -3.1141  -3.0157   0.3624 O.3            1 S1                 0.0000
     23 ****        -2.9644  -4.0505   1.3180 C.3            1 S1                 0.0000
     24 ****        -5.0363   0.9685  -1.6670 H              1 S1                 0.0000
     25 ****        -3.3450   1.4343  -1.7716 H              1 S1                 0.0000
     26 ****        -4.1427   1.3308  -0.2076 H              1 S1                 0.0000
     27 ****        -4.3849  -1.0616  -0.3561 H              1 S1                 0.0000
     28 ****        -3.9218  -1.1165  -2.0130 H              1 S1                 0.0000
     29 ****        -0.4029  -1.5355  -1.6962 H              1 S1                 0.0000
     30 ****        -1.8407  -1.9527  -2.5448 H              1 S1                 0.0000
     31 ****        -0.4718  -0.1266  -3.6249 H              1 S1                 0.0000
     32 ****        -0.8343   0.9342  -2.2698 H              1 S1                 0.0000
     33 ****        -2.1263   0.3670  -3.3335 H              1 S1                 0.0000
     34 ****        -2.0839   0.9546   0.5600 H              1 S1                 0.0000
     35 ****         0.3481  -0.8307   0.3191 H              1 S1                 0.0000
     36 ****         2.1379  -0.0813   0.2065 H              1 S1                 0.0000
     37 ****         2.0373   3.5615   1.0668 H              1 S1                 0.0000
     38 ****         6.7359   0.5275  -0.6973 H              1 S1                 0.0000
     39 ****         7.4800   1.6971   0.3943 H              1 S1                 0.0000
     40 ****         7.1450   2.1396  -1.2860 H              1 S1                 0.0000
     41 ****         4.4173   0.2624  -0.3316 H              1 S1                 0.0000
     42 ****        -3.1507  -0.7898   1.7347 H              1 S1                 0.0000
     43 ****        -0.3471  -1.6749   2.6163 H              1 S1                 0.0000
     44 ****        -1.8600  -1.9059   3.4810 H              1 S1                 0.0000
     45 ****        -1.1760  -0.2958   3.3280 H              1 S1                 0.0000
     46 ****        -1.0754  -2.5537   0.3168 H              1 S1                 0.0000
     47 ****        -3.7829  -4.7627   1.2130 H              1 S1                 0.0000
     48 ****        -2.9918  -3.6600   2.3348 H              1 S1                 0.0000
     49 ****        -2.0281  -4.5910   1.1733 H              1 S1                 0.0000
     50 ****        -0.8991   2.3985   0.6264 LP             1 S1                 0.0000
     51 ****         0.6853   3.0972   0.5909 LP             1 S1                 0.0000
     52 ****         3.9032   4.9149   1.0457 LP             1 S1                 0.0000
     53 ****         6.1696   5.1917   0.6756 LP             1 S1                 0.0000
     54 ****         7.1435   3.8694   0.1249 LP             1 S1                 0.0000
     55 ****        -3.1529  -3.4278  -0.5479 LP             1 S1                 0.0000
     56 ****        -3.9710  -2.5346   0.5474 LP             1 S1                 0.0000
@<TRIPOS>BOND
    1    1    2 1     
    2    1   24 1     
    3    1   25 1     
    4    1   26 1     
    5    2    3 1     
    6    2   27 1     
    7    2   28 1     
    8    3   21 1     
    9    3    4 1     
   10    3    6 1     
   11    4    5 1     
   12    4   29 1     
   13    4   30 1     
   14    5   31 1     
   15    5   32 1     
   16    5   33 1     
   17    6    7 1     
   18    6   19 1     
   19    6   34 1     
   20    7    8 am    
   21    7   35 1     
   22    8    9 2     
   23    8   10 am    
   24   10   11 1     
   25   10   36 1     
   26   11   18 1     
   27   11   12 2     
   28   12   13 1     
   29   12   37 1     
   30   13   14 1     
   31   14   15 2     
   32   14   16 1     
   33   16   17 1     
   34   16   18 2     
   35   17   38 1     
   36   17   39 1     
   37   17   40 1     
   38   18   41 1     
   39   19   20 1     
   40   19   21 1     
   41   19   42 1     
   42   20   43 1     
   43   20   44 1     
   44   20   45 1     
   45   21   22 1     
   46   21   46 1     
   47   22   23 1     
   48   23   47 1     
   49   23   48 1     
   50   23   49 1     
   51    9   50 1     
   52    9   51 1     
   53   13   52 1     
   54   15   53 1     
   55   15   54 1     
   56   22   55 1     
   57   22   56 1     
@<TRIPOS>SUBSTRUCTURE
      1 S1             1
@<TRIPOS>SET
LONE_PAIRS      STATIC     ATOMS    <user>   **** ""
7 50 51 52 53 54 55 56
DONOR_HYDROGENS      STATIC     ATOMS    <user>   **** ""
2 35 36
ATOM$BLUE        STATIC     ATOMS    COLORGROUP SYSTEM
7 50 51 52 53 54 55 56
ATOM$RED        STATIC     ATOMS    COLORGROUP SYSTEM
2 35 36
