AV-unprocessed.smi:1698|AV-procd|sdf|6813|dock9
  -GOLD-   22720 7593D 1   1.00000     0.00000
 Structure written by MMmdl.
 28 29  0  0  0  0  0  0  0  0  1 V2000
  146.2301  133.5643  153.3023 O   0  0  0  0  0  0  0  0  0  0  0  0
  147.0611  132.9358  152.6496 C   0  0  0  0  0  0  0  0  0  0  0  0
  146.8602  132.4775  151.3994 N   0  0  0  0  0  0  0  0  0  0  0  0
  145.6970  132.6209  150.6023 C   0  0  0  0  0  0  0  0  0  0  0  0
  145.5454  132.0926  149.2915 C   0  0  0  0  0  0  0  0  0  0  0  0
  144.3540  132.3823  148.7883 N   0  0  0  0  0  0  0  0  0  0  0  0
  143.7437  133.0901  149.7656 N   0  0  0  0  0  0  0  0  0  0  0  0
  144.5234  133.2602  150.8883 C   0  0  0  0  0  0  0  0  0  0  0  0
  148.2762  132.6551  153.1543 N   0  0  0  0  0  0  0  0  0  0  0  0
  148.8144  133.0033  154.4702 C   0  0  2  0  0  0  0  0  0  0  0  0
  149.8556  134.1327  154.3570 C   0  0  0  0  0  0  0  0  0  0  0  0
  150.6384  134.2172  155.6736 C   0  0  0  0  0  0  0  0  0  0  0  0
  150.6696  132.5169  156.3581 S   0  0  0  0  0  0  0  0  0  0  0  0
  151.9992  131.9237  156.1505 O   0  0  0  0  0  0  0  0  0  0  0  0
  150.0449  132.5291  157.6895 O   0  0  0  0  0  0  0  0  0  0  0  0
  149.4984  131.8028  155.1444 C   0  0  0  0  0  0  0  0  0  0  0  0
  142.8055  133.4467  149.6527 H   0  0  0  0  0  0  0  0  0  0  0  0
  147.6255  131.9767  150.9725 H   0  0  0  0  0  0  0  0  0  0  0  0
  146.2459  131.5211  148.7004 H   0  0  0  0  0  0  0  0  0  0  0  0
  144.1780  133.8033  151.7554 H   0  0  0  0  0  0  0  0  0  0  0  0
  148.9049  132.1501  152.5462 H   0  0  0  0  0  0  0  0  0  0  0  0
  148.0133  133.3632  155.1185 H   0  0  0  0  0  0  0  0  0  0  0  0
  150.5541  133.8972  153.5524 H   0  0  0  0  0  0  0  0  0  0  0  0
  149.3931  135.0875  154.1053 H   0  0  0  0  0  0  0  0  0  0  0  0
  151.6543  134.5896  155.5412 H   0  0  0  0  0  0  0  0  0  0  0  0
  150.1234  134.8575  156.3901 H   0  0  0  0  0  0  0  0  0  0  0  0
  148.8004  131.1331  155.6471 H   0  0  0  0  0  0  0  0  0  0  0  0
  150.0781  131.2237  154.4248 H   0  0  0  0  0  0  0  0  0  0  0  0
  1  2  2  0  0  0  0
  2  3  1  0  0  0  0
  2  9  1  0  0  0  0
  3  4  1  0  0  0  0
  3 18  1  0  0  0  0
  4  8  2  0  0  0  0
  4  5  1  0  0  0  0
  5  6  2  0  0  0  0
  5 19  1  0  0  0  0
  6  7  1  0  0  0  0
  7 17  1  0  0  0  0
  7  8  1  0  0  0  0
  8 20  1  0  0  0  0
  9 10  1  0  0  0  0
  9 21  1  0  0  0  0
 10 16  1  0  0  0  0
 10 11  1  0  0  0  0
 10 22  1  0  0  0  0
 11 12  1  0  0  0  0
 11 23  1  0  0  0  0
 11 24  1  0  0  0  0
 12 13  1  0  0  0  0
 12 25  1  0  0  0  0
 12 26  1  0  0  0  0
 13 14  2  0  0  0  0
 13 15  2  0  0  0  0
 13 16  1  0  0  0  0
 16 27  1  0  0  0  0
 16 28  1  0  0  0  0
M  END
> <s_m_source_file>
AV-unprocessed.smi

> <i_m_source_file_index>
1698

> <i_lp_mmshare_version>
43012

> <i_f3d_flags>
0

> <s_epik_input>
Tz1TMSg9TylbQ0gyXVtDSDJdW0NASF0oW0NIMl0xKVtOSF1DKD1PKVtOSF1jMltjSF1uW25IXVtjSF0y

> <s_epik_cmdline>
J2VwaWtfcHl0aG9uJywgJy1waCcsICc3LjAnLCAnLXRuJywgJzgnLCAnLW1hJywgJzIwMCcsICctbWV0YWxfYmluZGluZycsICctaW1hZScsICc8aW5maWxlLm1hZT4nLCAnLW9tYWUnLCAnPG91dGZpbGUubWFlPic=

> <r_lp_tautomer_probability>
1

> <r_epik_Ionization_Penalty>
3.85517e-05

> <r_epik_Ionization_Penalty_Charging>
0

> <r_epik_Ionization_Penalty_Neutral>
3.85517e-05

> <r_epik_State_Penalty>
-0

> <r_epik_Charging_Adjusted_Penalty>
0

> <i_epik_Tot_Q>
0

> <i_epik_Tot_abs_Q>
0

> <r_epik_Metal_State_Penalty>
-0

> <b_epik_Metal_Only>
0

> <s_lp_Force_Field>
OPLS_2005

> <r_lp_Energy>
17.454

> <b_lp_Chiralities_Consistent>
1

> <s_lp_Variant>
AV-unprocessed.smi:1698-1

> <Gold.Version>
5.8.1

> <Gold.Id.Protein>
6NUR|6NUR_protein|mol2

> <Gold.PLP.Fitness>
35.7240

> <Gold.PLP.PLP>
-27.0319

> <Gold.PLP.part.hbond>
-3.4087

> <Gold.PLP.part.metal>
0.0000

> <Gold.PLP.part.buried>
-5.1034

> <Gold.PLP.part.nonpolar>
-18.2522

> <Gold.PLP.part.repulsive>
0.4488

> <Gold.PLP.ligand.clash>
0.0000

> <Gold.PLP.ligand.torsion>
0.1541

> <Gold.PLP.Chemscore.Hbond>
3.0000

> <Gold.PLP.Chemscore.CHOScore>
0.0000

> <Gold.PLP.Chemscore.Metal>
0.0000

> <Gold.Chemscore.Hbonds>
donor molecule, donor type, donor heavy atom, donor atom, acceptor molecule, acceptor atom, score
      L1  H     3    18       P1 10747  1.00
      L1  H     7    17       P1 10186  0.96
      P1  H  6896  6909       L1    15  0.91

> <Gold.PLP.Chemscore.Internal.Correction>
0.0002

> <Gold.Rescore>
     Score         DG    S(hbond)    S(metal)    S(lipo)     H(rot)  DE(clash)    DE(int)     intcor
     17.98     -19.31       3.14        0.00      50.57       1.00       0.05       1.29       ----

> <Gold.Chemscore.Fitness>
17.9750

> <Gold.Chemscore.DG>
-19.3095

> <Gold.Chemscore.ZeroCoef>
-5.4800

> <Gold.Chemscore.Hbond>
3.1356

> <Gold.Chemscore.Metal>
0.0000

> <Gold.Chemscore.Lipo>
50.5708

> <Gold.Chemscore.Internal_Hbond>
0.0000

> <Gold.Chemscore.DEClash>
0.0467

> <Gold.Chemscore.DEInternal>
1.2878

> <Gold.Chemscore.Rot>
1.0000

> <Gold.Chemscore.Internal.Correction>
   9.000000E+99

> <Gold.Chemscore.Hbonds>
donor molecule, donor type, donor heavy atom, donor atom, acceptor molecule, acceptor atom, score
      L1  H     3    18       P1 10747  1.00
      L1  H     7    17       P1 10186  0.91
      P1  H  6896  6909       L1    15  0.84

> <Gold.Chemscore.Hbond.Weighted>
-10.4728

> <Gold.Chemscore.Metal.Weighted>
-0.0000

> <Gold.Chemscore.Lipo.Weighted>
-5.9168

> <Gold.Chemscore.Internal_Hbond.Weighted>
0.0000

> <Gold.Chemscore.DEClash.Weighted>
0.0467

> <Gold.Chemscore.DEInternal.Weighted>
1.2878

> <Gold.Chemscore.Rot.Weighted>
2.5600

> <Gold.Chemscore.Internal.Correction.Weighted>
   9.000000E+99

> <Gold.Protein.RotatedTorsions>
[ 6907 6896 6895 6894 ] final  -18.27 input  -60.11 | X-H torsion
[ 7974 7965 7964 7962 ] final  142.65 input  175.53 | X-H torsion
[ 8008 7997 7996 7995 ] final  -34.15 input   59.86 | X-H torsion
[ 10167 10162 10161 10158 ] final   57.16 input  -65.29 | X-H torsion
[ 10718 10713 10712 10709 ] final  111.58 input   66.30 | X-H torsion
[ 10763 10752 10751 10750 ] final   -1.24 input  -60.55 | X-H torsion
[ 11005 11000 10999 10996 ] final  105.12 input  -57.11 | X-H torsion

> <Gold.Protein.ActiveResidues>
 VAL166  LYS551  ARG553  GLY616  TRP617  ASP618  TYR619  PRO620  LYS621  CYS622 
 ASP623  PHE694  ASN695  SER759  ASP760  ASP761  ALA762  ILE779  LEU786  VAL792 
 PHE793  MET794  SER795  GLU796  ALA797  LYS798  CYS799  TRP800  GLU811  SER814 

> <Gold.Protein.RotatedAtoms>
  151.2806  135.0713  159.9167 H   0  0  0  0  0  0  0  0  0  0  0  0  # atno 6907 bound_to 6896
  152.5334  134.0034  159.7915 H   0  0  0  0  0  0  0  0  0  0  0  0  # atno 6908 bound_to 6896
  151.0288  133.5759  159.2694 H   0  0  0  0  0  0  0  0  0  0  0  0  # atno 6909 bound_to 6896
  144.8989  139.5451  143.5763 H   0  0  0  0  0  0  0  0  0  0  0  0  # atno 7974 bound_to 7965
  154.4128  140.1691  156.2003 H   0  0  0  0  0  0  0  0  0  0  0  0  # atno 8008 bound_to 7997
  155.9529  140.3399  155.6400 H   0  0  0  0  0  0  0  0  0  0  0  0  # atno 8009 bound_to 7997
  155.6846  140.0726  157.2462 H   0  0  0  0  0  0  0  0  0  0  0  0  # atno 8010 bound_to 7997
  140.2009  144.3989  150.6529 H   0  0  0  0  0  0  0  0  0  0  0  0  # atno 10167 bound_to 10162
  157.6437  131.0953  150.6769 H   0  0  0  0  0  0  0  0  0  0  0  0  # atno 10718 bound_to 10713
  153.3423  135.6981  153.6857 H   0  0  0  0  0  0  0  0  0  0  0  0  # atno 10763 bound_to 10752
  153.5617  135.3533  155.2802 H   0  0  0  0  0  0  0  0  0  0  0  0  # atno 10764 bound_to 10752
  154.8639  135.4251  154.2639 H   0  0  0  0  0  0  0  0  0  0  0  0  # atno 10765 bound_to 10752
  139.8799  134.9325  156.5466 H   0  0  0  0  0  0  0  0  0  0  0  0  # atno 11005 bound_to 11000
  146.3097  139.7703  142.9029 LP  0  0  0  0  0  0  0  0  0  0  0  0  # atno 17320 bound_to 7965
  145.3651  141.0333  143.3262 LP  0  0  0  0  0  0  0  0  0  0  0  0  # atno 17321 bound_to 7965
  140.6391  143.2200  151.6330 LP  0  0  0  0  0  0  0  0  0  0  0  0  # atno 17342 bound_to 10162
  139.5217  144.3183  152.0932 LP  0  0  0  0  0  0  0  0  0  0  0  0  # atno 17343 bound_to 10162
  156.7089  130.4646  149.5552 LP  0  0  0  0  0  0  0  0  0  0  0  0  # atno 17370 bound_to 10713
  156.1743  130.6458  151.0876 LP  0  0  0  0  0  0  0  0  0  0  0  0  # atno 17371 bound_to 10713
  140.8271  133.8308  155.8949 LP  0  0  0  0  0  0  0  0  0  0  0  0  # atno 17394 bound_to 11000
  140.9364  134.1957  157.4829 LP  0  0  0  0  0  0  0  0  0  0  0  0  # atno 17395 bound_to 11000

$$$$
