AV-unprocessed.smi:2784|AV-procd|sdf|10727|dock1
  -GOLD-   2272015163D 1   1.00000     0.00000
 Structure written by MMmdl.
 31 32  0  0  0  0  0  0  0  0  1 V2000
  151.3299  141.3146  158.6152 C   0  0  0  0  0  0  0  0  0  0  0  0
  150.7607  142.5643  158.9704 O   0  0  0  0  0  0  0  0  0  0  0  0
  151.6246  143.3901  159.7470 C   0  0  1  0  0  0  0  0  0  0  0  0
  152.9988  143.4521  159.0714 C   0  0  0  0  0  0  0  0  0  0  0  0
  152.8275  144.4984  157.9734 C   0  0  0  0  0  0  0  0  0  0  0  0
  151.8896  145.5494  158.5744 C   0  0  0  0  0  0  0  0  0  0  0  0
  151.1256  144.8530  159.7180 C   0  0  1  0  0  0  0  0  0  0  0  0
  149.6798  144.9636  159.5355 N   0  0  0  0  0  0  0  0  0  0  0  0
  148.7630  144.3994  160.3346 C   0  0  0  0  0  0  0  0  0  0  0  0
  149.0482  143.7262  161.3256 O   0  0  0  0  0  0  0  0  0  0  0  0
  147.5163  144.6633  159.9095 N   0  0  0  0  0  0  0  0  0  0  0  0
  146.2972  144.2306  160.4892 C   0  0  0  0  0  0  0  0  0  0  0  0
  146.1601  143.4385  161.5539 N   0  0  0  0  0  0  0  0  0  0  0  0
  144.7887  143.3115  161.7207 C   0  0  0  0  0  0  0  0  0  0  0  0
  144.1690  144.0404  160.7386 C   0  0  0  0  0  0  0  0  0  0  0  0
  145.1171  144.6311  159.9468 O   0  0  0  0  0  0  0  0  0  0  0  0
  150.6183  140.7486  158.0141 H   0  0  0  0  0  0  0  0  0  0  0  0
  151.5610  140.7240  159.5024 H   0  0  0  0  0  0  0  0  0  0  0  0
  152.2412  141.4355  158.0295 H   0  0  0  0  0  0  0  0  0  0  0  0
  151.6843  143.0274  160.7747 H   0  0  0  0  0  0  0  0  0  0  0  0
  153.7416  143.7995  159.7906 H   0  0  0  0  0  0  0  0  0  0  0  0
  153.3420  142.4926  158.6849 H   0  0  0  0  0  0  0  0  0  0  0  0
  153.7772  144.9218  157.6464 H   0  0  0  0  0  0  0  0  0  0  0  0
  152.3536  144.0388  157.1051 H   0  0  0  0  0  0  0  0  0  0  0  0
  152.4692  146.3816  158.9758 H   0  0  0  0  0  0  0  0  0  0  0  0
  151.2286  145.9610  157.8101 H   0  0  0  0  0  0  0  0  0  0  0  0
  151.4060  145.3414  160.6533 H   0  0  0  0  0  0  0  0  0  0  0  0
  149.3606  145.4940  158.7382 H   0  0  0  0  0  0  0  0  0  0  0  0
  147.4291  145.2318  159.0804 H   0  0  0  0  0  0  0  0  0  0  0  0
  144.3651  142.7182  162.5175 H   0  0  0  0  0  0  0  0  0  0  0  0
  143.1368  144.2287  160.4828 H   0  0  0  0  0  0  0  0  0  0  0  0
  1  2  1  0  0  0  0
  1 17  1  0  0  0  0
  1 18  1  0  0  0  0
  1 19  1  0  0  0  0
  2  3  1  0  0  0  0
  3  7  1  0  0  0  0
  3  4  1  0  0  0  0
  3 20  1  0  0  0  0
  4  5  1  0  0  0  0
  4 21  1  0  0  0  0
  4 22  1  0  0  0  0
  5  6  1  0  0  0  0
  5 23  1  0  0  0  0
  5 24  1  0  0  0  0
  6  7  1  0  0  0  0
  6 25  1  0  0  0  0
  6 26  1  0  0  0  0
  7  8  1  0  0  0  0
  7 27  1  0  0  0  0
  8  9  1  0  0  0  0
  8 28  1  0  0  0  0
  9 10  2  0  0  0  0
  9 11  1  0  0  0  0
 11 12  1  0  0  0  0
 11 29  1  0  0  0  0
 12 16  1  0  0  0  0
 12 13  2  0  0  0  0
 13 14  1  0  0  0  0
 14 15  2  0  0  0  0
 14 30  1  0  0  0  0
 15 16  1  0  0  0  0
 15 31  1  0  0  0  0
M  END
> <s_m_source_file>
AV-unprocessed.smi

> <i_m_source_file_index>
2784

> <i_lp_mmshare_version>
43012

> <i_f3d_flags>
0

> <s_epik_input>
W0NIM11PW0NAQEhdMVtDSDJdW0NIMl1bQ0gyXVtDQEhdMVtOSF1DKD1PKVtOSF1jMm5bY0hdW2NIXW8y

> <s_epik_cmdline>
J2VwaWtfcHl0aG9uJywgJy1waCcsICc3LjAnLCAnLXRuJywgJzgnLCAnLW1hJywgJzIwMCcsICctbWV0YWxfYmluZGluZycsICctaW1hZScsICc8aW5maWxlLm1hZT4nLCAnLW9tYWUnLCAnPG91dGZpbGUubWFlPic=

> <r_lp_tautomer_probability>
0.785861

> <r_epik_Ionization_Penalty>
4.58897e-05

> <r_epik_Ionization_Penalty_Charging>
0

> <r_epik_Ionization_Penalty_Neutral>
4.58897e-05

> <r_epik_State_Penalty>
0.0380021

> <r_epik_Charging_Adjusted_Penalty>
0.0380021

> <i_epik_Tot_Q>
0

> <i_epik_Tot_abs_Q>
0

> <r_epik_Metal_State_Penalty>
0.0585611

> <b_epik_Metal_Only>
0

> <s_lp_Force_Field>
OPLS_2005

> <r_lp_Energy>
20.0634

> <b_lp_Chiralities_Consistent>
1

> <s_lp_Variant>
AV-unprocessed.smi:2784-2

> <Gold.Version>
5.8.1

> <Gold.Id.Protein>
6NUR|6NUR_protein|mol2

> <Gold.PLP.Fitness>
37.9786

> <Gold.PLP.PLP>
-30.6578

> <Gold.PLP.part.hbond>
-3.6760

> <Gold.PLP.part.metal>
0.0000

> <Gold.PLP.part.buried>
-5.2071

> <Gold.PLP.part.nonpolar>
-23.5252

> <Gold.PLP.part.repulsive>
0.8819

> <Gold.PLP.ligand.clash>
0.0000

> <Gold.PLP.ligand.torsion>
0.1146

> <Gold.PLP.Chemscore.Hbond>
2.5120

> <Gold.PLP.Chemscore.CHOScore>
0.0000

> <Gold.PLP.Chemscore.Metal>
0.0000

> <Gold.Chemscore.Hbonds>
donor molecule, donor type, donor heavy atom, donor atom, acceptor molecule, acceptor atom, score
      L1  H     8    28       P1  8029  0.80
      L1  H    11    29       P1  8029  1.00
      P1  H  6933  6944       L1    10  0.37

> <Gold.PLP.Chemscore.Internal.Correction>
0.0139

> <Gold.Rescore>
     Score         DG    S(hbond)    S(metal)    S(lipo)     H(rot)  DE(clash)    DE(int)     intcor
     17.42     -19.45       2.30        0.00      82.60       1.32       0.52       1.50       ----

> <Gold.Chemscore.Fitness>
17.4224

> <Gold.Chemscore.DG>
-19.4463

> <Gold.Chemscore.ZeroCoef>
-5.4800

> <Gold.Chemscore.Hbond>
2.3023

> <Gold.Chemscore.Metal>
0.0000

> <Gold.Chemscore.Lipo>
82.6040

> <Gold.Chemscore.Internal_Hbond>
0.0000

> <Gold.Chemscore.DEClash>
0.5225

> <Gold.Chemscore.DEInternal>
1.5013

> <Gold.Chemscore.Rot>
1.3235

> <Gold.Chemscore.Internal.Correction>
   9.000000E+99

> <Gold.Chemscore.Hbonds>
donor molecule, donor type, donor heavy atom, donor atom, acceptor molecule, acceptor atom, score
      L1  H     8    28       P1  8029  0.74
      L1  H    11    29       P1  8029  0.97
      P1  H  6933  6944       L1    10  0.36

> <Gold.Chemscore.Hbond.Weighted>
-7.6898

> <Gold.Chemscore.Metal.Weighted>
-0.0000

> <Gold.Chemscore.Lipo.Weighted>
-9.6647

> <Gold.Chemscore.Internal_Hbond.Weighted>
0.0000

> <Gold.Chemscore.DEClash.Weighted>
0.5225

> <Gold.Chemscore.DEInternal.Weighted>
1.5013

> <Gold.Chemscore.Rot.Weighted>
3.3882

> <Gold.Chemscore.Internal.Correction.Weighted>
   9.000000E+99

> <Gold.Protein.RotatedTorsions>
[ 6907 6896 6895 6894 ] final   87.12 input  -60.11 | X-H torsion
[ 7974 7965 7964 7962 ] final   74.06 input  175.53 | X-H torsion
[ 8008 7997 7996 7995 ] final   59.96 input   59.86 | X-H torsion
[ 10167 10162 10161 10158 ] final -118.71 input  -65.29 | X-H torsion
[ 10718 10713 10712 10709 ] final -157.24 input   66.30 | X-H torsion
[ 10763 10752 10751 10750 ] final   61.85 input  -60.55 | X-H torsion
[ 11005 11000 10999 10996 ] final   49.28 input  -57.11 | X-H torsion

> <Gold.Protein.ActiveResidues>
 VAL166  LYS551  ARG553  GLY616  TRP617  ASP618  TYR619  PRO620  LYS621  CYS622 
 ASP623  PHE694  ASN695  SER759  ASP760  ASP761  ALA762  ILE779  LEU786  VAL792 
 PHE793  MET794  SER795  GLU796  ALA797  LYS798  CYS799  TRP800  GLU811  SER814 

> <Gold.Protein.RotatedAtoms>
  152.5406  134.2326  159.8830 H   0  0  0  0  0  0  0  0  0  0  0  0  # atno 6907 bound_to 6896
  151.2297  133.4450  159.2611 H   0  0  0  0  0  0  0  0  0  0  0  0  # atno 6908 bound_to 6896
  151.0727  134.9822  159.8372 H   0  0  0  0  0  0  0  0  0  0  0  0  # atno 6909 bound_to 6896
  145.7331  139.2691  143.1530 H   0  0  0  0  0  0  0  0  0  0  0  0  # atno 7974 bound_to 7965
  155.5746  140.3490  155.4524 H   0  0  0  0  0  0  0  0  0  0  0  0  # atno 8008 bound_to 7997
  156.0419  140.1298  157.0172 H   0  0  0  0  0  0  0  0  0  0  0  0  # atno 8009 bound_to 7997
  154.4395  140.1022  156.6234 H   0  0  0  0  0  0  0  0  0  0  0  0  # atno 8010 bound_to 7997
  140.0546  143.5027  152.2064 H   0  0  0  0  0  0  0  0  0  0  0  0  # atno 10167 bound_to 10162
  156.5376  130.8549  151.2738 H   0  0  0  0  0  0  0  0  0  0  0  0  # atno 10718 bound_to 10713
  152.9963  135.5486  154.6099 H   0  0  0  0  0  0  0  0  0  0  0  0  # atno 10763 bound_to 10752
  154.5422  135.2820  155.1087 H   0  0  0  0  0  0  0  0  0  0  0  0  # atno 10764 bound_to 10752
  154.2360  135.6425  153.5244 H   0  0  0  0  0  0  0  0  0  0  0  0  # atno 10765 bound_to 10752
  140.1117  134.4946  155.8672 H   0  0  0  0  0  0  0  0  0  0  0  0  # atno 11005 bound_to 11000
  146.0519  140.8060  142.9777 LP  0  0  0  0  0  0  0  0  0  0  0  0  # atno 17320 bound_to 7965
  144.6888  140.3066  143.7255 LP  0  0  0  0  0  0  0  0  0  0  0  0  # atno 17321 bound_to 7965
  139.5932  144.7557  151.3350 LP  0  0  0  0  0  0  0  0  0  0  0  0  # atno 17342 bound_to 10162
  140.7201  143.7160  150.7733 LP  0  0  0  0  0  0  0  0  0  0  0  0  # atno 17343 bound_to 10162
  157.7411  130.9863  150.2421 LP  0  0  0  0  0  0  0  0  0  0  0  0  # atno 17370 bound_to 10713
  156.3001  130.3757  149.7758 LP  0  0  0  0  0  0  0  0  0  0  0  0  # atno 17371 bound_to 10713
  141.2132  133.6729  156.6718 LP  0  0  0  0  0  0  0  0  0  0  0  0  # atno 17394 bound_to 11000
  140.3082  134.8108  157.4154 LP  0  0  0  0  0  0  0  0  0  0  0  0  # atno 17395 bound_to 11000

$$$$
