#       Name:                AV-unprocessed.smi:2268
#       Creating user name   scv26
#       Creation time:       Fri Mar 27 12:35:45 2020


#       File generated by GOLD software.
#

@<TRIPOS>MOLECULE
AV-unprocessed.smi:2268
    42    43     1
SMALL
NO_CHARGES


@<TRIPOS>ATOM
      1 ****        -1.6036  -2.6983  -0.5654 C.3            1 S1                 0.0000
      2 ****        -1.7291  -1.9890  -1.9027 C.ar           1 S1                 0.0000
      3 ****        -2.1355  -2.7397  -3.0274 C.ar           1 S1                 0.0000
      4 ****        -2.2524  -2.1319  -4.2905 C.ar           1 S1                 0.0000
      5 ****        -2.6428  -2.8628  -5.3614 F              1 S1                 0.0000
      6 ****        -1.9593  -0.7655  -4.4395 C.ar           1 S1                 0.0000
      7 ****        -1.5548  -0.0091  -3.3243 C.ar           1 S1                 0.0000
      8 ****        -1.4425  -0.6047  -2.0461 C.ar           1 S1                 0.0000
      9 ****        -0.9959   0.2541  -0.8626 C.3            1 S1                 0.0000
     10 ****        -1.6082   1.5296  -0.8886 O.3            1 S1                 0.0000
     11 ****         0.5378   0.4434  -0.8684 C.3            1 S1                 0.0000
     12 ****         1.0498   0.9432   0.4199 N.am           1 S1                 0.0000
     13 ****         1.3125   2.3214   0.4917 C.2            1 S1                 0.0000
     14 ****         1.7607   2.8728   1.5719 N.2            1 S1                 0.0000
     15 ****         1.9926   2.0928   2.7082 C.2            1 S1                 0.0000
     16 ****         2.5143   2.8409   3.9223 C.3            1 S1                 0.0000
     17 ****         1.7576   0.7523   2.7054 C.2            1 S1                 0.0000
     18 ****         1.9898  -0.1474   3.9129 C.3            1 S1                 0.0000
     19 ****         1.2490   0.1105   1.4824 C.2            1 S1                 0.0000
     20 ****         1.0127  -1.0967   1.4119 O.2            1 S1                 0.0000
     21 ****        -1.7869  -3.7687  -0.6632 H              1 S1                 0.0000
     22 ****        -2.3250  -2.3020   0.1494 H              1 S1                 0.0000
     23 ****        -0.6005  -2.5724  -0.1590 H              1 S1                 0.0000
     24 ****        -2.3581  -3.7920  -2.9274 H              1 S1                 0.0000
     25 ****        -2.0433  -0.2969  -5.4089 H              1 S1                 0.0000
     26 ****        -1.3275   1.0384  -3.4584 H              1 S1                 0.0000
     27 ****        -1.3100  -0.2120   0.0698 H              1 S1                 0.0000
     28 ****        -2.5425   1.4140  -0.8058 H              1 S1                 0.0000
     29 ****         1.0150  -0.5168  -1.0743 H              1 S1                 0.0000
     30 ****         0.8388   1.0778  -1.7048 H              1 S1                 0.0000
     31 ****         1.1086   2.8870  -0.4191 H              1 S1                 0.0000
     32 ****         3.4893   2.4544   4.2200 H              1 S1                 0.0000
     33 ****         1.8256   2.7353   4.7608 H              1 S1                 0.0000
     34 ****         2.6258   3.9058   3.7150 H              1 S1                 0.0000
     35 ****         1.0576  -0.6315   4.2055 H              1 S1                 0.0000
     36 ****         2.3675   0.3887   4.7819 H              1 S1                 0.0000
     37 ****         2.7130  -0.9261   3.6681 H              1 S1                 0.0000
     38 ****        -1.3998   1.9867  -1.7533 LP             1 S1                 0.0000
     39 ****        -1.2678   2.0832  -0.1285 LP             1 S1                 0.0000
     40 ****         1.9412   3.8562   1.5943 LP             1 S1                 0.0000
     41 ****         0.6657  -1.4893   0.5602 LP             1 S1                 0.0000
     42 ****         1.1679  -1.6838   2.2064 LP             1 S1                 0.0000
@<TRIPOS>BOND
    1    1    2 1     
    2    1   21 1     
    3    1   22 1     
    4    1   23 1     
    5    2    8 ar    
    6    2    3 ar    
    7    3    4 ar    
    8    3   24 1     
    9    4    5 1     
   10    4    6 ar    
   11    6    7 ar    
   12    6   25 1     
   13    7    8 ar    
   14    7   26 1     
   15    8    9 1     
   16    9   10 1     
   17    9   11 1     
   18    9   27 1     
   19   10   28 1     
   20   11   12 1     
   21   11   29 1     
   22   11   30 1     
   23   12   19 am    
   24   12   13 1     
   25   13   14 2     
   26   13   31 1     
   27   14   15 1     
   28   15   16 1     
   29   15   17 2     
   30   16   32 1     
   31   16   33 1     
   32   16   34 1     
   33   17   18 1     
   34   17   19 1     
   35   18   35 1     
   36   18   36 1     
   37   18   37 1     
   38   19   20 2     
   39   10   38 1     
   40   10   39 1     
   41   14   40 1     
   42   20   41 1     
   43   20   42 1     
@<TRIPOS>SUBSTRUCTURE
      1 S1             1
@<TRIPOS>SET
LONE_PAIRS      STATIC     ATOMS    <user>   **** ""
5 38 39 40 41 42
DONOR_HYDROGENS      STATIC     ATOMS    <user>   **** ""
1 28
ATOM$BLUE        STATIC     ATOMS    COLORGROUP SYSTEM
5 38 39 40 41 42
ATOM$RED        STATIC     ATOMS    COLORGROUP SYSTEM
1 28
