AV-unprocessed.smi:1740|AV-procd|sdf|7012|dock4
  -GOLD-   22720 8223D 1   1.00000     0.00000
 Structure written by MMmdl.
 51 53  0  0  0  0  0  0  0  0  3 V2000
  142.2276  132.5343  148.1351 N   0  5  0  0  0  0  0  0  0  0  0  0
  143.4913  133.0045  148.1278 C   0  0  0  0  0  0  0  0  0  0  0  0
  143.9579  133.9066  147.4363 O   0  0  0  0  0  0  0  0  0  0  0  0
  144.3913  132.2730  149.1296 C   0  0  0  0  0  0  0  0  0  0  0  0
  145.1740  133.2422  149.9386 N   0  3  2  0  0  0  0  0  0  0  0  0
  145.7681  132.6231  151.1501 C   0  0  0  0  0  0  0  0  0  0  0  0
  146.6953  133.6101  151.8796 C   0  0  0  0  0  0  0  0  0  0  0  0
  145.9545  134.9071  152.2437 C   0  0  1  0  0  0  0  0  0  0  0  0
  146.8831  135.8560  152.8512 N   0  0  0  0  0  0  0  0  0  0  0  0
  146.6561  137.1686  153.0032 C   0  0  0  0  0  0  0  0  0  0  0  0
  145.6099  137.7211  152.6633 O   0  0  0  0  0  0  0  0  0  0  0  0
  147.7043  137.7791  153.5811 N   0  0  0  0  0  0  0  0  0  0  0  0
  147.8568  139.1585  153.9019 C   0  0  0  0  0  0  0  0  0  0  0  0
  146.8366  140.1040  153.6325 C   0  0  0  0  0  0  0  0  0  0  0  0
  147.0656  141.4636  153.9051 C   0  0  0  0  0  0  0  0  0  0  0  0
  148.3167  141.8360  154.4237 C   0  0  0  0  0  0  0  0  0  0  0  0
  149.3026  140.9518  154.6728 N   0  0  0  0  0  0  0  0  0  0  0  0
  149.0914  139.6348  154.4289 C   0  0  0  0  0  0  0  0  0  0  0  0
  150.1528  138.7504  154.7270 N   0  0  0  0  0  0  0  0  0  0  0  0
  149.8770  137.6494  155.6455 C   0  0  0  0  0  0  0  0  0  0  0  0
  151.1350  137.4749  156.5026 C   0  0  0  0  0  0  0  0  0  0  0  0
  152.2348  138.1159  155.6623 C   0  0  0  0  0  0  0  0  0  0  0  0
  151.4947  139.2641  154.9825 C   0  0  0  0  0  0  0  0  0  0  0  0
  145.3130  135.5058  150.9782 C   0  0  0  0  0  0  0  0  0  0  0  0
  144.4162  134.4785  150.2688 C   0  0  0  0  0  0  0  0  0  0  0  0
  141.5011  133.0840  148.6096 H   0  0  0  0  0  0  0  0  0  0  0  0
  143.8000  131.6246  149.7783 H   0  0  0  0  0  0  0  0  0  0  0  0
  145.0589  131.6211  148.5636 H   0  0  0  0  0  0  0  0  0  0  0  0
  144.9718  132.2876  151.8165 H   0  0  0  0  0  0  0  0  0  0  0  0
  146.3404  131.7387  150.8673 H   0  0  0  0  0  0  0  0  0  0  0  0
  147.0953  133.1420  152.7799 H   0  0  0  0  0  0  0  0  0  0  0  0
  147.5516  133.8375  151.2427 H   0  0  0  0  0  0  0  0  0  0  0  0
  145.1690  134.6632  152.9619 H   0  0  0  0  0  0  0  0  0  0  0  0
  147.7692  135.4887  153.1661 H   0  0  0  0  0  0  0  0  0  0  0  0
  148.4521  137.1790  153.8970 H   0  0  0  0  0  0  0  0  0  0  0  0
  145.8916  139.8144  153.1995 H   0  0  0  0  0  0  0  0  0  0  0  0
  146.3044  142.2042  153.7090 H   0  0  0  0  0  0  0  0  0  0  0  0
  148.5348  142.8715  154.6388 H   0  0  0  0  0  0  0  0  0  0  0  0
  148.9972  137.8374  156.2630 H   0  0  0  0  0  0  0  0  0  0  0  0
  149.6947  136.7450  155.0644 H   0  0  0  0  0  0  0  0  0  0  0  0
  151.0221  138.0269  157.4367 H   0  0  0  0  0  0  0  0  0  0  0  0
  151.3386  136.4328  156.7501 H   0  0  0  0  0  0  0  0  0  0  0  0
  153.0875  138.4497  156.2539 H   0  0  0  0  0  0  0  0  0  0  0  0
  152.5941  137.4074  154.9145 H   0  0  0  0  0  0  0  0  0  0  0  0
  151.9847  139.5712  154.0582 H   0  0  0  0  0  0  0  0  0  0  0  0
  151.4636  140.1216  155.6557 H   0  0  0  0  0  0  0  0  0  0  0  0
  144.7248  136.3880  151.2337 H   0  0  0  0  0  0  0  0  0  0  0  0
  146.0907  135.8421  150.2906 H   0  0  0  0  0  0  0  0  0  0  0  0
  144.0118  134.9267  149.3609 H   0  0  0  0  0  0  0  0  0  0  0  0
  143.5642  134.2257  150.9016 H   0  0  0  0  0  0  0  0  0  0  0  0
  145.9471  133.5155  149.3474 H   0  0  0  0  0  0  0  0  0  0  0  0
  1  2  1  0  0  0  0
  1 26  1  0  0  0  0
  2  3  2  0  0  0  0
  2  4  1  0  0  0  0
  4  5  1  0  0  0  0
  4 27  1  0  0  0  0
  4 28  1  0  0  0  0
  5 25  1  0  0  0  0
  5  6  1  0  0  0  0
  5 51  1  0  0  0  0
  6  7  1  0  0  0  0
  6 29  1  0  0  0  0
  6 30  1  0  0  0  0
  7  8  1  0  0  0  0
  7 31  1  0  0  0  0
  7 32  1  0  0  0  0
  8  9  1  0  0  0  0
  8 24  1  0  0  0  0
  8 33  1  0  0  0  0
  9 10  1  0  0  0  0
  9 34  1  0  0  0  0
 10 11  2  0  0  0  0
 10 12  1  0  0  0  0
 12 13  1  0  0  0  0
 12 35  1  0  0  0  0
 13 18  1  0  0  0  0
 13 14  2  0  0  0  0
 14 15  1  0  0  0  0
 14 36  1  0  0  0  0
 15 16  2  0  0  0  0
 15 37  1  0  0  0  0
 16 17  1  0  0  0  0
 16 38  1  0  0  0  0
 17 18  2  0  0  0  0
 18 19  1  0  0  0  0
 19 23  1  0  0  0  0
 19 20  1  0  0  0  0
 20 21  1  0  0  0  0
 20 39  1  0  0  0  0
 20 40  1  0  0  0  0
 21 22  1  0  0  0  0
 21 41  1  0  0  0  0
 21 42  1  0  0  0  0
 22 23  1  0  0  0  0
 22 43  1  0  0  0  0
 22 44  1  0  0  0  0
 23 45  1  0  0  0  0
 23 46  1  0  0  0  0
 24 25  1  0  0  0  0
 24 47  1  0  0  0  0
 24 48  1  0  0  0  0
 25 49  1  0  0  0  0
 25 50  1  0  0  0  0
M  CHG  1   1  -1
M  CHG  1   5   1
M  END
> <s_m_source_file>
AV-unprocessed.smi

> <i_m_source_file_index>
1740

> <i_lp_mmshare_version>
43012

> <i_f3d_flags>
0

> <s_epik_input>
W05IMl1DKD1PKVtDSDJdTjFbQ0gyXVtDSDJdW0NIXShbQ0gyXVtDSDJdMSlbTkhdQyg9TylbTkhdYzJbY0hdW2NIXVtjSF1uYzJOM1tDSDJdW0NIMl1bQ0gyXVtDSDJdMw==

> <s_epik_cmdline>
J2VwaWtfcHl0aG9uJywgJy1waCcsICc3LjAnLCAnLXRuJywgJzgnLCAnLW1hJywgJzIwMCcsICctbWV0YWxfYmluZGluZycsICctaW1hZScsICc8aW5maWxlLm1hZT4nLCAnLW9tYWUnLCAnPG91dGZpbGUubWFlPic=

> <r_lp_tautomer_probability>
1

> <r_epik_Ionization_Penalty>
5.80652

> <r_epik_Ionization_Penalty_Charging>
5.7288

> <r_epik_Ionization_Penalty_Neutral>
0.0777157

> <r_epik_State_Penalty>
6.60246

> <r_epik_Charging_Adjusted_Penalty>
12.3313

> <i_epik_Tot_Q>
0

> <i_epik_Tot_abs_Q>
2

> <r_epik_Metal_State_Penalty>
2.64988

> <b_epik_Metal_Only>
1

> <s_lp_Force_Field>
OPLS_2005

> <r_lp_Energy>
35.8158

> <b_lp_Chiralities_Consistent>
1

> <s_lp_Variant>
AV-unprocessed.smi:1740-7

> <Gold.Version>
5.8.1

> <Gold.Id.Protein>
6NUR|6NUR_protein|mol2

> <Gold.PLP.Fitness>
49.6981

> <Gold.PLP.PLP>
-36.9886

> <Gold.PLP.part.hbond>
-6.9974

> <Gold.PLP.part.metal>
0.0000

> <Gold.PLP.part.buried>
-0.0485

> <Gold.PLP.part.nonpolar>
-37.4200

> <Gold.PLP.part.repulsive>
7.0085

> <Gold.PLP.ligand.clash>
0.0039

> <Gold.PLP.ligand.torsion>
0.7189

> <Gold.PLP.Chemscore.Hbond>
3.6079

> <Gold.PLP.Chemscore.CHOScore>
1.0000

> <Gold.PLP.Chemscore.Metal>
0.0000

> <Gold.Chemscore.Hbonds>
donor molecule, donor type, donor heavy atom, donor atom, acceptor molecule, acceptor atom, score
      L1  H     1    26       P1 10186  1.00
      L1  H     5    51       P1  7921  0.32
      L1  H     9    34       P1  7948  0.03
      P1  H  7918  7932       L1     3  0.96
      P1  H 10192 10197       L1     3  0.26
      L1  C    16    38       P1  8028  1.00

> <Gold.PLP.Chemscore.Internal.Correction>
0.3274

> <Gold.Rescore>
     Score         DG    S(hbond)    S(metal)    S(lipo)     H(rot)  DE(clash)    DE(int)     intcor
      7.29     -17.56       2.08        0.00      90.95       2.16       5.69       4.59       ----

> <Gold.Chemscore.Fitness>
7.2861

> <Gold.Chemscore.DG>
-17.5635

> <Gold.Chemscore.ZeroCoef>
-5.4800

> <Gold.Chemscore.Hbond>
2.0843

> <Gold.Chemscore.Metal>
0.0000

> <Gold.Chemscore.Lipo>
90.9543

> <Gold.Chemscore.Internal_Hbond>
0.0000

> <Gold.Chemscore.DEClash>
5.6918

> <Gold.Chemscore.DEInternal>
4.5856

> <Gold.Chemscore.Rot>
2.1562

> <Gold.Chemscore.Internal.Correction>
   9.000000E+99

> <Gold.Chemscore.Hbonds>
donor molecule, donor type, donor heavy atom, donor atom, acceptor molecule, acceptor atom, score
      L1  H     1    26       P1 10186  0.97
      L1  H     5    51       P1  7921  0.03
      L1  H     9    34       P1  7948  0.07
      L1  H    12    35       P1  7948  0.01
      P1  H  7918  7932       L1     3  0.78
      P1  H 10192 10197       L1     3  0.06

> <Gold.Chemscore.Hbond.Weighted>
-6.9617

> <Gold.Chemscore.Metal.Weighted>
-0.0000

> <Gold.Chemscore.Lipo.Weighted>
-10.6417

> <Gold.Chemscore.Internal_Hbond.Weighted>
0.0000

> <Gold.Chemscore.DEClash.Weighted>
5.6918

> <Gold.Chemscore.DEInternal.Weighted>
4.5856

> <Gold.Chemscore.Rot.Weighted>
5.5198

> <Gold.Chemscore.Internal.Correction.Weighted>
   9.000000E+99

> <Gold.Protein.RotatedTorsions>
[ 6907 6896 6895 6894 ] final  -37.48 input  -60.11 | X-H torsion
[ 7974 7965 7964 7962 ] final   65.91 input  175.53 | X-H torsion
[ 8008 7997 7996 7995 ] final  -41.34 input   59.86 | X-H torsion
[ 10167 10162 10161 10158 ] final   14.18 input  -65.29 | X-H torsion
[ 10718 10713 10712 10709 ] final -174.09 input   66.30 | X-H torsion
[ 10763 10752 10751 10750 ] final  -90.46 input  -60.55 | X-H torsion
[ 11005 11000 10999 10996 ] final  -71.32 input  -57.11 | X-H torsion

> <Gold.Protein.ActiveResidues>
 VAL166  LYS551  ARG553  GLY616  TRP617  ASP618  TYR619  PRO620  LYS621  CYS622 
 ASP623  PHE694  ASN695  SER759  ASP760  ASP761  ALA762  ILE779  LEU786  VAL792 
 PHE793  MET794  SER795  GLU796  ALA797  LYS798  CYS799  TRP800  GLU811  SER814 

> <Gold.Protein.RotatedAtoms>
  151.0142  134.9420  159.8023 H   0  0  0  0  0  0  0  0  0  0  0  0  # atno 6907 bound_to 6896
  152.5310  134.2988  159.9080 H   0  0  0  0  0  0  0  0  0  0  0  0  # atno 6908 bound_to 6896
  151.2994  133.4087  159.2673 H   0  0  0  0  0  0  0  0  0  0  0  0  # atno 6909 bound_to 6896
  145.8328  139.3149  143.0977 H   0  0  0  0  0  0  0  0  0  0  0  0  # atno 7974 bound_to 7965
  154.4005  140.1502  156.3175 H   0  0  0  0  0  0  0  0  0  0  0  0  # atno 8008 bound_to 7997
  155.8560  140.3455  155.5703 H   0  0  0  0  0  0  0  0  0  0  0  0  # atno 8009 bound_to 7997
  155.7932  140.0859  157.1988 H   0  0  0  0  0  0  0  0  0  0  0  0  # atno 8010 bound_to 7997
  140.5953  143.8714  150.6912 H   0  0  0  0  0  0  0  0  0  0  0  0  # atno 10167 bound_to 10162
  156.7800  130.9480  151.3120 H   0  0  0  0  0  0  0  0  0  0  0  0  # atno 10718 bound_to 10713
  154.6660  135.5303  153.8078 H   0  0  0  0  0  0  0  0  0  0  0  0  # atno 10763 bound_to 10752
  153.0471  135.6517  154.0798 H   0  0  0  0  0  0  0  0  0  0  0  0  # atno 10764 bound_to 10752
  154.0702  135.2955  155.3289 H   0  0  0  0  0  0  0  0  0  0  0  0  # atno 10765 bound_to 10752
  141.1590  133.6814  156.6888 H   0  0  0  0  0  0  0  0  0  0  0  0  # atno 11005 bound_to 11000
  145.9552  140.8878  143.0239 LP  0  0  0  0  0  0  0  0  0  0  0  0  # atno 17320 bound_to 7965
  144.6738  140.1735  143.7412 LP  0  0  0  0  0  0  0  0  0  0  0  0  # atno 17321 bound_to 7965
  140.2246  143.3782  152.1615 LP  0  0  0  0  0  0  0  0  0  0  0  0  # atno 17342 bound_to 10162
  139.5254  144.7095  151.5249 LP  0  0  0  0  0  0  0  0  0  0  0  0  # atno 17343 bound_to 10162
  157.6651  130.9000  149.9914 LP  0  0  0  0  0  0  0  0  0  0  0  0  # atno 17370 bound_to 10713
  156.1224  130.3645  149.9865 LP  0  0  0  0  0  0  0  0  0  0  0  0  # atno 17371 bound_to 10713
  140.3047  134.8135  157.4126 LP  0  0  0  0  0  0  0  0  0  0  0  0  # atno 17394 bound_to 11000
  140.1231  134.5193  155.8167 LP  0  0  0  0  0  0  0  0  0  0  0  0  # atno 17395 bound_to 11000

$$$$
