#       Name:                AV-unprocessed.smi:849
#       Creating user name   scv26
#       Creation time:       Fri Mar 27 01:41:31 2020


#       File generated by GOLD software.
#

@<TRIPOS>MOLECULE
AV-unprocessed.smi:849
    41    43     1
SMALL
NO_CHARGES


@<TRIPOS>ATOM
      1 ****        -1.4377   3.3080  -0.6837 O.3            1 S1                 0.0000
      2 ****        -0.4355   2.3256  -0.8510 C.3            1 S1                 0.0000
      3 ****        -0.9690   0.9420  -1.0942 C.2            1 S1                 0.0000
      4 ****        -2.2740   0.6743  -1.1850 N.2            1 S1                 0.0000
      5 ****        -2.2942  -0.6868  -1.4129 C.ar           1 S1                 0.0000
      6 ****        -3.3809  -1.5713  -1.5965 C.ar           1 S1                 0.0000
      7 ****        -3.1529  -2.9455  -1.8170 C.ar           1 S1                 0.0000
      8 ****        -1.8383  -3.4532  -1.8584 C.ar           1 S1                 0.0000
      9 ****        -0.7416  -2.5885  -1.6787 C.ar           1 S1                 0.0000
     10 ****        -0.9750  -1.2180  -1.4571 C.ar           1 S1                 0.0000
     11 ****        -0.1417  -0.1253  -1.2375 N.pl3          1 S1                 0.0000
     12 ****         1.3139  -0.1621  -1.1851 C.3            1 S1                 0.0000
     13 ****         1.8457  -0.7462   0.1409 C.3            1 S1                 0.0000
     14 ****         3.2302  -0.9868  -0.0145 O.3            1 S1                 0.0000
     15 ****         1.5461   0.1525   1.3405 C.ar           1 S1                 0.0000
     16 ****         2.3591   1.2865   1.5722 C.ar           1 S1                 0.0000
     17 ****         2.1023   2.1471   2.6558 C.ar           1 S1                 0.0000
     18 ****         1.0262   1.8837   3.5215 C.ar           1 S1                 0.0000
     19 ****         0.2088   0.7604   3.3007 C.ar           1 S1                 0.0000
     20 ****         0.4603  -0.1056   2.2176 C.ar           1 S1                 0.0000
     21 ****        -0.5894  -1.4624   2.0003 Cl             1 S1                 0.0000
     22 ****        -1.0200   4.1426  -0.5377 H              1 S1                 0.0000
     23 ****         0.1969   2.6175  -1.6895 H              1 S1                 0.0000
     24 ****         0.1854   2.3197   0.0435 H              1 S1                 0.0000
     25 ****        -4.3912  -1.1914  -1.5665 H              1 S1                 0.0000
     26 ****        -3.9909  -3.6130  -1.9547 H              1 S1                 0.0000
     27 ****        -1.6723  -4.5071  -2.0269 H              1 S1                 0.0000
     28 ****         0.2665  -2.9746  -1.7066 H              1 S1                 0.0000
     29 ****         1.6494  -0.7799  -2.0196 H              1 S1                 0.0000
     30 ****         1.7225   0.8321  -1.3651 H              1 S1                 0.0000
     31 ****         1.4090  -1.7312   0.2985 H              1 S1                 0.0000
     32 ****         3.6582  -0.1667  -0.2066 H              1 S1                 0.0000
     33 ****         3.1841   1.5085   0.9116 H              1 S1                 0.0000
     34 ****         2.7300   3.0104   2.8211 H              1 S1                 0.0000
     35 ****         0.8264   2.5427   4.3536 H              1 S1                 0.0000
     36 ****        -0.6181   0.5630   3.9672 H              1 S1                 0.0000
     37 ****        -2.0096   3.0753   0.1029 LP             1 S1                 0.0000
     38 ****        -2.0047   3.3543  -1.5061 LP             1 S1                 0.0000
     39 ****        -3.0463   1.3046  -1.1071 LP             1 S1                 0.0000
     40 ****         3.3785  -1.6288  -0.7668 LP             1 S1                 0.0000
     41 ****         3.6024  -1.3716   0.8302 LP             1 S1                 0.0000
@<TRIPOS>BOND
    1    1    2 1     
    2    1   22 1     
    3    2    3 1     
    4    2   23 1     
    5    2   24 1     
    6    3   11 1     
    7    3    4 2     
    8    4    5 1     
    9    5   10 ar    
   10    5    6 ar    
   11    6    7 ar    
   12    6   25 1     
   13    7    8 ar    
   14    7   26 1     
   15    8    9 ar    
   16    8   27 1     
   17    9   10 ar    
   18    9   28 1     
   19   10   11 1     
   20   11   12 1     
   21   12   13 1     
   22   12   29 1     
   23   12   30 1     
   24   13   14 1     
   25   13   15 1     
   26   13   31 1     
   27   14   32 1     
   28   15   20 ar    
   29   15   16 ar    
   30   16   17 ar    
   31   16   33 1     
   32   17   18 ar    
   33   17   34 1     
   34   18   19 ar    
   35   18   35 1     
   36   19   20 ar    
   37   19   36 1     
   38   20   21 1     
   39    1   37 1     
   40    1   38 1     
   41    4   39 1     
   42   14   40 1     
   43   14   41 1     
@<TRIPOS>SUBSTRUCTURE
      1 S1             1
@<TRIPOS>SET
LONE_PAIRS      STATIC     ATOMS    <user>   **** ""
5 37 38 39 40 41
DONOR_HYDROGENS      STATIC     ATOMS    <user>   **** ""
2 22 32
ATOM$BLUE        STATIC     ATOMS    COLORGROUP SYSTEM
5 37 38 39 40 41
ATOM$RED        STATIC     ATOMS    COLORGROUP SYSTEM
2 22 32
