AV-unprocessed.smi:676|AV-procd|sdf|3308|dock5
  -GOLD-   22720 0273D 1   1.00000     0.00000
 Structure written by MMmdl.
 42 43  0  0  0  0  0  0  0  0  1 V2000
  145.8903  137.7571  155.3960 C   0  0  0  0  0  0  0  0  0  0  0  0
  145.8850  139.1792  155.3736 O   0  0  0  0  0  0  0  0  0  0  0  0
  146.9171  139.8297  154.6195 C   0  0  2  0  0  0  0  0  0  0  0  0
  146.8247  139.4453  153.1374 C   0  0  0  0  0  0  0  0  0  0  0  0
  148.2683  139.7046  155.3491 C   0  0  0  0  0  0  0  0  0  0  0  0
  147.8452  140.9099  156.1861 C   0  0  1  0  0  0  0  0  0  0  0  0
  148.9547  141.8129  156.4716 N   0  0  0  0  0  0  0  0  0  0  0  0
  149.9952  141.5090  157.2603 C   0  0  0  0  0  0  0  0  0  0  0  0
  150.1368  140.4093  157.7963 O   0  0  0  0  0  0  0  0  0  0  0  0
  151.0372  142.6171  157.4621 C   0  0  0  0  0  0  0  0  0  0  0  0
  151.9459  142.3463  158.5879 N   0  0  0  0  0  0  0  0  0  0  0  0
  152.0106  143.3135  159.6106 C   0  0  0  0  0  0  0  0  0  0  0  0
  152.8100  143.1649  160.6787 C   0  0  0  0  0  0  0  0  0  0  0  0
  153.6197  141.9730  160.7648 C   0  0  0  0  0  0  0  0  0  0  0  0
  153.5672  141.0424  159.7912 C   0  0  0  0  0  0  0  0  0  0  0  0
  152.6956  141.2011  158.6213 C   0  0  0  0  0  0  0  0  0  0  0  0
  152.6426  140.3567  157.7264 O   0  0  0  0  0  0  0  0  0  0  0  0
  146.9334  141.3444  155.0088 C   0  0  0  0  0  0  0  0  0  0  0  0
  147.5505  142.3010  153.9704 C   0  0  0  0  0  0  0  0  0  0  0  0
  145.5872  141.9661  155.3969 C   0  0  0  0  0  0  0  0  0  0  0  0
  145.1568  137.4111  156.1240 H   0  0  0  0  0  0  0  0  0  0  0  0
  146.8584  137.3482  155.6831 H   0  0  0  0  0  0  0  0  0  0  0  0
  145.6057  137.3393  154.4306 H   0  0  0  0  0  0  0  0  0  0  0  0
  147.5336  140.0055  152.5285 H   0  0  0  0  0  0  0  0  0  0  0  0
  145.8281  139.6383  152.7399 H   0  0  0  0  0  0  0  0  0  0  0  0
  147.0537  138.3928  152.9734 H   0  0  0  0  0  0  0  0  0  0  0  0
  148.4215  138.7926  155.9248 H   0  0  0  0  0  0  0  0  0  0  0  0
  149.1207  139.9023  154.6968 H   0  0  0  0  0  0  0  0  0  0  0  0
  147.2818  140.6075  157.0719 H   0  0  0  0  0  0  0  0  0  0  0  0
  148.9156  142.7353  156.0630 H   0  0  0  0  0  0  0  0  0  0  0  0
  151.5954  142.7295  156.5318 H   0  0  0  0  0  0  0  0  0  0  0  0
  150.5356  143.5751  157.6127 H   0  0  0  0  0  0  0  0  0  0  0  0
  151.3798  144.1787  159.4680 H   0  0  0  0  0  0  0  0  0  0  0  0
  152.8492  143.9187  161.4513 H   0  0  0  0  0  0  0  0  0  0  0  0
  154.2721  141.8275  161.6129 H   0  0  0  0  0  0  0  0  0  0  0  0
  154.1816  140.1578  159.8722 H   0  0  0  0  0  0  0  0  0  0  0  0
  147.6814  143.3055  154.3749 H   0  0  0  0  0  0  0  0  0  0  0  0
  146.9186  142.3921  153.0865 H   0  0  0  0  0  0  0  0  0  0  0  0
  148.5308  141.9658  153.6316 H   0  0  0  0  0  0  0  0  0  0  0  0
  145.6998  143.0034  155.7142 H   0  0  0  0  0  0  0  0  0  0  0  0
  145.1168  141.4369  156.2254 H   0  0  0  0  0  0  0  0  0  0  0  0
  144.8862  141.9506  154.5619 H   0  0  0  0  0  0  0  0  0  0  0  0
  1  2  1  0  0  0  0
  1 21  1  0  0  0  0
  1 22  1  0  0  0  0
  1 23  1  0  0  0  0
  2  3  1  0  0  0  0
  3 18  1  0  0  0  0
  3  4  1  0  0  0  0
  3  5  1  0  0  0  0
  4 24  1  0  0  0  0
  4 25  1  0  0  0  0
  4 26  1  0  0  0  0
  5  6  1  0  0  0  0
  5 27  1  0  0  0  0
  5 28  1  0  0  0  0
  6  7  1  0  0  0  0
  6 18  1  0  0  0  0
  6 29  1  0  0  0  0
  7  8  1  0  0  0  0
  7 30  1  0  0  0  0
  8  9  2  0  0  0  0
  8 10  1  0  0  0  0
 10 11  1  0  0  0  0
 10 31  1  0  0  0  0
 10 32  1  0  0  0  0
 11 16  1  0  0  0  0
 11 12  1  0  0  0  0
 12 13  2  0  0  0  0
 12 33  1  0  0  0  0
 13 14  1  0  0  0  0
 13 34  1  0  0  0  0
 14 15  2  0  0  0  0
 14 35  1  0  0  0  0
 15 16  1  0  0  0  0
 15 36  1  0  0  0  0
 16 17  2  0  0  0  0
 18 19  1  0  0  0  0
 18 20  1  0  0  0  0
 19 37  1  0  0  0  0
 19 38  1  0  0  0  0
 19 39  1  0  0  0  0
 20 40  1  0  0  0  0
 20 41  1  0  0  0  0
 20 42  1  0  0  0  0
M  END
> <s_m_source_file>
AV-unprocessed.smi

> <i_m_source_file_index>
676

> <i_lp_mmshare_version>
43012

> <i_f3d_flags>
0

> <s_epik_input>
W0NIM11PW0NAQF0xKFtDSDNdKVtDSDJdW0NASF0oQzEoW0NIM10pW0NIM10pW05IXUMoPU8pW0NIMl1uMltjSF1bY0hdW2NIXVtjSF1jMj1P

> <s_epik_cmdline>
J2VwaWtfcHl0aG9uJywgJy1waCcsICc3LjAnLCAnLXRuJywgJzgnLCAnLW1hJywgJzIwMCcsICctbWV0YWxfYmluZGluZycsICctaW1hZScsICc8aW5maWxlLm1hZT4nLCAnLW9tYWUnLCAnPG91dGZpbGUubWFlPic=

> <r_lp_tautomer_probability>
1

> <r_epik_Ionization_Penalty>
4.09771e-07

> <r_epik_Ionization_Penalty_Charging>
3.90712e-07

> <r_epik_Ionization_Penalty_Neutral>
1.90591e-08

> <r_epik_State_Penalty>
-0

> <r_epik_Charging_Adjusted_Penalty>
3.90712e-07

> <i_epik_Tot_Q>
0

> <i_epik_Tot_abs_Q>
0

> <r_epik_Metal_State_Penalty>
-0

> <b_epik_Metal_Only>
0

> <s_lp_Force_Field>
OPLS_2005

> <r_lp_Energy>
31.4736

> <b_lp_Chiralities_Consistent>
1

> <s_lp_Variant>
AV-unprocessed.smi:676-2

> <Gold.Version>
5.8.1

> <Gold.Id.Protein>
6NUR|6NUR_protein|mol2

> <Gold.PLP.Fitness>
37.9546

> <Gold.PLP.PLP>
-32.5648

> <Gold.PLP.part.hbond>
-2.0000

> <Gold.PLP.part.metal>
0.0000

> <Gold.PLP.part.buried>
-3.5991

> <Gold.PLP.part.nonpolar>
-26.8737

> <Gold.PLP.part.repulsive>
0.0794

> <Gold.PLP.ligand.clash>
0.0000

> <Gold.PLP.ligand.torsion>
0.3875

> <Gold.PLP.Chemscore.Hbond>
1.9280

> <Gold.PLP.Chemscore.CHOScore>
0.0000

> <Gold.PLP.Chemscore.Metal>
0.0000

> <Gold.Chemscore.Hbonds>
donor molecule, donor type, donor heavy atom, donor atom, acceptor molecule, acceptor atom, score
      L1  H     7    30       P1  8028  1.00
      P1  H  7997  8009       L1    17  0.92

> <Gold.PLP.Chemscore.Internal.Correction>
0.3808

> <Gold.Rescore>
     Score         DG    S(hbond)    S(metal)    S(lipo)     H(rot)  DE(clash)    DE(int)     intcor
     12.35     -17.22       1.82        0.00      83.81       1.62       0.59       4.28       ----

> <Gold.Chemscore.Fitness>
12.3480

> <Gold.Chemscore.DG>
-17.2208

> <Gold.Chemscore.ZeroCoef>
-5.4800

> <Gold.Chemscore.Hbond>
1.8192

> <Gold.Chemscore.Metal>
0.0000

> <Gold.Chemscore.Lipo>
83.8065

> <Gold.Chemscore.Internal_Hbond>
0.0000

> <Gold.Chemscore.DEClash>
0.5932

> <Gold.Chemscore.DEInternal>
4.2797

> <Gold.Chemscore.Rot>
1.6175

> <Gold.Chemscore.Internal.Correction>
   9.000000E+99

> <Gold.Chemscore.Hbonds>
donor molecule, donor type, donor heavy atom, donor atom, acceptor molecule, acceptor atom, score
      L1  H     7    30       P1  8028  0.94
      P1  H  7997  8009       L1    17  0.71

> <Gold.Chemscore.Hbond.Weighted>
-6.0762

> <Gold.Chemscore.Metal.Weighted>
-0.0000

> <Gold.Chemscore.Lipo.Weighted>
-9.8054

> <Gold.Chemscore.Internal_Hbond.Weighted>
0.0000

> <Gold.Chemscore.DEClash.Weighted>
0.5932

> <Gold.Chemscore.DEInternal.Weighted>
4.2797

> <Gold.Chemscore.Rot.Weighted>
4.1408

> <Gold.Chemscore.Internal.Correction.Weighted>
   9.000000E+99

> <Gold.Protein.RotatedTorsions>
[ 6907 6896 6895 6894 ] final  -53.60 input  -60.11 | X-H torsion
[ 7974 7965 7964 7962 ] final  147.87 input  175.53 | X-H torsion
[ 8008 7997 7996 7995 ] final  171.62 input   59.86 | X-H torsion
[ 10167 10162 10161 10158 ] final  -88.86 input  -65.29 | X-H torsion
[ 10718 10713 10712 10709 ] final  -77.68 input   66.30 | X-H torsion
[ 10763 10752 10751 10750 ] final  -35.95 input  -60.55 | X-H torsion
[ 11005 11000 10999 10996 ] final  -68.85 input  -57.11 | X-H torsion

> <Gold.Protein.ActiveResidues>
 VAL166  LYS551  ARG553  GLY616  TRP617  ASP618  TYR619  PRO620  LYS621  CYS622 
 ASP623  PHE694  ASN695  SER759  ASP760  ASP761  ALA762  ILE779  LEU786  VAL792 
 PHE793  MET794  SER795  GLU796  ALA797  LYS798  CYS799  TRP800  GLU811  SER814 

> <Gold.Protein.RotatedAtoms>
  150.8412  134.7705  159.6933 H   0  0  0  0  0  0  0  0  0  0  0  0  # atno 6907 bound_to 6896
  152.4499  134.5413  159.9849 H   0  0  0  0  0  0  0  0  0  0  0  0  # atno 6908 bound_to 6896
  151.5552  133.3373  159.2996 H   0  0  0  0  0  0  0  0  0  0  0  0  # atno 6909 bound_to 6896
  144.8557  139.6083  143.5953 H   0  0  0  0  0  0  0  0  0  0  0  0  # atno 7974 bound_to 7965
  156.1253  140.1507  156.9144 H   0  0  0  0  0  0  0  0  0  0  0  0  # atno 8008 bound_to 7997
  154.4867  140.0863  156.7543 H   0  0  0  0  0  0  0  0  0  0  0  0  # atno 8009 bound_to 7997
  155.4354  140.3429  155.4286 H   0  0  0  0  0  0  0  0  0  0  0  0  # atno 8010 bound_to 7997
  140.3706  143.2796  151.9505 H   0  0  0  0  0  0  0  0  0  0  0  0  # atno 10167 bound_to 10162
  156.0138  130.4497  150.3381 H   0  0  0  0  0  0  0  0  0  0  0  0  # atno 10718 bound_to 10713
  153.8717  135.6830  153.4774 H   0  0  0  0  0  0  0  0  0  0  0  0  # atno 10763 bound_to 10752
  153.1283  135.4709  154.9306 H   0  0  0  0  0  0  0  0  0  0  0  0  # atno 10764 bound_to 10752
  154.7711  135.3239  154.8138 H   0  0  0  0  0  0  0  0  0  0  0  0  # atno 10765 bound_to 10752
  141.1541  133.6750  156.6510 H   0  0  0  0  0  0  0  0  0  0  0  0  # atno 11005 bound_to 11000
  146.2821  139.6905  142.9221 LP  0  0  0  0  0  0  0  0  0  0  0  0  # atno 17320 bound_to 7965
  145.4410  141.0422  143.2857 LP  0  0  0  0  0  0  0  0  0  0  0  0  # atno 17321 bound_to 7965
  139.4804  144.5911  151.7771 LP  0  0  0  0  0  0  0  0  0  0  0  0  # atno 17342 bound_to 10162
  140.5037  144.1130  150.5977 LP  0  0  0  0  0  0  0  0  0  0  0  0  # atno 17343 bound_to 10162
  157.1477  131.0313  151.2899 LP  0  0  0  0  0  0  0  0  0  0  0  0  # atno 17370 bound_to 10713
  157.4418  130.7548  149.7076 LP  0  0  0  0  0  0  0  0  0  0  0  0  # atno 17371 bound_to 10713
  140.3320  134.7920  157.4334 LP  0  0  0  0  0  0  0  0  0  0  0  0  # atno 17394 bound_to 11000
  140.1008  134.5475  155.8354 LP  0  0  0  0  0  0  0  0  0  0  0  0  # atno 17395 bound_to 11000

$$$$
