AV-unprocessed.smi:290|AV-procd|sdf|2219|dock10
  -GOLD-   2262022 63D 1   1.00000     0.00000
 Structure written by MMmdl.
 59 62  0  0  0  0  0  0  0  0  2 V2000
  152.8171  144.9004  158.0173 C   0  0  0  0  0  0  0  0  0  0  0  0
  151.9997  144.1451  159.0768 C   0  0  2  0  0  0  0  0  0  0  0  0
  152.8034  144.0390  160.2492 O   0  0  0  0  0  0  0  0  0  0  0  0
  152.4462  142.8559  160.9408 C   0  0  0  0  0  0  0  0  0  0  0  0
  152.2604  141.8603  159.8065 C   0  0  0  0  0  0  0  0  0  0  0  0
  151.5692  142.6916  158.7285 C   0  0  1  0  0  0  0  0  0  0  0  0
  150.1709  142.5931  158.9422 O   0  0  0  0  0  0  0  0  0  0  0  0
  151.8729  142.2091  157.2853 C   0  0  0  0  0  0  0  0  0  0  0  0
  151.4679  140.8337  157.0391 N   0  0  0  0  0  0  0  0  0  0  0  0
  151.8693  139.7167  157.7382 C   0  0  0  0  0  0  0  0  0  0  0  0
  151.3576  138.5878  157.3279 N   0  0  0  0  0  0  0  0  0  0  0  0
  150.5493  138.9560  156.2607 C   0  0  0  0  0  0  0  0  0  0  0  0
  149.7060  138.2408  155.3722 C   0  0  0  0  0  0  0  0  0  0  0  0
  149.5497  136.9008  155.4681 N   0  0  0  0  0  0  0  0  0  0  0  0
  150.7029  136.1292  155.0447 C   0  0  0  0  0  0  0  0  0  0  0  0
  150.1894  134.7042  154.8423 C   0  0  0  0  0  0  0  0  0  0  0  0
  148.6510  134.8106  154.7713 C   0  0  2  0  0  0  0  0  0  0  0  0
  148.1068  134.0484  153.6028 N   0  3  1  0  0  0  0  0  0  0  0  0
  148.7505  132.7134  153.4906 C   0  0  0  0  0  0  0  0  0  0  0  0
  146.6196  133.9674  153.5280 C   0  0  0  0  0  0  0  0  0  0  0  0
  146.0645  133.9799  152.0910 C   0  0  0  0  0  0  0  0  0  0  0  0
  146.4907  135.1413  151.4097 O   0  0  0  0  0  0  0  0  0  0  0  0
  148.3920  136.3376  154.7842 C   0  0  1  0  0  0  0  0  0  0  0  0
  147.0926  136.7524  155.5098 C   0  0  0  0  0  0  0  0  0  0  0  0
  149.0389  138.9452  154.4200 N   0  0  0  0  0  0  0  0  0  0  0  0
  149.1953  140.2706  154.3401 C   0  0  0  0  0  0  0  0  0  0  0  0
  149.9484  141.0698  155.0994 N   0  0  0  0  0  0  0  0  0  0  0  0
  150.6112  140.3626  156.0597 C   0  0  0  0  0  0  0  0  0  0  0  0
  148.2333  134.3889  155.6878 H   0  0  0  0  0  0  0  0  0  0  0  0
  148.3826  136.7134  153.7598 H   0  0  0  0  0  0  0  0  0  0  0  0
  152.2515  145.0285  157.0944 H   0  0  0  0  0  0  0  0  0  0  0  0
  153.7460  144.3812  157.7811 H   0  0  0  0  0  0  0  0  0  0  0  0
  153.0828  145.8949  158.3766 H   0  0  0  0  0  0  0  0  0  0  0  0
  151.1266  144.7495  159.3304 H   0  0  0  0  0  0  0  0  0  0  0  0
  153.2173  142.5523  161.6487 H   0  0  0  0  0  0  0  0  0  0  0  0
  151.5142  143.0122  161.4862 H   0  0  0  0  0  0  0  0  0  0  0  0
  153.2430  141.5382  159.4599 H   0  0  0  0  0  0  0  0  0  0  0  0
  151.7045  140.9696  160.1028 H   0  0  0  0  0  0  0  0  0  0  0  0
  149.7594  143.3748  158.6060 H   0  0  0  0  0  0  0  0  0  0  0  0
  151.3734  142.8473  156.5552 H   0  0  0  0  0  0  0  0  0  0  0  0
  152.9408  142.2781  157.0765 H   0  0  0  0  0  0  0  0  0  0  0  0
  152.5539  139.7661  158.5726 H   0  0  0  0  0  0  0  0  0  0  0  0
  151.1097  136.5166  154.1092 H   0  0  0  0  0  0  0  0  0  0  0  0
  151.4927  136.1664  155.7955 H   0  0  0  0  0  0  0  0  0  0  0  0
  150.6287  134.2800  153.9385 H   0  0  0  0  0  0  0  0  0  0  0  0
  150.4828  134.0674  155.6776 H   0  0  0  0  0  0  0  0  0  0  0  0
  148.3763  132.0355  154.2588 H   0  0  0  0  0  0  0  0  0  0  0  0
  149.8329  132.7737  153.6013 H   0  0  0  0  0  0  0  0  0  0  0  0
  148.5718  132.2619  152.5157 H   0  0  0  0  0  0  0  0  0  0  0  0
  146.2835  133.0681  154.0458 H   0  0  0  0  0  0  0  0  0  0  0  0
  146.1674  134.8164  154.0370 H   0  0  0  0  0  0  0  0  0  0  0  0
  146.3446  133.0912  151.5273 H   0  0  0  0  0  0  0  0  0  0  0  0
  144.9745  133.9878  152.1206 H   0  0  0  0  0  0  0  0  0  0  0  0
  147.3811  135.3332  151.6634 H   0  0  0  0  0  0  0  0  0  0  0  0
  146.2015  136.3117  155.0681 H   0  0  0  0  0  0  0  0  0  0  0  0
  146.9548  137.8338  155.4862 H   0  0  0  0  0  0  0  0  0  0  0  0
  147.1168  136.4499  156.5573 H   0  0  0  0  0  0  0  0  0  0  0  0
  148.6360  140.7616  153.5574 H   0  0  0  0  0  0  0  0  0  0  0  0
  148.3867  134.5716  152.7851 H   0  0  0  0  0  0  0  0  0  0  0  0
  1  2  1  0  0  0  0
  1 31  1  0  0  0  0
  1 32  1  0  0  0  0
  1 33  1  0  0  0  0
  2  6  1  0  0  0  0
  2  3  1  0  0  0  0
  2 34  1  0  0  0  0
  3  4  1  0  0  0  0
  4  5  1  0  0  0  0
  4 35  1  0  0  0  0
  4 36  1  0  0  0  0
  5  6  1  0  0  0  0
  5 37  1  0  0  0  0
  5 38  1  0  0  0  0
  6  7  1  0  0  0  0
  6  8  1  0  0  0  0
  7 39  1  0  0  0  0
  8  9  1  0  0  0  0
  8 40  1  0  0  0  0
  8 41  1  0  0  0  0
  9 28  1  0  0  0  0
  9 10  1  0  0  0  0
 10 11  2  0  0  0  0
 10 42  1  0  0  0  0
 11 12  1  0  0  0  0
 12 28  2  0  0  0  0
 12 13  1  0  0  0  0
 13 14  1  0  0  0  0
 13 25  2  0  0  0  0
 14 23  1  0  0  0  0
 14 15  1  0  0  0  0
 15 16  1  0  0  0  0
 15 43  1  0  0  0  0
 15 44  1  0  0  0  0
 16 17  1  0  0  0  0
 16 45  1  0  0  0  0
 16 46  1  0  0  0  0
 17 29  1  0  0  0  0
 17 18  1  0  0  0  0
 17 23  1  0  0  0  0
 18 19  1  0  0  0  0
 18 20  1  0  0  0  0
 18 59  1  0  0  0  0
 19 47  1  0  0  0  0
 19 48  1  0  0  0  0
 19 49  1  0  0  0  0
 20 21  1  0  0  0  0
 20 50  1  0  0  0  0
 20 51  1  0  0  0  0
 21 22  1  0  0  0  0
 21 52  1  0  0  0  0
 21 53  1  0  0  0  0
 22 54  1  0  0  0  0
 23 30  1  0  0  0  0
 23 24  1  0  0  0  0
 24 55  1  0  0  0  0
 24 56  1  0  0  0  0
 24 57  1  0  0  0  0
 25 26  1  0  0  0  0
 26 27  2  0  0  0  0
 26 58  1  0  0  0  0
 27 28  1  0  0  0  0
M  CHG  1  18   1
M  END
> <s_m_source_file>
AV-unprocessed.smi

> <i_m_source_file_index>
290

> <i_lp_mmshare_version>
43012

> <i_f3d_flags>
0

> <s_epik_input>
W0NIMl0xW0NIMl1PW0NAQEhdKFtDSDNdKVtDQEBdMShbT0hdKVtDSDJdbihbY0hdbjIpYyhjMjMpbltjSF1uYzNONFtDSDJdW0NIMl1bQ0BIXShbQ0BIXTRbQ0gzXSlOKFtDSDNdKVtDSDJdW0NIMl1bT0hd

> <s_epik_cmdline>
J2VwaWtfcHl0aG9uJywgJy1waCcsICc3LjAnLCAnLXRuJywgJzgnLCAnLW1hJywgJzIwMCcsICctbWV0YWxfYmluZGluZycsICctaW1hZScsICc8aW5maWxlLm1hZT4nLCAnLW9tYWUnLCAnPG91dGZpbGUubWFlPic=

> <r_lp_tautomer_probability>
1

> <r_epik_Ionization_Penalty>
0.0036983

> <r_epik_Ionization_Penalty_Charging>
0.0032725

> <r_epik_Ionization_Penalty_Neutral>
0.000425798

> <r_epik_State_Penalty>
-0

> <r_epik_Charging_Adjusted_Penalty>
0.0032725

> <i_epik_Tot_Q>
1

> <i_epik_Tot_abs_Q>
1

> <r_epik_Metal_State_Penalty>
-0

> <b_epik_Metal_Only>
0

> <s_lp_Force_Field>
OPLS_2005

> <r_lp_Energy>
64.8136

> <b_lp_Chiralities_Consistent>
1

> <s_lp_Variant>
AV-unprocessed.smi:290-5

> <Gold.Version>
5.8.1

> <Gold.Id.Protein>
6NUR|6NUR_protein|mol2

> <Gold.PLP.Fitness>
48.6757

> <Gold.PLP.PLP>
-40.0974

> <Gold.PLP.part.hbond>
-3.2796

> <Gold.PLP.part.metal>
0.0000

> <Gold.PLP.part.buried>
-2.5706

> <Gold.PLP.part.nonpolar>
-32.5577

> <Gold.PLP.part.repulsive>
0.4031

> <Gold.PLP.ligand.clash>
0.0000

> <Gold.PLP.ligand.torsion>
0.8991

> <Gold.PLP.Chemscore.Hbond>
3.0403

> <Gold.PLP.Chemscore.CHOScore>
0.3506

> <Gold.PLP.Chemscore.Metal>
0.0000

> <Gold.Chemscore.Hbonds>
donor molecule, donor type, donor heavy atom, donor atom, acceptor molecule, acceptor atom, score
      L1  H    18    59       P1  7948  2.00
      L1  H    22    54       P1  7948  1.00
      P1  H  7989  7998       L1    27  0.06
      L1  C    26    58       P1  7957  0.37

> <Gold.PLP.Chemscore.Internal.Correction>
0.2039

> <Gold.Rescore>
     Score         DG    S(hbond)    S(metal)    S(lipo)     H(rot)  DE(clash)    DE(int)     intcor
     10.55     -14.09       1.80        0.00     102.43       3.67       1.70       1.85       ----

> <Gold.Chemscore.Fitness>
10.5468

> <Gold.Chemscore.DG>
-14.0920

> <Gold.Chemscore.ZeroCoef>
-5.4800

> <Gold.Chemscore.Hbond>
1.8001

> <Gold.Chemscore.Metal>
0.0000

> <Gold.Chemscore.Lipo>
102.4292

> <Gold.Chemscore.Internal_Hbond>
0.0000

> <Gold.Chemscore.DEClash>
1.6954

> <Gold.Chemscore.DEInternal>
1.8497

> <Gold.Chemscore.Rot>
3.6658

> <Gold.Chemscore.Internal.Correction>
   9.000000E+99

> <Gold.Chemscore.Hbonds>
donor molecule, donor type, donor heavy atom, donor atom, acceptor molecule, acceptor atom, score
      L1  H    18    59       P1  7948  0.29
      L1  H    22    54       P1  7948  0.95

> <Gold.Chemscore.Hbond.Weighted>
-6.0122

> <Gold.Chemscore.Metal.Weighted>
-0.0000

> <Gold.Chemscore.Lipo.Weighted>
-11.9842

> <Gold.Chemscore.Internal_Hbond.Weighted>
0.0000

> <Gold.Chemscore.DEClash.Weighted>
1.6954

> <Gold.Chemscore.DEInternal.Weighted>
1.8497

> <Gold.Chemscore.Rot.Weighted>
9.3844

> <Gold.Chemscore.Internal.Correction.Weighted>
   9.000000E+99

> <Gold.Protein.RotatedTorsions>
[ 6907 6896 6895 6894 ] final -122.05 input  -60.11 | X-H torsion
[ 7974 7965 7964 7962 ] final  -23.07 input  175.53 | X-H torsion
[ 8008 7997 7996 7995 ] final -129.61 input   59.86 | X-H torsion
[ 10167 10162 10161 10158 ] final  131.47 input  -65.29 | X-H torsion
[ 10718 10713 10712 10709 ] final -121.11 input   66.30 | X-H torsion
[ 10763 10752 10751 10750 ] final  -55.51 input  -60.55 | X-H torsion
[ 11005 11000 10999 10996 ] final   92.29 input  -57.11 | X-H torsion

> <Gold.Protein.ActiveResidues>
 VAL166  LYS551  ARG553  GLY616  TRP617  ASP618  TYR619  PRO620  LYS621  CYS622 
 ASP623  PHE694  ASN695  SER759  ASP760  ASP761  ALA762  ILE779  LEU786  VAL792 
 PHE793  MET794  SER795  GLU796  ALA797  LYS798  CYS799  TRP800  GLU811  SER814 

> <Gold.Protein.RotatedAtoms>
  150.8540  133.7744  159.3015 H   0  0  0  0  0  0  0  0  0  0  0  0  # atno 6907 bound_to 6896
  151.5407  135.1067  159.9935 H   0  0  0  0  0  0  0  0  0  0  0  0  # atno 6908 bound_to 6896
  152.4575  133.7710  159.6854 H   0  0  0  0  0  0  0  0  0  0  0  0  # atno 6909 bound_to 6896
  146.1638  140.4565  142.8560 H   0  0  0  0  0  0  0  0  0  0  0  0  # atno 7974 bound_to 7965
  155.2821  140.0444  157.3016 H   0  0  0  0  0  0  0  0  0  0  0  0  # atno 8008 bound_to 7997
  154.5591  140.2340  155.8332 H   0  0  0  0  0  0  0  0  0  0  0  0  # atno 8009 bound_to 7997
  156.2032  140.3020  155.9578 H   0  0  0  0  0  0  0  0  0  0  0  0  # atno 8010 bound_to 7997
  139.5382  144.6704  151.4712 H   0  0  0  0  0  0  0  0  0  0  0  0  # atno 10167 bound_to 10162
  156.1311  130.6396  150.9622 H   0  0  0  0  0  0  0  0  0  0  0  0  # atno 10718 bound_to 10713
  154.1919  135.6426  153.5062 H   0  0  0  0  0  0  0  0  0  0  0  0  # atno 10763 bound_to 10752
  153.0033  135.5431  154.6406 H   0  0  0  0  0  0  0  0  0  0  0  0  # atno 10764 bound_to 10752
  154.5797  135.2924  155.0718 H   0  0  0  0  0  0  0  0  0  0  0  0  # atno 10765 bound_to 10752
  139.8825  134.8724  156.3551 H   0  0  0  0  0  0  0  0  0  0  0  0  # atno 11005 bound_to 11000
  144.8064  140.6307  143.6444 LP  0  0  0  0  0  0  0  0  0  0  0  0  # atno 17320 bound_to 7965
  145.4520  139.1522  143.3913 LP  0  0  0  0  0  0  0  0  0  0  0  0  # atno 17321 bound_to 7965
  140.6600  143.8519  150.6877 LP  0  0  0  0  0  0  0  0  0  0  0  0  # atno 17342 bound_to 10162
  140.1910  143.4036  152.1863 LP  0  0  0  0  0  0  0  0  0  0  0  0  # atno 17343 bound_to 10162
  157.6488  131.0900  150.8095 LP  0  0  0  0  0  0  0  0  0  0  0  0  # atno 17370 bound_to 10713
  156.8179  130.4974  149.5347 LP  0  0  0  0  0  0  0  0  0  0  0  0  # atno 17371 bound_to 10713
  140.9568  133.7415  156.0346 LP  0  0  0  0  0  0  0  0  0  0  0  0  # atno 17394 bound_to 11000
  140.8039  134.3477  157.5431 LP  0  0  0  0  0  0  0  0  0  0  0  0  # atno 17395 bound_to 11000

$$$$
