AV-unprocessed.smi:212|AV-procd|sdf|1625|dock4
  -GOLD-   2262019563D 1   1.00000     0.00000
 Structure written by MMmdl.
 65 68  0  0  0  0  0  0  0  0  2 V2000
  147.1448  130.6118  156.1066 C   0  0  0  0  0  0  0  0  0  0  0  0
  146.2945  131.6462  155.3427 C   0  0  2  0  0  0  0  0  0  0  0  0
  146.8566  131.9480  153.9385 C   0  0  0  0  0  0  0  0  0  0  0  0
  145.9795  132.8997  153.2096 N   0  3  2  0  0  0  0  0  0  0  0  0
  146.4038  133.1327  151.8040 C   0  0  0  0  0  0  0  0  0  0  0  0
  145.7423  132.1415  150.8197 C   0  0  0  0  0  0  0  0  0  0  0  0
  145.8357  130.7082  151.3690 C   0  0  0  0  0  0  0  0  0  0  0  0
  144.2763  132.4989  150.5125 C   0  0  0  0  0  0  0  0  0  0  0  0
  146.4697  132.1622  149.6066 O   0  0  0  0  0  0  0  0  0  0  0  0
  145.7500  134.1558  153.9673 C   0  0  0  0  0  0  0  0  0  0  0  0
  145.2291  133.8680  155.3903 C   0  0  0  0  0  0  0  0  0  0  0  0
  146.0518  132.8847  156.0903 N   0  0  0  0  0  0  0  0  0  0  0  0
  147.0791  133.4018  156.8048 C   0  0  0  0  0  0  0  0  0  0  0  0
  147.1766  133.1630  158.1383 N   0  0  0  0  0  0  0  0  0  0  0  0
  148.1839  133.6931  158.8387 C   0  0  0  0  0  0  0  0  0  0  0  0
  149.1759  134.4773  158.4111 N   0  0  0  0  0  0  0  0  0  0  0  0
  149.0765  134.7193  157.0726 C   0  0  0  0  0  0  0  0  0  0  0  0
  148.0696  134.2193  156.2013 C   0  0  0  0  0  0  0  0  0  0  0  0
  148.2896  134.6680  154.9059 N   0  0  0  0  0  0  0  0  0  0  0  0
  149.3681  135.3969  155.0044 C   0  0  0  0  0  0  0  0  0  0  0  0
  149.8937  135.5002  156.2733 N   0  0  0  0  0  0  0  0  0  0  0  0
  151.0754  136.2484  156.6597 C   0  0  0  0  0  0  0  0  0  0  0  0
  150.9964  137.7729  156.3642 C   0  0  2  0  0  0  0  0  0  0  0  0
  151.1037  138.0203  154.8430 C   0  0  0  0  0  0  0  0  0  0  0  0
  150.9171  139.3863  154.5329 O   0  0  0  0  0  0  0  0  0  0  0  0
  152.0137  138.6822  157.1167 C   0  0  1  0  0  0  0  0  0  0  0  0
  151.6241  139.2151  158.4843 C   0  0  0  0  0  0  0  0  0  0  0  0
  152.9576  139.7608  158.9860 C   0  0  0  0  0  0  0  0  0  0  0  0
  153.9626  138.9276  158.4124 O   0  0  0  0  0  0  0  0  0  0  0  0
  153.4011  138.1003  157.3966 C   0  0  0  0  0  0  0  0  0  0  0  0
  147.1998  129.6728  155.5557 H   0  0  0  0  0  0  0  0  0  0  0  0
  146.7130  130.3920  157.0835 H   0  0  0  0  0  0  0  0  0  0  0  0
  148.1677  130.9575  156.2614 H   0  0  0  0  0  0  0  0  0  0  0  0
  145.3117  131.1928  155.2056 H   0  0  0  0  0  0  0  0  0  0  0  0
  147.8652  132.3580  154.0068 H   0  0  0  0  0  0  0  0  0  0  0  0
  146.9323  131.0208  153.3690 H   0  0  0  0  0  0  0  0  0  0  0  0
  146.1643  134.1550  151.5051 H   0  0  0  0  0  0  0  0  0  0  0  0
  147.4896  133.0585  151.7229 H   0  0  0  0  0  0  0  0  0  0  0  0
  145.2941  130.6112  152.3106 H   0  0  0  0  0  0  0  0  0  0  0  0
  146.8708  130.4180  151.5543 H   0  0  0  0  0  0  0  0  0  0  0  0
  145.4123  129.9843  150.6714 H   0  0  0  0  0  0  0  0  0  0  0  0
  143.6773  132.5177  151.4235 H   0  0  0  0  0  0  0  0  0  0  0  0
  143.8247  131.7699  149.8384 H   0  0  0  0  0  0  0  0  0  0  0  0
  144.1854  133.4762  150.0374 H   0  0  0  0  0  0  0  0  0  0  0  0
  147.3719  131.9476  149.7916 H   0  0  0  0  0  0  0  0  0  0  0  0
  146.6781  134.7267  154.0085 H   0  0  0  0  0  0  0  0  0  0  0  0
  145.0269  134.7751  153.4358 H   0  0  0  0  0  0  0  0  0  0  0  0
  145.1704  134.7935  155.9653 H   0  0  0  0  0  0  0  0  0  0  0  0
  144.2127  133.4766  155.3351 H   0  0  0  0  0  0  0  0  0  0  0  0
  148.1963  133.4589  159.8931 H   0  0  0  0  0  0  0  0  0  0  0  0
  149.8064  135.8938  154.1510 H   0  0  0  0  0  0  0  0  0  0  0  0
  151.2850  136.0690  157.7141 H   0  0  0  0  0  0  0  0  0  0  0  0
  151.9121  135.8064  156.1180 H   0  0  0  0  0  0  0  0  0  0  0  0
  150.0049  138.1167  156.6621 H   0  0  0  0  0  0  0  0  0  0  0  0
  152.0883  137.7362  154.4704 H   0  0  0  0  0  0  0  0  0  0  0  0
  150.3720  137.4222  154.2994 H   0  0  0  0  0  0  0  0  0  0  0  0
  150.1257  139.6856  154.9544 H   0  0  0  0  0  0  0  0  0  0  0  0
  152.1638  139.5716  156.5021 H   0  0  0  0  0  0  0  0  0  0  0  0
  150.8451  139.9768  158.4409 H   0  0  0  0  0  0  0  0  0  0  0  0
  151.2926  138.4317  159.1593 H   0  0  0  0  0  0  0  0  0  0  0  0
  153.1088  140.7805  158.6302 H   0  0  0  0  0  0  0  0  0  0  0  0
  153.0201  139.7699  160.0745 H   0  0  0  0  0  0  0  0  0  0  0  0
  153.3454  137.0877  157.7912 H   0  0  0  0  0  0  0  0  0  0  0  0
  154.0319  138.0811  156.5077 H   0  0  0  0  0  0  0  0  0  0  0  0
  145.0756  132.4529  153.1475 H   0  0  0  0  0  0  0  0  0  0  0  0
  1  2  1  0  0  0  0
  1 31  1  0  0  0  0
  1 32  1  0  0  0  0
  1 33  1  0  0  0  0
  2 12  1  0  0  0  0
  2  3  1  0  0  0  0
  2 34  1  0  0  0  0
  3  4  1  0  0  0  0
  3 35  1  0  0  0  0
  3 36  1  0  0  0  0
  4  5  1  0  0  0  0
  4 10  1  0  0  0  0
  4 65  1  0  0  0  0
  5  6  1  0  0  0  0
  5 37  1  0  0  0  0
  5 38  1  0  0  0  0
  6  7  1  0  0  0  0
  6  8  1  0  0  0  0
  6  9  1  0  0  0  0
  7 39  1  0  0  0  0
  7 40  1  0  0  0  0
  7 41  1  0  0  0  0
  8 42  1  0  0  0  0
  8 43  1  0  0  0  0
  8 44  1  0  0  0  0
  9 45  1  0  0  0  0
 10 11  1  0  0  0  0
 10 46  1  0  0  0  0
 10 47  1  0  0  0  0
 11 12  1  0  0  0  0
 11 48  1  0  0  0  0
 11 49  1  0  0  0  0
 12 13  1  0  0  0  0
 13 18  1  0  0  0  0
 13 14  2  0  0  0  0
 14 15  1  0  0  0  0
 15 16  2  0  0  0  0
 15 50  1  0  0  0  0
 16 17  1  0  0  0  0
 17 21  1  0  0  0  0
 17 18  2  0  0  0  0
 18 19  1  0  0  0  0
 19 20  2  0  0  0  0
 20 21  1  0  0  0  0
 20 51  1  0  0  0  0
 21 22  1  0  0  0  0
 22 23  1  0  0  0  0
 22 52  1  0  0  0  0
 22 53  1  0  0  0  0
 23 24  1  0  0  0  0
 23 26  1  0  0  0  0
 23 54  1  0  0  0  0
 24 25  1  0  0  0  0
 24 55  1  0  0  0  0
 24 56  1  0  0  0  0
 25 57  1  0  0  0  0
 26 30  1  0  0  0  0
 26 27  1  0  0  0  0
 26 58  1  0  0  0  0
 27 28  1  0  0  0  0
 27 59  1  0  0  0  0
 27 60  1  0  0  0  0
 28 29  1  0  0  0  0
 28 61  1  0  0  0  0
 28 62  1  0  0  0  0
 29 30  1  0  0  0  0
 30 63  1  0  0  0  0
 30 64  1  0  0  0  0
M  CHG  1   4   1
M  END
> <s_m_source_file>
AV-unprocessed.smi

> <i_m_source_file_index>
212

> <i_lp_mmshare_version>
43012

> <i_f3d_flags>
0

> <s_epik_input>
W0NIM11bQ0BASF0xW0NIMl1OKFtDSDJdQyhbQ0gzXSkoW0NIM10pW09IXSlbQ0gyXVtDSDJdTjFjKG5bY0hdbjIpYyhjMjMpbltjSF1uM1tDSDJdW0NASF0oW0NIMl1bT0hdKVtDQEBIXTRbQ0gyXVtDSDJdT1tDSDJdNA==

> <s_epik_cmdline>
J2VwaWtfcHl0aG9uJywgJy1waCcsICc3LjAnLCAnLXRuJywgJzgnLCAnLW1hJywgJzIwMCcsICctbWV0YWxfYmluZGluZycsICctaW1hZScsICc8aW5maWxlLm1hZT4nLCAnLW9tYWUnLCAnPG91dGZpbGUubWFlPic=

> <r_lp_tautomer_probability>
1

> <r_epik_Ionization_Penalty>
0.00182193

> <r_epik_Ionization_Penalty_Charging>
0.00173996

> <r_epik_Ionization_Penalty_Neutral>
8.19718e-05

> <r_epik_State_Penalty>
-0

> <r_epik_Charging_Adjusted_Penalty>
0.00173996

> <i_epik_Tot_Q>
1

> <i_epik_Tot_abs_Q>
1

> <r_epik_Metal_State_Penalty>
-0

> <b_epik_Metal_Only>
0

> <s_lp_Force_Field>
OPLS_2005

> <r_lp_Energy>
61.8926

> <b_lp_Chiralities_Consistent>
1

> <s_lp_Variant>
AV-unprocessed.smi:212-9

> <Gold.Version>
5.8.1

> <Gold.Id.Protein>
6NUR|6NUR_protein|mol2

> <Gold.PLP.Fitness>
43.7425

> <Gold.PLP.PLP>
-31.6054

> <Gold.PLP.part.hbond>
-4.0000

> <Gold.PLP.part.metal>
0.0000

> <Gold.PLP.part.buried>
-5.5445

> <Gold.PLP.part.nonpolar>
-21.4967

> <Gold.PLP.part.repulsive>
0.1850

> <Gold.PLP.ligand.clash>
0.0000

> <Gold.PLP.ligand.torsion>
1.8538

> <Gold.PLP.Chemscore.Hbond>
4.0000

> <Gold.PLP.Chemscore.CHOScore>
0.9294

> <Gold.PLP.Chemscore.Metal>
0.0000

> <Gold.Chemscore.Hbonds>
donor molecule, donor type, donor heavy atom, donor atom, acceptor molecule, acceptor atom, score
      L1  H     9    45       P1 10747  1.00
      P1  H  6896  6908       L1    16  1.00
      P1  H  7989  7998       L1    25  1.00
      P1  H  7997  8008       L1    29  0.90
      L1  C    20    51       P1  7948  1.00

> <Gold.PLP.Chemscore.Internal.Correction>
1.0565

> <Gold.Rescore>
     Score         DG    S(hbond)    S(metal)    S(lipo)     H(rot)  DE(clash)    DE(int)     intcor
     11.18     -14.72       2.76        0.00      80.91       3.68       0.02       3.52       ----

> <Gold.Chemscore.Fitness>
11.1843

> <Gold.Chemscore.DG>
-14.7250

> <Gold.Chemscore.ZeroCoef>
-5.4800

> <Gold.Chemscore.Hbond>
2.7551

> <Gold.Chemscore.Metal>
0.0000

> <Gold.Chemscore.Lipo>
80.9146

> <Gold.Chemscore.Internal_Hbond>
0.0000

> <Gold.Chemscore.DEClash>
0.0186

> <Gold.Chemscore.DEInternal>
3.5221

> <Gold.Chemscore.Rot>
3.6812

> <Gold.Chemscore.Internal.Correction>
   9.000000E+99

> <Gold.Chemscore.Hbonds>
donor molecule, donor type, donor heavy atom, donor atom, acceptor molecule, acceptor atom, score
      L1  H     9    45       P1 10747  0.97
      P1  H  6896  6908       L1    16  0.74
      P1  H  7989  7998       L1    25  0.65
      P1  H  7997  8008       L1    29  0.12

> <Gold.Chemscore.Hbond.Weighted>
-9.2019

> <Gold.Chemscore.Metal.Weighted>
-0.0000

> <Gold.Chemscore.Lipo.Weighted>
-9.4670

> <Gold.Chemscore.Internal_Hbond.Weighted>
0.0000

> <Gold.Chemscore.DEClash.Weighted>
0.0186

> <Gold.Chemscore.DEInternal.Weighted>
3.5221

> <Gold.Chemscore.Rot.Weighted>
9.4239

> <Gold.Chemscore.Internal.Correction.Weighted>
   9.000000E+99

> <Gold.Protein.RotatedTorsions>
[ 6907 6896 6895 6894 ] final  144.66 input  -60.11 | X-H torsion
[ 7974 7965 7964 7962 ] final -115.86 input  175.53 | X-H torsion
[ 8008 7997 7996 7995 ] final -116.35 input   59.86 | X-H torsion
[ 10167 10162 10161 10158 ] final -126.66 input  -65.29 | X-H torsion
[ 10718 10713 10712 10709 ] final   35.80 input   66.30 | X-H torsion
[ 10763 10752 10751 10750 ] final  177.71 input  -60.55 | X-H torsion
[ 11005 11000 10999 10996 ] final  157.46 input  -57.11 | X-H torsion

> <Gold.Protein.ActiveResidues>
 VAL166  LYS551  ARG553  GLY616  TRP617  ASP618  TYR619  PRO620  LYS621  CYS622 
 ASP623  PHE694  ASN695  SER759  ASP760  ASP761  ALA762  ILE779  LEU786  VAL792 
 PHE793  MET794  SER795  GLU796  ALA797  LYS798  CYS799  TRP800  GLU811  SER814 

> <Gold.Protein.RotatedAtoms>
  152.1908  133.4771  159.5006 H   0  0  0  0  0  0  0  0  0  0  0  0  # atno 6907 bound_to 6896
  150.6951  134.1715  159.4223 H   0  0  0  0  0  0  0  0  0  0  0  0  # atno 6908 bound_to 6896
  151.9630  135.0114  160.0599 H   0  0  0  0  0  0  0  0  0  0  0  0  # atno 6909 bound_to 6896
  145.1035  140.8567  143.3912 H   0  0  0  0  0  0  0  0  0  0  0  0  # atno 7974 bound_to 7965
  155.0664  140.0393  157.2594 H   0  0  0  0  0  0  0  0  0  0  0  0  # atno 8008 bound_to 7997
  154.7018  140.2675  155.6688 H   0  0  0  0  0  0  0  0  0  0  0  0  # atno 8009 bound_to 7997
  156.2762  140.2739  156.1631 H   0  0  0  0  0  0  0  0  0  0  0  0  # atno 8010 bound_to 7997
  139.9691  143.5865  152.2419 H   0  0  0  0  0  0  0  0  0  0  0  0  # atno 10167 bound_to 10162
  157.3271  130.7478  149.6823 H   0  0  0  0  0  0  0  0  0  0  0  0  # atno 10718 bound_to 10713
  154.4980  135.2782  155.1443 H   0  0  0  0  0  0  0  0  0  0  0  0  # atno 10763 bound_to 10752
  154.3088  135.6233  153.5460 H   0  0  0  0  0  0  0  0  0  0  0  0  # atno 10764 bound_to 10752
  152.9898  135.5714  154.5417 H   0  0  0  0  0  0  0  0  0  0  0  0  # atno 10765 bound_to 10752
  140.1771  134.8502  157.2760 H   0  0  0  0  0  0  0  0  0  0  0  0  # atno 11005 bound_to 11000
  145.0928  139.2878  143.5726 LP  0  0  0  0  0  0  0  0  0  0  0  0  # atno 17320 bound_to 7965
  146.3529  140.0471  142.8638 LP  0  0  0  0  0  0  0  0  0  0  0  0  # atno 17321 bound_to 7965
  139.6495  144.7660  151.2177 LP  0  0  0  0  0  0  0  0  0  0  0  0  # atno 17342 bound_to 10162
  140.7528  143.6184  150.8537 LP  0  0  0  0  0  0  0  0  0  0  0  0  # atno 17343 bound_to 10162
  155.9692  130.4206  150.4430 LP  0  0  0  0  0  0  0  0  0  0  0  0  # atno 17370 bound_to 10713
  157.2455  131.0535  151.2411 LP  0  0  0  0  0  0  0  0  0  0  0  0  # atno 17371 bound_to 10713
  140.2309  134.3910  155.7522 LP  0  0  0  0  0  0  0  0  0  0  0  0  # atno 17394 bound_to 11000
  141.2221  133.7215  156.8640 LP  0  0  0  0  0  0  0  0  0  0  0  0  # atno 17395 bound_to 11000

$$$$
