AV-unprocessed.smi:325|AV-procd|sdf|2343|dock2
  -GOLD-   2262022253D 1   1.00000     0.00000
 Structure written by MMmdl.
 45 46  0  0  0  0  0  0  0  0  2 V2000
  149.1692  139.9448  154.8661 C   0  0  0  0  0  0  0  0  0  0  0  0
  150.3452  139.5780  155.7533 C   0  0  0  0  0  0  0  0  0  0  0  0
  150.7239  140.5432  156.6983 N   0  0  0  0  0  0  0  0  0  0  0  0
  151.7201  140.3181  157.5016 C   0  0  0  0  0  0  0  0  0  0  0  0
  152.1367  141.2612  158.4469 N   0  0  0  0  0  0  0  0  0  0  0  0
  153.1996  140.9430  159.4014 C   0  0  0  0  0  0  0  0  0  0  0  0
  153.0949  141.8098  160.6671 C   0  0  0  0  0  0  0  0  0  0  0  0
  153.1049  143.1849  160.3095 O   0  0  0  0  0  0  0  0  0  0  0  0
  151.9958  143.5107  159.4830 C   0  0  0  0  0  0  0  0  0  0  0  0
  152.0628  142.6999  158.1782 C   0  0  0  0  0  0  0  0  0  0  0  0
  152.4461  139.1377  157.4688 N   0  5  0  0  0  0  0  0  0  0  0  0
  152.1315  138.1532  156.5802 C   0  0  0  0  0  0  0  0  0  0  0  0
  152.7511  137.0911  156.5376 O   0  0  0  0  0  0  0  0  0  0  0  0
  151.0068  138.3906  155.6590 C   0  0  0  0  0  0  0  0  0  0  0  0
  150.6542  137.3124  154.6366 C   0  0  0  0  0  0  0  0  0  0  0  0
  150.2849  135.9752  155.3070 C   0  0  0  0  0  0  0  0  0  0  0  0
  148.7933  135.8412  155.6286 C   0  0  0  0  0  0  0  0  0  0  0  0
  148.3944  135.8241  156.7936 O   0  0  0  0  0  0  0  0  0  0  0  0
  147.9738  135.7515  154.5696 N   0  0  0  0  0  0  0  0  0  0  0  0
  146.5208  135.6217  154.6306 C   0  0  0  0  0  0  0  0  0  0  0  0
  146.0972  134.3062  153.9642 C   0  0  0  0  0  0  0  0  0  0  0  0
  145.8460  136.8351  153.9719 C   0  0  0  0  0  0  0  0  0  0  0  0
  148.4182  139.1546  154.8747 H   0  0  0  0  0  0  0  0  0  0  0  0
  149.5026  140.0976  153.8396 H   0  0  0  0  0  0  0  0  0  0  0  0
  148.6902  140.8643  155.2053 H   0  0  0  0  0  0  0  0  0  0  0  0
  153.1544  139.8919  159.6893 H   0  0  0  0  0  0  0  0  0  0  0  0
  154.1649  141.1005  158.9190 H   0  0  0  0  0  0  0  0  0  0  0  0
  152.1882  141.5727  161.2262 H   0  0  0  0  0  0  0  0  0  0  0  0
  153.9376  141.6100  161.3289 H   0  0  0  0  0  0  0  0  0  0  0  0
  151.0616  143.3164  160.0124 H   0  0  0  0  0  0  0  0  0  0  0  0
  152.0202  144.5778  159.2626 H   0  0  0  0  0  0  0  0  0  0  0  0
  152.9443  142.9906  157.6058 H   0  0  0  0  0  0  0  0  0  0  0  0
  151.1975  142.9535  157.5657 H   0  0  0  0  0  0  0  0  0  0  0  0
  149.8291  137.6497  154.0097 H   0  0  0  0  0  0  0  0  0  0  0  0
  151.4936  137.1776  153.9525 H   0  0  0  0  0  0  0  0  0  0  0  0
  150.5696  135.1431  154.6621 H   0  0  0  0  0  0  0  0  0  0  0  0
  150.8537  135.8634  156.2311 H   0  0  0  0  0  0  0  0  0  0  0  0
  148.3903  135.7785  153.6502 H   0  0  0  0  0  0  0  0  0  0  0  0
  146.2107  135.5775  155.6762 H   0  0  0  0  0  0  0  0  0  0  0  0
  145.0166  134.1707  154.0180 H   0  0  0  0  0  0  0  0  0  0  0  0
  146.5600  133.4496  154.4557 H   0  0  0  0  0  0  0  0  0  0  0  0
  146.3831  134.2829  152.9121 H   0  0  0  0  0  0  0  0  0  0  0  0
  144.7599  136.7537  154.0218 H   0  0  0  0  0  0  0  0  0  0  0  0
  146.1251  136.9226  152.9214 H   0  0  0  0  0  0  0  0  0  0  0  0
  146.1275  137.7637  154.4694 H   0  0  0  0  0  0  0  0  0  0  0  0
  1  2  1  0  0  0  0
  1 23  1  0  0  0  0
  1 24  1  0  0  0  0
  1 25  1  0  0  0  0
  2 14  2  0  0  0  0
  2  3  1  0  0  0  0
  3  4  2  0  0  0  0
  4  5  1  0  0  0  0
  4 11  1  0  0  0  0
  5 10  1  0  0  0  0
  5  6  1  0  0  0  0
  6  7  1  0  0  0  0
  6 26  1  0  0  0  0
  6 27  1  0  0  0  0
  7  8  1  0  0  0  0
  7 28  1  0  0  0  0
  7 29  1  0  0  0  0
  8  9  1  0  0  0  0
  9 10  1  0  0  0  0
  9 30  1  0  0  0  0
  9 31  1  0  0  0  0
 10 32  1  0  0  0  0
 10 33  1  0  0  0  0
 11 12  1  0  0  0  0
 12 13  2  0  0  0  0
 12 14  1  0  0  0  0
 14 15  1  0  0  0  0
 15 16  1  0  0  0  0
 15 34  1  0  0  0  0
 15 35  1  0  0  0  0
 16 17  1  0  0  0  0
 16 36  1  0  0  0  0
 16 37  1  0  0  0  0
 17 18  2  0  0  0  0
 17 19  1  0  0  0  0
 19 20  1  0  0  0  0
 19 38  1  0  0  0  0
 20 21  1  0  0  0  0
 20 22  1  0  0  0  0
 20 39  1  0  0  0  0
 21 40  1  0  0  0  0
 21 41  1  0  0  0  0
 21 42  1  0  0  0  0
 22 43  1  0  0  0  0
 22 44  1  0  0  0  0
 22 45  1  0  0  0  0
M  CHG  1  11  -1
M  END
> <s_m_source_file>
AV-unprocessed.smi

> <i_m_source_file_index>
325

> <i_lp_mmshare_version>
43012

> <i_f3d_flags>
0

> <s_epik_input>
W0NIMl0xW0NIMl1PW0NIMl1bQ0gyXU4xYyhuYzJbQ0gzXSlbbkhdYyg9TyljMltDSDJdW0NIMl1DKD1PKVtOSF1bQ0hdKFtDSDNdKVtDSDNd

> <s_epik_cmdline>
J2VwaWtfcHl0aG9uJywgJy1waCcsICc3LjAnLCAnLXRuJywgJzgnLCAnLW1hJywgJzIwMCcsICctbWV0YWxfYmluZGluZycsICctaW1hZScsICc8aW5maWxlLm1hZT4nLCAnLW9tYWUnLCAnPG91dGZpbGUubWFlPic=

> <r_lp_tautomer_probability>
1

> <r_epik_Ionization_Penalty>
5.05468

> <r_epik_Ionization_Penalty_Charging>
1.01174e-07

> <r_epik_Ionization_Penalty_Neutral>
5.05468

> <r_epik_State_Penalty>
2.58307

> <r_epik_Charging_Adjusted_Penalty>
2.58307

> <i_epik_Tot_Q>
-1

> <i_epik_Tot_abs_Q>
1

> <r_epik_Metal_State_Penalty>
0.123593

> <b_epik_Metal_Only>
0

> <s_lp_Force_Field>
OPLS_2005

> <r_lp_Energy>
24.1859

> <b_lp_Chiralities_Consistent>
1

> <s_lp_Variant>
AV-unprocessed.smi:325-3

> <Gold.Version>
5.8.1

> <Gold.Id.Protein>
6NUR|6NUR_protein|mol2

> <Gold.PLP.Fitness>
42.3352

> <Gold.PLP.PLP>
-32.9212

> <Gold.PLP.part.hbond>
-2.9956

> <Gold.PLP.part.metal>
0.0000

> <Gold.PLP.part.buried>
-5.4754

> <Gold.PLP.part.nonpolar>
-26.3611

> <Gold.PLP.part.repulsive>
0.0319

> <Gold.PLP.ligand.clash>
0.0059

> <Gold.PLP.ligand.torsion>
0.4931

> <Gold.PLP.Chemscore.Hbond>
3.3853

> <Gold.PLP.Chemscore.CHOScore>
0.0000

> <Gold.PLP.Chemscore.Metal>
0.0000

> <Gold.Chemscore.Hbonds>
donor molecule, donor type, donor heavy atom, donor atom, acceptor molecule, acceptor atom, score
      L1  H    19    38       P1  7948  1.00
      P1  H  7997  8010       L1    11  0.37
      P1  H 10752 10765       L1    13  0.54

> <Gold.PLP.Chemscore.Internal.Correction>
0.2501

> <Gold.Rescore>
     Score         DG    S(hbond)    S(metal)    S(lipo)     H(rot)  DE(clash)    DE(int)     intcor
     15.61     -16.17       1.76        0.00      77.78       1.67       0.02       0.54       ----

> <Gold.Chemscore.Fitness>
15.6100

> <Gold.Chemscore.DG>
-16.1706

> <Gold.Chemscore.ZeroCoef>
-5.4800

> <Gold.Chemscore.Hbond>
1.7576

> <Gold.Chemscore.Metal>
0.0000

> <Gold.Chemscore.Lipo>
77.7762

> <Gold.Chemscore.Internal_Hbond>
0.0000

> <Gold.Chemscore.DEClash>
0.0174

> <Gold.Chemscore.DEInternal>
0.5432

> <Gold.Chemscore.Rot>
1.6717

> <Gold.Chemscore.Internal.Correction>
   9.000000E+99

> <Gold.Chemscore.Hbonds>
donor molecule, donor type, donor heavy atom, donor atom, acceptor molecule, acceptor atom, score
      L1  H    19    38       P1  7948  1.00
      P1  H  7997  8010       L1    11  0.01
      P1  H 10752 10765       L1    13  0.53

> <Gold.Chemscore.Hbond.Weighted>
-5.8703

> <Gold.Chemscore.Metal.Weighted>
-0.0000

> <Gold.Chemscore.Lipo.Weighted>
-9.0998

> <Gold.Chemscore.Internal_Hbond.Weighted>
0.0000

> <Gold.Chemscore.DEClash.Weighted>
0.0174

> <Gold.Chemscore.DEInternal.Weighted>
0.5432

> <Gold.Chemscore.Rot.Weighted>
4.2795

> <Gold.Chemscore.Internal.Correction.Weighted>
   9.000000E+99

> <Gold.Protein.RotatedTorsions>
[ 6907 6896 6895 6894 ] final  121.01 input  -60.11 | X-H torsion
[ 7974 7965 7964 7962 ] final  -86.42 input  175.53 | X-H torsion
[ 8008 7997 7996 7995 ] final   67.32 input   59.86 | X-H torsion
[ 10167 10162 10161 10158 ] final  116.72 input  -65.29 | X-H torsion
[ 10718 10713 10712 10709 ] final  -61.53 input   66.30 | X-H torsion
[ 10763 10752 10751 10750 ] final -138.75 input  -60.55 | X-H torsion
[ 11005 11000 10999 10996 ] final   89.42 input  -57.11 | X-H torsion

> <Gold.Protein.ActiveResidues>
 VAL166  LYS551  ARG553  GLY616  TRP617  ASP618  TYR619  PRO620  LYS621  CYS622 
 ASP623  PHE694  ASN695  SER759  ASP760  ASP761  ALA762  ILE779  LEU786  VAL792 
 PHE793  MET794  SER795  GLU796  ALA797  LYS798  CYS799  TRP800  GLU811  SER814 

> <Gold.Protein.RotatedAtoms>
  152.4354  133.7352  159.6609 H   0  0  0  0  0  0  0  0  0  0  0  0  # atno 6907 bound_to 6896
  150.8238  133.8197  159.3133 H   0  0  0  0  0  0  0  0  0  0  0  0  # atno 6908 bound_to 6896
  151.5871  135.1058  160.0082 H   0  0  0  0  0  0  0  0  0  0  0  0  # atno 6909 bound_to 6896
  145.4801  140.9557  143.1869 H   0  0  0  0  0  0  0  0  0  0  0  0  # atno 7974 bound_to 7965
  155.6910  140.3496  155.4893 H   0  0  0  0  0  0  0  0  0  0  0  0  # atno 8008 bound_to 7997
  155.9524  140.1122  157.0988 H   0  0  0  0  0  0  0  0  0  0  0  0  # atno 8009 bound_to 7997
  154.4125  140.1191  156.5056 H   0  0  0  0  0  0  0  0  0  0  0  0  # atno 8010 bound_to 7997
  139.6228  144.7103  151.2598 H   0  0  0  0  0  0  0  0  0  0  0  0  # atno 10167 bound_to 10162
  156.0915  130.4199  150.1007 H   0  0  0  0  0  0  0  0  0  0  0  0  # atno 10718 bound_to 10713
  154.8628  135.3603  154.5435 H   0  0  0  0  0  0  0  0  0  0  0  0  # atno 10763 bound_to 10752
  153.6055  135.7011  153.5372 H   0  0  0  0  0  0  0  0  0  0  0  0  # atno 10764 bound_to 10752
  153.3254  135.4139  155.1412 H   0  0  0  0  0  0  0  0  0  0  0  0  # atno 10765 bound_to 10752
  139.8876  134.8550  156.3140 H   0  0  0  0  0  0  0  0  0  0  0  0  # atno 11005 bound_to 11000
  144.7894  139.6360  143.7120 LP  0  0  0  0  0  0  0  0  0  0  0  0  # atno 17320 bound_to 7965
  146.2346  139.5879  142.9532 LP  0  0  0  0  0  0  0  0  0  0  0  0  # atno 17321 bound_to 7965
  140.7392  143.6624  150.8152 LP  0  0  0  0  0  0  0  0  0  0  0  0  # atno 17342 bound_to 10162
  140.0238  143.5515  152.2789 LP  0  0  0  0  0  0  0  0  0  0  0  0  # atno 17343 bound_to 10162
  156.9016  130.9622  151.3575 LP  0  0  0  0  0  0  0  0  0  0  0  0  # atno 17370 bound_to 10713
  157.6066  130.8551  149.8885 LP  0  0  0  0  0  0  0  0  0  0  0  0  # atno 17371 bound_to 10713
  140.9831  133.7255  156.0702 LP  0  0  0  0  0  0  0  0  0  0  0  0  # atno 17394 bound_to 11000
  140.7723  134.3819  157.5505 LP  0  0  0  0  0  0  0  0  0  0  0  0  # atno 17395 bound_to 11000

$$$$
