#       Name:                AV-unprocessed.smi:1469
#       Creating user name   scv26
#       Creation time:       Fri Mar 27 06:04:36 2020


#       File generated by GOLD software.
#

@<TRIPOS>MOLECULE
AV-unprocessed.smi:1469
    45    46     1
SMALL
NO_CHARGES


@<TRIPOS>ATOM
      1 ****        -1.7072  -0.1634  -2.0616 C.3            1 S1                 0.0000
      2 ****        -0.5929  -1.2266  -1.9742 C.3            1 S1                 0.0000
      3 ****         0.7903  -0.5609  -1.7570 C.3            1 S1                 0.0000
      4 ****         0.9900  -0.0693  -0.3945 N.am           1 S1                 0.0000
      5 ****         0.7596   1.1851   0.0223 C.2            1 S1                 0.0000
      6 ****         0.3171   2.0687  -0.7125 O.2            1 S1                 0.0000
      7 ****         1.0548   1.4661   1.5026 C.3            1 S1                 0.0000
      8 ****         1.2701   2.8932   1.7943 N.am           1 S1                 0.0000
      9 ****         0.1779   3.6137   2.3181 C.2            1 S1                 0.0000
     10 ****         0.2669   4.9192   2.6181 C.2            1 S1                 0.0000
     11 ****         1.5266   5.5872   2.3916 C.2            1 S1                 0.0000
     12 ****         2.5767   4.9082   1.8882 C.2            1 S1                 0.0000
     13 ****         2.4829   3.4819   1.5558 C.2            1 S1                 0.0000
     14 ****         3.4351   2.8541   1.0911 O.2            1 S1                 0.0000
     15 ****        -0.8904  -2.2467  -0.9271 N.4            1 S1                 1.0000
     16 ****        -2.2252  -2.8783  -1.0072 C.3            1 S1                 0.0000
     17 ****        -2.1006  -4.1640  -0.1983 C.3            1 S1                 0.0000
     18 ****        -0.6864  -4.6350  -0.5176 C.3            1 S1                 0.0000
     19 ****         0.0975  -3.3505  -0.8214 C.3            1 S1                 0.0000
     20 ****        -1.4424   0.6238  -2.7681 H              1 S1                 0.0000
     21 ****        -1.8910   0.3076  -1.0959 H              1 S1                 0.0000
     22 ****        -2.6491  -0.5899  -2.4066 H              1 S1                 0.0000
     23 ****        -0.5630  -1.7378  -2.9379 H              1 S1                 0.0000
     24 ****         1.5831  -1.2826  -1.9542 H              1 S1                 0.0000
     25 ****         0.9470   0.2379  -2.4841 H              1 S1                 0.0000
     26 ****         1.3614  -0.7256   0.2772 H              1 S1                 0.0000
     27 ****         0.2246   1.0758   2.0928 H              1 S1                 0.0000
     28 ****         1.9251   0.8862   1.8166 H              1 S1                 0.0000
     29 ****        -0.7295   3.0431   2.4519 H              1 S1                 0.0000
     30 ****        -0.5818   5.4562   3.0155 H              1 S1                 0.0000
     31 ****         1.6277   6.6366   2.6257 H              1 S1                 0.0000
     32 ****         3.5113   5.4247   1.7246 H              1 S1                 0.0000
     33 ****        -3.0094  -2.2267  -0.6207 H              1 S1                 0.0000
     34 ****        -2.4592  -3.1180  -2.0460 H              1 S1                 0.0000
     35 ****        -2.1869  -3.9418   0.8664 H              1 S1                 0.0000
     36 ****        -2.8626  -4.9017  -0.4522 H              1 S1                 0.0000
     37 ****        -0.2468  -5.2123   0.2964 H              1 S1                 0.0000
     38 ****        -0.7034  -5.2721  -1.4031 H              1 S1                 0.0000
     39 ****         0.6626  -3.4762  -1.7461 H              1 S1                 0.0000
     40 ****         0.8086  -3.1212  -0.0270 H              1 S1                 0.0000
     41 ****        -0.8689  -1.7679  -0.0379 H              1 S1                 0.0000
     42 ****         0.1117   1.8664  -1.6700 LP             1 S1                 0.0000
     43 ****         0.1632   2.9885  -0.3516 LP             1 S1                 0.0000
     44 ****         3.3361   1.8826   0.8756 LP             1 S1                 0.0000
     45 ****         4.3073   3.3158   0.9294 LP             1 S1                 0.0000
@<TRIPOS>BOND
    1    1    2 1     
    2    1   20 1     
    3    1   21 1     
    4    1   22 1     
    5    2    3 1     
    6    2   15 1     
    7    2   23 1     
    8    3    4 1     
    9    3   24 1     
   10    3   25 1     
   11    4    5 am    
   12    4   26 1     
   13    5    6 2     
   14    5    7 1     
   15    7    8 1     
   16    7   27 1     
   17    7   28 1     
   18    8   13 am    
   19    8    9 1     
   20    9   10 2     
   21    9   29 1     
   22   10   11 1     
   23   10   30 1     
   24   11   12 2     
   25   11   31 1     
   26   12   13 1     
   27   12   32 1     
   28   13   14 2     
   29   15   19 1     
   30   15   16 1     
   31   15   41 1     
   32   16   17 1     
   33   16   33 1     
   34   16   34 1     
   35   17   18 1     
   36   17   35 1     
   37   17   36 1     
   38   18   19 1     
   39   18   37 1     
   40   18   38 1     
   41   19   39 1     
   42   19   40 1     
   43    6   42 1     
   44    6   43 1     
   45   14   44 1     
   46   14   45 1     
@<TRIPOS>SUBSTRUCTURE
      1 S1             1
@<TRIPOS>SET
LONE_PAIRS      STATIC     ATOMS    <user>   **** ""
4 42 43 44 45
DONOR_HYDROGENS      STATIC     ATOMS    <user>   **** ""
2 26 41
ATOM$BLUE        STATIC     ATOMS    COLORGROUP SYSTEM
4 42 43 44 45
ATOM$RED        STATIC     ATOMS    COLORGROUP SYSTEM
2 26 41
