AV-unprocessed.smi:2703|AV-procd|sdf|10439|dock5
  -GOLD-   2272014483D 1   1.00000     0.00000
 Structure written by MMmdl.
 42 44  0  0  0  0  0  0  0  0  3 V2000
  153.0726  142.3339  161.7316 C   0  0  0  0  0  0  0  0  0  0  0  0
  152.4781  142.0500  160.3635 C   0  0  0  0  0  0  0  0  0  0  0  0
  152.6262  140.7607  159.8043 C   0  0  0  0  0  0  0  0  0  0  0  0
  152.0908  140.4562  158.5337 C   0  0  0  0  0  0  0  0  0  0  0  0
  152.1213  139.2792  157.8057 N   0  0  0  0  0  0  0  0  0  0  0  0
  151.4572  139.6270  156.7077 C   0  0  0  0  0  0  0  0  0  0  0  0
  150.9965  140.8908  156.6384 N   0  0  0  0  0  0  0  0  0  0  0  0
  150.2541  141.4871  155.5417 C   0  0  0  0  0  0  0  0  0  0  0  0
  148.7321  141.4609  155.7759 C   0  0  1  0  0  0  0  0  0  0  0  0
  148.4101  142.2661  156.8937 O   0  0  0  0  0  0  0  0  0  0  0  0
  147.9534  141.9622  154.5489 C   0  0  0  0  0  0  0  0  0  0  0  0
  146.1670  141.6687  154.7067 S   0  0  0  0  0  0  0  0  0  0  0  0
  145.3251  143.1975  154.3725 C   0  0  0  0  0  0  0  0  0  0  0  0
  145.5751  143.9524  153.2049 C   0  0  0  0  0  0  0  0  0  0  0  0
  144.8801  145.1525  152.9895 C   0  0  0  0  0  0  0  0  0  0  0  0
  143.9476  145.5763  153.9477 C   0  0  0  0  0  0  0  0  0  0  0  0
  143.7317  144.7931  155.0976 C   0  0  0  0  0  0  0  0  0  0  0  0
  144.4095  143.6228  155.3070 N   0  3  0  0  0  0  0  0  0  0  0  0
  144.1751  142.9418  156.3744 O   0  5  0  0  0  0  0  0  0  0  0  0
  151.3954  141.4845  157.8318 C   0  0  0  0  0  0  0  0  0  0  0  0
  151.2397  142.7704  158.3793 C   0  0  0  0  0  0  0  0  0  0  0  0
  151.7827  143.0584  159.6491 C   0  0  0  0  0  0  0  0  0  0  0  0
  151.6132  144.4516  160.2293 C   0  0  0  0  0  0  0  0  0  0  0  0
  153.5868  141.4599  162.1322 H   0  0  0  0  0  0  0  0  0  0  0  0
  152.2895  142.6132  162.4369 H   0  0  0  0  0  0  0  0  0  0  0  0
  153.7944  143.1488  161.6732 H   0  0  0  0  0  0  0  0  0  0  0  0
  153.1558  139.9921  160.3477 H   0  0  0  0  0  0  0  0  0  0  0  0
  151.2939  138.9220  155.9056 H   0  0  0  0  0  0  0  0  0  0  0  0
  150.6006  142.5108  155.3947 H   0  0  0  0  0  0  0  0  0  0  0  0
  150.5030  140.9412  154.6308 H   0  0  0  0  0  0  0  0  0  0  0  0
  148.4250  140.4377  155.9967 H   0  0  0  0  0  0  0  0  0  0  0  0
  148.2356  143.1439  156.5889 H   0  0  0  0  0  0  0  0  0  0  0  0
  148.1333  143.0265  154.3932 H   0  0  0  0  0  0  0  0  0  0  0  0
  148.3018  141.4410  153.6566 H   0  0  0  0  0  0  0  0  0  0  0  0
  146.2945  143.6262  152.4703 H   0  0  0  0  0  0  0  0  0  0  0  0
  145.0602  145.7402  152.1013 H   0  0  0  0  0  0  0  0  0  0  0  0
  143.4003  146.4964  153.8054 H   0  0  0  0  0  0  0  0  0  0  0  0
  143.0314  145.0555  155.8775 H   0  0  0  0  0  0  0  0  0  0  0  0
  150.7062  143.5292  157.8265 H   0  0  0  0  0  0  0  0  0  0  0  0
  151.0275  145.0902  159.5673 H   0  0  0  0  0  0  0  0  0  0  0  0
  152.5851  144.9233  160.3762 H   0  0  0  0  0  0  0  0  0  0  0  0
  151.1003  144.4077  161.1901 H   0  0  0  0  0  0  0  0  0  0  0  0
  1  2  1  0  0  0  0
  1 24  1  0  0  0  0
  1 25  1  0  0  0  0
  1 26  1  0  0  0  0
  2 22  1  0  0  0  0
  2  3  2  0  0  0  0
  3  4  1  0  0  0  0
  3 27  1  0  0  0  0
  4 20  2  0  0  0  0
  4  5  1  0  0  0  0
  5  6  2  0  0  0  0
  6  7  1  0  0  0  0
  6 28  1  0  0  0  0
  7  8  1  0  0  0  0
  7 20  1  0  0  0  0
  8  9  1  0  0  0  0
  8 29  1  0  0  0  0
  8 30  1  0  0  0  0
  9 10  1  0  0  0  0
  9 11  1  0  0  0  0
  9 31  1  0  0  0  0
 10 32  1  0  0  0  0
 11 12  1  0  0  0  0
 11 33  1  0  0  0  0
 11 34  1  0  0  0  0
 12 13  1  0  0  0  0
 13 18  1  0  0  0  0
 13 14  2  0  0  0  0
 14 15  1  0  0  0  0
 14 35  1  0  0  0  0
 15 16  2  0  0  0  0
 15 36  1  0  0  0  0
 16 17  1  0  0  0  0
 16 37  1  0  0  0  0
 17 18  2  0  0  0  0
 17 38  1  0  0  0  0
 18 19  1  0  0  0  0
 20 21  1  0  0  0  0
 21 22  2  0  0  0  0
 21 39  1  0  0  0  0
 22 23  1  0  0  0  0
 23 40  1  0  0  0  0
 23 41  1  0  0  0  0
 23 42  1  0  0  0  0
M  CHG  1  18   1
M  CHG  1  19  -1
M  END
> <s_m_source_file>
AV-unprocessed.smi

> <i_m_source_file_index>
2703

> <i_lp_mmshare_version>
43012

> <i_f3d_flags>
0

> <s_epik_input>
W0NIM11jKFtjSF0xKWMoW0NIM10pW2NIXWMoYzEyKW4oW2NIXW4yKVtDSDJdW0NASF0oW09IXSlbQ0gyXVNjM1tjSF1bY0hdW2NIXVtjSF1bbitdM1tPLV0=

> <s_epik_cmdline>
J2VwaWtfcHl0aG9uJywgJy1waCcsICc3LjAnLCAnLXRuJywgJzgnLCAnLW1hJywgJzIwMCcsICctbWV0YWxfYmluZGluZycsICctaW1hZScsICc8aW5maWxlLm1hZT4nLCAnLW9tYWUnLCAnPG91dGZpbGUubWFlPic=

> <r_epik_Ionization_Penalty>
0.106001

> <r_epik_Ionization_Penalty_Charging>
1.39204e-07

> <r_epik_Ionization_Penalty_Neutral>
0.106001

> <r_epik_State_Penalty>
0.0958598

> <r_epik_Charging_Adjusted_Penalty>
0.0958599

> <i_epik_Tot_Q>
0

> <i_epik_Tot_abs_Q>
2

> <r_epik_Metal_State_Penalty>
0.000104041

> <b_epik_Metal_Only>
0

> <s_lp_Force_Field>
OPLS_2005

> <r_lp_Energy>
17.7295

> <b_lp_Chiralities_Consistent>
1

> <s_lp_Variant>
AV-unprocessed.smi:2703-2

> <Gold.Version>
5.8.1

> <Gold.Id.Protein>
6NUR|6NUR_protein|mol2

> <Gold.PLP.Fitness>
55.3611

> <Gold.PLP.PLP>
-53.9445

> <Gold.PLP.part.hbond>
-1.0000

> <Gold.PLP.part.metal>
0.0000

> <Gold.PLP.part.buried>
-6.5600

> <Gold.PLP.part.nonpolar>
-47.0610

> <Gold.PLP.part.repulsive>
0.0502

> <Gold.PLP.ligand.clash>
0.0000

> <Gold.PLP.ligand.torsion>
0.8081

> <Gold.PLP.Chemscore.Hbond>
1.0000

> <Gold.PLP.Chemscore.CHOScore>
0.0000

> <Gold.PLP.Chemscore.Metal>
0.0000

> <Gold.Chemscore.Hbonds>
donor molecule, donor type, donor heavy atom, donor atom, acceptor molecule, acceptor atom, score
      L1  H    10    32       P1  8028  0.98

> <Gold.PLP.Chemscore.Internal.Correction>
0.0328

> <Gold.Rescore>
     Score         DG    S(hbond)    S(metal)    S(lipo)     H(rot)  DE(clash)    DE(int)     intcor
     18.58     -19.73       0.94        0.00     144.26       2.26       0.28       0.87       ----

> <Gold.Chemscore.Fitness>
18.5802

> <Gold.Chemscore.DG>
-19.7292

> <Gold.Chemscore.ZeroCoef>
-5.4800

> <Gold.Chemscore.Hbond>
0.9417

> <Gold.Chemscore.Metal>
0.0000

> <Gold.Chemscore.Lipo>
144.2633

> <Gold.Chemscore.Internal_Hbond>
0.0000

> <Gold.Chemscore.DEClash>
0.2796

> <Gold.Chemscore.DEInternal>
0.8694

> <Gold.Chemscore.Rot>
2.2558

> <Gold.Chemscore.Internal.Correction>
   9.000000E+99

> <Gold.Chemscore.Hbonds>
donor molecule, donor type, donor heavy atom, donor atom, acceptor molecule, acceptor atom, score
      L1  H    10    32       P1  8028  0.37

> <Gold.Chemscore.Hbond.Weighted>
-3.1452

> <Gold.Chemscore.Metal.Weighted>
-0.0000

> <Gold.Chemscore.Lipo.Weighted>
-16.8788

> <Gold.Chemscore.Internal_Hbond.Weighted>
0.0000

> <Gold.Chemscore.DEClash.Weighted>
0.2796

> <Gold.Chemscore.DEInternal.Weighted>
0.8694

> <Gold.Chemscore.Rot.Weighted>
5.7748

> <Gold.Chemscore.Internal.Correction.Weighted>
   9.000000E+99

> <Gold.Protein.RotatedTorsions>
[ 6907 6896 6895 6894 ] final -159.86 input  -60.11 | X-H torsion
[ 7974 7965 7964 7962 ] final   61.00 input  175.53 | X-H torsion
[ 8008 7997 7996 7995 ] final -139.10 input   59.86 | X-H torsion
[ 10167 10162 10161 10158 ] final  -12.95 input  -65.29 | X-H torsion
[ 10718 10713 10712 10709 ] final -149.85 input   66.30 | X-H torsion
[ 10763 10752 10751 10750 ] final  164.09 input  -60.55 | X-H torsion
[ 11005 11000 10999 10996 ] final   51.32 input  -57.11 | X-H torsion

> <Gold.Protein.ActiveResidues>
 VAL166  LYS551  ARG553  GLY616  TRP617  ASP618  TYR619  PRO620  LYS621  CYS622 
 ASP623  PHE694  ASN695  SER759  ASP760  ASP761  ALA762  ILE779  LEU786  VAL792 
 PHE793  MET794  SER795  GLU796  ALA797  LYS798  CYS799  TRP800  GLU811  SER814 

> <Gold.Protein.RotatedAtoms>
  151.3402  133.3965  159.2670 H   0  0  0  0  0  0  0  0  0  0  0  0  # atno 6907 bound_to 6896
  150.9884  134.9225  159.7896 H   0  0  0  0  0  0  0  0  0  0  0  0  # atno 6908 bound_to 6896
  152.5239  134.3366  159.9254 H   0  0  0  0  0  0  0  0  0  0  0  0  # atno 6909 bound_to 6896
  145.8897  139.3502  143.0656 H   0  0  0  0  0  0  0  0  0  0  0  0  # atno 7974 bound_to 7965
  155.4392  140.0530  157.3012 H   0  0  0  0  0  0  0  0  0  0  0  0  # atno 8008 bound_to 7997
  154.4825  140.2087  155.9687 H   0  0  0  0  0  0  0  0  0  0  0  0  # atno 8009 bound_to 7997
  156.1227  140.3185  155.8237 H   0  0  0  0  0  0  0  0  0  0  0  0  # atno 8010 bound_to 7997
  140.7172  143.5477  150.9336 H   0  0  0  0  0  0  0  0  0  0  0  0  # atno 10167 bound_to 10162
  156.4385  130.8110  151.2339 H   0  0  0  0  0  0  0  0  0  0  0  0  # atno 10718 bound_to 10713
  154.3036  135.2758  155.2599 H   0  0  0  0  0  0  0  0  0  0  0  0  # atno 10763 bound_to 10752
  154.5026  135.5804  153.6546 H   0  0  0  0  0  0  0  0  0  0  0  0  # atno 10764 bound_to 10752
  152.9897  135.6161  154.3208 H   0  0  0  0  0  0  0  0  0  0  0  0  # atno 10765 bound_to 10752
  140.0942  134.5168  155.8823 H   0  0  0  0  0  0  0  0  0  0  0  0  # atno 11005 bound_to 11000
  145.8923  140.9296  143.0545 LP  0  0  0  0  0  0  0  0  0  0  0  0  # atno 17320 bound_to 7965
  144.6730  140.0922  143.7464 LP  0  0  0  0  0  0  0  0  0  0  0  0  # atno 17321 bound_to 7965
  139.9201  143.6616  152.3098 LP  0  0  0  0  0  0  0  0  0  0  0  0  # atno 17342 bound_to 10162
  139.7030  144.7632  151.1241 LP  0  0  0  0  0  0  0  0  0  0  0  0  # atno 17343 bound_to 10162
  157.7507  131.0176  150.3591 LP  0  0  0  0  0  0  0  0  0  0  0  0  # atno 17370 bound_to 10713
  156.3943  130.3904  149.7006 LP  0  0  0  0  0  0  0  0  0  0  0  0  # atno 17371 bound_to 10713
  141.2087  133.6676  156.6389 LP  0  0  0  0  0  0  0  0  0  0  0  0  # atno 17394 bound_to 11000
  140.3309  134.7929  157.4325 LP  0  0  0  0  0  0  0  0  0  0  0  0  # atno 17395 bound_to 11000

$$$$
