AV-unprocessed.smi:644|AV-procd|sdf|3156|dock1
  -GOLD-   22720 0 83D 1   1.00000     0.00000
 Structure written by MMmdl.
 37 39  0  0  0  0  0  0  0  0  1 V2000
  153.5773  142.7459  163.3841 C   0  0  0  0  0  0  0  0  0  0  0  0
  153.0974  142.8988  161.9516 C   0  0  0  0  0  0  0  0  0  0  0  0
  152.2390  143.9732  161.6252 C   0  0  0  0  0  0  0  0  0  0  0  0
  151.7719  144.1516  160.3047 C   0  0  0  0  0  0  0  0  0  0  0  0
  150.9376  145.1175  159.7684 N   0  0  0  0  0  0  0  0  0  0  0  0
  150.8824  144.7461  158.4925 C   0  0  0  0  0  0  0  0  0  0  0  0
  151.5803  143.6494  158.1395 N   0  0  0  0  0  0  0  0  0  0  0  0
  151.6775  143.0582  156.8171 C   0  0  0  0  0  0  0  0  0  0  0  0
  150.5438  142.0546  156.5338 C   0  0  1  0  0  0  0  0  0  0  0  0
  149.7359  142.5401  155.4783 O   0  0  0  0  0  0  0  0  0  0  0  0
  151.0890  140.6664  156.1618 C   0  0  0  0  0  0  0  0  0  0  0  0
  150.1716  139.9172  154.7803 S   0  0  0  0  0  0  0  0  0  0  0  0
  150.5371  138.2128  155.0525 C   0  0  0  0  0  0  0  0  0  0  0  0
  151.7684  137.6838  155.1040 N   0  0  0  0  0  0  0  0  0  0  0  0
  151.7465  136.3148  155.3343 N   0  0  0  0  0  0  0  0  0  0  0  0
  150.4971  135.8588  155.4486 C   0  0  0  0  0  0  0  0  0  0  0  0
  149.2288  137.0592  155.2862 S   0  0  0  0  0  0  0  0  0  0  0  0
  152.1912  143.2188  159.3117 C   0  0  0  0  0  0  0  0  0  0  0  0
  153.0446  142.1459  159.6237 C   0  0  0  0  0  0  0  0  0  0  0  0
  153.5009  141.9814  160.9482 C   0  0  0  0  0  0  0  0  0  0  0  0
  154.4206  140.8184  161.2756 C   0  0  0  0  0  0  0  0  0  0  0  0
  153.1725  143.5291  164.0257 H   0  0  0  0  0  0  0  0  0  0  0  0
  154.6648  142.8047  163.4300 H   0  0  0  0  0  0  0  0  0  0  0  0
  153.2646  141.7848  163.7926 H   0  0  0  0  0  0  0  0  0  0  0  0
  151.9317  144.6721  162.3891 H   0  0  0  0  0  0  0  0  0  0  0  0
  150.2987  145.3016  157.7728 H   0  0  0  0  0  0  0  0  0  0  0  0
  151.6748  143.8575  156.0744 H   0  0  0  0  0  0  0  0  0  0  0  0
  152.6468  142.5641  156.7390 H   0  0  0  0  0  0  0  0  0  0  0  0
  149.9180  141.9621  157.4223 H   0  0  0  0  0  0  0  0  0  0  0  0
  149.6589  143.4780  155.5670 H   0  0  0  0  0  0  0  0  0  0  0  0
  152.1466  140.7328  155.9031 H   0  0  0  0  0  0  0  0  0  0  0  0
  151.0083  140.0021  157.0230 H   0  0  0  0  0  0  0  0  0  0  0  0
  150.3210  134.8091  155.6314 H   0  0  0  0  0  0  0  0  0  0  0  0
  153.3443  141.4549  158.8497 H   0  0  0  0  0  0  0  0  0  0  0  0
  154.6153  140.2046  160.3954 H   0  0  0  0  0  0  0  0  0  0  0  0
  153.9713  140.1786  162.0353 H   0  0  0  0  0  0  0  0  0  0  0  0
  155.3780  141.1818  161.6492 H   0  0  0  0  0  0  0  0  0  0  0  0
  1  2  1  0  0  0  0
  1 22  1  0  0  0  0
  1 23  1  0  0  0  0
  1 24  1  0  0  0  0
  2 20  1  0  0  0  0
  2  3  2  0  0  0  0
  3  4  1  0  0  0  0
  3 25  1  0  0  0  0
  4 18  2  0  0  0  0
  4  5  1  0  0  0  0
  5  6  2  0  0  0  0
  6  7  1  0  0  0  0
  6 26  1  0  0  0  0
  7  8  1  0  0  0  0
  7 18  1  0  0  0  0
  8  9  1  0  0  0  0
  8 27  1  0  0  0  0
  8 28  1  0  0  0  0
  9 10  1  0  0  0  0
  9 11  1  0  0  0  0
  9 29  1  0  0  0  0
 10 30  1  0  0  0  0
 11 12  1  0  0  0  0
 11 31  1  0  0  0  0
 11 32  1  0  0  0  0
 12 13  1  0  0  0  0
 13 17  1  0  0  0  0
 13 14  2  0  0  0  0
 14 15  1  0  0  0  0
 15 16  2  0  0  0  0
 16 17  1  0  0  0  0
 16 33  1  0  0  0  0
 18 19  1  0  0  0  0
 19 20  2  0  0  0  0
 19 34  1  0  0  0  0
 20 21  1  0  0  0  0
 21 35  1  0  0  0  0
 21 36  1  0  0  0  0
 21 37  1  0  0  0  0
M  END
> <s_m_source_file>
AV-unprocessed.smi

> <i_m_source_file_index>
644

> <i_lp_mmshare_version>
43012

> <i_f3d_flags>
0

> <s_epik_input>
W0NIM11jKFtjSF0xKWMoW0NIM10pW2NIXWMoYzEyKW4oW2NIXW4yKVtDSDJdW0NASF0oW09IXSlbQ0gyXVNjM25uW2NIXXMz

> <s_epik_cmdline>
J2VwaWtfcHl0aG9uJywgJy1waCcsICc3LjAnLCAnLXRuJywgJzgnLCAnLW1hJywgJzIwMCcsICctbWV0YWxfYmluZGluZycsICctaW1hZScsICc8aW5maWxlLm1hZT4nLCAnLW9tYWUnLCAnPG91dGZpbGUubWFlPic=

> <r_lp_tautomer_probability>
1

> <r_epik_Ionization_Penalty>
0.105397

> <r_epik_Ionization_Penalty_Charging>
0

> <r_epik_Ionization_Penalty_Neutral>
0.105397

> <r_epik_State_Penalty>
0.0952713

> <r_epik_Charging_Adjusted_Penalty>
0.0952713

> <i_epik_Tot_Q>
0

> <i_epik_Tot_abs_Q>
0

> <r_epik_Metal_State_Penalty>
0.0807681

> <b_epik_Metal_Only>
0

> <s_lp_Force_Field>
OPLS_2005

> <r_lp_Energy>
7.47595

> <b_lp_Chiralities_Consistent>
1

> <s_lp_Variant>
AV-unprocessed.smi:644-2

> <Gold.Version>
5.8.1

> <Gold.Id.Protein>
6NUR|6NUR_protein|mol2

> <Gold.PLP.Fitness>
56.1748

> <Gold.PLP.PLP>
-51.1883

> <Gold.PLP.part.hbond>
-1.7509

> <Gold.PLP.part.metal>
0.0000

> <Gold.PLP.part.buried>
-6.5443

> <Gold.PLP.part.nonpolar>
-43.4201

> <Gold.PLP.part.repulsive>
0.3061

> <Gold.PLP.ligand.clash>
0.0370

> <Gold.PLP.ligand.torsion>
1.8356

> <Gold.PLP.Chemscore.Hbond>
1.9913

> <Gold.PLP.Chemscore.CHOScore>
0.8806

> <Gold.PLP.Chemscore.Metal>
0.0000

> <Gold.Chemscore.Hbonds>
donor molecule, donor type, donor heavy atom, donor atom, acceptor molecule, acceptor atom, score
      L1  H    10    30       P1  8028  0.83
      P1  H 10752 10765       L1    15  1.00
      L1  C     6    26       P1  8028  0.37
      L1  C     6    26       P1  8029  0.49

> <Gold.PLP.Chemscore.Internal.Correction>
0.0791

> <Gold.Rescore>
     Score         DG    S(hbond)    S(metal)    S(lipo)     H(rot)  DE(clash)    DE(int)     intcor
     18.59     -20.51       1.94        0.00     126.81       2.46       0.16       1.76       ----

> <Gold.Chemscore.Fitness>
18.5944

> <Gold.Chemscore.DG>
-20.5143

> <Gold.Chemscore.ZeroCoef>
-5.4800

> <Gold.Chemscore.Hbond>
1.9436

> <Gold.Chemscore.Metal>
0.0000

> <Gold.Chemscore.Lipo>
126.8128

> <Gold.Chemscore.Internal_Hbond>
0.0000

> <Gold.Chemscore.DEClash>
0.1596

> <Gold.Chemscore.DEInternal>
1.7604

> <Gold.Chemscore.Rot>
2.4588

> <Gold.Chemscore.Internal.Correction>
   9.000000E+99

> <Gold.Chemscore.Hbonds>
donor molecule, donor type, donor heavy atom, donor atom, acceptor molecule, acceptor atom, score
      L1  H    10    30       P1  8028  0.80
      P1  H 10752 10765       L1    15  0.90

> <Gold.Chemscore.Hbond.Weighted>
-6.4918

> <Gold.Chemscore.Metal.Weighted>
-0.0000

> <Gold.Chemscore.Lipo.Weighted>
-14.8371

> <Gold.Chemscore.Internal_Hbond.Weighted>
0.0000

> <Gold.Chemscore.DEClash.Weighted>
0.1596

> <Gold.Chemscore.DEInternal.Weighted>
1.7604

> <Gold.Chemscore.Rot.Weighted>
6.2946

> <Gold.Chemscore.Internal.Correction.Weighted>
   9.000000E+99

> <Gold.Protein.RotatedTorsions>
[ 6907 6896 6895 6894 ] final -137.57 input  -60.11 | X-H torsion
[ 7974 7965 7964 7962 ] final   63.66 input  175.53 | X-H torsion
[ 8008 7997 7996 7995 ] final  124.19 input   59.86 | X-H torsion
[ 10167 10162 10161 10158 ] final   57.37 input  -65.29 | X-H torsion
[ 10718 10713 10712 10709 ] final  106.94 input   66.30 | X-H torsion
[ 10763 10752 10751 10750 ] final -152.92 input  -60.55 | X-H torsion
[ 11005 11000 10999 10996 ] final   40.63 input  -57.11 | X-H torsion

> <Gold.Protein.ActiveResidues>
 VAL166  LYS551  ARG553  GLY616  TRP617  ASP618  TYR619  PRO620  LYS621  CYS622 
 ASP623  PHE694  ASN695  SER759  ASP760  ASP761  ALA762  ILE779  LEU786  VAL792 
 PHE793  MET794  SER795  GLU796  ALA797  LYS798  CYS799  TRP800  GLU811  SER814 

> <Gold.Protein.RotatedAtoms>
  151.0241  133.5850  159.2667 H   0  0  0  0  0  0  0  0  0  0  0  0  # atno 6907 bound_to 6896
  151.2956  135.0753  159.9230 H   0  0  0  0  0  0  0  0  0  0  0  0  # atno 6908 bound_to 6896
  152.5330  133.9931  159.7914 H   0  0  0  0  0  0  0  0  0  0  0  0  # atno 6909 bound_to 6896
  145.8592  139.3304  143.0829 H   0  0  0  0  0  0  0  0  0  0  0  0  # atno 7974 bound_to 7965
  156.2793  140.2745  156.1749 H   0  0  0  0  0  0  0  0  0  0  0  0  # atno 8008 bound_to 7997
  155.0617  140.0386  157.2596 H   0  0  0  0  0  0  0  0  0  0  0  0  # atno 8009 bound_to 7997
  154.7112  140.2669  155.6633 H   0  0  0  0  0  0  0  0  0  0  0  0  # atno 8010 bound_to 7997
  140.1987  144.4011  150.6538 H   0  0  0  0  0  0  0  0  0  0  0  0  # atno 10167 bound_to 10162
  157.6648  131.0862  150.6082 H   0  0  0  0  0  0  0  0  0  0  0  0  # atno 10718 bound_to 10713
  154.7962  135.3225  154.7660 H   0  0  0  0  0  0  0  0  0  0  0  0  # atno 10763 bound_to 10752
  153.8338  135.6877  153.4815 H   0  0  0  0  0  0  0  0  0  0  0  0  # atno 10764 bound_to 10752
  153.1655  135.4644  154.9773 H   0  0  0  0  0  0  0  0  0  0  0  0  # atno 10765 bound_to 10752
  140.1912  134.3985  155.8146 H   0  0  0  0  0  0  0  0  0  0  0  0  # atno 11005 bound_to 11000
  145.9268  140.9077  143.0377 LP  0  0  0  0  0  0  0  0  0  0  0  0  # atno 17320 bound_to 7965
  144.6727  140.1363  143.7440 LP  0  0  0  0  0  0  0  0  0  0  0  0  # atno 17321 bound_to 7965
  140.6405  143.2203  151.6299 LP  0  0  0  0  0  0  0  0  0  0  0  0  # atno 17342 bound_to 10162
  139.5226  144.3158  152.0953 LP  0  0  0  0  0  0  0  0  0  0  0  0  # atno 17343 bound_to 10162
  156.6383  130.4451  149.5761 LP  0  0  0  0  0  0  0  0  0  0  0  0  # atno 17370 bound_to 10713
  156.2229  130.6748  151.1386 LP  0  0  0  0  0  0  0  0  0  0  0  0  # atno 17371 bound_to 10713
  141.2226  133.7047  156.8098 LP  0  0  0  0  0  0  0  0  0  0  0  0  # atno 17394 bound_to 11000
  140.2158  134.8794  157.3324 LP  0  0  0  0  0  0  0  0  0  0  0  0  # atno 17395 bound_to 11000

$$$$
