#       Name:                AV-unprocessed.smi:99
#       Creating user name   scv26
#       Creation time:       Thu Mar 26 17:37:56 2020


#       File generated by GOLD software.
#

@<TRIPOS>MOLECULE
AV-unprocessed.smi:99
    65    68     1
SMALL
NO_CHARGES


@<TRIPOS>ATOM
      1 ****        -3.6513   0.7809   1.1314 O.2            1 S1                 0.0000
      2 ****        -2.8454   1.6893   1.3437 C.2            1 S1                 0.0000
      3 ****        -1.5150   1.4993   1.4363 O.3            1 S1                 0.0000
      4 ****        -0.9688   0.2065   1.2348 C.3            1 S1                 0.0000
      5 ****         0.5592   0.2758   1.3625 C.3            1 S1                 0.0000
      6 ****         1.1310   0.9614   0.2605 O.3            1 S1                 0.0000
      7 ****         2.4873   0.6518   0.2114 C.3            1 S1                 0.0000
      8 ****         2.9465   0.7531  -1.2276 N.am           1 S1                 0.0000
      9 ****         3.9182   1.6830  -1.5517 C.2            1 S1                 0.0000
     10 ****         4.3473   1.8431  -2.8203 C.2            1 S1                 0.0000
     11 ****         3.7683   1.0239  -3.8806 C.2            1 S1                 0.0000
     12 ****         4.1765   1.1640  -5.0318 O.2            1 S1                 0.0000
     13 ****         2.7906   0.1351  -3.5429 N.pl3          1 S1                -1.0000
     14 ****         2.3464  -0.0206  -2.2615 C.2            1 S1                 0.0000
     15 ****         1.4434  -0.7984  -1.9613 O.2            1 S1                 0.0000
     16 ****         2.6705  -0.7514   0.8255 C.3            1 S1                 0.0000
     17 ****         3.5829  -0.7409   1.9046 O.3            1 S1                 0.0000
     18 ****         1.2749  -1.0824   1.3617 C.3            1 S1                 0.0000
     19 ****         0.6041  -2.0034   0.5094 O.3            1 S1                 0.0000
     20 ****         0.7993  -3.3327   0.6220 C.2            1 S1                 0.0000
     21 ****         1.5330  -3.8478   1.4680 O.2            1 S1                 0.0000
     22 ****         0.0316  -4.1133  -0.3903 C.ar           1 S1                 0.0000
     23 ****         0.0992  -5.5259  -0.3759 C.ar           1 S1                 0.0000
     24 ****        -0.6125  -6.2874  -1.3234 C.ar           1 S1                 0.0000
     25 ****        -1.3987  -5.6454  -2.2978 C.ar           1 S1                 0.0000
     26 ****        -1.4731  -4.2407  -2.3234 C.ar           1 S1                 0.0000
     27 ****        -0.7637  -3.4777  -1.3758 C.ar           1 S1                 0.0000
     28 ****        -3.2423   3.1163   1.5209 C.ar           1 S1                 0.0000
     29 ****        -4.6109   3.4678   1.4568 C.ar           1 S1                 0.0000
     30 ****        -5.0154   4.8082   1.6100 C.ar           1 S1                 0.0000
     31 ****        -4.0561   5.8136   1.8301 C.ar           1 S1                 0.0000
     32 ****        -2.6916   5.4769   1.8981 C.ar           1 S1                 0.0000
     33 ****        -2.2851   4.1370   1.7445 C.ar           1 S1                 0.0000
     34 ****        -1.3727  -0.4735   1.9861 H              1 S1                 0.0000
     35 ****        -1.2547  -0.1754   0.2535 H              1 S1                 0.0000
     36 ****         0.8306   0.8111   2.2742 H              1 S1                 0.0000
     37 ****         3.0386   1.4182   0.7585 H              1 S1                 0.0000
     38 ****         4.3515   2.2981  -0.7772 H              1 S1                 0.0000
     39 ****         5.1092   2.5729  -3.0515 H              1 S1                 0.0000
     40 ****         3.0168  -1.4722   0.0843 H              1 S1                 0.0000
     41 ****         3.2832  -0.1129   2.5436 H              1 S1                 0.0000
     42 ****         1.3051  -1.4863   2.3752 H              1 S1                 0.0000
     43 ****         0.6980  -6.0405   0.3615 H              1 S1                 0.0000
     44 ****        -0.5530  -7.3655  -1.3031 H              1 S1                 0.0000
     45 ****        -1.9427  -6.2292  -3.0256 H              1 S1                 0.0000
     46 ****        -2.0729  -3.7453  -3.0725 H              1 S1                 0.0000
     47 ****        -0.8401  -2.4012  -1.4271 H              1 S1                 0.0000
     48 ****        -5.3658   2.7136   1.2867 H              1 S1                 0.0000
     49 ****        -6.0633   5.0645   1.5565 H              1 S1                 0.0000
     50 ****        -4.3663   6.8417   1.9458 H              1 S1                 0.0000
     51 ****        -1.9540   6.2477   2.0663 H              1 S1                 0.0000
     52 ****        -1.2297   3.9134   1.7985 H              1 S1                 0.0000
     53 ****        -3.3274  -0.1583   1.0176 LP             1 S1                 0.0000
     54 ****        -4.6288   0.9833   1.0729 LP             1 S1                 0.0000
     55 ****         1.0130   1.9476   0.3771 LP             1 S1                 0.0000
     56 ****         0.6866   0.6705  -0.5868 LP             1 S1                 0.0000
     57 ****         4.8945   1.8313  -5.2300 LP             1 S1                 0.0000
     58 ****         3.7906   0.6107  -5.7700 LP             1 S1                 0.0000
     59 ****         2.3824  -0.4254  -4.2634 LP             1 S1                 0.0000
     60 ****         1.1466  -0.8765  -1.0096 LP             1 S1                 0.0000
     61 ****         1.0056  -1.3531  -2.6688 LP             1 S1                 0.0000
     62 ****         4.4911  -0.4811   1.5762 LP             1 S1                 0.0000
     63 ****         3.6259  -1.6499   2.3191 LP             1 S1                 0.0000
     64 ****         2.0242  -3.2716   2.1213 LP             1 S1                 0.0000
     65 ****         1.6371  -4.8418   1.5010 LP             1 S1                 0.0000
@<TRIPOS>BOND
    1    1    2 2     
    2    2    3 1     
    3    2   28 1     
    4    3    4 1     
    5    4    5 1     
    6    4   34 1     
    7    4   35 1     
    8    5   18 1     
    9    5    6 1     
   10    5   36 1     
   11    6    7 1     
   12    7    8 1     
   13    7   16 1     
   14    7   37 1     
   15    8   14 am    
   16    8    9 1     
   17    9   10 2     
   18    9   38 1     
   19   10   11 1     
   20   10   39 1     
   21   11   12 2     
   22   11   13 1     
   23   13   14 1     
   24   14   15 2     
   25   16   17 1     
   26   16   18 1     
   27   16   40 1     
   28   17   41 1     
   29   18   19 1     
   30   18   42 1     
   31   19   20 1     
   32   20   21 2     
   33   20   22 1     
   34   22   27 ar    
   35   22   23 ar    
   36   23   24 ar    
   37   23   43 1     
   38   24   25 ar    
   39   24   44 1     
   40   25   26 ar    
   41   25   45 1     
   42   26   27 ar    
   43   26   46 1     
   44   27   47 1     
   45   28   33 ar    
   46   28   29 ar    
   47   29   30 ar    
   48   29   48 1     
   49   30   31 ar    
   50   30   49 1     
   51   31   32 ar    
   52   31   50 1     
   53   32   33 ar    
   54   32   51 1     
   55   33   52 1     
   56    1   53 1     
   57    1   54 1     
   58    6   55 1     
   59    6   56 1     
   60   12   57 1     
   61   12   58 1     
   62   13   59 1     
   63   15   60 1     
   64   15   61 1     
   65   17   62 1     
   66   17   63 1     
   67   21   64 1     
   68   21   65 1     
@<TRIPOS>SUBSTRUCTURE
      1 S1             1
@<TRIPOS>SET
LONE_PAIRS      STATIC     ATOMS    <user>   **** ""
13 53 54 55 56 57 58 59 60 61 62 63 64 65
DONOR_HYDROGENS      STATIC     ATOMS    <user>   **** ""
1 41
ATOM$BLUE        STATIC     ATOMS    COLORGROUP SYSTEM
13 53 54 55 56 57 58 59 60 61 62 63 64 65
ATOM$RED        STATIC     ATOMS    COLORGROUP SYSTEM
1 41
