AV-unprocessed.smi:1868|AV-procd|sdf|7587|dock8
  -GOLD-   22720 9303D 1   1.00000     0.00000
 Structure written by MMmdl.
 47 49  0  0  0  0  0  0  0  0  2 V2000
  151.0023  138.6295  158.7407 C   0  0  0  0  0  0  0  0  0  0  0  0
  151.2688  140.1008  158.7757 C   0  0  0  0  0  0  0  0  0  0  0  0
  152.1602  140.6419  159.6058 N   0  0  0  0  0  0  0  0  0  0  0  0
  152.0874  141.9861  159.2948 C   0  0  0  0  0  0  0  0  0  0  0  0
  152.7895  143.0913  159.8264 C   0  0  0  0  0  0  0  0  0  0  0  0
  152.5417  144.3932  159.3442 C   0  0  0  0  0  0  0  0  0  0  0  0
  151.5900  144.6083  158.3264 C   0  0  0  0  0  0  0  0  0  0  0  0
  150.8796  143.5211  157.7824 C   0  0  0  0  0  0  0  0  0  0  0  0
  151.1311  142.2234  158.2666 C   0  0  0  0  0  0  0  0  0  0  0  0
  150.6185  140.9662  157.9594 N   0  0  0  0  0  0  0  0  0  0  0  0
  149.6003  140.6642  156.9621 C   0  0  0  0  0  0  0  0  0  0  0  0
  149.9591  141.1991  155.5612 C   0  0  1  0  0  0  0  0  0  0  0  0
  151.0532  140.4673  155.0427 O   0  0  0  0  0  0  0  0  0  0  0  0
  148.7746  141.0687  154.5834 C   0  0  0  0  0  0  0  0  0  0  0  0
  147.7000  142.0611  154.8452 N   0  3  2  0  0  0  0  0  0  0  0  0
  146.9483  141.8013  156.1018 C   0  0  0  0  0  0  0  0  0  0  0  0
  145.9409  142.9291  156.3904 C   0  0  0  0  0  0  0  0  0  0  0  0
  144.9706  143.1599  155.2175 C   0  0  2  0  0  0  0  0  0  0  0  0
  143.9066  142.0545  155.0983 C   0  0  0  0  0  0  0  0  0  0  0  0
  145.7753  143.3553  153.9200 C   0  0  0  0  0  0  0  0  0  0  0  0
  146.7863  142.2189  153.6847 C   0  0  0  0  0  0  0  0  0  0  0  0
  151.5869  138.1174  159.5058 H   0  0  0  0  0  0  0  0  0  0  0  0
  151.2777  138.2200  157.7687 H   0  0  0  0  0  0  0  0  0  0  0  0
  149.9472  138.4281  158.9245 H   0  0  0  0  0  0  0  0  0  0  0  0
  153.5206  142.9371  160.6060 H   0  0  0  0  0  0  0  0  0  0  0  0
  153.0845  145.2307  159.7574 H   0  0  0  0  0  0  0  0  0  0  0  0
  151.4063  145.6091  157.9632 H   0  0  0  0  0  0  0  0  0  0  0  0
  150.1499  143.6844  157.0033 H   0  0  0  0  0  0  0  0  0  0  0  0
  149.4584  139.5829  156.9301 H   0  0  0  0  0  0  0  0  0  0  0  0
  148.6491  141.0810  157.2941 H   0  0  0  0  0  0  0  0  0  0  0  0
  150.2634  142.2406  155.6540 H   0  0  0  0  0  0  0  0  0  0  0  0
  150.8203  139.5507  155.0242 H   0  0  0  0  0  0  0  0  0  0  0  0
  149.1544  141.1984  153.5685 H   0  0  0  0  0  0  0  0  0  0  0  0
  148.3530  140.0631  154.6223 H   0  0  0  0  0  0  0  0  0  0  0  0
  146.4358  140.8412  156.0304 H   0  0  0  0  0  0  0  0  0  0  0  0
  147.6338  141.7238  156.9447 H   0  0  0  0  0  0  0  0  0  0  0  0
  145.3850  142.7111  157.3030 H   0  0  0  0  0  0  0  0  0  0  0  0
  146.4906  143.8511  156.5858 H   0  0  0  0  0  0  0  0  0  0  0  0
  144.4306  144.0875  155.4128 H   0  0  0  0  0  0  0  0  0  0  0  0
  144.3471  141.0774  154.9027 H   0  0  0  0  0  0  0  0  0  0  0  0
  143.2099  142.2690  154.2875 H   0  0  0  0  0  0  0  0  0  0  0  0
  143.3231  141.9747  156.0160 H   0  0  0  0  0  0  0  0  0  0  0  0
  145.1021  143.4407  153.0663 H   0  0  0  0  0  0  0  0  0  0  0  0
  146.3151  144.3018  153.9732 H   0  0  0  0  0  0  0  0  0  0  0  0
  147.3662  142.4445  152.7888 H   0  0  0  0  0  0  0  0  0  0  0  0
  146.2692  141.2775  153.4944 H   0  0  0  0  0  0  0  0  0  0  0  0
  148.1650  142.9511  154.9575 H   0  0  0  0  0  0  0  0  0  0  0  0
  1  2  1  0  0  0  0
  1 22  1  0  0  0  0
  1 23  1  0  0  0  0
  1 24  1  0  0  0  0
  2 10  1  0  0  0  0
  2  3  2  0  0  0  0
  3  4  1  0  0  0  0
  4  9  2  0  0  0  0
  4  5  1  0  0  0  0
  5  6  2  0  0  0  0
  5 25  1  0  0  0  0
  6  7  1  0  0  0  0
  6 26  1  0  0  0  0
  7  8  2  0  0  0  0
  7 27  1  0  0  0  0
  8  9  1  0  0  0  0
  8 28  1  0  0  0  0
  9 10  1  0  0  0  0
 10 11  1  0  0  0  0
 11 12  1  0  0  0  0
 11 29  1  0  0  0  0
 11 30  1  0  0  0  0
 12 13  1  0  0  0  0
 12 14  1  0  0  0  0
 12 31  1  0  0  0  0
 13 32  1  0  0  0  0
 14 15  1  0  0  0  0
 14 33  1  0  0  0  0
 14 34  1  0  0  0  0
 15 21  1  0  0  0  0
 15 16  1  0  0  0  0
 15 47  1  0  0  0  0
 16 17  1  0  0  0  0
 16 35  1  0  0  0  0
 16 36  1  0  0  0  0
 17 18  1  0  0  0  0
 17 37  1  0  0  0  0
 17 38  1  0  0  0  0
 18 19  1  0  0  0  0
 18 20  1  0  0  0  0
 18 39  1  0  0  0  0
 19 40  1  0  0  0  0
 19 41  1  0  0  0  0
 19 42  1  0  0  0  0
 20 21  1  0  0  0  0
 20 43  1  0  0  0  0
 20 44  1  0  0  0  0
 21 45  1  0  0  0  0
 21 46  1  0  0  0  0
M  CHG  1  15   1
M  END
> <s_m_source_file>
AV-unprocessed.smi

> <i_m_source_file_index>
1868

> <i_lp_mmshare_version>
43012

> <i_f3d_flags>
0

> <s_epik_input>
W2NIXTFbY0hdW2NIXVtjSF1jKGMxMiluKGMobjIpW0NIM10pW0NIMl1bQ0BIXShbT0hdKVtDSDJdTjNbQ0gyXVtDSDJdW0NIXShbQ0gzXSlbQ0gyXVtDSDJdMw==

> <s_epik_cmdline>
J2VwaWtfcHl0aG9uJywgJy1waCcsICc3LjAnLCAnLXRuJywgJzgnLCAnLW1hJywgJzIwMCcsICctbWV0YWxfYmluZGluZycsICctaW1hZScsICc8aW5maWxlLm1hZT4nLCAnLW9tYWUnLCAnPG91dGZpbGUubWFlPic=

> <r_epik_Ionization_Penalty>
0.101157

> <r_epik_Ionization_Penalty_Charging>
0.00181365

> <r_epik_Ionization_Penalty_Neutral>
0.0993436

> <r_epik_State_Penalty>
0.0871902

> <r_epik_Charging_Adjusted_Penalty>
0.0890039

> <i_epik_Tot_Q>
1

> <i_epik_Tot_abs_Q>
1

> <r_epik_Metal_State_Penalty>
9.24346e-05

> <b_epik_Metal_Only>
0

> <s_lp_Force_Field>
OPLS_2005

> <r_lp_Energy>
23.8168

> <b_lp_Chiralities_Consistent>
1

> <s_lp_Variant>
AV-unprocessed.smi:1868-4

> <Gold.Version>
5.8.1

> <Gold.Id.Protein>
6NUR|6NUR_protein|mol2

> <Gold.PLP.Fitness>
52.3906

> <Gold.PLP.PLP>
-43.8956

> <Gold.PLP.part.hbond>
-2.0000

> <Gold.PLP.part.metal>
0.0000

> <Gold.PLP.part.buried>
-6.8445

> <Gold.PLP.part.nonpolar>
-35.0840

> <Gold.PLP.part.repulsive>
0.1192

> <Gold.PLP.ligand.clash>
0.0000

> <Gold.PLP.ligand.torsion>
0.2691

> <Gold.PLP.Chemscore.Hbond>
3.0000

> <Gold.PLP.Chemscore.CHOScore>
0.0000

> <Gold.PLP.Chemscore.Metal>
0.0000

> <Gold.Chemscore.Hbonds>
donor molecule, donor type, donor heavy atom, donor atom, acceptor molecule, acceptor atom, score
      L1  H    15    47       P1  8028  2.00
      P1  H  7989  7998       L1    13  1.00

> <Gold.PLP.Chemscore.Internal.Correction>
0.0331

> <Gold.Rescore>
     Score         DG    S(hbond)    S(metal)    S(lipo)     H(rot)  DE(clash)    DE(int)     intcor
     19.99     -20.41       1.90        0.00     115.33       1.92       0.07       0.36       ----

> <Gold.Chemscore.Fitness>
19.9851

> <Gold.Chemscore.DG>
-20.4146

> <Gold.Chemscore.ZeroCoef>
-5.4800

> <Gold.Chemscore.Hbond>
1.9029

> <Gold.Chemscore.Metal>
0.0000

> <Gold.Chemscore.Lipo>
115.3308

> <Gold.Chemscore.Internal_Hbond>
0.0000

> <Gold.Chemscore.DEClash>
0.0665

> <Gold.Chemscore.DEInternal>
0.3630

> <Gold.Chemscore.Rot>
1.9198

> <Gold.Chemscore.Internal.Correction>
   9.000000E+99

> <Gold.Chemscore.Hbonds>
donor molecule, donor type, donor heavy atom, donor atom, acceptor molecule, acceptor atom, score
      L1  H    15    47       P1  8028  0.93
      P1  H  7989  7998       L1    13  0.60

> <Gold.Chemscore.Hbond.Weighted>
-6.3556

> <Gold.Chemscore.Metal.Weighted>
-0.0000

> <Gold.Chemscore.Lipo.Weighted>
-13.4937

> <Gold.Chemscore.Internal_Hbond.Weighted>
0.0000

> <Gold.Chemscore.DEClash.Weighted>
0.0665

> <Gold.Chemscore.DEInternal.Weighted>
0.3630

> <Gold.Chemscore.Rot.Weighted>
4.9147

> <Gold.Chemscore.Internal.Correction.Weighted>
   9.000000E+99

> <Gold.Protein.RotatedTorsions>
[ 6907 6896 6895 6894 ] final  143.02 input  -60.11 | X-H torsion
[ 7974 7965 7964 7962 ] final  -73.83 input  175.53 | X-H torsion
[ 8008 7997 7996 7995 ] final   27.30 input   59.86 | X-H torsion
[ 10167 10162 10161 10158 ] final  126.44 input  -65.29 | X-H torsion
[ 10718 10713 10712 10709 ] final  -51.60 input   66.30 | X-H torsion
[ 10763 10752 10751 10750 ] final -147.84 input  -60.55 | X-H torsion
[ 11005 11000 10999 10996 ] final  -30.11 input  -57.11 | X-H torsion

> <Gold.Protein.ActiveResidues>
 VAL166  LYS551  ARG553  GLY616  TRP617  ASP618  TYR619  PRO620  LYS621  CYS622 
 ASP623  PHE694  ASN695  SER759  ASP760  ASP761  ALA762  ILE779  LEU786  VAL792 
 PHE793  MET794  SER795  GLU796  ALA797  LYS798  CYS799  TRP800  GLU811  SER814 

> <Gold.Protein.RotatedAtoms>
  152.2114  133.4914  159.5111 H   0  0  0  0  0  0  0  0  0  0  0  0  # atno 6907 bound_to 6896
  150.6991  134.1462  159.4132 H   0  0  0  0  0  0  0  0  0  0  0  0  # atno 6908 bound_to 6896
  151.9381  135.0226  160.0584 H   0  0  0  0  0  0  0  0  0  0  0  0  # atno 6909 bound_to 6896
  145.6470  140.9294  143.1005 H   0  0  0  0  0  0  0  0  0  0  0  0  # atno 7974 bound_to 7965
  155.0408  140.3169  155.4725 H   0  0  0  0  0  0  0  0  0  0  0  0  # atno 8008 bound_to 7997
  156.2855  140.2163  156.5475 H   0  0  0  0  0  0  0  0  0  0  0  0  # atno 8009 bound_to 7997
  154.7291  140.0483  157.0698 H   0  0  0  0  0  0  0  0  0  0  0  0  # atno 8010 bound_to 7997
  139.5631  144.6894  151.3987 H   0  0  0  0  0  0  0  0  0  0  0  0  # atno 10167 bound_to 10162
  156.1696  130.4149  149.9667 H   0  0  0  0  0  0  0  0  0  0  0  0  # atno 10718 bound_to 10713
  154.8265  135.3350  154.6881 H   0  0  0  0  0  0  0  0  0  0  0  0  # atno 10763 bound_to 10752
  153.7506  135.6939  153.4951 H   0  0  0  0  0  0  0  0  0  0  0  0  # atno 10764 bound_to 10752
  153.2179  135.4459  155.0406 H   0  0  0  0  0  0  0  0  0  0  0  0  # atno 10765 bound_to 10752
  140.9354  133.7312  156.0997 H   0  0  0  0  0  0  0  0  0  0  0  0  # atno 11005 bound_to 11000
  144.7136  139.8278  143.7406 LP  0  0  0  0  0  0  0  0  0  0  0  0  # atno 17320 bound_to 7965
  146.1235  139.4257  143.0214 LP  0  0  0  0  0  0  0  0  0  0  0  0  # atno 17321 bound_to 7965
  140.6912  143.7856  150.7258 LP  0  0  0  0  0  0  0  0  0  0  0  0  # atno 17342 bound_to 10162
  140.1339  143.4501  152.2237 LP  0  0  0  0  0  0  0  0  0  0  0  0  # atno 17343 bound_to 10162
  156.7472  130.9101  151.3635 LP  0  0  0  0  0  0  0  0  0  0  0  0  # atno 17370 bound_to 10713
  157.6793  130.9124  150.0227 LP  0  0  0  0  0  0  0  0  0  0  0  0  # atno 17371 bound_to 10713
  140.7806  134.3730  157.5488 LP  0  0  0  0  0  0  0  0  0  0  0  0  # atno 17394 bound_to 11000
  139.8806  134.9079  156.2956 LP  0  0  0  0  0  0  0  0  0  0  0  0  # atno 17395 bound_to 11000

$$$$
