AV-unprocessed.smi:699|AV-procd|sdf|3404|dock7
  -GOLD-   22720 0383D 1   1.00000     0.00000
 Structure written by MMmdl.
 35 36  0  0  0  0  0  0  0  0  2 V2000
  146.6410  134.8378  153.1976 N   0  0  0  0  0  0  0  0  0  0  0  0
  146.0065  134.1072  152.2773 C   0  0  0  0  0  0  0  0  0  0  0  0
  146.1759  132.8926  152.1825 O   0  0  0  0  0  0  0  0  0  0  0  0
  145.0357  134.8562  151.3383 C   0  0  1  0  0  0  0  0  0  0  0  0
  143.5924  134.3746  151.5471 C   0  0  0  0  0  0  0  0  0  0  0  0
  143.0185  135.2518  152.6627 C   0  0  0  0  0  0  0  0  0  0  0  0
  143.7605  136.5907  152.5660 C   0  0  0  0  0  0  0  0  0  0  0  0
  144.9277  136.3862  151.5809 C   0  0  1  0  0  0  0  0  0  0  0  0
  146.1527  137.0210  152.0720 N   0  0  0  0  0  0  0  0  0  0  0  0
  146.2158  138.2355  152.6361 C   0  0  0  0  0  0  0  0  0  0  0  0
  145.2302  138.9502  152.8164 O   0  0  0  0  0  0  0  0  0  0  0  0
  147.4782  138.5487  152.9758 N   0  0  0  0  0  0  0  0  0  0  0  0
  147.9706  139.7422  153.5714 C   0  0  0  0  0  0  0  0  0  0  0  0
  147.2019  140.9161  153.4077 C   0  0  0  0  0  0  0  0  0  0  0  0
  147.6396  142.1225  153.9909 C   0  0  0  0  0  0  0  0  0  0  0  0
  148.7834  142.1463  154.7078 N   0  3  0  0  0  0  0  0  0  0  0  0
  149.5449  141.0485  154.9033 C   0  0  0  0  0  0  0  0  0  0  0  0
  149.1577  139.8134  154.3448 C   0  0  0  0  0  0  0  0  0  0  0  0
  147.2919  134.3933  153.8286 H   0  0  0  0  0  0  0  0  0  0  0  0
  146.4750  135.8323  153.2548 H   0  0  0  0  0  0  0  0  0  0  0  0
  145.3445  134.6683  150.3085 H   0  0  0  0  0  0  0  0  0  0  0  0
  143.0252  134.5347  150.6292 H   0  0  0  0  0  0  0  0  0  0  0  0
  143.5205  133.3121  151.7850 H   0  0  0  0  0  0  0  0  0  0  0  0
  141.9384  135.3708  152.5724 H   0  0  0  0  0  0  0  0  0  0  0  0
  143.2133  134.7929  153.6328 H   0  0  0  0  0  0  0  0  0  0  0  0
  143.0978  137.3794  152.2085 H   0  0  0  0  0  0  0  0  0  0  0  0
  144.1087  136.8908  153.5555 H   0  0  0  0  0  0  0  0  0  0  0  0
  144.6476  136.8574  150.6367 H   0  0  0  0  0  0  0  0  0  0  0  0
  147.0096  136.4993  151.9581 H   0  0  0  0  0  0  0  0  0  0  0  0
  148.1653  137.8236  152.8300 H   0  0  0  0  0  0  0  0  0  0  0  0
  146.2851  140.8972  152.8358 H   0  0  0  0  0  0  0  0  0  0  0  0
  147.1119  143.0615  153.9077 H   0  0  0  0  0  0  0  0  0  0  0  0
  150.4332  141.1883  155.5020 H   0  0  0  0  0  0  0  0  0  0  0  0
  149.7729  138.9471  154.5320 H   0  0  0  0  0  0  0  0  0  0  0  0
  149.0825  143.0290  155.1233 H   0  0  0  0  0  0  0  0  0  0  0  0
  1  2  1  0  0  0  0
  1 19  1  0  0  0  0
  1 20  1  0  0  0  0
  2  3  2  0  0  0  0
  2  4  1  0  0  0  0
  4  8  1  0  0  0  0
  4  5  1  0  0  0  0
  4 21  1  0  0  0  0
  5  6  1  0  0  0  0
  5 22  1  0  0  0  0
  5 23  1  0  0  0  0
  6  7  1  0  0  0  0
  6 24  1  0  0  0  0
  6 25  1  0  0  0  0
  7  8  1  0  0  0  0
  7 26  1  0  0  0  0
  7 27  1  0  0  0  0
  8  9  1  0  0  0  0
  8 28  1  0  0  0  0
  9 10  1  0  0  0  0
  9 29  1  0  0  0  0
 10 11  2  0  0  0  0
 10 12  1  0  0  0  0
 12 13  1  0  0  0  0
 12 30  1  0  0  0  0
 13 18  1  0  0  0  0
 13 14  2  0  0  0  0
 14 15  1  0  0  0  0
 14 31  1  0  0  0  0
 15 16  2  0  0  0  0
 15 32  1  0  0  0  0
 16 17  1  0  0  0  0
 16 35  1  0  0  0  0
 17 18  2  0  0  0  0
 17 33  1  0  0  0  0
 18 34  1  0  0  0  0
M  CHG  1  16   1
M  END
> <s_m_source_file>
AV-unprocessed.smi

> <i_m_source_file_index>
699

> <i_lp_mmshare_version>
43012

> <i_f3d_flags>
0

> <s_epik_input>
W05IMl1DKD1PKVtDQEBIXTFbQ0gyXVtDSDJdW0NIMl1bQ0BIXTFbTkhdQyg9TylbTkhdYzJbY0hdW2NIXW5bY0hdW2NIXTI=

> <s_epik_cmdline>
J2VwaWtfcHl0aG9uJywgJy1waCcsICc3LjAnLCAnLXRuJywgJzgnLCAnLW1hJywgJzIwMCcsICctbWV0YWxfYmluZGluZycsICctaW1hZScsICc8aW5maWxlLm1hZT4nLCAnLW9tYWUnLCAnPG91dGZpbGUubWFlPic=

> <r_epik_Ionization_Penalty>
1.0332

> <r_epik_Ionization_Penalty_Charging>
1.03318

> <r_epik_Ionization_Penalty_Neutral>
1.91967e-05

> <r_epik_State_Penalty>
1.08452

> <r_epik_Charging_Adjusted_Penalty>
2.11769

> <i_epik_Tot_Q>
1

> <i_epik_Tot_abs_Q>
1

> <r_epik_Metal_State_Penalty>
1.18144

> <b_epik_Metal_Only>
0

> <s_lp_Force_Field>
OPLS_2005

> <r_lp_Energy>
24.8241

> <b_lp_Chiralities_Consistent>
1

> <s_lp_Variant>
AV-unprocessed.smi:699-6

> <Gold.Version>
5.8.1

> <Gold.Id.Protein>
6NUR|6NUR_protein|mol2

> <Gold.PLP.Fitness>
41.0494

> <Gold.PLP.PLP>
-29.7842

> <Gold.PLP.part.hbond>
-4.9923

> <Gold.PLP.part.metal>
0.0000

> <Gold.PLP.part.buried>
-2.7424

> <Gold.PLP.part.nonpolar>
-27.5447

> <Gold.PLP.part.repulsive>
4.6241

> <Gold.PLP.ligand.clash>
0.0000

> <Gold.PLP.ligand.torsion>
0.3631

> <Gold.PLP.Chemscore.Hbond>
3.9920

> <Gold.PLP.Chemscore.CHOScore>
0.0000

> <Gold.PLP.Chemscore.Metal>
0.0000

> <Gold.Chemscore.Hbonds>
donor molecule, donor type, donor heavy atom, donor atom, acceptor molecule, acceptor atom, score
      L1  H     9    29       P1  7948  1.00
      L1  H    12    30       P1  7948  1.00
      L1  H    16    35       P1  8028  2.00

> <Gold.PLP.Chemscore.Internal.Correction>
0.0155

> <Gold.Rescore>
     Score         DG    S(hbond)    S(metal)    S(lipo)     H(rot)  DE(clash)    DE(int)     intcor
     11.64     -18.04       2.90        0.00      57.47       1.50       1.62       4.78       ----

> <Gold.Chemscore.Fitness>
11.6434

> <Gold.Chemscore.DG>
-18.0393

> <Gold.Chemscore.ZeroCoef>
-5.4800

> <Gold.Chemscore.Hbond>
2.8996

> <Gold.Chemscore.Metal>
0.0000

> <Gold.Chemscore.Lipo>
57.4731

> <Gold.Chemscore.Internal_Hbond>
0.0000

> <Gold.Chemscore.DEClash>
1.6150

> <Gold.Chemscore.DEInternal>
4.7808

> <Gold.Chemscore.Rot>
1.5038

> <Gold.Chemscore.Internal.Correction>
   9.000000E+99

> <Gold.Chemscore.Hbonds>
donor molecule, donor type, donor heavy atom, donor atom, acceptor molecule, acceptor atom, score
      L1  H     9    29       P1  7948  0.98
      L1  H    12    30       P1  7948  0.93
      L1  H    16    35       P1  8028  0.98

> <Gold.Chemscore.Hbond.Weighted>
-9.6845

> <Gold.Chemscore.Metal.Weighted>
-0.0000

> <Gold.Chemscore.Lipo.Weighted>
-6.7243

> <Gold.Chemscore.Internal_Hbond.Weighted>
0.0000

> <Gold.Chemscore.DEClash.Weighted>
1.6150

> <Gold.Chemscore.DEInternal.Weighted>
4.7808

> <Gold.Chemscore.Rot.Weighted>
3.8496

> <Gold.Chemscore.Internal.Correction.Weighted>
   9.000000E+99

> <Gold.Protein.RotatedTorsions>
[ 6907 6896 6895 6894 ] final -163.01 input  -60.11 | X-H torsion
[ 7974 7965 7964 7962 ] final  -66.36 input  175.53 | X-H torsion
[ 8008 7997 7996 7995 ] final  101.45 input   59.86 | X-H torsion
[ 10167 10162 10161 10158 ] final -174.72 input  -65.29 | X-H torsion
[ 10718 10713 10712 10709 ] final -178.18 input   66.30 | X-H torsion
[ 10763 10752 10751 10750 ] final -162.00 input  -60.55 | X-H torsion
[ 11005 11000 10999 10996 ] final -127.02 input  -57.11 | X-H torsion

> <Gold.Protein.ActiveResidues>
 VAL166  LYS551  ARG553  GLY616  TRP617  ASP618  TYR619  PRO620  LYS621  CYS622 
 ASP623  PHE694  ASN695  SER759  ASP760  ASP761  ALA762  ILE779  LEU786  VAL792 
 PHE793  MET794  SER795  GLU796  ALA797  LYS798  CYS799  TRP800  GLU811  SER814 

> <Gold.Protein.RotatedAtoms>
  151.3894  133.3794  159.2718 H   0  0  0  0  0  0  0  0  0  0  0  0  # atno 6907 bound_to 6896
  150.9517  134.8917  159.7686 H   0  0  0  0  0  0  0  0  0  0  0  0  # atno 6908 bound_to 6896
  152.5114  134.3849  159.9416 H   0  0  0  0  0  0  0  0  0  0  0  0  # atno 6909 bound_to 6896
  145.7427  140.8946  143.0521 H   0  0  0  0  0  0  0  0  0  0  0  0  # atno 7974 bound_to 7965
  156.1300  140.3197  155.8335 H   0  0  0  0  0  0  0  0  0  0  0  0  # atno 8008 bound_to 7997
  155.4349  140.0521  157.3032 H   0  0  0  0  0  0  0  0  0  0  0  0  # atno 8009 bound_to 7997
  154.4892  140.2085  155.9599 H   0  0  0  0  0  0  0  0  0  0  0  0  # atno 8010 bound_to 7997
  139.5619  144.1850  152.1252 H   0  0  0  0  0  0  0  0  0  0  0  0  # atno 10167 bound_to 10162
  156.8405  130.9684  151.3100 H   0  0  0  0  0  0  0  0  0  0  0  0  # atno 10718 bound_to 10713
  154.7254  135.3034  154.8980 H   0  0  0  0  0  0  0  0  0  0  0  0  # atno 10763 bound_to 10752
  153.9839  135.6727  153.4755 H   0  0  0  0  0  0  0  0  0  0  0  0  # atno 10764 bound_to 10752
  153.0870  135.4979  154.8535 H   0  0  0  0  0  0  0  0  0  0  0  0  # atno 10765 bound_to 10752
  140.9634  134.0905  157.3945 H   0  0  0  0  0  0  0  0  0  0  0  0  # atno 11005 bound_to 11000
  144.6867  139.9482  143.7477 LP  0  0  0  0  0  0  0  0  0  0  0  0  # atno 17320 bound_to 7965
  146.0433  139.3441  143.0684 LP  0  0  0  0  0  0  0  0  0  0  0  0  # atno 17321 bound_to 7965
  140.1365  144.5241  150.6770 LP  0  0  0  0  0  0  0  0  0  0  0  0  # atno 17342 bound_to 10162
  140.6899  143.2370  151.5159 LP  0  0  0  0  0  0  0  0  0  0  0  0  # atno 17343 bound_to 10162
  157.6358  130.8766  149.9357 LP  0  0  0  0  0  0  0  0  0  0  0  0  # atno 17370 bound_to 10713
  156.0883  130.3666  150.0443 LP  0  0  0  0  0  0  0  0  0  0  0  0  # atno 17371 bound_to 10713
  139.8886  135.0099  156.6629 LP  0  0  0  0  0  0  0  0  0  0  0  0  # atno 17394 bound_to 11000
  140.7435  133.8958  155.8295 LP  0  0  0  0  0  0  0  0  0  0  0  0  # atno 17395 bound_to 11000

$$$$
