AV-unprocessed.smi:221|AV-procd|sdf|1691|dock2
  -GOLD-   2262020133D 1   1.00000     0.00000
 Structure written by MMmdl.
 50 53  0  0  0  0  0  0  0  0  1 V2000
  142.2059  134.0925  154.3073 N   0  0  0  0  0  0  0  0  0  0  0  0
  142.4591  134.8392  153.2280 C   0  0  0  0  0  0  0  0  0  0  0  0
  143.2725  134.4876  152.3761 O   0  0  0  0  0  0  0  0  0  0  0  0
  141.7020  136.1751  153.0815 C   0  0  1  0  0  0  0  0  0  0  0  0
  140.5382  136.3979  154.0589 C   0  0  0  0  0  0  0  0  0  0  0  0
  140.2864  137.9095  153.9782 C   0  0  1  0  0  0  0  0  0  0  0  0
  140.2410  138.4362  155.2024 F   0  0  0  0  0  0  0  0  0  0  0  0
  141.4728  138.4771  153.1800 C   0  0  0  0  0  0  0  0  0  0  0  0
  142.4794  137.4215  153.1299 N   0  0  0  0  0  0  0  0  0  0  0  0
  143.4534  137.6229  154.0582 C   0  0  0  0  0  0  0  0  0  0  0  0
  143.1815  137.5866  155.3903 N   0  0  0  0  0  0  0  0  0  0  0  0
  144.1516  137.8056  156.2823 C   0  0  0  0  0  0  0  0  0  0  0  0
  145.4385  138.0831  156.0640 N   0  0  0  0  0  0  0  0  0  0  0  0
  145.7132  138.1341  154.7293 C   0  0  0  0  0  0  0  0  0  0  0  0
  144.7874  137.9200  153.6704 C   0  0  0  0  0  0  0  0  0  0  0  0
  145.4256  138.0542  152.4436 N   0  0  0  0  0  0  0  0  0  0  0  0
  146.6607  138.3353  152.7593 C   0  0  0  0  0  0  0  0  0  0  0  0
  146.9197  138.4083  154.1092 N   0  0  0  0  0  0  0  0  0  0  0  0
  148.1988  138.7075  154.7291 C   0  0  0  0  0  0  0  0  0  0  0  0
  148.8381  140.0163  154.2024 C   0  0  1  0  0  0  0  0  0  0  0  0
  148.2400  141.2814  154.8657 C   0  0  0  0  0  0  0  0  0  0  0  0
  148.5445  142.4457  154.1253 O   0  0  0  0  0  0  0  0  0  0  0  0
  150.3845  139.9734  154.3003 C   0  0  2  0  0  0  0  0  0  0  0  0
  151.0067  138.6139  154.0342 C   0  0  0  0  0  0  0  0  0  0  0  0
  152.3936  138.7696  154.6472 C   0  0  0  0  0  0  0  0  0  0  0  0
  152.2250  139.6444  155.7567 O   0  0  0  0  0  0  0  0  0  0  0  0
  150.9452  140.2670  155.6964 C   0  0  0  0  0  0  0  0  0  0  0  0
  141.2788  136.1386  152.0757 H   0  0  0  0  0  0  0  0  0  0  0  0
  139.3382  138.1419  153.4924 H   0  0  0  0  0  0  0  0  0  0  0  0
  142.6817  133.2104  154.4291 H   0  0  0  0  0  0  0  0  0  0  0  0
  141.5369  134.4101  154.9936 H   0  0  0  0  0  0  0  0  0  0  0  0
  139.6552  135.8201  153.7835 H   0  0  0  0  0  0  0  0  0  0  0  0
  140.8168  136.1091  155.0736 H   0  0  0  0  0  0  0  0  0  0  0  0
  141.1664  138.6976  152.1566 H   0  0  0  0  0  0  0  0  0  0  0  0
  141.8368  139.4143  153.6067 H   0  0  0  0  0  0  0  0  0  0  0  0
  143.8532  137.7535  157.3192 H   0  0  0  0  0  0  0  0  0  0  0  0
  147.4224  138.5030  152.0116 H   0  0  0  0  0  0  0  0  0  0  0  0
  148.0609  138.7615  155.8097 H   0  0  0  0  0  0  0  0  0  0  0  0
  148.8570  137.8576  154.5472 H   0  0  0  0  0  0  0  0  0  0  0  0
  148.5876  140.0823  153.1425 H   0  0  0  0  0  0  0  0  0  0  0  0
  147.1573  141.1979  154.9556 H   0  0  0  0  0  0  0  0  0  0  0  0
  148.6135  141.4064  155.8821 H   0  0  0  0  0  0  0  0  0  0  0  0
  148.2584  143.1996  154.6179 H   0  0  0  0  0  0  0  0  0  0  0  0
  150.8152  140.6914  153.6004 H   0  0  0  0  0  0  0  0  0  0  0  0
  150.4533  137.8311  154.5549 H   0  0  0  0  0  0  0  0  0  0  0  0
  151.0476  138.3580  152.9750 H   0  0  0  0  0  0  0  0  0  0  0  0
  152.8256  137.8160  154.9516 H   0  0  0  0  0  0  0  0  0  0  0  0
  153.0737  139.2382  153.9349 H   0  0  0  0  0  0  0  0  0  0  0  0
  151.0223  141.3357  155.8975 H   0  0  0  0  0  0  0  0  0  0  0  0
  150.3150  139.8239  156.4688 H   0  0  0  0  0  0  0  0  0  0  0  0
  1  2  1  0  0  0  0
  1 30  1  0  0  0  0
  1 31  1  0  0  0  0
  2  3  2  0  0  0  0
  2  4  1  0  0  0  0
  4 28  1  0  0  0  0
  4  9  1  0  0  0  0
  4  5  1  0  0  0  0
  5  6  1  0  0  0  0
  5 32  1  0  0  0  0
  5 33  1  0  0  0  0
  6 29  1  0  0  0  0
  6  7  1  0  0  0  0
  6  8  1  0  0  0  0
  8  9  1  0  0  0  0
  8 34  1  0  0  0  0
  8 35  1  0  0  0  0
  9 10  1  0  0  0  0
 10 15  1  0  0  0  0
 10 11  2  0  0  0  0
 11 12  1  0  0  0  0
 12 13  2  0  0  0  0
 12 36  1  0  0  0  0
 13 14  1  0  0  0  0
 14 18  1  0  0  0  0
 14 15  2  0  0  0  0
 15 16  1  0  0  0  0
 16 17  2  0  0  0  0
 17 18  1  0  0  0  0
 17 37  1  0  0  0  0
 18 19  1  0  0  0  0
 19 20  1  0  0  0  0
 19 38  1  0  0  0  0
 19 39  1  0  0  0  0
 20 21  1  0  0  0  0
 20 23  1  0  0  0  0
 20 40  1  0  0  0  0
 21 22  1  0  0  0  0
 21 41  1  0  0  0  0
 21 42  1  0  0  0  0
 22 43  1  0  0  0  0
 23 27  1  0  0  0  0
 23 24  1  0  0  0  0
 23 44  1  0  0  0  0
 24 25  1  0  0  0  0
 24 45  1  0  0  0  0
 24 46  1  0  0  0  0
 25 26  1  0  0  0  0
 25 47  1  0  0  0  0
 25 48  1  0  0  0  0
 26 27  1  0  0  0  0
 27 49  1  0  0  0  0
 27 50  1  0  0  0  0
M  END
> <s_m_source_file>
AV-unprocessed.smi

> <i_m_source_file_index>
221

> <i_lp_mmshare_version>
43012

> <i_f3d_flags>
0

> <s_epik_input>
W05IMl1DKD1PKVtDQEBIXTFbQ0gyXVtDQEBIXShGKVtDSDJdTjFjKG5bY0hdbjIpYyhjMjMpbltjSF1uM1tDSDJdW0NASF0oW0NIMl1bT0hdKVtDQEBIXTRbQ0gyXVtDSDJdT1tDSDJdNA==

> <s_epik_cmdline>
J2VwaWtfcHl0aG9uJywgJy1waCcsICc3LjAnLCAnLXRuJywgJzgnLCAnLW1hJywgJzIwMCcsICctbWV0YWxfYmluZGluZycsICctaW1hZScsICc8aW5maWxlLm1hZT4nLCAnLW9tYWUnLCAnPG91dGZpbGUubWFlPic=

> <r_lp_tautomer_probability>
1

> <r_epik_Ionization_Penalty>
0.000818822

> <r_epik_Ionization_Penalty_Charging>
0

> <r_epik_Ionization_Penalty_Neutral>
0.000818822

> <r_epik_State_Penalty>
0.000440551

> <r_epik_Charging_Adjusted_Penalty>
0.000440551

> <i_epik_Tot_Q>
0

> <i_epik_Tot_abs_Q>
0

> <r_epik_Metal_State_Penalty>
-0

> <b_epik_Metal_Only>
0

> <s_lp_Force_Field>
OPLS_2005

> <r_lp_Energy>
55.0143

> <b_lp_Chiralities_Consistent>
1

> <s_lp_Variant>
AV-unprocessed.smi:221-6

> <Gold.Version>
5.8.1

> <Gold.Id.Protein>
6NUR|6NUR_protein|mol2

> <Gold.PLP.Fitness>
46.7372

> <Gold.PLP.PLP>
-32.4287

> <Gold.PLP.part.hbond>
-4.7759

> <Gold.PLP.part.metal>
0.0000

> <Gold.PLP.part.buried>
1.5082

> <Gold.PLP.part.nonpolar>
-29.3942

> <Gold.PLP.part.repulsive>
0.7270

> <Gold.PLP.ligand.clash>
0.0000

> <Gold.PLP.ligand.torsion>
0.8960

> <Gold.PLP.Chemscore.Hbond>
4.1200

> <Gold.PLP.Chemscore.CHOScore>
1.1726

> <Gold.PLP.Chemscore.Metal>
0.0000

> <Gold.Chemscore.Hbonds>
donor molecule, donor type, donor heavy atom, donor atom, acceptor molecule, acceptor atom, score
      L1  H     1    30       P1 10957  0.87
      L1  H     1    31       P1 11000  0.93
      L1  H    22    43       P1  8028  0.90
      P1  H  7997  8010       L1    26  0.50
      P1  H  8011  8017       L1    22  0.11
      L1  C    17    37       P1  7948  0.31
      L1  C    17    37       P1  7957  0.41

> <Gold.PLP.Chemscore.Internal.Correction>
0.2226

> <Gold.Rescore>
     Score         DG    S(hbond)    S(metal)    S(lipo)     H(rot)  DE(clash)    DE(int)     intcor
      8.26      -9.82       1.85        0.00      65.68       3.72       0.25       1.30       ----

> <Gold.Chemscore.Fitness>
8.2638

> <Gold.Chemscore.DG>
-9.8210

> <Gold.Chemscore.ZeroCoef>
-5.4800

> <Gold.Chemscore.Hbond>
1.8502

> <Gold.Chemscore.Metal>
0.0000

> <Gold.Chemscore.Lipo>
65.6844

> <Gold.Chemscore.Internal_Hbond>
0.0000

> <Gold.Chemscore.DEClash>
0.2533

> <Gold.Chemscore.DEInternal>
1.3039

> <Gold.Chemscore.Rot>
3.7202

> <Gold.Chemscore.Internal.Correction>
   9.000000E+99

> <Gold.Chemscore.Hbonds>
donor molecule, donor type, donor heavy atom, donor atom, acceptor molecule, acceptor atom, score
      L1  H     1    30       P1 10957  0.81
      L1  H     1    31       P1 11000  0.47
      L1  H    22    43       P1  8028  0.87
      P1  H  7997  8010       L1    26  0.16
      P1  H  8011  8017       L1    22  0.12

> <Gold.Chemscore.Hbond.Weighted>
-6.1797

> <Gold.Chemscore.Metal.Weighted>
-0.0000

> <Gold.Chemscore.Lipo.Weighted>
-7.6851

> <Gold.Chemscore.Internal_Hbond.Weighted>
0.0000

> <Gold.Chemscore.DEClash.Weighted>
0.2533

> <Gold.Chemscore.DEInternal.Weighted>
1.3039

> <Gold.Chemscore.Rot.Weighted>
9.5237

> <Gold.Chemscore.Internal.Correction.Weighted>
   9.000000E+99

> <Gold.Protein.RotatedTorsions>
[ 6907 6896 6895 6894 ] final  -24.52 input  -60.11 | X-H torsion
[ 7974 7965 7964 7962 ] final  157.23 input  175.53 | X-H torsion
[ 8008 7997 7996 7995 ] final   82.65 input   59.86 | X-H torsion
[ 10167 10162 10161 10158 ] final  152.42 input  -65.29 | X-H torsion
[ 10718 10713 10712 10709 ] final  114.79 input   66.30 | X-H torsion
[ 10763 10752 10751 10750 ] final -146.47 input  -60.55 | X-H torsion
[ 11005 11000 10999 10996 ] final -136.41 input  -57.11 | X-H torsion

> <Gold.Protein.ActiveResidues>
 VAL166  LYS551  ARG553  GLY616  TRP617  ASP618  TYR619  PRO620  LYS621  CYS622 
 ASP623  PHE694  ASN695  SER759  ASP760  ASP761  ALA762  ILE779  LEU786  VAL792 
 PHE793  MET794  SER795  GLU796  ALA797  LYS798  CYS799  TRP800  GLU811  SER814 

> <Gold.Protein.RotatedAtoms>
  151.1884  135.0392  159.8821 H   0  0  0  0  0  0  0  0  0  0  0  0  # atno 6907 bound_to 6896
  152.5441  134.0984  159.8317 H   0  0  0  0  0  0  0  0  0  0  0  0  # atno 6908 bound_to 6896
  151.1109  133.5126  159.2638 H   0  0  0  0  0  0  0  0  0  0  0  0  # atno 6909 bound_to 6896
  144.7916  139.7312  143.6219 H   0  0  0  0  0  0  0  0  0  0  0  0  # atno 7974 bound_to 7965
  155.9135  140.3426  155.6117 H   0  0  0  0  0  0  0  0  0  0  0  0  # atno 8008 bound_to 7997
  155.7359  140.0801  157.2286 H   0  0  0  0  0  0  0  0  0  0  0  0  # atno 8009 bound_to 7997
  154.4059  140.1579  156.2549 H   0  0  0  0  0  0  0  0  0  0  0  0  # atno 8010 bound_to 7997
  139.4833  144.5359  151.7645 H   0  0  0  0  0  0  0  0  0  0  0  0  # atno 10167 bound_to 10162
  157.6260  131.1003  150.7237 H   0  0  0  0  0  0  0  0  0  0  0  0  # atno 10718 bound_to 10713
  154.8334  135.3386  154.6666 H   0  0  0  0  0  0  0  0  0  0  0  0  # atno 10763 bound_to 10752
  153.7283  135.6953  153.5000 H   0  0  0  0  0  0  0  0  0  0  0  0  # atno 10764 bound_to 10752
  153.2330  135.4410  155.0568 H   0  0  0  0  0  0  0  0  0  0  0  0  # atno 10765 bound_to 10752
  140.8808  134.1934  157.4592 H   0  0  0  0  0  0  0  0  0  0  0  0  # atno 11005 bound_to 11000
  146.2169  139.5566  142.9644 LP  0  0  0  0  0  0  0  0  0  0  0  0  # atno 17320 bound_to 7965
  145.5781  141.0386  143.2137 LP  0  0  0  0  0  0  0  0  0  0  0  0  # atno 17321 bound_to 7965
  140.4892  144.1336  150.5947 LP  0  0  0  0  0  0  0  0  0  0  0  0  # atno 17342 bound_to 10162
  140.4190  143.2620  151.9738 LP  0  0  0  0  0  0  0  0  0  0  0  0  # atno 17343 bound_to 10162
  156.7585  130.4791  149.5442 LP  0  0  0  0  0  0  0  0  0  0  0  0  # atno 17370 bound_to 10713
  156.1433  130.6259  151.0497 LP  0  0  0  0  0  0  0  0  0  0  0  0  # atno 17371 bound_to 10713
  139.8719  134.9816  156.5123 LP  0  0  0  0  0  0  0  0  0  0  0  0  # atno 17394 bound_to 11000
  140.8464  133.8166  155.9125 LP  0  0  0  0  0  0  0  0  0  0  0  0  # atno 17395 bound_to 11000

$$$$
