AV-unprocessed.smi:83|AV-procd|sdf|805|dock5
  -GOLD-   2262017193D 1   1.00000     0.00000
 Structure written by MMmdl.
 56 59  0  0  0  0  0  0  0  0  1 V2000
  150.8937  144.8440  159.1826 C   0  0  0  0  0  0  0  0  0  0  0  0
  151.8917  144.1934  160.1418 C   0  0  0  0  0  0  0  0  0  0  0  0
  152.2295  144.8031  161.1563 O   0  0  0  0  0  0  0  0  0  0  0  0
  152.3688  142.9696  159.8378 N   0  0  0  0  0  0  0  0  0  0  0  0
  152.0061  142.1788  158.6627 C   0  0  0  0  0  0  0  0  0  0  0  0
  152.6482  140.8071  158.8793 C   0  0  0  0  0  0  0  0  0  0  0  0
  153.8403  141.0956  159.7852 C   0  0  2  0  0  0  0  0  0  0  0  0
  154.3483  139.8656  160.5625 C   0  0  0  0  0  0  0  0  0  0  0  0
  155.4831  139.2132  159.9056 N   0  0  0  0  0  0  0  0  0  0  0  0
  156.7635  139.2002  160.6012 C   0  0  0  0  0  0  0  0  0  0  0  0
  155.2473  138.3146  158.9093 C   0  0  0  0  0  0  0  0  0  0  0  0
  154.0416  138.3608  158.2824 N   0  0  0  0  0  0  0  0  0  0  0  0
  153.7456  137.5030  157.3029 C   0  0  0  0  0  0  0  0  0  0  0  0
  154.4974  136.5265  156.7958 N   0  0  0  0  0  0  0  0  0  0  0  0
  155.7093  136.4663  157.4167 C   0  0  0  0  0  0  0  0  0  0  0  0
  156.1664  137.3125  158.4693 C   0  0  0  0  0  0  0  0  0  0  0  0
  157.4514  136.9287  158.8426 N   0  0  0  0  0  0  0  0  0  0  0  0
  157.7372  135.9287  158.0554 C   0  0  0  0  0  0  0  0  0  0  0  0
  156.7460  135.5847  157.1679 N   0  0  0  0  0  0  0  0  0  0  0  0
  156.7971  134.5176  156.1840 C   0  0  0  0  0  0  0  0  0  0  0  0
  157.4381  134.9714  154.8580 C   0  0  2  0  0  0  0  0  0  0  0  0
  158.8409  134.8022  154.9339 O   0  0  0  0  0  0  0  0  0  0  0  0
  157.1307  136.4457  154.5372 C   0  0  1  0  0  0  0  0  0  0  0  0
  157.6999  136.9377  153.2038 C   0  0  0  0  0  0  0  0  0  0  0  0
  156.7560  138.0582  152.7929 C   0  0  0  0  0  0  0  0  0  0  0  0
  155.5644  137.9095  153.7414 C   0  0  0  0  0  0  0  0  0  0  0  0
  155.7372  136.6370  154.3473 O   0  0  0  0  0  0  0  0  0  0  0  0
  153.3380  142.2504  160.6592 C   0  0  0  0  0  0  0  0  0  0  0  0
  151.3083  144.9090  158.1764 H   0  0  0  0  0  0  0  0  0  0  0  0
  150.6482  145.8547  159.5105 H   0  0  0  0  0  0  0  0  0  0  0  0
  149.9682  144.2690  159.1439 H   0  0  0  0  0  0  0  0  0  0  0  0
  150.9259  142.0916  158.5390 H   0  0  0  0  0  0  0  0  0  0  0  0
  152.4159  142.6550  157.7709 H   0  0  0  0  0  0  0  0  0  0  0  0
  151.9419  140.1513  159.3907 H   0  0  0  0  0  0  0  0  0  0  0  0
  152.9348  140.3245  157.9445 H   0  0  0  0  0  0  0  0  0  0  0  0
  154.6442  141.4752  159.1525 H   0  0  0  0  0  0  0  0  0  0  0  0
  154.5780  140.1382  161.5925 H   0  0  0  0  0  0  0  0  0  0  0  0
  153.5419  139.1352  160.6345 H   0  0  0  0  0  0  0  0  0  0  0  0
  157.5912  139.1343  159.8945 H   0  0  0  0  0  0  0  0  0  0  0  0
  156.8197  138.3581  161.2915 H   0  0  0  0  0  0  0  0  0  0  0  0
  156.8951  140.1159  161.1781 H   0  0  0  0  0  0  0  0  0  0  0  0
  152.7648  137.6142  156.8647 H   0  0  0  0  0  0  0  0  0  0  0  0
  158.6843  135.4110  158.1005 H   0  0  0  0  0  0  0  0  0  0  0  0
  157.3622  133.6900  156.6138 H   0  0  0  0  0  0  0  0  0  0  0  0
  155.7858  134.1464  156.0138 H   0  0  0  0  0  0  0  0  0  0  0  0
  157.0686  134.3420  154.0471 H   0  0  0  0  0  0  0  0  0  0  0  0
  159.0440  133.8980  154.7488 H   0  0  0  0  0  0  0  0  0  0  0  0
  157.4674  137.0940  155.3490 H   0  0  0  0  0  0  0  0  0  0  0  0
  158.7358  137.2673  153.2880 H   0  0  0  0  0  0  0  0  0  0  0  0
  157.6626  136.1412  152.4591 H   0  0  0  0  0  0  0  0  0  0  0  0
  157.2194  139.0393  152.9032 H   0  0  0  0  0  0  0  0  0  0  0  0
  156.4544  137.9442  151.7512 H   0  0  0  0  0  0  0  0  0  0  0  0
  155.5899  138.6804  154.5128 H   0  0  0  0  0  0  0  0  0  0  0  0
  154.6058  137.9746  153.2262 H   0  0  0  0  0  0  0  0  0  0  0  0
  154.1618  142.8908  160.9792 H   0  0  0  0  0  0  0  0  0  0  0  0
  152.8309  141.8785  161.5508 H   0  0  0  0  0  0  0  0  0  0  0  0
  1  2  1  0  0  0  0
  1 29  1  0  0  0  0
  1 30  1  0  0  0  0
  1 31  1  0  0  0  0
  2  3  2  0  0  0  0
  2  4  1  0  0  0  0
  4 28  1  0  0  0  0
  4  5  1  0  0  0  0
  5  6  1  0  0  0  0
  5 32  1  0  0  0  0
  5 33  1  0  0  0  0
  6  7  1  0  0  0  0
  6 34  1  0  0  0  0
  6 35  1  0  0  0  0
  7  8  1  0  0  0  0
  7 28  1  0  0  0  0
  7 36  1  0  0  0  0
  8  9  1  0  0  0  0
  8 37  1  0  0  0  0
  8 38  1  0  0  0  0
  9 10  1  0  0  0  0
  9 11  1  0  0  0  0
 10 39  1  0  0  0  0
 10 40  1  0  0  0  0
 10 41  1  0  0  0  0
 11 16  1  0  0  0  0
 11 12  2  0  0  0  0
 12 13  1  0  0  0  0
 13 14  2  0  0  0  0
 13 42  1  0  0  0  0
 14 15  1  0  0  0  0
 15 19  1  0  0  0  0
 15 16  2  0  0  0  0
 16 17  1  0  0  0  0
 17 18  2  0  0  0  0
 18 19  1  0  0  0  0
 18 43  1  0  0  0  0
 19 20  1  0  0  0  0
 20 21  1  0  0  0  0
 20 44  1  0  0  0  0
 20 45  1  0  0  0  0
 21 22  1  0  0  0  0
 21 23  1  0  0  0  0
 21 46  1  0  0  0  0
 22 47  1  0  0  0  0
 23 27  1  0  0  0  0
 23 24  1  0  0  0  0
 23 48  1  0  0  0  0
 24 25  1  0  0  0  0
 24 49  1  0  0  0  0
 24 50  1  0  0  0  0
 25 26  1  0  0  0  0
 25 51  1  0  0  0  0
 25 52  1  0  0  0  0
 26 27  1  0  0  0  0
 26 53  1  0  0  0  0
 26 54  1  0  0  0  0
 28 55  1  0  0  0  0
 28 56  1  0  0  0  0
M  END
> <s_m_source_file>
AV-unprocessed.smi

> <i_m_source_file_index>
83

> <i_lp_mmshare_version>
43012

> <i_f3d_flags>
0

> <s_epik_input>
W0NIM11DKD1PKU4xW0NIMl1bQ0gyXVtDQEhdKFtDSDJdMSlbQ0gyXU4oW0NIM10pYyhuW2NIXW4yKWMoYzIzKW5bY0hdbjNbQ0gyXVtDQEhdKFtPSF0pW0NAQEhdNFtDSDJdW0NIMl1bQ0gyXU80

> <s_epik_cmdline>
J2VwaWtfcHl0aG9uJywgJy1waCcsICc3LjAnLCAnLXRuJywgJzgnLCAnLW1hJywgJzIwMCcsICctbWV0YWxfYmluZGluZycsICctaW1hZScsICc8aW5maWxlLm1hZT4nLCAnLW9tYWUnLCAnPG91dGZpbGUubWFlPic=

> <r_lp_tautomer_probability>
1

> <r_epik_Ionization_Penalty>
0.00109752

> <r_epik_Ionization_Penalty_Charging>
0

> <r_epik_Ionization_Penalty_Neutral>
0.00109752

> <r_epik_State_Penalty>
0.000634803

> <r_epik_Charging_Adjusted_Penalty>
0.000634803

> <i_epik_Tot_Q>
0

> <i_epik_Tot_abs_Q>
0

> <r_epik_Metal_State_Penalty>
-0

> <b_epik_Metal_Only>
0

> <s_lp_Force_Field>
OPLS_2005

> <r_lp_Energy>
52.1459

> <b_lp_Chiralities_Consistent>
1

> <s_lp_Variant>
AV-unprocessed.smi:83-6

> <Gold.Version>
5.8.1

> <Gold.Id.Protein>
6NUR|6NUR_protein|mol2

> <Gold.PLP.Fitness>
48.2459

> <Gold.PLP.PLP>
-44.2387

> <Gold.PLP.part.hbond>
-3.0000

> <Gold.PLP.part.metal>
0.0000

> <Gold.PLP.part.buried>
-3.9202

> <Gold.PLP.part.nonpolar>
-37.2585

> <Gold.PLP.part.repulsive>
0.2853

> <Gold.PLP.ligand.clash>
0.0000

> <Gold.PLP.ligand.torsion>
1.4484

> <Gold.PLP.Chemscore.Hbond>
2.1530

> <Gold.PLP.Chemscore.CHOScore>
0.0000

> <Gold.PLP.Chemscore.Metal>
0.0000

> <Gold.Chemscore.Hbonds>
donor molecule, donor type, donor heavy atom, donor atom, acceptor molecule, acceptor atom, score
      P1  H  7997  8008       L1    12  0.40
      P1  H 10752 10763       L1    14  0.91
      P1  H 10752 10764       L1    27  0.57

> <Gold.PLP.Chemscore.Internal.Correction>
0.4449

> <Gold.Rescore>
     Score         DG    S(hbond)    S(metal)    S(lipo)     H(rot)  DE(clash)    DE(int)     intcor
     12.97     -17.49       1.64        0.00     112.93       2.62       0.66       3.86       ----

> <Gold.Chemscore.Fitness>
12.9663

> <Gold.Chemscore.DG>
-17.4855

> <Gold.Chemscore.ZeroCoef>
-5.4800

> <Gold.Chemscore.Hbond>
1.6430

> <Gold.Chemscore.Metal>
0.0000

> <Gold.Chemscore.Lipo>
112.9305

> <Gold.Chemscore.Internal_Hbond>
0.0000

> <Gold.Chemscore.DEClash>
0.6567

> <Gold.Chemscore.DEInternal>
3.8625

> <Gold.Chemscore.Rot>
2.6152

> <Gold.Chemscore.Internal.Correction>
   9.000000E+99

> <Gold.Chemscore.Hbonds>
donor molecule, donor type, donor heavy atom, donor atom, acceptor molecule, acceptor atom, score
      P1  H  7997  8008       L1    12  0.01
      P1  H 10752 10763       L1    14  0.89
      P1  H 10752 10764       L1    27  0.50

> <Gold.Chemscore.Hbond.Weighted>
-5.4876

> <Gold.Chemscore.Metal.Weighted>
-0.0000

> <Gold.Chemscore.Lipo.Weighted>
-13.2129

> <Gold.Chemscore.Internal_Hbond.Weighted>
0.0000

> <Gold.Chemscore.DEClash.Weighted>
0.6567

> <Gold.Chemscore.DEInternal.Weighted>
3.8625

> <Gold.Chemscore.Rot.Weighted>
6.6949

> <Gold.Chemscore.Internal.Correction.Weighted>
   9.000000E+99

> <Gold.Protein.RotatedTorsions>
[ 6907 6896 6895 6894 ] final  110.21 input  -60.11 | X-H torsion
[ 7974 7965 7964 7962 ] final   22.71 input  175.53 | X-H torsion
[ 8008 7997 7996 7995 ] final  -87.00 input   59.86 | X-H torsion
[ 10167 10162 10161 10158 ] final   10.60 input  -65.29 | X-H torsion
[ 10718 10713 10712 10709 ] final  -83.75 input   66.30 | X-H torsion
[ 10763 10752 10751 10750 ] final  143.35 input  -60.55 | X-H torsion
[ 11005 11000 10999 10996 ] final   20.85 input  -57.11 | X-H torsion

> <Gold.Protein.ActiveResidues>
 VAL166  LYS551  ARG553  GLY616  TRP617  ASP618  TYR619  PRO620  LYS621  CYS622 
 ASP623  PHE694  ASN695  SER759  ASP760  ASP761  ALA762  ILE779  LEU786  VAL792 
 PHE793  MET794  SER795  GLU796  ALA797  LYS798  CYS799  TRP800  GLU811  SER814 

> <Gold.Protein.RotatedAtoms>
  152.5031  133.8833  159.7357 H   0  0  0  0  0  0  0  0  0  0  0  0  # atno 6907 bound_to 6896
  150.9290  133.6780  159.2821 H   0  0  0  0  0  0  0  0  0  0  0  0  # atno 6908 bound_to 6896
  151.4131  135.0992  159.9644 H   0  0  0  0  0  0  0  0  0  0  0  0  # atno 6909 bound_to 6896
  146.2017  139.7847  142.8757 H   0  0  0  0  0  0  0  0  0  0  0  0  # atno 7974 bound_to 7965
  154.6583  140.0571  157.0033 H   0  0  0  0  0  0  0  0  0  0  0  0  # atno 8008 bound_to 7997
  155.1268  140.3252  155.4465 H   0  0  0  0  0  0  0  0  0  0  0  0  # atno 8009 bound_to 7997
  156.2607  140.1988  156.6388 H   0  0  0  0  0  0  0  0  0  0  0  0  # atno 8010 bound_to 7997
  140.6184  143.8258  150.7146 H   0  0  0  0  0  0  0  0  0  0  0  0  # atno 10167 bound_to 10162
  156.0014  130.4675  150.4305 H   0  0  0  0  0  0  0  0  0  0  0  0  # atno 10718 bound_to 10713
  153.9709  135.2950  155.3427 H   0  0  0  0  0  0  0  0  0  0  0  0  # atno 10763 bound_to 10752
  154.7323  135.5062  153.8987 H   0  0  0  0  0  0  0  0  0  0  0  0  # atno 10764 bound_to 10752
  153.0900  135.6705  153.9984 H   0  0  0  0  0  0  0  0  0  0  0  0  # atno 10765 bound_to 10752
  140.3981  134.1747  155.7663 H   0  0  0  0  0  0  0  0  0  0  0  0  # atno 11005 bound_to 11000
  145.3462  141.0298  143.3364 LP  0  0  0  0  0  0  0  0  0  0  0  0  # atno 17320 bound_to 7965
  144.8698  139.5055  143.6773 LP  0  0  0  0  0  0  0  0  0  0  0  0  # atno 17321 bound_to 7965
  140.1842  143.4089  152.1911 LP  0  0  0  0  0  0  0  0  0  0  0  0  # atno 17342 bound_to 10162
  139.5418  144.7263  151.4710 LP  0  0  0  0  0  0  0  0  0  0  0  0  # atno 17343 bound_to 10162
  157.2354  131.0513  151.2468 LP  0  0  0  0  0  0  0  0  0  0  0  0  # atno 17370 bound_to 10713
  157.3671  130.7161  149.6540 LP  0  0  0  0  0  0  0  0  0  0  0  0  # atno 17371 bound_to 10713
  141.1867  133.8297  157.1060 LP  0  0  0  0  0  0  0  0  0  0  0  0  # atno 17394 bound_to 11000
  140.0357  134.9879  157.0865 LP  0  0  0  0  0  0  0  0  0  0  0  0  # atno 17395 bound_to 11000

$$$$
