AV-unprocessed.smi:586|AV-procd|sdf|3001|dock8
  -GOLD-   2262023503D 1   1.00000     0.00000
 Structure written by MMmdl.
 49 49  0  0  0  0  0  0  0  0  1 V2000
  145.0118  133.0729  152.3043 C   0  0  0  0  0  0  0  0  0  0  0  0
  146.0821  132.7823  153.3649 C   0  0  0  0  0  0  0  0  0  0  0  0
  147.3523  133.6498  153.2470 C   0  0  0  0  0  0  0  0  0  0  0  0
  148.2704  133.5028  154.3625 N   0  0  0  0  0  0  0  0  0  0  0  0
  148.7550  134.5885  155.0979 C   0  0  0  0  0  0  0  0  0  0  0  0
  148.3416  135.8587  154.7217 N   0  0  0  0  0  0  0  0  0  0  0  0
  149.5784  134.4191  156.1775 C   0  0  0  0  0  0  0  0  0  0  0  0
  150.0921  135.5167  156.8953 N   0  0  0  0  0  0  0  0  0  0  0  0
  151.3529  136.0811  156.3776 C   0  0  0  0  0  0  0  0  0  0  0  0
  151.1267  136.9652  155.1339 C   0  0  0  0  0  0  0  0  0  0  0  0
  150.8524  138.3124  155.4915 O   0  0  0  0  0  0  0  0  0  0  0  0
  150.4478  139.1312  154.4053 C   0  0  0  0  0  0  0  0  0  0  0  0
  149.5790  135.9733  158.0769 C   0  0  0  0  0  0  0  0  0  0  0  0
  150.2830  136.6647  158.8172 O   0  0  0  0  0  0  0  0  0  0  0  0
  148.0967  135.7324  158.5289 C   0  0  0  0  0  0  0  0  0  0  0  0
  147.0269  136.3522  157.5981 C   0  0  0  0  0  0  0  0  0  0  0  0
  147.8975  136.4087  159.9107 C   0  0  0  0  0  0  0  0  0  0  0  0
  147.8347  134.2240  158.7226 C   0  0  0  0  0  0  0  0  0  0  0  0
  150.0519  133.0770  156.5445 C   0  0  0  0  0  0  0  0  0  0  0  0
  150.8568  132.8172  157.4380 O   0  0  0  0  0  0  0  0  0  0  0  0
  149.5279  132.0393  155.7794 N   0  0  0  0  0  0  0  0  0  0  0  0
  148.6456  132.1831  154.7155 C   0  0  0  0  0  0  0  0  0  0  0  0
  148.2363  131.1766  154.1365 O   0  0  0  0  0  0  0  0  0  0  0  0
  149.8142  131.1008  156.0175 H   0  0  0  0  0  0  0  0  0  0  0  0
  144.1168  132.4779  152.4861 H   0  0  0  0  0  0  0  0  0  0  0  0
  145.3671  132.8317  151.3024 H   0  0  0  0  0  0  0  0  0  0  0  0
  144.7206  134.1237  152.3161 H   0  0  0  0  0  0  0  0  0  0  0  0
  145.6460  132.9406  154.3514 H   0  0  0  0  0  0  0  0  0  0  0  0
  146.3477  131.7257  153.3220 H   0  0  0  0  0  0  0  0  0  0  0  0
  147.8850  133.4608  152.3140 H   0  0  0  0  0  0  0  0  0  0  0  0
  147.0968  134.7091  153.2095 H   0  0  0  0  0  0  0  0  0  0  0  0
  147.7125  136.0053  153.9450 H   0  0  0  0  0  0  0  0  0  0  0  0
  148.6596  136.6875  155.2032 H   0  0  0  0  0  0  0  0  0  0  0  0
  151.8364  136.6702  157.1555 H   0  0  0  0  0  0  0  0  0  0  0  0
  152.0611  135.2838  156.1445 H   0  0  0  0  0  0  0  0  0  0  0  0
  152.0279  136.9746  154.5209 H   0  0  0  0  0  0  0  0  0  0  0  0
  150.3311  136.5665  154.5029 H   0  0  0  0  0  0  0  0  0  0  0  0
  150.3062  140.1530  154.7569 H   0  0  0  0  0  0  0  0  0  0  0  0
  149.5046  138.7986  153.9726 H   0  0  0  0  0  0  0  0  0  0  0  0
  151.2056  139.1510  153.6210 H   0  0  0  0  0  0  0  0  0  0  0  0
  146.0627  136.4329  158.1010 H   0  0  0  0  0  0  0  0  0  0  0  0
  146.8405  135.7458  156.7130 H   0  0  0  0  0  0  0  0  0  0  0  0
  147.3015  137.3580  157.2803 H   0  0  0  0  0  0  0  0  0  0  0  0
  148.1169  137.4767  159.8699 H   0  0  0  0  0  0  0  0  0  0  0  0
  148.5315  135.9677  160.6815 H   0  0  0  0  0  0  0  0  0  0  0  0
  146.8707  136.3061  160.2641 H   0  0  0  0  0  0  0  0  0  0  0  0
  146.9357  134.0533  159.3160 H   0  0  0  0  0  0  0  0  0  0  0  0
  148.6601  133.7306  159.2377 H   0  0  0  0  0  0  0  0  0  0  0  0
  147.6778  133.7094  157.7767 H   0  0  0  0  0  0  0  0  0  0  0  0
  1  2  1  0  0  0  0
  1 25  1  0  0  0  0
  1 26  1  0  0  0  0
  1 27  1  0  0  0  0
  2  3  1  0  0  0  0
  2 28  1  0  0  0  0
  2 29  1  0  0  0  0
  3  4  1  0  0  0  0
  3 30  1  0  0  0  0
  3 31  1  0  0  0  0
  4 22  1  0  0  0  0
  4  5  1  0  0  0  0
  5  6  1  0  0  0  0
  5  7  2  0  0  0  0
  6 32  1  0  0  0  0
  6 33  1  0  0  0  0
  7  8  1  0  0  0  0
  7 19  1  0  0  0  0
  8  9  1  0  0  0  0
  8 13  1  0  0  0  0
  9 10  1  0  0  0  0
  9 34  1  0  0  0  0
  9 35  1  0  0  0  0
 10 11  1  0  0  0  0
 10 36  1  0  0  0  0
 10 37  1  0  0  0  0
 11 12  1  0  0  0  0
 12 38  1  0  0  0  0
 12 39  1  0  0  0  0
 12 40  1  0  0  0  0
 13 14  2  0  0  0  0
 13 15  1  0  0  0  0
 15 16  1  0  0  0  0
 15 17  1  0  0  0  0
 15 18  1  0  0  0  0
 16 41  1  0  0  0  0
 16 42  1  0  0  0  0
 16 43  1  0  0  0  0
 17 44  1  0  0  0  0
 17 45  1  0  0  0  0
 17 46  1  0  0  0  0
 18 47  1  0  0  0  0
 18 48  1  0  0  0  0
 18 49  1  0  0  0  0
 19 20  2  0  0  0  0
 19 21  1  0  0  0  0
 21 24  1  0  0  0  0
 21 22  1  0  0  0  0
 22 23  2  0  0  0  0
M  END
> <s_m_source_file>
AV-unprocessed.smi

> <i_m_source_file_index>
586

> <i_lp_mmshare_version>
43012

> <i_f3d_flags>
0

> <s_epik_input>
W0NIM11bQ0gyXVtDSDJdbjFjKFtOSDJdKWMoYyg9TylbbkhdYzE9TylOKEMoPU8pQyhbQ0gzXSkoW0NIM10pW0NIM10pW0NIMl1bQ0gyXU9bQ0gzXQ==

> <s_epik_cmdline>
J2VwaWtfcHl0aG9uJywgJy1waCcsICc3LjAnLCAnLXRuJywgJzgnLCAnLW1hJywgJzIwMCcsICctbWV0YWxfYmluZGluZycsICctaW1hZScsICc8aW5maWxlLm1hZT4nLCAnLW9tYWUnLCAnPG91dGZpbGUubWFlPic=

> <r_lp_tautomer_probability>
1

> <r_epik_Ionization_Penalty>
2.71493e-05

> <r_epik_Ionization_Penalty_Charging>
5.25815e-06

> <r_epik_Ionization_Penalty_Neutral>
2.18912e-05

> <r_epik_State_Penalty>
-0

> <r_epik_Charging_Adjusted_Penalty>
5.25815e-06

> <i_epik_Tot_Q>
0

> <i_epik_Tot_abs_Q>
0

> <r_epik_Metal_State_Penalty>
-0

> <b_epik_Metal_Only>
0

> <s_epik_Chemistry_Notes>
This compound has an imine and may undergo hydrolysis.

> <s_lp_Force_Field>
OPLS_2005

> <r_lp_Energy>
40.2025

> <b_lp_Chiralities_Consistent>
1

> <s_lp_Variant>
AV-unprocessed.smi:586-1

> <Gold.Version>
5.8.1

> <Gold.Id.Protein>
6NUR|6NUR_protein|mol2

> <Gold.PLP.Fitness>
35.7557

> <Gold.PLP.PLP>
-30.3645

> <Gold.PLP.part.hbond>
-3.0000

> <Gold.PLP.part.metal>
0.0000

> <Gold.PLP.part.buried>
-2.8264

> <Gold.PLP.part.nonpolar>
-25.2106

> <Gold.PLP.part.repulsive>
0.1379

> <Gold.PLP.ligand.clash>
0.0000

> <Gold.PLP.ligand.torsion>
2.1038

> <Gold.PLP.Chemscore.Hbond>
2.2800

> <Gold.PLP.Chemscore.CHOScore>
0.0000

> <Gold.PLP.Chemscore.Metal>
0.0000

> <Gold.Chemscore.Hbonds>
donor molecule, donor type, donor heavy atom, donor atom, acceptor molecule, acceptor atom, score
      P1  H  6896  6907       L1    14  0.53
      P1  H  6896  6909       L1    20  1.00

> <Gold.PLP.Chemscore.Internal.Correction>
2.7588

> <Gold.Rescore>
     Score         DG    S(hbond)    S(metal)    S(lipo)     H(rot)  DE(clash)    DE(int)     intcor
      7.26     -12.12       1.82        0.00      50.32       2.08       0.17       4.69       ----

> <Gold.Chemscore.Fitness>
7.2622

> <Gold.Chemscore.DG>
-12.1173

> <Gold.Chemscore.ZeroCoef>
-5.4800

> <Gold.Chemscore.Hbond>
1.8222

> <Gold.Chemscore.Metal>
0.0000

> <Gold.Chemscore.Lipo>
50.3165

> <Gold.Chemscore.Internal_Hbond>
0.0000

> <Gold.Chemscore.DEClash>
0.1673

> <Gold.Chemscore.DEInternal>
4.6878

> <Gold.Chemscore.Rot>
2.0843

> <Gold.Chemscore.Internal.Correction>
   9.000000E+99

> <Gold.Chemscore.Hbonds>
donor molecule, donor type, donor heavy atom, donor atom, acceptor molecule, acceptor atom, score
      L1  H     6    32       P1  7948  0.01
      P1  H  6896  6907       L1    14  0.03
      P1  H  6896  6909       L1    20  0.97

> <Gold.Chemscore.Hbond.Weighted>
-6.0862

> <Gold.Chemscore.Metal.Weighted>
-0.0000

> <Gold.Chemscore.Lipo.Weighted>
-5.8870

> <Gold.Chemscore.Internal_Hbond.Weighted>
0.0000

> <Gold.Chemscore.DEClash.Weighted>
0.1673

> <Gold.Chemscore.DEInternal.Weighted>
4.6878

> <Gold.Chemscore.Rot.Weighted>
5.3359

> <Gold.Chemscore.Internal.Correction.Weighted>
   9.000000E+99

> <Gold.Protein.RotatedTorsions>
[ 6907 6896 6895 6894 ] final  -37.29 input  -60.11 | X-H torsion
[ 7974 7965 7964 7962 ] final   84.17 input  175.53 | X-H torsion
[ 8008 7997 7996 7995 ] final  135.73 input   59.86 | X-H torsion
[ 10167 10162 10161 10158 ] final  -93.63 input  -65.29 | X-H torsion
[ 10718 10713 10712 10709 ] final  -80.96 input   66.30 | X-H torsion
[ 10763 10752 10751 10750 ] final  108.84 input  -60.55 | X-H torsion
[ 11005 11000 10999 10996 ] final  160.09 input  -57.11 | X-H torsion

> <Gold.Protein.ActiveResidues>
 VAL166  LYS551  ARG553  GLY616  TRP617  ASP618  TYR619  PRO620  LYS621  CYS622 
 ASP623  PHE694  ASN695  SER759  ASP760  ASP761  ALA762  ILE779  LEU786  VAL792 
 PHE793  MET794  SER795  GLU796  ALA797  LYS798  CYS799  TRP800  GLU811  SER814 

> <Gold.Protein.RotatedAtoms>
  151.0165  134.9437  159.8035 H   0  0  0  0  0  0  0  0  0  0  0  0  # atno 6907 bound_to 6896
  152.5315  134.2959  159.9070 H   0  0  0  0  0  0  0  0  0  0  0  0  # atno 6908 bound_to 6896
  151.2966  133.4099  159.2671 H   0  0  0  0  0  0  0  0  0  0  0  0  # atno 6909 bound_to 6896
  145.6023  139.2354  143.2239 H   0  0  0  0  0  0  0  0  0  0  0  0  # atno 7974 bound_to 7965
  156.3003  140.2463  156.3629 H   0  0  0  0  0  0  0  0  0  0  0  0  # atno 8008 bound_to 7997
  154.8860  140.0411  157.1830 H   0  0  0  0  0  0  0  0  0  0  0  0  # atno 8009 bound_to 7997
  154.8647  140.2926  155.5521 H   0  0  0  0  0  0  0  0  0  0  0  0  # atno 8010 bound_to 7997
  140.3227  143.3040  152.0029 H   0  0  0  0  0  0  0  0  0  0  0  0  # atno 10167 bound_to 10162
  156.0059  130.4590  150.3880 H   0  0  0  0  0  0  0  0  0  0  0  0  # atno 10718 bound_to 10713
  153.4263  135.3799  155.2143 H   0  0  0  0  0  0  0  0  0  0  0  0  # atno 10763 bound_to 10752
  154.8747  135.3829  154.4322 H   0  0  0  0  0  0  0  0  0  0  0  0  # atno 10764 bound_to 10752
  153.4849  135.7088  153.5980 H   0  0  0  0  0  0  0  0  0  0  0  0  # atno 10765 bound_to 10752
  140.2025  134.8327  157.3034 H   0  0  0  0  0  0  0  0  0  0  0  0  # atno 11005 bound_to 11000
  146.1567  140.6848  142.9297 LP  0  0  0  0  0  0  0  0  0  0  0  0  # atno 17320 bound_to 7965
  144.7305  140.4656  143.6941 LP  0  0  0  0  0  0  0  0  0  0  0  0  # atno 17321 bound_to 7965
  139.4871  144.6298  151.7092 LP  0  0  0  0  0  0  0  0  0  0  0  0  # atno 17342 bound_to 10162
  140.5469  144.0489  150.6111 LP  0  0  0  0  0  0  0  0  0  0  0  0  # atno 17343 bound_to 10162
  157.1956  131.0426  151.2677 LP  0  0  0  0  0  0  0  0  0  0  0  0  # atno 17370 bound_to 10713
  157.4022  130.7339  149.6775 LP  0  0  0  0  0  0  0  0  0  0  0  0  # atno 17371 bound_to 10713
  140.2038  134.4222  155.7648 LP  0  0  0  0  0  0  0  0  0  0  0  0  # atno 17394 bound_to 11000
  141.2227  133.7085  156.8227 LP  0  0  0  0  0  0  0  0  0  0  0  0  # atno 17395 bound_to 11000

$$$$
