AV-unprocessed.smi:1046|AV-procd|sdf|4549|dock1
  -GOLD-   22720 2573D 1   1.00000     0.00000
 Structure written by MMmdl.
 53 55  0  0  0  0  0  0  0  0  2 V2000
  152.2151  143.2632  160.7454 C   0  0  0  0  0  0  0  0  0  0  0  0
  151.9644  142.4734  159.4730 C   0  0  0  0  0  0  0  0  0  0  0  0
  152.7014  141.2900  159.2426 C   0  0  0  0  0  0  0  0  0  0  0  0
  152.4967  140.5260  158.0733 C   0  0  0  0  0  0  0  0  0  0  0  0
  153.0944  139.3508  157.6513 N   0  0  0  0  0  0  0  0  0  0  0  0
  152.4807  139.1392  156.4912 C   0  0  0  0  0  0  0  0  0  0  0  0
  151.5524  140.0382  156.1110 N   0  0  0  0  0  0  0  0  0  0  0  0
  150.7596  140.0122  154.8948 C   0  0  0  0  0  0  0  0  0  0  0  0
  149.8015  138.8043  154.8440 C   0  0  1  0  0  0  0  0  0  0  0  0
  149.1029  138.8140  153.6153 O   0  0  0  0  0  0  0  0  0  0  0  0
  150.5322  137.4501  154.9568 C   0  0  0  0  0  0  0  0  0  0  0  0
  149.6746  136.2895  154.6050 N   0  3  0  0  0  0  0  0  0  0  0  0
  148.4023  136.2747  155.3718 C   0  0  0  0  0  0  0  0  0  0  0  0
  147.5105  135.1031  154.9118 C   0  0  0  0  0  0  0  0  0  0  0  0
  148.1637  133.7993  155.0256 N   0  0  0  0  0  0  0  0  0  0  0  0
  148.3023  133.3512  156.4149 C   0  0  0  0  0  0  0  0  0  0  0  0
  149.3326  132.2313  156.6320 C   0  0  0  0  0  0  0  0  0  0  0  0
  150.3217  132.6732  157.5352 O   0  0  0  0  0  0  0  0  0  0  0  0
  149.4186  133.8394  154.2707 C   0  0  0  0  0  0  0  0  0  0  0  0
  150.3638  134.9756  154.7123 C   0  0  0  0  0  0  0  0  0  0  0  0
  151.5278  140.9824  157.1321 C   0  0  0  0  0  0  0  0  0  0  0  0
  150.7890  142.1585  157.3498 C   0  0  0  0  0  0  0  0  0  0  0  0
  151.0055  142.9097  158.5239 C   0  0  0  0  0  0  0  0  0  0  0  0
  150.2016  144.1777  158.7509 C   0  0  0  0  0  0  0  0  0  0  0  0
  152.9666  142.7817  161.3717 H   0  0  0  0  0  0  0  0  0  0  0  0
  151.2984  143.3481  161.3291 H   0  0  0  0  0  0  0  0  0  0  0  0
  152.5699  144.2664  160.5081 H   0  0  0  0  0  0  0  0  0  0  0  0
  153.4320  140.9577  159.9653 H   0  0  0  0  0  0  0  0  0  0  0  0
  152.7183  138.2788  155.8826 H   0  0  0  0  0  0  0  0  0  0  0  0
  150.2040  140.9479  154.8176 H   0  0  0  0  0  0  0  0  0  0  0  0
  151.4469  139.9895  154.0484 H   0  0  0  0  0  0  0  0  0  0  0  0
  149.0527  138.8974  155.6300 H   0  0  0  0  0  0  0  0  0  0  0  0
  149.5943  139.3277  152.9915 H   0  0  0  0  0  0  0  0  0  0  0  0
  151.4211  137.4412  154.3237 H   0  0  0  0  0  0  0  0  0  0  0  0
  150.8871  137.3350  155.9824 H   0  0  0  0  0  0  0  0  0  0  0  0
  148.6117  136.2098  156.4403 H   0  0  0  0  0  0  0  0  0  0  0  0
  147.8692  137.2129  155.2131 H   0  0  0  0  0  0  0  0  0  0  0  0
  146.5783  135.1020  155.4780 H   0  0  0  0  0  0  0  0  0  0  0  0
  147.2239  135.2666  153.8721 H   0  0  0  0  0  0  0  0  0  0  0  0
  148.5390  134.1908  157.0681 H   0  0  0  0  0  0  0  0  0  0  0  0
  147.3356  132.9768  156.7545 H   0  0  0  0  0  0  0  0  0  0  0  0
  148.8533  131.3399  157.0375 H   0  0  0  0  0  0  0  0  0  0  0  0
  149.8218  131.9491  155.7003 H   0  0  0  0  0  0  0  0  0  0  0  0
  151.1650  132.3786  157.2264 H   0  0  0  0  0  0  0  0  0  0  0  0
  149.9333  132.8813  154.3317 H   0  0  0  0  0  0  0  0  0  0  0  0
  149.1865  133.9729  153.2131 H   0  0  0  0  0  0  0  0  0  0  0  0
  151.2448  134.9588  154.0725 H   0  0  0  0  0  0  0  0  0  0  0  0
  150.7149  134.8174  155.7328 H   0  0  0  0  0  0  0  0  0  0  0  0
  150.0595  142.4785  156.6206 H   0  0  0  0  0  0  0  0  0  0  0  0
  149.5290  144.3779  157.9164 H   0  0  0  0  0  0  0  0  0  0  0  0
  150.8644  145.0364  158.8589 H   0  0  0  0  0  0  0  0  0  0  0  0
  149.5978  144.0897  159.6543 H   0  0  0  0  0  0  0  0  0  0  0  0
  149.4144  136.4054  153.6362 H   0  0  0  0  0  0  0  0  0  0  0  0
  1  2  1  0  0  0  0
  1 25  1  0  0  0  0
  1 26  1  0  0  0  0
  1 27  1  0  0  0  0
  2 23  1  0  0  0  0
  2  3  2  0  0  0  0
  3  4  1  0  0  0  0
  3 28  1  0  0  0  0
  4 21  2  0  0  0  0
  4  5  1  0  0  0  0
  5  6  2  0  0  0  0
  6  7  1  0  0  0  0
  6 29  1  0  0  0  0
  7  8  1  0  0  0  0
  7 21  1  0  0  0  0
  8  9  1  0  0  0  0
  8 30  1  0  0  0  0
  8 31  1  0  0  0  0
  9 10  1  0  0  0  0
  9 11  1  0  0  0  0
  9 32  1  0  0  0  0
 10 33  1  0  0  0  0
 11 12  1  0  0  0  0
 11 34  1  0  0  0  0
 11 35  1  0  0  0  0
 12 20  1  0  0  0  0
 12 13  1  0  0  0  0
 12 53  1  0  0  0  0
 13 14  1  0  0  0  0
 13 36  1  0  0  0  0
 13 37  1  0  0  0  0
 14 15  1  0  0  0  0
 14 38  1  0  0  0  0
 14 39  1  0  0  0  0
 15 16  1  0  0  0  0
 15 19  1  0  0  0  0
 16 17  1  0  0  0  0
 16 40  1  0  0  0  0
 16 41  1  0  0  0  0
 17 18  1  0  0  0  0
 17 42  1  0  0  0  0
 17 43  1  0  0  0  0
 18 44  1  0  0  0  0
 19 20  1  0  0  0  0
 19 45  1  0  0  0  0
 19 46  1  0  0  0  0
 20 47  1  0  0  0  0
 20 48  1  0  0  0  0
 21 22  1  0  0  0  0
 22 23  2  0  0  0  0
 22 49  1  0  0  0  0
 23 24  1  0  0  0  0
 24 50  1  0  0  0  0
 24 51  1  0  0  0  0
 24 52  1  0  0  0  0
M  CHG  1  12   1
M  END
> <s_m_source_file>
AV-unprocessed.smi

> <i_m_source_file_index>
1046

> <i_lp_mmshare_version>
43012

> <i_f3d_flags>
0

> <s_epik_input>
W0NIM11jKFtjSF0xKWMoW0NIM10pW2NIXWMoYzEyKW4oW2NIXW4yKVtDSDJdW0NASF0oW09IXSlbQ0gyXU4zW0NIMl1bQ0gyXU4oW0NIMl1bQ0gyXTMpW0NIMl1bQ0gyXVtPSF0=

> <s_epik_cmdline>
J2VwaWtfcHl0aG9uJywgJy1waCcsICc3LjAnLCAnLXRuJywgJzgnLCAnLW1hJywgJzIwMCcsICctbWV0YWxfYmluZGluZycsICctaW1hZScsICc8aW5maWxlLm1hZT4nLCAnLW9tYWUnLCAnPG91dGZpbGUubWFlPic=

> <r_epik_Ionization_Penalty>
0.131947

> <r_epik_Ionization_Penalty_Charging>
0.00213896

> <r_epik_Ionization_Penalty_Neutral>
0.129808

> <r_epik_State_Penalty>
0.319681

> <r_epik_Charging_Adjusted_Penalty>
0.32182

> <i_epik_Tot_Q>
1

> <i_epik_Tot_abs_Q>
1

> <r_epik_Metal_State_Penalty>
0.225417

> <b_epik_Metal_Only>
0

> <s_lp_Force_Field>
OPLS_2005

> <r_lp_Energy>
33.7571

> <b_lp_Chiralities_Consistent>
1

> <s_lp_Variant>
AV-unprocessed.smi:1046-2

> <Gold.Version>
5.8.1

> <Gold.Id.Protein>
6NUR|6NUR_protein|mol2

> <Gold.PLP.Fitness>
51.4810

> <Gold.PLP.PLP>
-37.9920

> <Gold.PLP.part.hbond>
-4.8232

> <Gold.PLP.part.metal>
0.0000

> <Gold.PLP.part.buried>
-1.3861

> <Gold.PLP.part.nonpolar>
-31.9860

> <Gold.PLP.part.repulsive>
0.0799

> <Gold.PLP.ligand.clash>
0.0000

> <Gold.PLP.ligand.torsion>
0.6923

> <Gold.PLP.Chemscore.Hbond>
4.9120

> <Gold.PLP.Chemscore.CHOScore>
0.0000

> <Gold.PLP.Chemscore.Metal>
0.0000

> <Gold.Chemscore.Hbonds>
donor molecule, donor type, donor heavy atom, donor atom, acceptor molecule, acceptor atom, score
      L1  H    10    33       P1  7957  0.90
      L1  H    12    53       P1  7948  2.00
      P1  H  6896  6908       L1    18  0.96
      P1  H  7997  8010       L1     5  0.95

> <Gold.PLP.Chemscore.Internal.Correction>
0.1377

> <Gold.Rescore>
     Score         DG    S(hbond)    S(metal)    S(lipo)     H(rot)  DE(clash)    DE(int)     intcor
     17.05     -19.73       2.82        0.00     111.55       3.21       0.96       1.72       ----

> <Gold.Chemscore.Fitness>
17.0497

> <Gold.Chemscore.DG>
-19.7307

> <Gold.Chemscore.ZeroCoef>
-5.4800

> <Gold.Chemscore.Hbond>
2.8163

> <Gold.Chemscore.Metal>
0.0000

> <Gold.Chemscore.Lipo>
111.5473

> <Gold.Chemscore.Internal_Hbond>
0.0000

> <Gold.Chemscore.DEClash>
0.9563

> <Gold.Chemscore.DEInternal>
1.7246

> <Gold.Chemscore.Rot>
3.2058

> <Gold.Chemscore.Internal.Correction>
   9.000000E+99

> <Gold.Chemscore.Hbonds>
donor molecule, donor type, donor heavy atom, donor atom, acceptor molecule, acceptor atom, score
      L1  H    10    33       P1  7957  0.87
      L1  H    12    53       P1  7948  0.82
      P1  H  6896  6908       L1    18  0.23
      P1  H  7997  8010       L1     5  0.06

> <Gold.Chemscore.Hbond.Weighted>
-9.4064

> <Gold.Chemscore.Metal.Weighted>
-0.0000

> <Gold.Chemscore.Lipo.Weighted>
-13.0510

> <Gold.Chemscore.Internal_Hbond.Weighted>
0.0000

> <Gold.Chemscore.DEClash.Weighted>
0.9563

> <Gold.Chemscore.DEInternal.Weighted>
1.7246

> <Gold.Chemscore.Rot.Weighted>
8.2067

> <Gold.Chemscore.Internal.Correction.Weighted>
   9.000000E+99

> <Gold.Protein.RotatedTorsions>
[ 6907 6896 6895 6894 ] final  112.24 input  -60.11 | X-H torsion
[ 7974 7965 7964 7962 ] final   86.90 input  175.53 | X-H torsion
[ 8008 7997 7996 7995 ] final   27.33 input   59.86 | X-H torsion
[ 10167 10162 10161 10158 ] final   31.69 input  -65.29 | X-H torsion
[ 10718 10713 10712 10709 ] final  -42.98 input   66.30 | X-H torsion
[ 10763 10752 10751 10750 ] final -149.72 input  -60.55 | X-H torsion
[ 11005 11000 10999 10996 ] final  -21.68 input  -57.11 | X-H torsion

> <Gold.Protein.ActiveResidues>
 VAL166  LYS551  ARG553  GLY616  TRP617  ASP618  TYR619  PRO620  LYS621  CYS622 
 ASP623  PHE694  ASN695  SER759  ASP760  ASP761  ALA762  ILE779  LEU786  VAL792 
 PHE793  MET794  SER795  GLU796  ALA797  LYS798  CYS799  TRP800  GLU811  SER814 

> <Gold.Protein.RotatedAtoms>
  152.4927  133.8544  159.7217 H   0  0  0  0  0  0  0  0  0  0  0  0  # atno 6907 bound_to 6896
  150.9073  133.7033  159.2870 H   0  0  0  0  0  0  0  0  0  0  0  0  # atno 6908 bound_to 6896
  151.4455  135.1029  159.9735 H   0  0  0  0  0  0  0  0  0  0  0  0  # atno 6909 bound_to 6896
  145.5661  139.2309  143.2432 H   0  0  0  0  0  0  0  0  0  0  0  0  # atno 7974 bound_to 7965
  155.0412  140.3169  155.4724 H   0  0  0  0  0  0  0  0  0  0  0  0  # atno 8008 bound_to 7997
  156.2854  140.2162  156.5479 H   0  0  0  0  0  0  0  0  0  0  0  0  # atno 8009 bound_to 7997
  154.7288  140.0483  157.0695 H   0  0  0  0  0  0  0  0  0  0  0  0  # atno 8010 bound_to 7997
  140.4566  144.0969  150.6203 H   0  0  0  0  0  0  0  0  0  0  0  0  # atno 10167 bound_to 10162
  156.2538  130.4190  149.8620 H   0  0  0  0  0  0  0  0  0  0  0  0  # atno 10718 bound_to 10713
  154.8161  135.3302  154.7172 H   0  0  0  0  0  0  0  0  0  0  0  0  # atno 10763 bound_to 10752
  153.7812  135.6918  153.4892 H   0  0  0  0  0  0  0  0  0  0  0  0  # atno 10764 bound_to 10752
  153.1979  135.4527  155.0178 H   0  0  0  0  0  0  0  0  0  0  0  0  # atno 10765 bound_to 10752
  140.8584  133.7805  156.0046 H   0  0  0  0  0  0  0  0  0  0  0  0  # atno 11005 bound_to 11000
  146.1817  140.6486  142.9186 LP  0  0  0  0  0  0  0  0  0  0  0  0  # atno 17320 bound_to 7965
  144.7460  140.5068  143.6835 LP  0  0  0  0  0  0  0  0  0  0  0  0  # atno 17321 bound_to 7965
  140.4144  143.2641  151.9793 LP  0  0  0  0  0  0  0  0  0  0  0  0  # atno 17342 bound_to 10162
  139.4802  144.5887  151.7809 LP  0  0  0  0  0  0  0  0  0  0  0  0  # atno 17343 bound_to 10162
  156.6159  130.8606  151.3465 LP  0  0  0  0  0  0  0  0  0  0  0  0  # atno 17370 bound_to 10713
  157.7224  130.9577  150.1495 LP  0  0  0  0  0  0  0  0  0  0  0  0  # atno 17371 bound_to 10713
  140.8710  134.2726  157.5190 LP  0  0  0  0  0  0  0  0  0  0  0  0  # atno 17394 bound_to 11000
  139.8706  134.9567  156.4246 LP  0  0  0  0  0  0  0  0  0  0  0  0  # atno 17395 bound_to 11000

$$$$
