#       Name:                AV-unprocessed.smi:2135
#       Creating user name   scv26
#       Creation time:       Fri Mar 27 11:45:44 2020


#       File generated by GOLD software.
#

@<TRIPOS>MOLECULE
AV-unprocessed.smi:2135
    45    46     1
SMALL
NO_CHARGES


@<TRIPOS>ATOM
      1 ****        -0.5509  -1.8339  -2.5087 C.3            1 S1                 0.0000
      2 ****        -2.0977  -1.0531  -3.1235 S.o2           1 S1                 0.0000
      3 ****        -1.7709   0.2878  -3.6325 O.2            1 S1                 0.0000
      4 ****        -2.7743  -2.0223  -3.9990 O.2            1 S1                 0.0000
      5 ****        -3.0781  -0.8702  -1.6980 N.pl3          1 S1                 0.0000
      6 ****        -3.7450  -2.0362  -1.0897 C.3            1 S1                 0.0000
      7 ****        -3.1398  -2.3769   0.2811 C.3            1 S1                 0.0000
      8 ****        -3.1109  -1.1486   1.2089 C.3            1 S1                 0.0000
      9 ****        -2.3930   0.0536   0.5536 C.3            1 S1                 0.0000
     10 ****        -0.8583  -0.0826   0.5268 C.2            1 S1                 0.0000
     11 ****        -0.3021  -1.1462   0.8020 O.2            1 S1                 0.0000
     12 ****        -0.1757   1.0339   0.2279 N.am           1 S1                 0.0000
     13 ****         1.2769   1.1390   0.1641 C.3            1 S1                 0.0000
     14 ****         1.8933   1.3023   1.5628 C.3            1 S1                 0.0000
     15 ****         3.4001   1.4577   1.5071 C.ar           1 S1                 0.0000
     16 ****         3.9942   2.7344   1.4352 C.ar           1 S1                 0.0000
     17 ****         5.3981   2.8268   1.3804 C.ar           1 S1                 0.0000
     18 ****         6.1500   1.6350   1.3993 C.ar           1 S1                 0.0000
     19 ****         5.5921   0.4071   1.4676 N.ar           1 S1                 0.0000
     20 ****         4.2449   0.3273   1.5199 C.ar           1 S1                 0.0000
     21 ****        -3.0060   0.3329  -0.8418 C.3            1 S1                 0.0000
     22 ****         0.0559  -2.1416  -3.3598 H              1 S1                 0.0000
     23 ****        -0.7908  -2.7076  -1.9039 H              1 S1                 0.0000
     24 ****         0.0164  -1.1176  -1.9189 H              1 S1                 0.0000
     25 ****        -4.8055  -1.8079  -0.9785 H              1 S1                 0.0000
     26 ****        -3.6804  -2.8986  -1.7530 H              1 S1                 0.0000
     27 ****        -3.7213  -3.1725   0.7474 H              1 S1                 0.0000
     28 ****        -2.1385  -2.7835   0.1465 H              1 S1                 0.0000
     29 ****        -4.1350  -0.8619   1.4510 H              1 S1                 0.0000
     30 ****        -2.6422  -1.4084   2.1591 H              1 S1                 0.0000
     31 ****        -2.5921   0.9244   1.1800 H              1 S1                 0.0000
     32 ****        -0.7019   1.8718   0.0256 H              1 S1                 0.0000
     33 ****         1.6947   0.2661  -0.3407 H              1 S1                 0.0000
     34 ****         1.5237   2.0026  -0.4542 H              1 S1                 0.0000
     35 ****         1.4646   2.1725   2.0616 H              1 S1                 0.0000
     36 ****         1.6524   0.4405   2.1868 H              1 S1                 0.0000
     37 ****         3.3868   3.6277   1.4206 H              1 S1                 0.0000
     38 ****         5.8873   3.7879   1.3247 H              1 S1                 0.0000
     39 ****         7.2287   1.6690   1.3585 H              1 S1                 0.0000
     40 ****         3.8293  -0.6685   1.5709 H              1 S1                 0.0000
     41 ****        -2.4612   1.1255  -1.3540 H              1 S1                 0.0000
     42 ****        -4.0197   0.7141  -0.7136 H              1 S1                 0.0000
     43 ****        -0.8481  -1.9465   1.0500 LP             1 S1                 0.0000
     44 ****         0.6956  -1.2097   0.7775 LP             1 S1                 0.0000
     45 ****         6.1586  -0.4170   1.4791 LP             1 S1                 0.0000
@<TRIPOS>BOND
    1    1    2 1     
    2    1   22 1     
    3    1   23 1     
    4    1   24 1     
    5    2    3 2     
    6    2    4 2     
    7    2    5 1     
    8    5   21 1     
    9    5    6 1     
   10    6    7 1     
   11    6   25 1     
   12    6   26 1     
   13    7    8 1     
   14    7   27 1     
   15    7   28 1     
   16    8    9 1     
   17    8   29 1     
   18    8   30 1     
   19    9   10 1     
   20    9   21 1     
   21    9   31 1     
   22   10   11 2     
   23   10   12 am    
   24   12   13 1     
   25   12   32 1     
   26   13   14 1     
   27   13   33 1     
   28   13   34 1     
   29   14   15 1     
   30   14   35 1     
   31   14   36 1     
   32   15   20 ar    
   33   15   16 ar    
   34   16   17 ar    
   35   16   37 1     
   36   17   18 ar    
   37   17   38 1     
   38   18   19 ar    
   39   18   39 1     
   40   19   20 ar    
   41   20   40 1     
   42   21   41 1     
   43   21   42 1     
   44   11   43 1     
   45   11   44 1     
   46   19   45 1     
@<TRIPOS>SUBSTRUCTURE
      1 S1             1
@<TRIPOS>SET
LONE_PAIRS      STATIC     ATOMS    <user>   **** ""
5 3 4 43 44 45
DONOR_HYDROGENS      STATIC     ATOMS    <user>   **** ""
1 32
ATOM$BLUE        STATIC     ATOMS    COLORGROUP SYSTEM
5 3 4 43 44 45
ATOM$RED        STATIC     ATOMS    COLORGROUP SYSTEM
1 32
