AV-unprocessed.smi:140|AV-procd|sdf|1186|dock3
  -GOLD-   2262018343D 1   1.00000     0.00000
 Structure written by MMmdl.
 52 55  0  0  0  0  0  0  0  0  1 V2000
  149.1880  142.2875  157.1691 C   0  0  0  0  0  0  0  0  0  0  0  0
  149.8666  141.0210  157.5828 C   0  0  0  0  0  0  0  0  0  0  0  0
  149.3228  139.8148  157.9121 C   0  0  0  0  0  0  0  0  0  0  0  0
  150.3761  138.9158  158.2367 C   0  0  0  0  0  0  0  0  0  0  0  0
  150.2777  137.4992  158.6707 C   0  0  0  0  0  0  0  0  0  0  0  0
  151.0699  136.9774  159.4569 O   0  0  0  0  0  0  0  0  0  0  0  0
  149.1026  136.6991  158.0777 C   0  0  0  0  0  0  0  0  0  0  0  0
  148.5462  135.7265  159.0096 N   0  0  0  0  0  0  0  0  0  0  0  0
  148.5747  134.3592  158.6372 C   0  0  0  0  0  0  0  0  0  0  0  0
  149.0509  133.9816  157.5652 O   0  0  0  0  0  0  0  0  0  0  0  0
  147.9874  133.4527  159.6176 C   0  0  0  0  0  0  0  0  0  0  0  0
  147.9721  132.1311  159.3743 F   0  0  0  0  0  0  0  0  0  0  0  0
  147.4572  133.9177  160.7696 C   0  0  0  0  0  0  0  0  0  0  0  0
  147.4283  135.2631  161.0996 N   0  0  0  0  0  0  0  0  0  0  0  0
  146.8190  135.7612  162.3923 C   0  0  1  0  0  0  0  0  0  0  0  0
  145.6274  136.6933  162.1052 C   0  0  0  0  0  0  0  0  0  0  0  0
  144.5373  136.1208  162.9887 C   0  0  0  0  0  0  0  0  0  0  0  0
  144.9098  134.6465  163.0293 C   0  0  0  0  0  0  0  0  0  0  0  0
  146.3275  134.6808  163.1339 O   0  0  0  0  0  0  0  0  0  0  0  0
  147.9805  136.2124  160.2128 C   0  0  0  0  0  0  0  0  0  0  0  0
  147.9541  137.4161  160.4813 O   0  0  0  0  0  0  0  0  0  0  0  0
  151.5605  139.5994  158.0845 C   0  0  0  0  0  0  0  0  0  0  0  0
  152.9827  139.1490  158.2744 C   0  0  0  0  0  0  0  0  0  0  0  0
  151.2470  140.9038  157.6969 N   0  0  0  0  0  0  0  0  0  0  0  0
  152.2049  141.9761  157.4424 C   0  0  0  0  0  0  0  0  0  0  0  0
  152.3494  142.9185  158.5963 C   0  0  0  0  0  0  0  0  0  0  0  0
  152.0612  144.2599  158.6374 C   0  0  0  0  0  0  0  0  0  0  0  0
  152.3210  144.8522  159.9077 C   0  0  0  0  0  0  0  0  0  0  0  0
  152.8025  143.9547  160.8228 C   0  0  0  0  0  0  0  0  0  0  0  0
  152.9448  142.3589  160.1392 S   0  0  0  0  0  0  0  0  0  0  0  0
  148.1201  142.1247  157.0221 H   0  0  0  0  0  0  0  0  0  0  0  0
  149.5969  142.6660  156.2322 H   0  0  0  0  0  0  0  0  0  0  0  0
  149.3050  143.0585  157.9309 H   0  0  0  0  0  0  0  0  0  0  0  0
  148.2637  139.6028  157.9221 H   0  0  0  0  0  0  0  0  0  0  0  0
  148.2979  137.3639  157.7606 H   0  0  0  0  0  0  0  0  0  0  0  0
  149.4079  136.1657  157.1763 H   0  0  0  0  0  0  0  0  0  0  0  0
  147.0420  133.1900  161.4497 H   0  0  0  0  0  0  0  0  0  0  0  0
  147.6337  136.2337  162.9439 H   0  0  0  0  0  0  0  0  0  0  0  0
  145.8740  137.7294  162.3391 H   0  0  0  0  0  0  0  0  0  0  0  0
  145.3399  136.6254  161.0546 H   0  0  0  0  0  0  0  0  0  0  0  0
  144.5998  136.5500  163.9895 H   0  0  0  0  0  0  0  0  0  0  0  0
  143.5339  136.2976  162.6006 H   0  0  0  0  0  0  0  0  0  0  0  0
  144.4584  134.1186  163.8693 H   0  0  0  0  0  0  0  0  0  0  0  0
  144.6116  134.1467  162.1067 H   0  0  0  0  0  0  0  0  0  0  0  0
  153.1475  138.1785  157.8068 H   0  0  0  0  0  0  0  0  0  0  0  0
  153.2166  139.0558  159.3349 H   0  0  0  0  0  0  0  0  0  0  0  0
  153.7084  139.8283  157.8317 H   0  0  0  0  0  0  0  0  0  0  0  0
  153.1767  141.5498  157.1964 H   0  0  0  0  0  0  0  0  0  0  0  0
  151.8945  142.5133  156.5458 H   0  0  0  0  0  0  0  0  0  0  0  0
  151.6795  144.8333  157.8056 H   0  0  0  0  0  0  0  0  0  0  0  0
  152.1486  145.9006  160.1020 H   0  0  0  0  0  0  0  0  0  0  0  0
  153.0809  144.1320  161.8512 H   0  0  0  0  0  0  0  0  0  0  0  0
  1  2  1  0  0  0  0
  1 31  1  0  0  0  0
  1 32  1  0  0  0  0
  1 33  1  0  0  0  0
  2 24  1  0  0  0  0
  2  3  2  0  0  0  0
  3  4  1  0  0  0  0
  3 34  1  0  0  0  0
  4  5  1  0  0  0  0
  4 22  2  0  0  0  0
  5  6  2  0  0  0  0
  5  7  1  0  0  0  0
  7  8  1  0  0  0  0
  7 35  1  0  0  0  0
  7 36  1  0  0  0  0
  8 20  1  0  0  0  0
  8  9  1  0  0  0  0
  9 10  2  0  0  0  0
  9 11  1  0  0  0  0
 11 12  1  0  0  0  0
 11 13  2  0  0  0  0
 13 14  1  0  0  0  0
 13 37  1  0  0  0  0
 14 15  1  0  0  0  0
 14 20  1  0  0  0  0
 15 19  1  0  0  0  0
 15 16  1  0  0  0  0
 15 38  1  0  0  0  0
 16 17  1  0  0  0  0
 16 39  1  0  0  0  0
 16 40  1  0  0  0  0
 17 18  1  0  0  0  0
 17 41  1  0  0  0  0
 17 42  1  0  0  0  0
 18 19  1  0  0  0  0
 18 43  1  0  0  0  0
 18 44  1  0  0  0  0
 20 21  2  0  0  0  0
 22 23  1  0  0  0  0
 22 24  1  0  0  0  0
 23 45  1  0  0  0  0
 23 46  1  0  0  0  0
 23 47  1  0  0  0  0
 24 25  1  0  0  0  0
 25 26  1  0  0  0  0
 25 48  1  0  0  0  0
 25 49  1  0  0  0  0
 26 30  1  0  0  0  0
 26 27  2  0  0  0  0
 27 28  1  0  0  0  0
 27 50  1  0  0  0  0
 28 29  2  0  0  0  0
 28 51  1  0  0  0  0
 29 30  1  0  0  0  0
 29 52  1  0  0  0  0
M  END
> <s_m_source_file>
AV-unprocessed.smi

> <i_m_source_file_index>
140

> <i_lp_mmshare_version>
43012

> <i_f3d_flags>
0

> <s_epik_input>
czFbY0hdW2NIXVtjSF1jMVtDSDJdbjJjKFtDSDNdKWMoW2NIXWMyW0NIM10pQyg9TylbQ0gyXW4zYyg9TyljKEYpW2NIXW4oYzM9TylbQ0BASF00W0NIMl1bQ0gyXVtDSDJdTzQ=

> <s_epik_cmdline>
J2VwaWtfcHl0aG9uJywgJy1waCcsICc3LjAnLCAnLXRuJywgJzgnLCAnLW1hJywgJzIwMCcsICctbWV0YWxfYmluZGluZycsICctaW1hZScsICc8aW5maWxlLm1hZT4nLCAnLW9tYWUnLCAnPG91dGZpbGUubWFlPic=

> <r_lp_tautomer_probability>
1

> <r_epik_Ionization_Penalty>
5.024e-09

> <r_epik_Ionization_Penalty_Charging>
5.01743e-09

> <r_epik_Ionization_Penalty_Neutral>
6.5712e-12

> <r_epik_State_Penalty>
-0

> <r_epik_Charging_Adjusted_Penalty>
5.01743e-09

> <i_epik_Tot_Q>
0

> <i_epik_Tot_abs_Q>
0

> <r_epik_Metal_State_Penalty>
-0

> <b_epik_Metal_Only>
0

> <s_epik_Chemistry_Notes>
This compound contains an acetal/aminal-like group ( X-CH(R)-Y where X, Y are N, S, or O) that may be acid/base labile, releasing an aldehyde.

> <s_lp_Force_Field>
OPLS_2005

> <r_lp_Energy>
38.6163

> <b_lp_Chiralities_Consistent>
1

> <s_lp_Variant>
AV-unprocessed.smi:140-2

> <Gold.Version>
5.8.1

> <Gold.Id.Protein>
6NUR|6NUR_protein|mol2

> <Gold.PLP.Fitness>
59.1148

> <Gold.PLP.PLP>
-53.2922

> <Gold.PLP.part.hbond>
-5.0000

> <Gold.PLP.part.metal>
0.0000

> <Gold.PLP.part.buried>
-5.3680

> <Gold.PLP.part.nonpolar>
-43.8338

> <Gold.PLP.part.repulsive>
0.0127

> <Gold.PLP.ligand.clash>
0.0000

> <Gold.PLP.ligand.torsion>
1.0964

> <Gold.PLP.Chemscore.Hbond>
2.6484

> <Gold.PLP.Chemscore.CHOScore>
0.0000

> <Gold.PLP.Chemscore.Metal>
0.0000

> <Gold.Chemscore.Hbonds>
donor molecule, donor type, donor heavy atom, donor atom, acceptor molecule, acceptor atom, score
      P1  H  6896  6908       L1     6  1.00
      P1  H  6931  6943       L1    21  0.66
      P1  H  6934  6947       L1    21  0.74

> <Gold.PLP.Chemscore.Internal.Correction>
0.0702

> <Gold.Rescore>
     Score         DG    S(hbond)    S(metal)    S(lipo)     H(rot)  DE(clash)    DE(int)     intcor
     15.95     -19.55       1.70        0.00     112.61       1.87       0.01       3.59       ----

> <Gold.Chemscore.Fitness>
15.9465

> <Gold.Chemscore.DG>
-19.5465

> <Gold.Chemscore.ZeroCoef>
-5.4800

> <Gold.Chemscore.Hbond>
1.7012

> <Gold.Chemscore.Metal>
0.0000

> <Gold.Chemscore.Lipo>
112.6072

> <Gold.Chemscore.Internal_Hbond>
0.0000

> <Gold.Chemscore.DEClash>
0.0089

> <Gold.Chemscore.DEInternal>
3.5911

> <Gold.Chemscore.Rot>
1.8713

> <Gold.Chemscore.Internal.Correction>
   9.000000E+99

> <Gold.Chemscore.Hbonds>
donor molecule, donor type, donor heavy atom, donor atom, acceptor molecule, acceptor atom, score
      P1  H  6896  6908       L1     6  1.00
      P1  H  6931  6943       L1    21  0.65
      P1  H  6934  6947       L1    21  0.74

> <Gold.Chemscore.Hbond.Weighted>
-5.6819

> <Gold.Chemscore.Metal.Weighted>
-0.0000

> <Gold.Chemscore.Lipo.Weighted>
-13.1750

> <Gold.Chemscore.Internal_Hbond.Weighted>
0.0000

> <Gold.Chemscore.DEClash.Weighted>
0.0089

> <Gold.Chemscore.DEInternal.Weighted>
3.5911

> <Gold.Chemscore.Rot.Weighted>
4.7905

> <Gold.Chemscore.Internal.Correction.Weighted>
   9.000000E+99

> <Gold.Protein.RotatedTorsions>
[ 6907 6896 6895 6894 ] final -142.00 input  -60.11 | X-H torsion
[ 7974 7965 7964 7962 ] final   71.85 input  175.53 | X-H torsion
[ 8008 7997 7996 7995 ] final    7.83 input   59.86 | X-H torsion
[ 10167 10162 10161 10158 ] final -156.84 input  -65.29 | X-H torsion
[ 10718 10713 10712 10709 ] final  -39.09 input   66.30 | X-H torsion
[ 10763 10752 10751 10750 ] final  -40.87 input  -60.55 | X-H torsion
[ 11005 11000 10999 10996 ] final   58.44 input  -57.11 | X-H torsion

> <Gold.Protein.ActiveResidues>
 VAL166  LYS551  ARG553  GLY616  TRP617  ASP618  TYR619  PRO620  LYS621  CYS622 
 ASP623  PHE694  ASN695  SER759  ASP760  ASP761  ALA762  ILE779  LEU786  VAL792 
 PHE793  MET794  SER795  GLU796  ALA797  LYS798  CYS799  TRP800  GLU811  SER814 

> <Gold.Protein.RotatedAtoms>
  151.0812  133.5388  159.2620 H   0  0  0  0  0  0  0  0  0  0  0  0  # atno 6907 bound_to 6896
  151.2291  135.0547  159.8990 H   0  0  0  0  0  0  0  0  0  0  0  0  # atno 6908 bound_to 6896
  152.5424  134.0604  159.8203 H   0  0  0  0  0  0  0  0  0  0  0  0  # atno 6909 bound_to 6896
  145.7607  139.2799  143.1378 H   0  0  0  0  0  0  0  0  0  0  0  0  # atno 7974 bound_to 7965
  154.7589  140.2781  155.6230 H   0  0  0  0  0  0  0  0  0  0  0  0  # atno 8008 bound_to 7997
  156.2911  140.2664  156.2290 H   0  0  0  0  0  0  0  0  0  0  0  0  # atno 8009 bound_to 7997
  155.0042  140.0372  157.2362 H   0  0  0  0  0  0  0  0  0  0  0  0  # atno 8010 bound_to 7997
  139.6818  143.9568  152.2340 H   0  0  0  0  0  0  0  0  0  0  0  0  # atno 10167 bound_to 10162
  156.2963  130.4234  149.8187 H   0  0  0  0  0  0  0  0  0  0  0  0  # atno 10718 bound_to 10713
  153.9532  135.6748  153.4744 H   0  0  0  0  0  0  0  0  0  0  0  0  # atno 10763 bound_to 10752
  153.0874  135.4892  154.8621 H   0  0  0  0  0  0  0  0  0  0  0  0  # atno 10764 bound_to 10752
  154.7314  135.3139  154.8844 H   0  0  0  0  0  0  0  0  0  0  0  0  # atno 10765 bound_to 10752
  140.0378  134.5918  155.9422 H   0  0  0  0  0  0  0  0  0  0  0  0  # atno 11005 bound_to 11000
  146.0266  140.8297  142.9896 LP  0  0  0  0  0  0  0  0  0  0  0  0  # atno 17320 bound_to 7965
  144.6831  140.2707  143.7306 LP  0  0  0  0  0  0  0  0  0  0  0  0  # atno 17321 bound_to 7965
  139.9360  144.6711  150.8314 LP  0  0  0  0  0  0  0  0  0  0  0  0  # atno 17342 bound_to 10162
  140.7654  143.3276  151.2481 LP  0  0  0  0  0  0  0  0  0  0  0  0  # atno 17343 bound_to 10162
  156.5582  130.8372  151.3320 LP  0  0  0  0  0  0  0  0  0  0  0  0  # atno 17370 bound_to 10713
  157.7356  130.9765  150.2091 LP  0  0  0  0  0  0  0  0  0  0  0  0  # atno 17371 bound_to 10713
  141.1866  133.6558  156.5248 LP  0  0  0  0  0  0  0  0  0  0  0  0  # atno 17394 bound_to 11000
  140.4119  134.7264  157.4841 LP  0  0  0  0  0  0  0  0  0  0  0  0  # atno 17395 bound_to 11000

$$$$
