AV-unprocessed.smi:2969|AV-procd|sdf|11329|dock8
  -GOLD-   2272016233D 1   1.00000     0.00000
 Structure written by MMmdl.
 40 40  0  0  0  0  0  0  0  0  1 V2000
  144.3413  143.6385  154.7628 C   0  0  0  0  0  0  0  0  0  0  0  0
  145.7923  143.1478  154.6773 C   0  0  0  0  0  0  0  0  0  0  0  0
  146.0932  141.8915  155.5196 C   0  0  0  0  0  0  0  0  0  0  0  0
  147.4519  141.3981  155.3800 N   0  0  0  0  0  0  0  0  0  0  0  0
  148.3503  141.3271  156.4489 C   0  0  0  0  0  0  0  0  0  0  0  0
  147.9137  141.7641  157.6914 N   0  0  0  0  0  0  0  0  0  0  0  0
  149.6290  140.8717  156.2867 C   0  0  0  0  0  0  0  0  0  0  0  0
  150.5163  140.7621  157.3739 N   0  0  0  0  0  0  0  0  0  0  0  0
  151.4542  141.8794  157.5795 C   0  0  0  0  0  0  0  0  0  0  0  0
  150.7374  143.1659  158.0203 C   0  0  0  0  0  0  0  0  0  0  0  0
  151.5960  144.2737  157.8073 O   0  0  0  0  0  0  0  0  0  0  0  0
  152.7630  144.2212  158.6076 C   0  0  0  0  0  0  0  0  0  0  0  0
  150.5470  139.6742  158.1915 C   0  0  0  0  0  0  0  0  0  0  0  0
  151.2513  139.6481  159.2031 O   0  0  0  0  0  0  0  0  0  0  0  0
  149.7325  138.4088  157.8459 C   0  0  0  0  0  0  0  0  0  0  0  0
  150.0921  137.9306  156.6541 F   0  0  0  0  0  0  0  0  0  0  0  0
  149.9632  137.4660  158.7608 F   0  0  0  0  0  0  0  0  0  0  0  0
  148.4298  138.6861  157.8494 F   0  0  0  0  0  0  0  0  0  0  0  0
  150.0881  140.3947  154.9746 C   0  0  0  0  0  0  0  0  0  0  0  0
  151.1977  139.9236  154.7285 O   0  0  0  0  0  0  0  0  0  0  0  0
  149.1507  140.5007  153.9510 N   0  0  0  0  0  0  0  0  0  0  0  0
  147.8568  140.9902  154.0851 C   0  0  0  0  0  0  0  0  0  0  0  0
  147.1322  141.0489  153.0912 O   0  0  0  0  0  0  0  0  0  0  0  0
  149.4353  140.1964  153.0314 H   0  0  0  0  0  0  0  0  0  0  0  0
  144.2130  144.5642  154.2019 H   0  0  0  0  0  0  0  0  0  0  0  0
  144.0517  143.8327  155.7959 H   0  0  0  0  0  0  0  0  0  0  0  0
  143.6477  142.9062  154.3492 H   0  0  0  0  0  0  0  0  0  0  0  0
  146.0463  142.9647  153.6331 H   0  0  0  0  0  0  0  0  0  0  0  0
  146.4511  143.9510  155.0079 H   0  0  0  0  0  0  0  0  0  0  0  0
  145.9588  142.0966  156.5818 H   0  0  0  0  0  0  0  0  0  0  0  0
  145.3933  141.0833  155.3042 H   0  0  0  0  0  0  0  0  0  0  0  0
  146.9806  142.1238  157.8329 H   0  0  0  0  0  0  0  0  0  0  0  0
  148.5014  141.7080  158.5109 H   0  0  0  0  0  0  0  0  0  0  0  0
  152.2028  141.6039  158.3243 H   0  0  0  0  0  0  0  0  0  0  0  0
  152.0195  142.0819  156.6689 H   0  0  0  0  0  0  0  0  0  0  0  0
  149.7982  143.2924  157.4797 H   0  0  0  0  0  0  0  0  0  0  0  0
  150.4940  143.1027  159.0818 H   0  0  0  0  0  0  0  0  0  0  0  0
  153.3872  145.0904  158.4013 H   0  0  0  0  0  0  0  0  0  0  0  0
  153.3486  143.3262  158.3938 H   0  0  0  0  0  0  0  0  0  0  0  0
  152.5127  144.2322  159.6692 H   0  0  0  0  0  0  0  0  0  0  0  0
  1  2  1  0  0  0  0
  1 25  1  0  0  0  0
  1 26  1  0  0  0  0
  1 27  1  0  0  0  0
  2  3  1  0  0  0  0
  2 28  1  0  0  0  0
  2 29  1  0  0  0  0
  3  4  1  0  0  0  0
  3 30  1  0  0  0  0
  3 31  1  0  0  0  0
  4 22  1  0  0  0  0
  4  5  1  0  0  0  0
  5  6  1  0  0  0  0
  5  7  2  0  0  0  0
  6 32  1  0  0  0  0
  6 33  1  0  0  0  0
  7  8  1  0  0  0  0
  7 19  1  0  0  0  0
  8  9  1  0  0  0  0
  8 13  1  0  0  0  0
  9 10  1  0  0  0  0
  9 34  1  0  0  0  0
  9 35  1  0  0  0  0
 10 11  1  0  0  0  0
 10 36  1  0  0  0  0
 10 37  1  0  0  0  0
 11 12  1  0  0  0  0
 12 38  1  0  0  0  0
 12 39  1  0  0  0  0
 12 40  1  0  0  0  0
 13 14  2  0  0  0  0
 13 15  1  0  0  0  0
 15 16  1  0  0  0  0
 15 17  1  0  0  0  0
 15 18  1  0  0  0  0
 19 20  2  0  0  0  0
 19 21  1  0  0  0  0
 21 24  1  0  0  0  0
 21 22  1  0  0  0  0
 22 23  2  0  0  0  0
M  END
> <s_m_source_file>
AV-unprocessed.smi

> <i_m_source_file_index>
2969

> <i_lp_mmshare_version>
43012

> <i_f3d_flags>
0

> <s_epik_input>
W0NIM11bQ0gyXVtDSDJdbjFjKFtOSDJdKWMoYyg9TylbbkhdYzE9TylOKEMoPU8pQyhGKShGKUYpW0NIMl1bQ0gyXU9bQ0gzXQ==

> <s_epik_cmdline>
J2VwaWtfcHl0aG9uJywgJy1waCcsICc3LjAnLCAnLXRuJywgJzgnLCAnLW1hJywgJzIwMCcsICctbWV0YWxfYmluZGluZycsICctaW1hZScsICc8aW5maWxlLm1hZT4nLCAnLW9tYWUnLCAnPG91dGZpbGUubWFlPic=

> <r_lp_tautomer_probability>
1

> <r_epik_Ionization_Penalty>
0.000513649

> <r_epik_Ionization_Penalty_Charging>
0.000443136

> <r_epik_Ionization_Penalty_Neutral>
7.05129e-05

> <r_epik_State_Penalty>
-0

> <r_epik_Charging_Adjusted_Penalty>
0.000443136

> <i_epik_Tot_Q>
0

> <i_epik_Tot_abs_Q>
0

> <r_epik_Metal_State_Penalty>
0.330936

> <b_epik_Metal_Only>
0

> <s_epik_Chemistry_Notes>
This compound has an imine and may undergo hydrolysis.

> <s_lp_Force_Field>
OPLS_2005

> <r_lp_Energy>
31.7287

> <b_lp_Chiralities_Consistent>
1

> <s_lp_Variant>
AV-unprocessed.smi:2969-1

> <Gold.Version>
5.8.1

> <Gold.Id.Protein>
6NUR|6NUR_protein|mol2

> <Gold.PLP.Fitness>
38.1846

> <Gold.PLP.PLP>
-33.2824

> <Gold.PLP.part.hbond>
-2.0943

> <Gold.PLP.part.metal>
0.0000

> <Gold.PLP.part.buried>
-6.3665

> <Gold.PLP.part.nonpolar>
-25.8918

> <Gold.PLP.part.repulsive>
0.6637

> <Gold.PLP.ligand.clash>
2.8283

> <Gold.PLP.ligand.torsion>
1.6694

> <Gold.PLP.Chemscore.Hbond>
2.0000

> <Gold.PLP.Chemscore.CHOScore>
0.0000

> <Gold.PLP.Chemscore.Metal>
0.0000

> <Gold.Chemscore.Hbonds>
donor molecule, donor type, donor heavy atom, donor atom, acceptor molecule, acceptor atom, score
      L1  H    21    24       P1  7957  1.00
      P1  H  7989  7998       L1    20  1.00

> <Gold.PLP.Chemscore.Internal.Correction>
5.0693

> <Gold.Rescore>
     Score         DG    S(hbond)    S(metal)    S(lipo)     H(rot)  DE(clash)    DE(int)     intcor
      6.25     -11.63       1.86        0.00      48.95       2.27       0.01       5.37       ----

> <Gold.Chemscore.Fitness>
6.2532

> <Gold.Chemscore.DG>
-11.6336

> <Gold.Chemscore.ZeroCoef>
-5.4800

> <Gold.Chemscore.Hbond>
1.8644

> <Gold.Chemscore.Metal>
0.0000

> <Gold.Chemscore.Lipo>
48.9483

> <Gold.Chemscore.Internal_Hbond>
0.0000

> <Gold.Chemscore.DEClash>
0.0126

> <Gold.Chemscore.DEInternal>
5.3677

> <Gold.Chemscore.Rot>
2.2658

> <Gold.Chemscore.Internal.Correction>
   9.000000E+99

> <Gold.Chemscore.Hbonds>
donor molecule, donor type, donor heavy atom, donor atom, acceptor molecule, acceptor atom, score
      L1  H    21    24       P1  7957  1.00
      P1  H  7989  7998       L1    20  0.25

> <Gold.Chemscore.Hbond.Weighted>
-6.2271

> <Gold.Chemscore.Metal.Weighted>
-0.0000

> <Gold.Chemscore.Lipo.Weighted>
-5.7270

> <Gold.Chemscore.Internal_Hbond.Weighted>
0.0000

> <Gold.Chemscore.DEClash.Weighted>
0.0126

> <Gold.Chemscore.DEInternal.Weighted>
5.3677

> <Gold.Chemscore.Rot.Weighted>
5.8005

> <Gold.Chemscore.Internal.Correction.Weighted>
   9.000000E+99

> <Gold.Protein.RotatedTorsions>
[ 6907 6896 6895 6894 ] final  -69.89 input  -60.11 | X-H torsion
[ 7974 7965 7964 7962 ] final  163.34 input  175.53 | X-H torsion
[ 8008 7997 7996 7995 ] final  -44.20 input   59.86 | X-H torsion
[ 10167 10162 10161 10158 ] final   -6.31 input  -65.29 | X-H torsion
[ 10718 10713 10712 10709 ] final  -48.77 input   66.30 | X-H torsion
[ 10763 10752 10751 10750 ] final  -13.83 input  -60.55 | X-H torsion
[ 11005 11000 10999 10996 ] final  127.60 input  -57.11 | X-H torsion

> <Gold.Protein.ActiveResidues>
 VAL166  LYS551  ARG553  GLY616  TRP617  ASP618  TYR619  PRO620  LYS621  CYS622 
 ASP623  PHE694  ASN695  SER759  ASP760  ASP761  ALA762  ILE779  LEU786  VAL792 
 PHE793  MET794  SER795  GLU796  ALA797  LYS798  CYS799  TRP800  GLU811  SER814 

> <Gold.Protein.RotatedAtoms>
  150.7284  134.5532  159.5804 H   0  0  0  0  0  0  0  0  0  0  0  0  # atno 6907 bound_to 6896
  152.3014  134.7603  160.0366 H   0  0  0  0  0  0  0  0  0  0  0  0  # atno 6908 bound_to 6896
  151.8183  133.3355  159.3613 H   0  0  0  0  0  0  0  0  0  0  0  0  # atno 6909 bound_to 6896
  144.7594  139.8168  143.6338 H   0  0  0  0  0  0  0  0  0  0  0  0  # atno 7974 bound_to 7965
  154.3997  140.1428  156.3644 H   0  0  0  0  0  0  0  0  0  0  0  0  # atno 8008 bound_to 7997
  155.8151  140.3471  155.5460 H   0  0  0  0  0  0  0  0  0  0  0  0  # atno 8009 bound_to 7997
  155.8346  140.0917  157.1762 H   0  0  0  0  0  0  0  0  0  0  0  0  # atno 8010 bound_to 7997
  140.6993  143.6208  150.8614 H   0  0  0  0  0  0  0  0  0  0  0  0  # atno 10167 bound_to 10162
  156.1956  130.4154  149.9311 H   0  0  0  0  0  0  0  0  0  0  0  0  # atno 10718 bound_to 10713
  153.5191  135.7016  153.5740 H   0  0  0  0  0  0  0  0  0  0  0  0  # atno 10763 bound_to 10752
  153.3797  135.3923  155.1848 H   0  0  0  0  0  0  0  0  0  0  0  0  # atno 10764 bound_to 10752
  154.8696  135.3832  154.4679 H   0  0  0  0  0  0  0  0  0  0  0  0  # atno 10765 bound_to 10752
  139.9516  134.9621  156.8879 H   0  0  0  0  0  0  0  0  0  0  0  0  # atno 11005 bound_to 11000
  146.1642  139.4767  142.9969 LP  0  0  0  0  0  0  0  0  0  0  0  0  # atno 17320 bound_to 7965
  145.6668  141.0226  143.1679 LP  0  0  0  0  0  0  0  0  0  0  0  0  # atno 17321 bound_to 7965
  139.9929  143.5827  152.2904 LP  0  0  0  0  0  0  0  0  0  0  0  0  # atno 17342 bound_to 10162
  139.6489  144.7660  151.2188 LP  0  0  0  0  0  0  0  0  0  0  0  0  # atno 17343 bound_to 10162
  156.7037  130.8943  151.3602 LP  0  0  0  0  0  0  0  0  0  0  0  0  # atno 17370 bound_to 10713
  157.6955  130.9278  150.0634 LP  0  0  0  0  0  0  0  0  0  0  0  0  # atno 17371 bound_to 10713
  140.5705  134.0447  155.7429 LP  0  0  0  0  0  0  0  0  0  0  0  0  # atno 17394 bound_to 11000
  141.1180  133.9508  157.2785 LP  0  0  0  0  0  0  0  0  0  0  0  0  # atno 17395 bound_to 11000

$$$$
