AV-unprocessed.smi:3|AV-procd|sdf|32|dock1
  -GOLD-   2262015143D 1   1.00000     0.00000
 Structure written by MMmdl.
 33 35  0  0  0  0  0  0  0  0  1 V2000
  149.5250  141.0482  156.4449 C   0  0  0  0  0  0  0  0  0  0  0  0
  150.6627  141.1309  157.3493 N   0  0  0  0  0  0  0  0  0  0  0  0
  151.8902  140.4155  157.0110 C   0  0  0  0  0  0  0  0  0  0  0  0
  151.6164  139.1734  156.1654 C   0  0  1  0  0  0  0  0  0  0  0  0
  151.2346  139.3218  154.6847 C   0  0  0  0  0  0  0  0  0  0  0  0
  152.0994  138.1012  154.3582 C   0  0  2  0  0  0  0  0  0  0  0  0
  151.4297  136.8748  154.1612 O   0  0  0  0  0  0  0  0  0  0  0  0
  152.7955  138.3039  155.7078 C   0  0  0  0  0  0  0  0  0  0  0  0
  150.7519  142.1820  158.2861 C   0  0  0  0  0  0  0  0  0  0  0  0
  149.7332  143.0783  158.3058 N   0  0  0  0  0  0  0  0  0  0  0  0
  149.8003  144.0954  159.2010 C   0  0  0  0  0  0  0  0  0  0  0  0
  150.7737  144.3412  160.1109 N   0  0  0  0  0  0  0  0  0  0  0  0
  151.8048  143.4458  160.1186 C   0  0  0  0  0  0  0  0  0  0  0  0
  152.8684  143.4398  160.9154 N   0  0  0  0  0  0  0  0  0  0  0  0
  153.5893  142.3600  160.5721 C   0  0  0  0  0  0  0  0  0  0  0  0
  152.9959  141.5934  159.4979 C   0  0  0  0  0  0  0  0  0  0  0  0
  151.8192  142.3551  159.2137 C   0  0  0  0  0  0  0  0  0  0  0  0
  150.8875  138.5212  156.6503 H   0  0  0  0  0  0  0  0  0  0  0  0
  152.7714  138.2810  153.5185 H   0  0  0  0  0  0  0  0  0  0  0  0
  148.6213  141.4486  156.9051 H   0  0  0  0  0  0  0  0  0  0  0  0
  149.3284  140.0073  156.1868 H   0  0  0  0  0  0  0  0  0  0  0  0
  149.7249  141.5895  155.5204 H   0  0  0  0  0  0  0  0  0  0  0  0
  152.5967  141.0749  156.5063 H   0  0  0  0  0  0  0  0  0  0  0  0
  152.3798  140.1256  157.9410 H   0  0  0  0  0  0  0  0  0  0  0  0
  150.1692  139.1988  154.4868 H   0  0  0  0  0  0  0  0  0  0  0  0
  151.6186  140.2386  154.2345 H   0  0  0  0  0  0  0  0  0  0  0  0
  151.1948  136.8317  153.2469 H   0  0  0  0  0  0  0  0  0  0  0  0
  153.7277  138.8634  155.6161 H   0  0  0  0  0  0  0  0  0  0  0  0
  152.9333  137.3946  156.2938 H   0  0  0  0  0  0  0  0  0  0  0  0
  148.9759  144.7928  159.1877 H   0  0  0  0  0  0  0  0  0  0  0  0
  154.5148  142.1191  161.0803 H   0  0  0  0  0  0  0  0  0  0  0  0
  153.3618  140.6817  159.0451 H   0  0  0  0  0  0  0  0  0  0  0  0
  150.6917  145.1398  160.7237 H   0  0  0  0  0  0  0  0  0  0  0  0
  1  2  1  0  0  0  0
  1 20  1  0  0  0  0
  1 21  1  0  0  0  0
  1 22  1  0  0  0  0
  2  3  1  0  0  0  0
  2  9  1  0  0  0  0
  3  4  1  0  0  0  0
  3 23  1  0  0  0  0
  3 24  1  0  0  0  0
  4 18  1  0  0  0  0
  4  8  1  0  0  0  0
  4  5  1  0  0  0  0
  5  6  1  0  0  0  0
  5 25  1  0  0  0  0
  5 26  1  0  0  0  0
  6 19  1  0  0  0  0
  6  7  1  0  0  0  0
  6  8  1  0  0  0  0
  7 27  1  0  0  0  0
  8 28  1  0  0  0  0
  8 29  1  0  0  0  0
  9 17  2  0  0  0  0
  9 10  1  0  0  0  0
 10 11  2  0  0  0  0
 11 12  1  0  0  0  0
 11 30  1  0  0  0  0
 12 13  1  0  0  0  0
 12 33  1  0  0  0  0
 13 17  1  0  0  0  0
 13 14  2  0  0  0  0
 14 15  1  0  0  0  0
 15 16  2  0  0  0  0
 15 31  1  0  0  0  0
 16 17  1  0  0  0  0
 16 32  1  0  0  0  0
M  END
> <s_m_source_file>
AV-unprocessed.smi

> <i_m_source_file_index>
3

> <i_lp_mmshare_version>
43012

> <i_f3d_flags>
0

> <s_epik_input>
W25IXTFbY0hdW2NIXWMoYzEyKWMobltjSF1uMilOKFtDSDNdKVtDSDJdW0NASF0zW0NIMl1bQ0BASF0oW09IXSlbQ0gyXTM=

> <s_epik_cmdline>
J2VwaWtfcHl0aG9uJywgJy1waCcsICc3LjAnLCAnLXRuJywgJzgnLCAnLW1hJywgJzIwMCcsICctbWV0YWxfYmluZGluZycsICctaW1hZScsICc8aW5maWxlLm1hZT4nLCAnLW9tYWUnLCAnPG91dGZpbGUubWFlPic=

> <r_lp_tautomer_probability>
1.75997e-05

> <r_epik_Ionization_Penalty>
5.52529

> <r_epik_Ionization_Penalty_Charging>
0

> <r_epik_Ionization_Penalty_Neutral>
5.52529

> <r_epik_State_Penalty>
8.99615

> <r_epik_Charging_Adjusted_Penalty>
8.99615

> <i_epik_Tot_Q>
0

> <i_epik_Tot_abs_Q>
0

> <r_epik_Metal_State_Penalty>
6.01519

> <b_epik_Metal_Only>
1

> <s_lp_Force_Field>
OPLS_2005

> <r_lp_Energy>
26.4435

> <b_lp_Chiralities_Consistent>
1

> <s_lp_Variant>
AV-unprocessed.smi:3-6

> <Gold.Version>
5.8.1

> <Gold.Id.Protein>
6NUR|6NUR_protein|mol2

> <Gold.PLP.Fitness>
41.9293

> <Gold.PLP.PLP>
-33.2505

> <Gold.PLP.part.hbond>
-2.0000

> <Gold.PLP.part.metal>
0.0000

> <Gold.PLP.part.buried>
-3.3477

> <Gold.PLP.part.nonpolar>
-27.8989

> <Gold.PLP.part.repulsive>
0.3611

> <Gold.PLP.ligand.clash>
1.1392

> <Gold.PLP.ligand.torsion>
0.3550

> <Gold.PLP.Chemscore.Hbond>
2.0000

> <Gold.PLP.Chemscore.CHOScore>
0.9986

> <Gold.PLP.Chemscore.Metal>
0.0000

> <Gold.Chemscore.Hbonds>
donor molecule, donor type, donor heavy atom, donor atom, acceptor molecule, acceptor atom, score
      L1  H     7    27       P1  7949  1.00
      P1  H 10752 10764       L1     7  1.00
      L1  C    11    30       P1  8029  1.00

> <Gold.PLP.Chemscore.Internal.Correction>
1.5322

> <Gold.Rescore>
     Score         DG    S(hbond)    S(metal)    S(lipo)     H(rot)  DE(clash)    DE(int)     intcor
     10.76     -14.88       1.60        0.00      74.88       1.84       1.87       2.25       ----

> <Gold.Chemscore.Fitness>
10.7570

> <Gold.Chemscore.DG>
-14.8850

> <Gold.Chemscore.ZeroCoef>
-5.4800

> <Gold.Chemscore.Hbond>
1.6027

> <Gold.Chemscore.Metal>
0.0000

> <Gold.Chemscore.Lipo>
74.8827

> <Gold.Chemscore.Internal_Hbond>
0.0000

> <Gold.Chemscore.DEClash>
1.8732

> <Gold.Chemscore.DEInternal>
2.2547

> <Gold.Chemscore.Rot>
1.8396

> <Gold.Chemscore.Internal.Correction>
   9.000000E+99

> <Gold.Chemscore.Hbonds>
donor molecule, donor type, donor heavy atom, donor atom, acceptor molecule, acceptor atom, score
      L1  H     7    27       P1  7949  0.53
      P1  H 10752 10764       L1     7  0.10

> <Gold.Chemscore.Hbond.Weighted>
-5.3531

> <Gold.Chemscore.Metal.Weighted>
-0.0000

> <Gold.Chemscore.Lipo.Weighted>
-8.7613

> <Gold.Chemscore.Internal_Hbond.Weighted>
0.0000

> <Gold.Chemscore.DEClash.Weighted>
1.8732

> <Gold.Chemscore.DEInternal.Weighted>
2.2547

> <Gold.Chemscore.Rot.Weighted>
4.7095

> <Gold.Chemscore.Internal.Correction.Weighted>
   9.000000E+99

> <Gold.Protein.RotatedTorsions>
[ 6907 6896 6895 6894 ] final -163.11 input  -60.11 | X-H torsion
[ 7974 7965 7964 7962 ] final   68.24 input  175.53 | X-H torsion
[ 8008 7997 7996 7995 ] final    5.90 input   59.86 | X-H torsion
[ 10167 10162 10161 10158 ] final  -27.95 input  -65.29 | X-H torsion
[ 10718 10713 10712 10709 ] final   23.95 input   66.30 | X-H torsion
[ 10763 10752 10751 10750 ] final  -77.20 input  -60.55 | X-H torsion
[ 11005 11000 10999 10996 ] final  -36.41 input  -57.11 | X-H torsion

> <Gold.Protein.ActiveResidues>
 VAL166  LYS551  ARG553  GLY616  TRP617  ASP618  TYR619  PRO620  LYS621  CYS622 
 ASP623  PHE694  ASN695  SER759  ASP760  ASP761  ALA762  ILE779  LEU786  VAL792 
 PHE793  MET794  SER795  GLU796  ALA797  LYS798  CYS799  TRP800  GLU811  SER814 

> <Gold.Protein.RotatedAtoms>
  151.3908  133.3789  159.2720 H   0  0  0  0  0  0  0  0  0  0  0  0  # atno 6907 bound_to 6896
  150.9506  134.8907  159.7680 H   0  0  0  0  0  0  0  0  0  0  0  0  # atno 6908 bound_to 6896
  152.5110  134.3863  159.9421 H   0  0  0  0  0  0  0  0  0  0  0  0  # atno 6909 bound_to 6896
  145.8049  139.3002  143.1133 H   0  0  0  0  0  0  0  0  0  0  0  0  # atno 7974 bound_to 7965
  154.7342  140.2736  155.6429 H   0  0  0  0  0  0  0  0  0  0  0  0  # atno 8008 bound_to 7997
  156.2857  140.2709  156.1977 H   0  0  0  0  0  0  0  0  0  0  0  0  # atno 8009 bound_to 7997
  155.0342  140.0371  157.2475 H   0  0  0  0  0  0  0  0  0  0  0  0  # atno 8010 bound_to 7997
  140.7273  143.4051  151.1199 H   0  0  0  0  0  0  0  0  0  0  0  0  # atno 10167 bound_to 10162
  157.1731  130.6768  149.6085 H   0  0  0  0  0  0  0  0  0  0  0  0  # atno 10718 bound_to 10713
  154.5099  135.5772  153.6596 H   0  0  0  0  0  0  0  0  0  0  0  0  # atno 10763 bound_to 10752
  152.9895  135.6156  154.2893 H   0  0  0  0  0  0  0  0  0  0  0  0  # atno 10764 bound_to 10752
  154.2807  135.2851  155.2678 H   0  0  0  0  0  0  0  0  0  0  0  0  # atno 10765 bound_to 10752
  140.9872  133.7024  156.1786 H   0  0  0  0  0  0  0  0  0  0  0  0  # atno 11005 bound_to 11000
  145.9838  140.8660  143.0101 LP  0  0  0  0  0  0  0  0  0  0  0  0  # atno 17320 bound_to 7965
  144.6764  140.2118  143.7376 LP  0  0  0  0  0  0  0  0  0  0  0  0  # atno 17321 bound_to 7965
  139.7676  143.8542  152.3114 LP  0  0  0  0  0  0  0  0  0  0  0  0  # atno 17342 bound_to 10162
  139.8449  144.7192  150.9285 LP  0  0  0  0  0  0  0  0  0  0  0  0  # atno 17343 bound_to 10162
  155.9735  130.4672  150.6317 LP  0  0  0  0  0  0  0  0  0  0  0  0  # atno 17370 bound_to 10713
  157.4024  131.0812  151.1296 LP  0  0  0  0  0  0  0  0  0  0  0  0  # atno 17371 bound_to 10713
  140.7096  134.4476  157.5582 LP  0  0  0  0  0  0  0  0  0  0  0  0  # atno 17394 bound_to 11000
  139.8976  134.8633  156.2038 LP  0  0  0  0  0  0  0  0  0  0  0  0  # atno 17395 bound_to 11000

$$$$
