AV-unprocessed.smi:1442|AV-procd|sdf|5876|dock5
  -GOLD-   22720 5553D 1   1.00000     0.00000
 Structure written by MMmdl.
 44 45  0  0  0  0  0  0  0  0  1 V2000
  151.9543  145.1849  159.7286 C   0  0  0  0  0  0  0  0  0  0  0  0
  152.0057  143.9084  159.0322 N   0  0  0  0  0  0  0  0  0  0  0  0
  152.3642  142.7498  159.6040 C   0  0  0  0  0  0  0  0  0  0  0  0
  152.6863  142.6557  160.7889 O   0  0  0  0  0  0  0  0  0  0  0  0
  152.3569  141.5086  158.7016 C   0  0  0  0  0  0  0  0  0  0  0  0
  150.9381  141.2282  158.1514 C   0  0  0  0  0  0  0  0  0  0  0  0
  150.9026  139.9088  157.3593 C   0  0  0  0  0  0  0  0  0  0  0  0
  151.3657  138.8203  158.2370 N   0  0  0  0  0  0  0  0  0  0  0  0
  150.5850  137.8866  158.8379 C   0  0  0  0  0  0  0  0  0  0  0  0
  150.9803  137.1651  159.7548 O   0  0  0  0  0  0  0  0  0  0  0  0
  149.3390  137.7924  158.3433 N   0  0  0  0  0  0  0  0  0  0  0  0
  148.3049  136.8875  158.8299 C   0  0  0  0  0  0  0  0  0  0  0  0
  148.0222  137.1075  160.3250 C   0  0  0  0  0  0  0  0  0  0  0  0
  147.2879  135.9419  160.9255 C   0  0  0  0  0  0  0  0  0  0  0  0
  146.7634  135.8256  162.2445 C   0  0  0  0  0  0  0  0  0  0  0  0
  146.1710  134.6627  162.4621 N   0  0  0  0  0  0  0  0  0  0  0  0
  146.2924  134.0003  161.2934 N   0  0  0  0  0  0  0  0  0  0  0  0
  145.7456  132.6660  161.1691 C   0  0  0  0  0  0  0  0  0  0  0  0
  146.9620  134.7471  160.3482 C   0  0  0  0  0  0  0  0  0  0  0  0
  152.7774  138.9990  158.5974 C   0  0  0  0  0  0  0  0  0  0  0  0
  152.9129  140.2738  159.4503 C   0  0  0  0  0  0  0  0  0  0  0  0
  151.6614  145.9744  159.0365 H   0  0  0  0  0  0  0  0  0  0  0  0
  152.9294  145.4408  160.1448 H   0  0  0  0  0  0  0  0  0  0  0  0
  151.2256  145.1550  160.5399 H   0  0  0  0  0  0  0  0  0  0  0  0
  151.7545  143.9044  158.0541 H   0  0  0  0  0  0  0  0  0  0  0  0
  153.0102  141.6984  157.8479 H   0  0  0  0  0  0  0  0  0  0  0  0
  150.2156  141.1725  158.9675 H   0  0  0  0  0  0  0  0  0  0  0  0
  150.6169  142.0500  157.5101 H   0  0  0  0  0  0  0  0  0  0  0  0
  149.9065  139.7518  156.9458 H   0  0  0  0  0  0  0  0  0  0  0  0
  151.5639  139.9775  156.4942 H   0  0  0  0  0  0  0  0  0  0  0  0
  149.0860  138.4063  157.5829 H   0  0  0  0  0  0  0  0  0  0  0  0
  147.3993  137.0688  158.2501 H   0  0  0  0  0  0  0  0  0  0  0  0
  148.5940  135.8521  158.6398 H   0  0  0  0  0  0  0  0  0  0  0  0
  148.9613  137.2719  160.8545 H   0  0  0  0  0  0  0  0  0  0  0  0
  147.4480  138.0265  160.4502 H   0  0  0  0  0  0  0  0  0  0  0  0
  146.7991  136.5483  163.0464 H   0  0  0  0  0  0  0  0  0  0  0  0
  145.7778  132.3447  160.1278 H   0  0  0  0  0  0  0  0  0  0  0  0
  144.7099  132.6554  161.5106 H   0  0  0  0  0  0  0  0  0  0  0  0
  146.3298  131.9718  161.7737 H   0  0  0  0  0  0  0  0  0  0  0  0
  147.1501  134.3714  159.3530 H   0  0  0  0  0  0  0  0  0  0  0  0
  153.1860  138.1437  159.1374 H   0  0  0  0  0  0  0  0  0  0  0  0
  153.3767  139.0874  157.6901 H   0  0  0  0  0  0  0  0  0  0  0  0
  153.9608  140.4329  159.7080 H   0  0  0  0  0  0  0  0  0  0  0  0
  152.3822  140.1297  160.3932 H   0  0  0  0  0  0  0  0  0  0  0  0
  1  2  1  0  0  0  0
  1 22  1  0  0  0  0
  1 23  1  0  0  0  0
  1 24  1  0  0  0  0
  2  3  1  0  0  0  0
  2 25  1  0  0  0  0
  3  4  2  0  0  0  0
  3  5  1  0  0  0  0
  5 21  1  0  0  0  0
  5  6  1  0  0  0  0
  5 26  1  0  0  0  0
  6  7  1  0  0  0  0
  6 27  1  0  0  0  0
  6 28  1  0  0  0  0
  7  8  1  0  0  0  0
  7 29  1  0  0  0  0
  7 30  1  0  0  0  0
  8  9  1  0  0  0  0
  8 20  1  0  0  0  0
  9 10  2  0  0  0  0
  9 11  1  0  0  0  0
 11 12  1  0  0  0  0
 11 31  1  0  0  0  0
 12 13  1  0  0  0  0
 12 32  1  0  0  0  0
 12 33  1  0  0  0  0
 13 14  1  0  0  0  0
 13 34  1  0  0  0  0
 13 35  1  0  0  0  0
 14 19  2  0  0  0  0
 14 15  1  0  0  0  0
 15 16  2  0  0  0  0
 15 36  1  0  0  0  0
 16 17  1  0  0  0  0
 17 18  1  0  0  0  0
 17 19  1  0  0  0  0
 18 37  1  0  0  0  0
 18 38  1  0  0  0  0
 18 39  1  0  0  0  0
 19 40  1  0  0  0  0
 20 21  1  0  0  0  0
 20 41  1  0  0  0  0
 20 42  1  0  0  0  0
 21 43  1  0  0  0  0
 21 44  1  0  0  0  0
M  END
> <s_m_source_file>
AV-unprocessed.smi

> <i_m_source_file_index>
1442

> <i_lp_mmshare_version>
43012

> <i_f3d_flags>
0

> <s_epik_input>
W0NIM11bTkhdQyg9TylbQ0hdMVtDSDJdW0NIMl1OKFtDSDJdW0NIMl0xKUMoPU8pW05IXVtDSDJdW0NIMl1jMltjSF1ubihbQ0gzXSlbY0hdMg==

> <s_epik_cmdline>
J2VwaWtfcHl0aG9uJywgJy1waCcsICc3LjAnLCAnLXRuJywgJzgnLCAnLW1hJywgJzIwMCcsICctbWV0YWxfYmluZGluZycsICctaW1hZScsICc8aW5maWxlLm1hZT4nLCAnLW9tYWUnLCAnPG91dGZpbGUubWFlPic=

> <r_lp_tautomer_probability>
1

> <r_epik_Ionization_Penalty>
0.000562975

> <r_epik_Ionization_Penalty_Charging>
0

> <r_epik_Ionization_Penalty_Neutral>
0.000562975

> <r_epik_State_Penalty>
-0

> <r_epik_Charging_Adjusted_Penalty>
0

> <i_epik_Tot_Q>
0

> <i_epik_Tot_abs_Q>
0

> <r_epik_Metal_State_Penalty>
-0

> <b_epik_Metal_Only>
0

> <s_lp_Force_Field>
OPLS_2005

> <r_lp_Energy>
25.7174

> <b_lp_Chiralities_Consistent>
1

> <s_lp_Variant>
AV-unprocessed.smi:1442-1

> <Gold.Version>
5.8.1

> <Gold.Id.Protein>
6NUR|6NUR_protein|mol2

> <Gold.PLP.Fitness>
42.0213

> <Gold.PLP.PLP>
-39.3171

> <Gold.PLP.part.hbond>
-1.2707

> <Gold.PLP.part.metal>
0.0000

> <Gold.PLP.part.buried>
-5.0850

> <Gold.PLP.part.nonpolar>
-32.8019

> <Gold.PLP.part.repulsive>
0.2121

> <Gold.PLP.ligand.clash>
0.0000

> <Gold.PLP.ligand.torsion>
0.1838

> <Gold.PLP.Chemscore.Hbond>
1.0000

> <Gold.PLP.Chemscore.CHOScore>
0.0000

> <Gold.PLP.Chemscore.Metal>
0.0000

> <Gold.Chemscore.Hbonds>
donor molecule, donor type, donor heavy atom, donor atom, acceptor molecule, acceptor atom, score
      P1  H  6896  6908       L1    10  0.96

> <Gold.PLP.Chemscore.Internal.Correction>
0.0718

> <Gold.Rescore>
     Score         DG    S(hbond)    S(metal)    S(lipo)     H(rot)  DE(clash)    DE(int)     intcor
     13.39     -14.04       0.99        0.00      83.48       1.77       0.44       0.21       ----

> <Gold.Chemscore.Fitness>
13.3850

> <Gold.Chemscore.DG>
-14.0385

> <Gold.Chemscore.ZeroCoef>
-5.4800

> <Gold.Chemscore.Hbond>
0.9917

> <Gold.Chemscore.Metal>
0.0000

> <Gold.Chemscore.Lipo>
83.4814

> <Gold.Chemscore.Internal_Hbond>
0.0000

> <Gold.Chemscore.DEClash>
0.4435

> <Gold.Chemscore.DEInternal>
0.2100

> <Gold.Chemscore.Rot>
1.7661

> <Gold.Chemscore.Internal.Correction>
   9.000000E+99

> <Gold.Chemscore.Hbonds>
donor molecule, donor type, donor heavy atom, donor atom, acceptor molecule, acceptor atom, score
      P1  H  6896  6908       L1    10  0.90

> <Gold.Chemscore.Hbond.Weighted>
-3.3123

> <Gold.Chemscore.Metal.Weighted>
-0.0000

> <Gold.Chemscore.Lipo.Weighted>
-9.7673

> <Gold.Chemscore.Internal_Hbond.Weighted>
0.0000

> <Gold.Chemscore.DEClash.Weighted>
0.4435

> <Gold.Chemscore.DEInternal.Weighted>
0.2100

> <Gold.Chemscore.Rot.Weighted>
4.5211

> <Gold.Chemscore.Internal.Correction.Weighted>
   9.000000E+99

> <Gold.Protein.RotatedTorsions>
[ 6907 6896 6895 6894 ] final -135.22 input  -60.11 | X-H torsion
[ 7974 7965 7964 7962 ] final -110.01 input  175.53 | X-H torsion
[ 8008 7997 7996 7995 ] final  -55.23 input   59.86 | X-H torsion
[ 10167 10162 10161 10158 ] final    4.80 input  -65.29 | X-H torsion
[ 10718 10713 10712 10709 ] final -151.87 input   66.30 | X-H torsion
[ 10763 10752 10751 10750 ] final  158.01 input  -60.55 | X-H torsion
[ 11005 11000 10999 10996 ] final   31.54 input  -57.11 | X-H torsion

> <Gold.Protein.ActiveResidues>
 VAL166  LYS551  ARG553  GLY616  TRP617  ASP618  TYR619  PRO620  LYS621  CYS622 
 ASP623  PHE694  ASN695  SER759  ASP760  ASP761  ALA762  ILE779  LEU786  VAL792 
 PHE793  MET794  SER795  GLU796  ALA797  LYS798  CYS799  TRP800  GLU811  SER814 

> <Gold.Protein.RotatedAtoms>
  150.9953  133.6109  159.2702 H   0  0  0  0  0  0  0  0  0  0  0  0  # atno 6907 bound_to 6896
  151.3316  135.0842  159.9350 H   0  0  0  0  0  0  0  0  0  0  0  0  # atno 6908 bound_to 6896
  152.5258  133.9581  159.7758 H   0  0  0  0  0  0  0  0  0  0  0  0  # atno 6909 bound_to 6896
  145.1735  140.8937  143.3521 H   0  0  0  0  0  0  0  0  0  0  0  0  # atno 7974 bound_to 7965
  154.4188  140.1158  156.5443 H   0  0  0  0  0  0  0  0  0  0  0  0  # atno 8008 bound_to 7997
  155.6476  140.3496  155.4717 H   0  0  0  0  0  0  0  0  0  0  0  0  # atno 8009 bound_to 7997
  155.9819  140.1162  157.0708 H   0  0  0  0  0  0  0  0  0  0  0  0  # atno 8010 bound_to 7997
  140.6516  143.7531  150.7584 H   0  0  0  0  0  0  0  0  0  0  0  0  # atno 10167 bound_to 10162
  156.4650  130.8231  151.2461 H   0  0  0  0  0  0  0  0  0  0  0  0  # atno 10718 bound_to 10713
  154.2093  135.2787  155.2964 H   0  0  0  0  0  0  0  0  0  0  0  0  # atno 10763 bound_to 10752
  154.5791  135.5595  153.7171 H   0  0  0  0  0  0  0  0  0  0  0  0  # atno 10764 bound_to 10752
  153.0068  135.6340  154.2232 H   0  0  0  0  0  0  0  0  0  0  0  0  # atno 10765 bound_to 10752
  140.2828  134.2953  155.7796 H   0  0  0  0  0  0  0  0  0  0  0  0  # atno 11005 bound_to 11000
  145.0209  139.3425  143.6073 LP  0  0  0  0  0  0  0  0  0  0  0  0  # atno 17320 bound_to 7965
  146.3465  139.9509  142.8729 LP  0  0  0  0  0  0  0  0  0  0  0  0  # atno 17321 bound_to 7965
  140.1183  143.4635  152.2329 LP  0  0  0  0  0  0  0  0  0  0  0  0  # atno 17342 bound_to 10162
  139.5732  144.7473  151.3836 LP  0  0  0  0  0  0  0  0  0  0  0  0  # atno 17343 bound_to 10162
  157.7495  131.0095  150.3269 LP  0  0  0  0  0  0  0  0  0  0  0  0  # atno 17370 bound_to 10713
  156.3677  130.3858  149.7200 LP  0  0  0  0  0  0  0  0  0  0  0  0  # atno 17371 bound_to 10713
  141.2160  133.7536  156.9506 LP  0  0  0  0  0  0  0  0  0  0  0  0  # atno 17394 bound_to 11000
  140.1268  134.9382  157.2280 LP  0  0  0  0  0  0  0  0  0  0  0  0  # atno 17395 bound_to 11000

$$$$
