AV-unprocessed.smi:1438|AV-procd|sdf|5867|dock5
  -GOLD-   22720 5543D 1   1.00000     0.00000
 Structure written by MMmdl.
 43 44  0  0  0  0  0  0  0  0  1 V2000
  153.5361  137.4550  162.5782 C   0  0  0  0  0  0  0  0  0  0  0  0
  154.3511  138.1486  161.4743 C   0  0  2  0  0  0  0  0  0  0  0  0
  154.3727  139.6730  161.6513 C   0  0  0  0  0  0  0  0  0  0  0  0
  154.8161  140.1786  162.6826 O   0  0  0  0  0  0  0  0  0  0  0  0
  153.8827  140.3974  160.6351 N   0  0  0  0  0  0  0  0  0  0  0  0
  153.7556  141.8475  160.6399 C   0  0  0  0  0  0  0  0  0  0  0  0
  152.8327  142.3354  159.5401 C   0  0  0  0  0  0  0  0  0  0  0  0
  152.5523  143.7092  159.3903 C   0  0  0  0  0  0  0  0  0  0  0  0
  151.6924  144.1087  158.3489 C   0  0  0  0  0  0  0  0  0  0  0  0
  151.1241  143.2420  157.4841 N   0  0  0  0  0  0  0  0  0  0  0  0
  151.3936  141.9222  157.6280 C   0  0  0  0  0  0  0  0  0  0  0  0
  150.8157  141.0200  156.7239 N   0  0  0  0  0  0  0  0  0  0  0  0
  150.1017  141.6585  155.6250 C   0  0  0  0  0  0  0  0  0  0  0  0
  149.4012  140.5922  154.7651 C   0  0  0  0  0  0  0  0  0  0  0  0
  150.3610  139.6441  154.3063 O   0  0  0  0  0  0  0  0  0  0  0  0
  151.0072  138.9721  155.3841 C   0  0  0  0  0  0  0  0  0  0  0  0
  151.7451  139.9961  156.2638 C   0  0  0  0  0  0  0  0  0  0  0  0
  152.2405  141.4250  158.6407 C   0  0  0  0  0  0  0  0  0  0  0  0
  153.6579  137.7151  159.8095 S   0  0  0  0  0  0  0  0  0  0  0  0
  153.8392  135.8822  159.7440 C   0  0  0  0  0  0  0  0  0  0  0  0
  152.2220  138.0341  159.8170 O   0  0  0  0  0  0  0  0  0  0  0  0
  154.5190  138.2955  158.7673 O   0  0  0  0  0  0  0  0  0  0  0  0
  153.9093  137.7144  163.5695 H   0  0  0  0  0  0  0  0  0  0  0  0
  153.5942  136.3709  162.4799 H   0  0  0  0  0  0  0  0  0  0  0  0
  152.4820  137.7317  162.5328 H   0  0  0  0  0  0  0  0  0  0  0  0
  155.3728  137.7681  161.5056 H   0  0  0  0  0  0  0  0  0  0  0  0
  153.5447  139.9129  159.8163 H   0  0  0  0  0  0  0  0  0  0  0  0
  153.3836  142.1819  161.6099 H   0  0  0  0  0  0  0  0  0  0  0  0
  154.7396  142.2977  160.5006 H   0  0  0  0  0  0  0  0  0  0  0  0
  152.9819  144.4414  160.0583 H   0  0  0  0  0  0  0  0  0  0  0  0
  151.4557  145.1526  158.2057 H   0  0  0  0  0  0  0  0  0  0  0  0
  149.3691  142.3629  156.0208 H   0  0  0  0  0  0  0  0  0  0  0  0
  150.7996  142.2278  155.0094 H   0  0  0  0  0  0  0  0  0  0  0  0
  148.6179  140.0870  155.3322 H   0  0  0  0  0  0  0  0  0  0  0  0
  148.9216  141.0583  153.9043 H   0  0  0  0  0  0  0  0  0  0  0  0
  150.2747  138.4134  155.9691 H   0  0  0  0  0  0  0  0  0  0  0  0
  151.7125  138.2461  154.9794 H   0  0  0  0  0  0  0  0  0  0  0  0
  152.5516  140.4606  155.6943 H   0  0  0  0  0  0  0  0  0  0  0  0
  152.2000  139.4968  157.1200 H   0  0  0  0  0  0  0  0  0  0  0  0
  152.4333  140.3649  158.7215 H   0  0  0  0  0  0  0  0  0  0  0  0
  153.3768  135.5089  158.8305 H   0  0  0  0  0  0  0  0  0  0  0  0
  153.3471  135.4330  160.6062 H   0  0  0  0  0  0  0  0  0  0  0  0
  154.8948  135.6120  159.7419 H   0  0  0  0  0  0  0  0  0  0  0  0
  1  2  1  0  0  0  0
  1 23  1  0  0  0  0
  1 24  1  0  0  0  0
  1 25  1  0  0  0  0
  2  3  1  0  0  0  0
  2 19  1  0  0  0  0
  2 26  1  0  0  0  0
  3  4  2  0  0  0  0
  3  5  1  0  0  0  0
  5  6  1  0  0  0  0
  5 27  1  0  0  0  0
  6  7  1  0  0  0  0
  6 28  1  0  0  0  0
  6 29  1  0  0  0  0
  7 18  1  0  0  0  0
  7  8  2  0  0  0  0
  8  9  1  0  0  0  0
  8 30  1  0  0  0  0
  9 10  2  0  0  0  0
  9 31  1  0  0  0  0
 10 11  1  0  0  0  0
 11 12  1  0  0  0  0
 11 18  2  0  0  0  0
 12 17  1  0  0  0  0
 12 13  1  0  0  0  0
 13 14  1  0  0  0  0
 13 32  1  0  0  0  0
 13 33  1  0  0  0  0
 14 15  1  0  0  0  0
 14 34  1  0  0  0  0
 14 35  1  0  0  0  0
 15 16  1  0  0  0  0
 16 17  1  0  0  0  0
 16 36  1  0  0  0  0
 16 37  1  0  0  0  0
 17 38  1  0  0  0  0
 17 39  1  0  0  0  0
 18 40  1  0  0  0  0
 19 20  1  0  0  0  0
 19 21  2  0  0  0  0
 19 22  2  0  0  0  0
 20 41  1  0  0  0  0
 20 42  1  0  0  0  0
 20 43  1  0  0  0  0
M  END
> <s_m_source_file>
AV-unprocessed.smi

> <i_m_source_file_index>
1438

> <i_lp_mmshare_version>
43012

> <i_f3d_flags>
0

> <s_epik_input>
W0NIM11TKD1PKSg9TylbQ0BIXShbQ0gzXSlDKD1PKVtOSF1bQ0gyXWMxW2NIXVtjSF1uYyhbY0hdMSlOMltDSDJdW0NIMl1PW0NIMl1bQ0gyXTI=

> <s_epik_cmdline>
J2VwaWtfcHl0aG9uJywgJy1waCcsICc3LjAnLCAnLXRuJywgJzgnLCAnLW1hJywgJzIwMCcsICctbWV0YWxfYmluZGluZycsICctaW1hZScsICc8aW5maWxlLm1hZT4nLCAnLW9tYWUnLCAnPG91dGZpbGUubWFlPic=

> <r_lp_tautomer_probability>
1

> <r_epik_Ionization_Penalty>
0.00387635

> <r_epik_Ionization_Penalty_Charging>
0

> <r_epik_Ionization_Penalty_Neutral>
0.00387635

> <r_epik_State_Penalty>
0.0027681

> <r_epik_Charging_Adjusted_Penalty>
0.0027681

> <i_epik_Tot_Q>
0

> <i_epik_Tot_abs_Q>
0

> <r_epik_Metal_State_Penalty>
-0

> <b_epik_Metal_Only>
0

> <s_lp_Force_Field>
OPLS_2005

> <r_lp_Energy>
15.2281

> <b_lp_Chiralities_Consistent>
1

> <s_lp_Variant>
AV-unprocessed.smi:1438-1

> <Gold.Version>
5.8.1

> <Gold.Id.Protein>
6NUR|6NUR_protein|mol2

> <Gold.PLP.Fitness>
47.2556

> <Gold.PLP.PLP>
-41.9363

> <Gold.PLP.part.hbond>
-2.3148

> <Gold.PLP.part.metal>
0.0000

> <Gold.PLP.part.buried>
-6.3274

> <Gold.PLP.part.nonpolar>
-34.0517

> <Gold.PLP.part.repulsive>
0.3757

> <Gold.PLP.ligand.clash>
0.0000

> <Gold.PLP.ligand.torsion>
0.4732

> <Gold.PLP.Chemscore.Hbond>
2.0000

> <Gold.PLP.Chemscore.CHOScore>
0.0000

> <Gold.PLP.Chemscore.Metal>
0.0000

> <Gold.Chemscore.Hbonds>
donor molecule, donor type, donor heavy atom, donor atom, acceptor molecule, acceptor atom, score
      P1  H  7989  7998       L1    15  0.95
      P1  H  7997  8010       L1    22  0.32

> <Gold.PLP.Chemscore.Internal.Correction>
0.2658

> <Gold.Rescore>
     Score         DG    S(hbond)    S(metal)    S(lipo)     H(rot)  DE(clash)    DE(int)     intcor
     14.84     -17.00       1.78        0.00      93.08       2.08       0.01       2.14       ----

> <Gold.Chemscore.Fitness>
14.8432

> <Gold.Chemscore.DG>
-17.0009

> <Gold.Chemscore.ZeroCoef>
-5.4800

> <Gold.Chemscore.Hbond>
1.7802

> <Gold.Chemscore.Metal>
0.0000

> <Gold.Chemscore.Lipo>
93.0811

> <Gold.Chemscore.Internal_Hbond>
0.0000

> <Gold.Chemscore.DEClash>
0.0149

> <Gold.Chemscore.DEInternal>
2.1429

> <Gold.Chemscore.Rot>
2.0764

> <Gold.Chemscore.Internal.Correction>
   9.000000E+99

> <Gold.Chemscore.Hbonds>
donor molecule, donor type, donor heavy atom, donor atom, acceptor molecule, acceptor atom, score
      P1  H  7989  7998       L1    15  0.15
      P1  H  7997  8010       L1    22  0.33

> <Gold.Chemscore.Hbond.Weighted>
-5.9460

> <Gold.Chemscore.Metal.Weighted>
-0.0000

> <Gold.Chemscore.Lipo.Weighted>
-10.8905

> <Gold.Chemscore.Internal_Hbond.Weighted>
0.0000

> <Gold.Chemscore.DEClash.Weighted>
0.0149

> <Gold.Chemscore.DEInternal.Weighted>
2.1429

> <Gold.Chemscore.Rot.Weighted>
5.3155

> <Gold.Chemscore.Internal.Correction.Weighted>
   9.000000E+99

> <Gold.Protein.RotatedTorsions>
[ 6907 6896 6895 6894 ] final -139.25 input  -60.11 | X-H torsion
[ 7974 7965 7964 7962 ] final   50.34 input  175.53 | X-H torsion
[ 8008 7997 7996 7995 ] final    3.32 input   59.86 | X-H torsion
[ 10167 10162 10161 10158 ] final   32.20 input  -65.29 | X-H torsion
[ 10718 10713 10712 10709 ] final    1.11 input   66.30 | X-H torsion
[ 10763 10752 10751 10750 ] final  119.97 input  -60.55 | X-H torsion
[ 11005 11000 10999 10996 ] final   -3.09 input  -57.11 | X-H torsion

> <Gold.Protein.ActiveResidues>
 VAL166  LYS551  ARG553  GLY616  TRP617  ASP618  TYR619  PRO620  LYS621  CYS622 
 ASP623  PHE694  ASN695  SER759  ASP760  ASP761  ALA762  ILE779  LEU786  VAL792 
 PHE793  MET794  SER795  GLU796  ALA797  LYS798  CYS799  TRP800  GLU811  SER814 

> <Gold.Protein.RotatedAtoms>
  151.0453  133.5670  159.2647 H   0  0  0  0  0  0  0  0  0  0  0  0  # atno 6907 bound_to 6896
  151.2702  135.0681  159.9141 H   0  0  0  0  0  0  0  0  0  0  0  0  # atno 6908 bound_to 6896
  152.5372  134.0185  159.8024 H   0  0  0  0  0  0  0  0  0  0  0  0  # atno 6909 bound_to 6896
  146.0021  139.4451  143.0008 H   0  0  0  0  0  0  0  0  0  0  0  0  # atno 7974 bound_to 7965
  154.7022  140.2675  155.6708 H   0  0  0  0  0  0  0  0  0  0  0  0  # atno 8008 bound_to 7997
  156.2768  140.2770  156.1560 H   0  0  0  0  0  0  0  0  0  0  0  0  # atno 8009 bound_to 7997
  155.0749  140.0372  157.2610 H   0  0  0  0  0  0  0  0  0  0  0  0  # atno 8010 bound_to 7997
  140.4520  144.1034  150.6194 H   0  0  0  0  0  0  0  0  0  0  0  0  # atno 10167 bound_to 10162
  156.8434  130.5529  149.5675 H   0  0  0  0  0  0  0  0  0  0  0  0  # atno 10718 bound_to 10713
  153.5913  135.3465  155.2912 H   0  0  0  0  0  0  0  0  0  0  0  0  # atno 10763 bound_to 10752
  154.8652  135.4205  154.2513 H   0  0  0  0  0  0  0  0  0  0  0  0  # atno 10764 bound_to 10752
  153.3321  135.7045  153.7010 H   0  0  0  0  0  0  0  0  0  0  0  0  # atno 10765 bound_to 10752
  140.6655  133.9283  155.8462 H   0  0  0  0  0  0  0  0  0  0  0  0  # atno 11005 bound_to 11000
  145.7471  140.9986  143.1270 LP  0  0  0  0  0  0  0  0  0  0  0  0  # atno 17320 bound_to 7965
  144.6923  139.9169  143.7466 LP  0  0  0  0  0  0  0  0  0  0  0  0  # atno 17321 bound_to 7965
  140.4196  143.2618  151.9732 LP  0  0  0  0  0  0  0  0  0  0  0  0  # atno 17342 bound_to 10162
  139.4797  144.5843  151.7880 LP  0  0  0  0  0  0  0  0  0  0  0  0  # atno 17343 bound_to 10162
  156.0868  130.5864  150.9662 LP  0  0  0  0  0  0  0  0  0  0  0  0  # atno 17370 bound_to 10713
  157.6343  131.0917  150.8379 LP  0  0  0  0  0  0  0  0  0  0  0  0  # atno 17371 bound_to 10713
  141.0433  134.0591  157.3876 LP  0  0  0  0  0  0  0  0  0  0  0  0  # atno 17394 bound_to 11000
  139.8999  135.0160  156.7216 LP  0  0  0  0  0  0  0  0  0  0  0  0  # atno 17395 bound_to 11000

$$$$
