AV-unprocessed.smi:197|AV-procd|sdf|1550|dock8
  -GOLD-   2262019413D 1   1.00000     0.00000
 Structure written by MMmdl.
 54 57  0  0  0  0  0  0  0  0  1 V2000
  149.2221  130.2339  161.8024 C   0  0  0  0  0  0  0  0  0  0  0  0
  148.7047  131.5559  161.7697 O   0  0  0  0  0  0  0  0  0  0  0  0
  147.5931  131.7335  160.8999 C   0  0  0  0  0  0  0  0  0  0  0  0
  147.0609  133.1786  160.9213 C   0  0  0  0  0  0  0  0  0  0  0  0
  148.1069  134.2394  160.4851 C   0  0  2  0  0  0  0  0  0  0  0  0
  147.8538  135.5914  161.1919 C   0  0  0  0  0  0  0  0  0  0  0  0
  148.8069  136.5604  160.7696 O   0  0  0  0  0  0  0  0  0  0  0  0
  148.7234  136.8121  159.3732 C   0  0  0  0  0  0  0  0  0  0  0  0
  149.0325  135.5157  158.6130 C   0  0  0  0  0  0  0  0  0  0  0  0
  148.1231  134.4553  159.0319 N   0  0  0  0  0  0  0  0  0  0  0  0
  148.2950  133.3495  158.2729 C   0  0  0  0  0  0  0  0  0  0  0  0
  149.4330  132.6395  158.4680 N   0  0  0  0  0  0  0  0  0  0  0  0
  149.6847  131.5631  157.7169 C   0  0  0  0  0  0  0  0  0  0  0  0
  148.9491  131.0398  156.7337 N   0  0  0  0  0  0  0  0  0  0  0  0
  147.7979  131.7465  156.5440 C   0  0  0  0  0  0  0  0  0  0  0  0
  147.3873  132.8974  157.2728 C   0  0  0  0  0  0  0  0  0  0  0  0
  146.1511  133.3338  156.8115 N   0  0  0  0  0  0  0  0  0  0  0  0
  145.8564  132.5002  155.8526 C   0  0  0  0  0  0  0  0  0  0  0  0
  146.7983  131.5252  155.6127 N   0  0  0  0  0  0  0  0  0  0  0  0
  146.7396  130.4870  154.5955 C   0  0  0  0  0  0  0  0  0  0  0  0
  146.8708  131.0367  153.1500 C   0  0  2  0  0  0  0  0  0  0  0  0
  148.2098  131.4635  152.9620 O   0  0  0  0  0  0  0  0  0  0  0  0
  145.9601  132.2287  152.8648 C   0  0  0  0  0  0  0  0  0  0  0  0
  145.7042  132.1159  151.3701 C   0  0  0  0  0  0  0  0  0  0  0  0
  145.5610  130.7182  151.1920 O   0  0  0  0  0  0  0  0  0  0  0  0
  146.5243  130.0479  152.0007 C   0  0  2  0  0  0  0  0  0  0  0  0
  145.9269  128.6922  152.4089 C   0  0  0  0  0  0  0  0  0  0  0  0
  150.0351  130.1824  162.5266 H   0  0  0  0  0  0  0  0  0  0  0  0
  149.6257  129.9261  160.8385 H   0  0  0  0  0  0  0  0  0  0  0  0
  148.4580  129.5174  162.1059 H   0  0  0  0  0  0  0  0  0  0  0  0
  147.8606  131.4413  159.8834 H   0  0  0  0  0  0  0  0  0  0  0  0
  146.8091  131.0443  161.2112 H   0  0  0  0  0  0  0  0  0  0  0  0
  146.1737  133.2118  160.2913 H   0  0  0  0  0  0  0  0  0  0  0  0
  146.7019  133.4172  161.9229 H   0  0  0  0  0  0  0  0  0  0  0  0
  149.0977  133.8959  160.7812 H   0  0  0  0  0  0  0  0  0  0  0  0
  146.8444  135.9553  160.9922 H   0  0  0  0  0  0  0  0  0  0  0  0
  147.9442  135.4854  162.2724 H   0  0  0  0  0  0  0  0  0  0  0  0
  147.7332  137.1913  159.1150 H   0  0  0  0  0  0  0  0  0  0  0  0
  149.4432  137.5861  159.1067 H   0  0  0  0  0  0  0  0  0  0  0  0
  148.9386  135.6866  157.5396 H   0  0  0  0  0  0  0  0  0  0  0  0
  150.0636  135.2139  158.8028 H   0  0  0  0  0  0  0  0  0  0  0  0
  150.6122  131.0521  157.9291 H   0  0  0  0  0  0  0  0  0  0  0  0
  144.9422  132.5821  155.2830 H   0  0  0  0  0  0  0  0  0  0  0  0
  147.5293  129.7632  154.8013 H   0  0  0  0  0  0  0  0  0  0  0  0
  145.7943  129.9585  154.7204 H   0  0  0  0  0  0  0  0  0  0  0  0
  148.4903  131.1999  152.0989 H   0  0  0  0  0  0  0  0  0  0  0  0
  145.0117  132.1109  153.3906 H   0  0  0  0  0  0  0  0  0  0  0  0
  146.3846  133.1901  153.1570 H   0  0  0  0  0  0  0  0  0  0  0  0
  144.8131  132.6567  151.0508 H   0  0  0  0  0  0  0  0  0  0  0  0
  146.5569  132.4786  150.7941 H   0  0  0  0  0  0  0  0  0  0  0  0
  147.4032  129.8628  151.3803 H   0  0  0  0  0  0  0  0  0  0  0  0
  146.6260  128.1147  153.0140 H   0  0  0  0  0  0  0  0  0  0  0  0
  145.6919  128.0960  151.5269 H   0  0  0  0  0  0  0  0  0  0  0  0
  145.0031  128.8144  152.9744 H   0  0  0  0  0  0  0  0  0  0  0  0
  1  2  1  0  0  0  0
  1 28  1  0  0  0  0
  1 29  1  0  0  0  0
  1 30  1  0  0  0  0
  2  3  1  0  0  0  0
  3  4  1  0  0  0  0
  3 31  1  0  0  0  0
  3 32  1  0  0  0  0
  4  5  1  0  0  0  0
  4 33  1  0  0  0  0
  4 34  1  0  0  0  0
  5 10  1  0  0  0  0
  5  6  1  0  0  0  0
  5 35  1  0  0  0  0
  6  7  1  0  0  0  0
  6 36  1  0  0  0  0
  6 37  1  0  0  0  0
  7  8  1  0  0  0  0
  8  9  1  0  0  0  0
  8 38  1  0  0  0  0
  8 39  1  0  0  0  0
  9 10  1  0  0  0  0
  9 40  1  0  0  0  0
  9 41  1  0  0  0  0
 10 11  1  0  0  0  0
 11 16  1  0  0  0  0
 11 12  2  0  0  0  0
 12 13  1  0  0  0  0
 13 14  2  0  0  0  0
 13 42  1  0  0  0  0
 14 15  1  0  0  0  0
 15 19  1  0  0  0  0
 15 16  2  0  0  0  0
 16 17  1  0  0  0  0
 17 18  2  0  0  0  0
 18 19  1  0  0  0  0
 18 43  1  0  0  0  0
 19 20  1  0  0  0  0
 20 21  1  0  0  0  0
 20 44  1  0  0  0  0
 20 45  1  0  0  0  0
 21 26  1  0  0  0  0
 21 22  1  0  0  0  0
 21 23  1  0  0  0  0
 22 46  1  0  0  0  0
 23 24  1  0  0  0  0
 23 47  1  0  0  0  0
 23 48  1  0  0  0  0
 24 25  1  0  0  0  0
 24 49  1  0  0  0  0
 24 50  1  0  0  0  0
 25 26  1  0  0  0  0
 26 27  1  0  0  0  0
 26 51  1  0  0  0  0
 27 52  1  0  0  0  0
 27 53  1  0  0  0  0
 27 54  1  0  0  0  0
M  END
> <s_m_source_file>
AV-unprocessed.smi

> <i_m_source_file_index>
197

> <i_lp_mmshare_version>
43012

> <i_f3d_flags>
0

> <s_epik_input>
W0NIM11PW0NIMl1bQ0gyXVtDQEBIXTFbQ0gyXU9bQ0gyXVtDSDJdTjFjKG5bY0hdbjIpYyhjMjMpbltjSF1uM1tDSDJdW0NAQF00KFtPSF0pW0NIMl1bQ0gyXU9bQ0BIXTRbQ0gzXQ==

> <s_epik_cmdline>
J2VwaWtfcHl0aG9uJywgJy1waCcsICc3LjAnLCAnLXRuJywgJzgnLCAnLW1hJywgJzIwMCcsICctbWV0YWxfYmluZGluZycsICctaW1hZScsICc8aW5maWxlLm1hZT4nLCAnLW9tYWUnLCAnPG91dGZpbGUubWFlPic=

> <r_lp_tautomer_probability>
1

> <r_epik_Ionization_Penalty>
0.000106218

> <r_epik_Ionization_Penalty_Charging>
0

> <r_epik_Ionization_Penalty_Neutral>
0.000106218

> <r_epik_State_Penalty>
-0

> <r_epik_Charging_Adjusted_Penalty>
0

> <i_epik_Tot_Q>
0

> <i_epik_Tot_abs_Q>
0

> <r_epik_Metal_State_Penalty>
-0

> <b_epik_Metal_Only>
0

> <s_lp_Force_Field>
OPLS_2005

> <r_lp_Energy>
42.452

> <b_lp_Chiralities_Consistent>
1

> <s_lp_Variant>
AV-unprocessed.smi:197-7

> <Gold.Version>
5.8.1

> <Gold.Id.Protein>
6NUR|6NUR_protein|mol2

> <Gold.PLP.Fitness>
39.5168

> <Gold.PLP.PLP>
-28.6735

> <Gold.PLP.part.hbond>
-3.0000

> <Gold.PLP.part.metal>
0.0000

> <Gold.PLP.part.buried>
-4.2200

> <Gold.PLP.part.nonpolar>
-21.7852

> <Gold.PLP.part.repulsive>
0.1757

> <Gold.PLP.ligand.clash>
0.0000

> <Gold.PLP.ligand.torsion>
0.6651

> <Gold.PLP.Chemscore.Hbond>
2.9760

> <Gold.PLP.Chemscore.CHOScore>
1.0000

> <Gold.PLP.Chemscore.Metal>
0.0000

> <Gold.Chemscore.Hbonds>
donor molecule, donor type, donor heavy atom, donor atom, acceptor molecule, acceptor atom, score
      L1  H    22    46       P1 10747  1.00
      P1  H  6896  6909       L1    12  1.00
      P1  H  6931  6943       L1     7  0.97
      L1  C    18    43       P1 10957  1.00

> <Gold.PLP.Chemscore.Internal.Correction>
0.2455

> <Gold.Rescore>
     Score         DG    S(hbond)    S(metal)    S(lipo)     H(rot)  DE(clash)    DE(int)     intcor
     14.34     -16.18       2.78        0.00      74.20       2.84       0.00       1.83       ----

> <Gold.Chemscore.Fitness>
14.3413

> <Gold.Chemscore.DG>
-16.1767

> <Gold.Chemscore.ZeroCoef>
-5.4800

> <Gold.Chemscore.Hbond>
2.7768

> <Gold.Chemscore.Metal>
0.0000

> <Gold.Chemscore.Lipo>
74.2034

> <Gold.Chemscore.Internal_Hbond>
0.0000

> <Gold.Chemscore.DEClash>
0.0048

> <Gold.Chemscore.DEInternal>
1.8306

> <Gold.Chemscore.Rot>
2.8358

> <Gold.Chemscore.Internal.Correction>
   9.000000E+99

> <Gold.Chemscore.Hbonds>
donor molecule, donor type, donor heavy atom, donor atom, acceptor molecule, acceptor atom, score
      L1  H    22    46       P1 10747  0.98
      P1  H  6896  6909       L1    12  0.73
      P1  H  6931  6943       L1     7  0.74

> <Gold.Chemscore.Hbond.Weighted>
-9.2745

> <Gold.Chemscore.Metal.Weighted>
-0.0000

> <Gold.Chemscore.Lipo.Weighted>
-8.6818

> <Gold.Chemscore.Internal_Hbond.Weighted>
0.0000

> <Gold.Chemscore.DEClash.Weighted>
0.0048

> <Gold.Chemscore.DEInternal.Weighted>
1.8306

> <Gold.Chemscore.Rot.Weighted>
7.2596

> <Gold.Chemscore.Internal.Correction.Weighted>
   9.000000E+99

> <Gold.Protein.RotatedTorsions>
[ 6907 6896 6895 6894 ] final   -0.66 input  -60.11 | X-H torsion
[ 7974 7965 7964 7962 ] final  144.45 input  175.53 | X-H torsion
[ 8008 7997 7996 7995 ] final -109.00 input   59.86 | X-H torsion
[ 10167 10162 10161 10158 ] final -152.96 input  -65.29 | X-H torsion
[ 10718 10713 10712 10709 ] final   31.36 input   66.30 | X-H torsion
[ 10763 10752 10751 10750 ] final  -23.56 input  -60.55 | X-H torsion
[ 11005 11000 10999 10996 ] final -144.12 input  -57.11 | X-H torsion

> <Gold.Protein.ActiveResidues>
 VAL166  LYS551  ARG553  GLY616  TRP617  ASP618  TYR619  PRO620  LYS621  CYS622 
 ASP623  PHE694  ASN695  SER759  ASP760  ASP761  ALA762  ILE779  LEU786  VAL792 
 PHE793  MET794  SER795  GLU796  ALA797  LYS798  CYS799  TRP800  GLU811  SER814 

> <Gold.Protein.RotatedAtoms>
  151.5587  135.1066  159.9967 H   0  0  0  0  0  0  0  0  0  0  0  0  # atno 6907 bound_to 6896
  152.4457  133.7528  159.6714 H   0  0  0  0  0  0  0  0  0  0  0  0  # atno 6908 bound_to 6896
  150.8372  133.7926  159.3099 H   0  0  0  0  0  0  0  0  0  0  0  0  # atno 6909 bound_to 6896
  144.8835  139.5664  143.5832 H   0  0  0  0  0  0  0  0  0  0  0  0  # atno 7974 bound_to 7965
  154.9527  140.0400  157.2152 H   0  0  0  0  0  0  0  0  0  0  0  0  # atno 8008 bound_to 7997
  154.7963  140.2844  155.5932 H   0  0  0  0  0  0  0  0  0  0  0  0  # atno 8009 bound_to 7997
  156.2956  140.2563  156.2822 H   0  0  0  0  0  0  0  0  0  0  0  0  # atno 8010 bound_to 7997
  139.7138  143.9067  152.2478 H   0  0  0  0  0  0  0  0  0  0  0  0  # atno 10167 bound_to 10162
  157.2714  130.7210  149.6506 H   0  0  0  0  0  0  0  0  0  0  0  0  # atno 10718 bound_to 10713
  153.6698  135.6972  153.5150 H   0  0  0  0  0  0  0  0  0  0  0  0  # atno 10763 bound_to 10752
  153.2566  135.4258  155.0851 H   0  0  0  0  0  0  0  0  0  0  0  0  # atno 10764 bound_to 10752
  154.8429  135.3544  154.6243 H   0  0  0  0  0  0  0  0  0  0  0  0  # atno 10765 bound_to 10752
  140.8057  134.2804  157.4961 H   0  0  0  0  0  0  0  0  0  0  0  0  # atno 11005 bound_to 11000
  146.3009  139.7425  142.9092 LP  0  0  0  0  0  0  0  0  0  0  0  0  # atno 17320 bound_to 7965
  145.3912  141.0372  143.3123 LP  0  0  0  0  0  0  0  0  0  0  0  0  # atno 17321 bound_to 7965
  139.8943  144.6948  150.8735 LP  0  0  0  0  0  0  0  0  0  0  0  0  # atno 17342 bound_to 10162
  140.7739  143.3562  151.1917 LP  0  0  0  0  0  0  0  0  0  0  0  0  # atno 17343 bound_to 10162
  155.9663  130.4366  150.5142 LP  0  0  0  0  0  0  0  0  0  0  0  0  # atno 17370 bound_to 10713
  157.3067  131.0656  151.2030 LP  0  0  0  0  0  0  0  0  0  0  0  0  # atno 17371 bound_to 10713
  139.8718  134.9454  156.3910 LP  0  0  0  0  0  0  0  0  0  0  0  0  # atno 17394 bound_to 11000
  140.9250  133.7619  155.9953 LP  0  0  0  0  0  0  0  0  0  0  0  0  # atno 17395 bound_to 11000

$$$$
