AV-unprocessed.smi:37|AV-procd|sdf|316|dock4
  -GOLD-   2262016133D 1   1.00000     0.00000
 Structure written by MMmdl.
 44 45  0  0  0  0  0  0  0  0  1 V2000
  147.3828  133.3771  161.9814 C   0  0  0  0  0  0  0  0  0  0  0  0
  147.4119  134.8341  162.4645 C   0  0  0  0  0  0  0  0  0  0  0  0
  147.4500  135.8577  161.3283 C   0  0  0  0  0  0  0  0  0  0  0  0
  147.5083  137.0713  161.5334 O   0  0  0  0  0  0  0  0  0  0  0  0
  147.4172  135.2699  160.1243 O   0  0  0  0  0  0  0  0  0  0  0  0
  147.3504  136.0669  158.9523 C   0  0  0  0  0  0  0  0  0  0  0  0
  148.6664  136.8286  158.7390 C   0  0  1  0  0  0  0  0  0  0  0  0
  149.7629  135.9309  158.5665 O   0  0  0  0  0  0  0  0  0  0  0  0
  150.3957  136.1572  157.3409 C   0  0  1  0  0  0  0  0  0  0  0  0
  149.8486  135.1493  156.3365 N   0  0  0  0  0  0  0  0  0  0  0  0
  148.9456  134.1353  156.6509 C   0  0  0  0  0  0  0  0  0  0  0  0
  148.5006  133.2331  155.7443 C   0  0  0  0  0  0  0  0  0  0  0  0
  147.6304  132.2835  156.1271 F   0  0  0  0  0  0  0  0  0  0  0  0
  148.9599  133.2751  154.3605 C   0  0  0  0  0  0  0  0  0  0  0  0
  148.6176  132.4986  153.4712 O   0  0  0  0  0  0  0  0  0  0  0  0
  149.8672  134.3006  154.0879 N   0  0  0  0  0  0  0  0  0  0  0  0
  150.3336  135.2373  155.0110 C   0  0  0  0  0  0  0  0  0  0  0  0
  151.1378  136.0972  154.6540 O   0  0  0  0  0  0  0  0  0  0  0  0
  150.1056  137.6258  157.0127 C   0  0  2  0  0  0  0  0  0  0  0  0
  151.3703  138.7588  158.0631 Br  0  0  0  0  0  0  0  0  0  0  0  0
  148.6819  137.7864  157.5408 C   0  0  2  0  0  0  0  0  0  0  0  0
  148.3773  139.1222  157.9208 O   0  0  0  0  0  0  0  0  0  0  0  0
  148.1117  140.0469  156.9819 C   0  0  0  0  0  0  0  0  0  0  0  0
  148.0145  139.8336  155.7721 O   0  0  0  0  0  0  0  0  0  0  0  0
  147.9477  141.4431  157.5859 C   0  0  0  0  0  0  0  0  0  0  0  0
  146.5630  142.0605  157.3396 C   0  0  0  0  0  0  0  0  0  0  0  0
  150.2168  134.3689  153.1432 H   0  0  0  0  0  0  0  0  0  0  0  0
  147.3627  132.6931  162.8299 H   0  0  0  0  0  0  0  0  0  0  0  0
  148.2646  133.1381  161.3861 H   0  0  0  0  0  0  0  0  0  0  0  0
  146.4991  133.1754  161.3751 H   0  0  0  0  0  0  0  0  0  0  0  0
  146.5307  135.0329  163.0740 H   0  0  0  0  0  0  0  0  0  0  0  0
  148.2813  134.9914  163.1032 H   0  0  0  0  0  0  0  0  0  0  0  0
  147.1536  135.4282  158.0901 H   0  0  0  0  0  0  0  0  0  0  0  0
  146.5210  136.7709  159.0325 H   0  0  0  0  0  0  0  0  0  0  0  0
  148.8883  137.3914  159.6468 H   0  0  0  0  0  0  0  0  0  0  0  0
  151.4655  135.9439  157.3858 H   0  0  0  0  0  0  0  0  0  0  0  0
  148.5541  134.0251  157.6482 H   0  0  0  0  0  0  0  0  0  0  0  0
  150.2500  137.8712  155.9613 H   0  0  0  0  0  0  0  0  0  0  0  0
  147.9651  137.4326  156.8003 H   0  0  0  0  0  0  0  0  0  0  0  0
  148.1356  141.3806  158.6580 H   0  0  0  0  0  0  0  0  0  0  0  0
  148.7180  142.0914  157.1682 H   0  0  0  0  0  0  0  0  0  0  0  0
  146.4972  143.0480  157.7965 H   0  0  0  0  0  0  0  0  0  0  0  0
  145.7713  141.4458  157.7694 H   0  0  0  0  0  0  0  0  0  0  0  0
  146.3614  142.1767  156.2741 H   0  0  0  0  0  0  0  0  0  0  0  0
  1  2  1  0  0  0  0
  1 28  1  0  0  0  0
  1 29  1  0  0  0  0
  1 30  1  0  0  0  0
  2  3  1  0  0  0  0
  2 31  1  0  0  0  0
  2 32  1  0  0  0  0
  3  4  2  0  0  0  0
  3  5  1  0  0  0  0
  5  6  1  0  0  0  0
  6  7  1  0  0  0  0
  6 33  1  0  0  0  0
  6 34  1  0  0  0  0
  7 21  1  0  0  0  0
  7  8  1  0  0  0  0
  7 35  1  0  0  0  0
  8  9  1  0  0  0  0
  9 10  1  0  0  0  0
  9 19  1  0  0  0  0
  9 36  1  0  0  0  0
 10 17  1  0  0  0  0
 10 11  1  0  0  0  0
 11 12  2  0  0  0  0
 11 37  1  0  0  0  0
 12 13  1  0  0  0  0
 12 14  1  0  0  0  0
 14 15  2  0  0  0  0
 14 16  1  0  0  0  0
 16 27  1  0  0  0  0
 16 17  1  0  0  0  0
 17 18  2  0  0  0  0
 19 20  1  0  0  0  0
 19 21  1  0  0  0  0
 19 38  1  0  0  0  0
 21 22  1  0  0  0  0
 21 39  1  0  0  0  0
 22 23  1  0  0  0  0
 23 24  2  0  0  0  0
 23 25  1  0  0  0  0
 25 26  1  0  0  0  0
 25 40  1  0  0  0  0
 25 41  1  0  0  0  0
 26 42  1  0  0  0  0
 26 43  1  0  0  0  0
 26 44  1  0  0  0  0
M  END
> <s_m_source_file>
AV-unprocessed.smi

> <i_m_source_file_index>
37

> <i_lp_mmshare_version>
43012

> <i_f3d_flags>
0

> <s_epik_input>
W0NIM11bQ0gyXUMoPU8pT1tDSDJdW0NAQEhdMU9bQ0BASF0objJbY0hdYyhGKWMoPU8pW25IXWMyPU8pW0NAQEhdKEJyKVtDQEhdMU9DKD1PKVtDSDJdW0NIM10=

> <s_epik_cmdline>
J2VwaWtfcHl0aG9uJywgJy1waCcsICc3LjAnLCAnLXRuJywgJzgnLCAnLW1hJywgJzIwMCcsICctbWV0YWxfYmluZGluZycsICctaW1hZScsICc8aW5maWxlLm1hZT4nLCAnLW9tYWUnLCAnPG91dGZpbGUubWFlPic=

> <r_lp_tautomer_probability>
0.999537

> <r_epik_Ionization_Penalty>
0.104106

> <r_epik_Ionization_Penalty_Charging>
0.104106

> <r_epik_Ionization_Penalty_Neutral>
3.94675e-16

> <r_epik_State_Penalty>
0.0940182

> <r_epik_Charging_Adjusted_Penalty>
0.198124

> <i_epik_Tot_Q>
0

> <i_epik_Tot_abs_Q>
0

> <r_epik_Metal_State_Penalty>
3.05314

> <b_epik_Metal_Only>
0

> <s_epik_Chemistry_Notes>
This compound has an ester and may undergo hydrolysis at high or low pH. This compound contains an acetal/aminal-like group ( X-CH(R)-Y where X, Y are N, S, or O) that may be acid/base labile, releasing an aldehyde.

> <s_lp_Force_Field>
OPLS_2005

> <r_lp_Energy>
20.7256

> <b_lp_Chiralities_Consistent>
1

> <s_lp_Variant>
AV-unprocessed.smi:37-14

> <Gold.Version>
5.8.1

> <Gold.Id.Protein>
6NUR|6NUR_protein|mol2

> <Gold.PLP.Fitness>
42.7171

> <Gold.PLP.PLP>
-31.7397

> <Gold.PLP.part.hbond>
-6.1238

> <Gold.PLP.part.metal>
0.0000

> <Gold.PLP.part.buried>
-5.3660

> <Gold.PLP.part.nonpolar>
-20.5172

> <Gold.PLP.part.repulsive>
0.3929

> <Gold.PLP.ligand.clash>
0.0000

> <Gold.PLP.ligand.torsion>
0.1926

> <Gold.PLP.Chemscore.Hbond>
3.7280

> <Gold.PLP.Chemscore.CHOScore>
0.0000

> <Gold.PLP.Chemscore.Metal>
0.0000

> <Gold.Chemscore.Hbonds>
donor molecule, donor type, donor heavy atom, donor atom, acceptor molecule, acceptor atom, score
      P1  H  6896  6907       L1     8  1.00
      P1  H  6931  6943       L1     4  1.00
      P1  H  6934  6947       L1     4  0.80
      P1  H 10752 10763       L1    18  1.00

> <Gold.PLP.Chemscore.Internal.Correction>
0.1787

> <Gold.Rescore>
     Score         DG    S(hbond)    S(metal)    S(lipo)     H(rot)  DE(clash)    DE(int)     intcor
     12.57     -14.00       3.66        0.00      41.27       3.33       0.37       1.05       ----

> <Gold.Chemscore.Fitness>
12.5709

> <Gold.Chemscore.DG>
-13.9985

> <Gold.Chemscore.ZeroCoef>
-5.4800

> <Gold.Chemscore.Hbond>
3.6572

> <Gold.Chemscore.Metal>
0.0000

> <Gold.Chemscore.Lipo>
41.2734

> <Gold.Chemscore.Internal_Hbond>
0.0000

> <Gold.Chemscore.DEClash>
0.3726

> <Gold.Chemscore.DEInternal>
1.0550

> <Gold.Chemscore.Rot>
3.3303

> <Gold.Chemscore.Internal.Correction>
   9.000000E+99

> <Gold.Chemscore.Hbonds>
donor molecule, donor type, donor heavy atom, donor atom, acceptor molecule, acceptor atom, score
      P1  H  6896  6907       L1     8  0.74
      P1  H  6931  6943       L1     4  0.93
      P1  H  6934  6947       L1     4  0.75
      P1  H 10752 10763       L1    18  0.96

> <Gold.Chemscore.Hbond.Weighted>
-12.2151

> <Gold.Chemscore.Metal.Weighted>
-0.0000

> <Gold.Chemscore.Lipo.Weighted>
-4.8290

> <Gold.Chemscore.Internal_Hbond.Weighted>
0.0000

> <Gold.Chemscore.DEClash.Weighted>
0.3726

> <Gold.Chemscore.DEInternal.Weighted>
1.0550

> <Gold.Chemscore.Rot.Weighted>
8.5256

> <Gold.Chemscore.Internal.Correction.Weighted>
   9.000000E+99

> <Gold.Protein.RotatedTorsions>
[ 6907 6896 6895 6894 ] final  -65.56 input  -60.11 | X-H torsion
[ 7974 7965 7964 7962 ] final  -18.37 input  175.53 | X-H torsion
[ 8008 7997 7996 7995 ] final   21.52 input   59.86 | X-H torsion
[ 10167 10162 10161 10158 ] final  -99.91 input  -65.29 | X-H torsion
[ 10718 10713 10712 10709 ] final  -71.94 input   66.30 | X-H torsion
[ 10763 10752 10751 10750 ] final   35.14 input  -60.55 | X-H torsion
[ 11005 11000 10999 10996 ] final  -33.48 input  -57.11 | X-H torsion

> <Gold.Protein.ActiveResidues>
 VAL166  LYS551  ARG553  GLY616  TRP617  ASP618  TYR619  PRO620  LYS621  CYS622 
 ASP623  PHE694  ASN695  SER759  ASP760  ASP761  ALA762  ILE779  LEU786  VAL792 
 PHE793  MET794  SER795  GLU796  ALA797  LYS798  CYS799  TRP800  GLU811  SER814 

> <Gold.Protein.RotatedAtoms>
  150.7517  134.6143  159.6102 H   0  0  0  0  0  0  0  0  0  0  0  0  # atno 6907 bound_to 6896
  152.3468  134.7057  160.0257 H   0  0  0  0  0  0  0  0  0  0  0  0  # atno 6908 bound_to 6896
  151.7491  133.3290  159.3423 H   0  0  0  0  0  0  0  0  0  0  0  0  # atno 6909 bound_to 6896
  146.1896  140.3911  142.8463 H   0  0  0  0  0  0  0  0  0  0  0  0  # atno 7974 bound_to 7965
  154.9519  140.3067  155.5071 H   0  0  0  0  0  0  0  0  0  0  0  0  # atno 8008 bound_to 7997
  156.2986  140.2317  156.4535 H   0  0  0  0  0  0  0  0  0  0  0  0  # atno 8009 bound_to 7997
  154.8047  140.0432  157.1287 H   0  0  0  0  0  0  0  0  0  0  0  0  # atno 8010 bound_to 7997
  140.2575  143.3430  152.0657 H   0  0  0  0  0  0  0  0  0  0  0  0  # atno 10167 bound_to 10162
  156.0341  130.4362  150.2518 H   0  0  0  0  0  0  0  0  0  0  0  0  # atno 10718 bound_to 10713
  153.0132  135.6341  154.1779 H   0  0  0  0  0  0  0  0  0  0  0  0  # atno 10763 bound_to 10752
  154.1520  135.2828  155.3134 H   0  0  0  0  0  0  0  0  0  0  0  0  # atno 10764 bound_to 10752
  154.6046  135.5576  153.7471 H   0  0  0  0  0  0  0  0  0  0  0  0  # atno 10765 bound_to 10752
  140.9638  133.7149  156.1413 H   0  0  0  0  0  0  0  0  0  0  0  0  # atno 11005 bound_to 11000
  144.8461  140.6930  143.6198 LP  0  0  0  0  0  0  0  0  0  0  0  0  # atno 17320 bound_to 7965
  145.3835  139.1632  143.4268 LP  0  0  0  0  0  0  0  0  0  0  0  0  # atno 17321 bound_to 7965
  139.5027  144.6740  151.6173 LP  0  0  0  0  0  0  0  0  0  0  0  0  # atno 17342 bound_to 10162
  140.5992  143.9640  150.6375 LP  0  0  0  0  0  0  0  0  0  0  0  0  # atno 17343 bound_to 10162
  157.0619  131.0092  151.3220 LP  0  0  0  0  0  0  0  0  0  0  0  0  # atno 17370 bound_to 10713
  157.5064  130.7911  149.7659 LP  0  0  0  0  0  0  0  0  0  0  0  0  # atno 17371 bound_to 10713
  140.7428  134.4131  157.5552 LP  0  0  0  0  0  0  0  0  0  0  0  0  # atno 17394 bound_to 11000
  139.8887  134.8848  156.2458 LP  0  0  0  0  0  0  0  0  0  0  0  0  # atno 17395 bound_to 11000

$$$$
