AV-unprocessed.smi:2021|AV-procd|sdf|8184|dock6
  -GOLD-   2272010433D 1   1.00000     0.00000
 Structure written by MMmdl.
 41 42  0  0  0  0  0  0  0  0  3 V2000
  152.5927  143.7048  160.7590 C   0  0  0  0  0  0  0  0  0  0  0  0
  152.3877  142.5437  159.7714 C   0  0  0  0  0  0  0  0  0  0  0  0
  153.7276  142.1332  159.1425 C   0  0  0  0  0  0  0  0  0  0  0  0
  151.3602  142.8952  158.6739 C   0  0  0  0  0  0  0  0  0  0  0  0
  151.2136  141.8325  157.6466 N   0  3  2  0  0  0  0  0  0  0  0  0
  150.1816  142.1292  156.6226 C   0  0  0  0  0  0  0  0  0  0  0  0
  150.1172  140.9981  155.5832 C   0  0  0  0  0  0  0  0  0  0  0  0
  149.8671  139.7621  156.2391 O   0  0  0  0  0  0  0  0  0  0  0  0
  150.9037  139.4154  157.1523 C   0  0  2  0  0  0  0  0  0  0  0  0
  150.5949  138.0324  157.7406 C   0  0  0  0  0  0  0  0  0  0  0  0
  149.5948  138.1321  158.7944 N   0  0  0  0  0  0  0  0  0  0  0  0
  149.0481  137.0910  159.4340 C   0  0  0  0  0  0  0  0  0  0  0  0
  149.3941  135.9433  159.1443 O   0  0  0  0  0  0  0  0  0  0  0  0
  148.1361  137.4440  160.3674 N   0  5  0  0  0  0  0  0  0  0  0  0
  147.5559  136.5003  161.1276 C   0  0  0  0  0  0  0  0  0  0  0  0
  146.8577  135.4817  160.6000 N   0  0  0  0  0  0  0  0  0  0  0  0
  146.3417  134.6193  161.5579 N   0  0  0  0  0  0  0  0  0  0  0  0
  146.6580  135.0170  162.7903 C   0  0  0  0  0  0  0  0  0  0  0  0
  147.6107  136.4826  162.8928 S   0  0  0  0  0  0  0  0  0  0  0  0
  150.9757  140.4981  158.2461 C   0  0  0  0  0  0  0  0  0  0  0  0
  152.9487  144.6009  160.2497 H   0  0  0  0  0  0  0  0  0  0  0  0
  153.3267  143.4446  161.5224 H   0  0  0  0  0  0  0  0  0  0  0  0
  151.6666  143.9599  161.2747 H   0  0  0  0  0  0  0  0  0  0  0  0
  152.0301  141.6823  160.3349 H   0  0  0  0  0  0  0  0  0  0  0  0
  154.1639  142.9507  158.5672 H   0  0  0  0  0  0  0  0  0  0  0  0
  153.6035  141.2830  158.4710 H   0  0  0  0  0  0  0  0  0  0  0  0
  154.4494  141.8428  159.9068 H   0  0  0  0  0  0  0  0  0  0  0  0
  150.3954  143.0685  159.1538 H   0  0  0  0  0  0  0  0  0  0  0  0
  151.6263  143.8328  158.1829 H   0  0  0  0  0  0  0  0  0  0  0  0
  149.2095  142.2455  157.1043 H   0  0  0  0  0  0  0  0  0  0  0  0
  150.4016  143.0679  156.1158 H   0  0  0  0  0  0  0  0  0  0  0  0
  149.3142  141.1882  154.8708 H   0  0  0  0  0  0  0  0  0  0  0  0
  151.0441  140.9402  155.0103 H   0  0  0  0  0  0  0  0  0  0  0  0
  151.8577  139.3705  156.6224 H   0  0  0  0  0  0  0  0  0  0  0  0
  150.2168  137.3737  156.9569 H   0  0  0  0  0  0  0  0  0  0  0  0
  151.5026  137.5750  158.1372 H   0  0  0  0  0  0  0  0  0  0  0  0
  149.2920  139.0574  159.0614 H   0  0  0  0  0  0  0  0  0  0  0  0
  146.3257  134.4457  163.6440 H   0  0  0  0  0  0  0  0  0  0  0  0
  151.7817  140.2603  158.9418 H   0  0  0  0  0  0  0  0  0  0  0  0
  150.0491  140.5167  158.8225 H   0  0  0  0  0  0  0  0  0  0  0  0
  152.1002  141.7713  157.1665 H   0  0  0  0  0  0  0  0  0  0  0  0
  1  2  1  0  0  0  0
  1 21  1  0  0  0  0
  1 22  1  0  0  0  0
  1 23  1  0  0  0  0
  2  3  1  0  0  0  0
  2  4  1  0  0  0  0
  2 24  1  0  0  0  0
  3 25  1  0  0  0  0
  3 26  1  0  0  0  0
  3 27  1  0  0  0  0
  4  5  1  0  0  0  0
  4 28  1  0  0  0  0
  4 29  1  0  0  0  0
  5 20  1  0  0  0  0
  5  6  1  0  0  0  0
  5 41  1  0  0  0  0
  6  7  1  0  0  0  0
  6 30  1  0  0  0  0
  6 31  1  0  0  0  0
  7  8  1  0  0  0  0
  7 32  1  0  0  0  0
  7 33  1  0  0  0  0
  8  9  1  0  0  0  0
  9 10  1  0  0  0  0
  9 20  1  0  0  0  0
  9 34  1  0  0  0  0
 10 11  1  0  0  0  0
 10 35  1  0  0  0  0
 10 36  1  0  0  0  0
 11 12  1  0  0  0  0
 11 37  1  0  0  0  0
 12 13  2  0  0  0  0
 12 14  1  0  0  0  0
 14 15  1  0  0  0  0
 15 19  1  0  0  0  0
 15 16  2  0  0  0  0
 16 17  1  0  0  0  0
 17 18  2  0  0  0  0
 18 19  1  0  0  0  0
 18 38  1  0  0  0  0
 20 39  1  0  0  0  0
 20 40  1  0  0  0  0
M  CHG  1   5   1
M  CHG  1  14  -1
M  END
> <s_m_source_file>
AV-unprocessed.smi

> <i_m_source_file_index>
2021

> <i_lp_mmshare_version>
43012

> <i_f3d_flags>
0

> <s_epik_input>
W0NIM11bQ0hdKFtDSDNdKVtDSDJdTjFbQ0gyXVtDSDJdT1tDQEhdKFtDSDJdMSlbQ0gyXVtOSF1DKD1PKVtOSF1jMm5uW2NIXXMy

> <s_epik_cmdline>
J2VwaWtfcHl0aG9uJywgJy1waCcsICc3LjAnLCAnLXRuJywgJzgnLCAnLW1hJywgJzIwMCcsICctbWV0YWxfYmluZGluZycsICctaW1hZScsICc8aW5maWxlLm1hZT4nLCAnLW9tYWUnLCAnPG91dGZpbGUubWFlPic=

> <r_lp_tautomer_probability>
1

> <r_epik_Ionization_Penalty>
3.15762

> <r_epik_Ionization_Penalty_Charging>
3.12229

> <r_epik_Ionization_Penalty_Neutral>
0.0353298

> <r_epik_State_Penalty>
3.11266

> <r_epik_Charging_Adjusted_Penalty>
6.23495

> <i_epik_Tot_Q>
0

> <i_epik_Tot_abs_Q>
2

> <r_epik_Metal_State_Penalty>
0.541462

> <b_epik_Metal_Only>
1

> <s_lp_Force_Field>
OPLS_2005

> <r_lp_Energy>
10.6965

> <b_lp_Chiralities_Consistent>
1

> <s_lp_Variant>
AV-unprocessed.smi:2021-10

> <Gold.Version>
5.8.1

> <Gold.Id.Protein>
6NUR|6NUR_protein|mol2

> <Gold.PLP.Fitness>
46.1923

> <Gold.PLP.PLP>
-36.3489

> <Gold.PLP.part.hbond>
-3.0000

> <Gold.PLP.part.metal>
0.0000

> <Gold.PLP.part.buried>
-4.4749

> <Gold.PLP.part.nonpolar>
-30.3730

> <Gold.PLP.part.repulsive>
0.2720

> <Gold.PLP.ligand.clash>
0.0000

> <Gold.PLP.ligand.torsion>
0.7722

> <Gold.PLP.Chemscore.Hbond>
3.7596

> <Gold.PLP.Chemscore.CHOScore>
0.0000

> <Gold.PLP.Chemscore.Metal>
0.0000

> <Gold.Chemscore.Hbonds>
donor molecule, donor type, donor heavy atom, donor atom, acceptor molecule, acceptor atom, score
      P1  H  6896  6909       L1    13  1.00
      P1  H  6931  6943       L1    14  0.83
      P1  H  6934  6947       L1    14  1.25

> <Gold.PLP.Chemscore.Internal.Correction>
0.1089

> <Gold.Rescore>
     Score         DG    S(hbond)    S(metal)    S(lipo)     H(rot)  DE(clash)    DE(int)     intcor
     15.17     -16.40       1.69        0.00      85.58       1.85       0.06       1.17       ----

> <Gold.Chemscore.Fitness>
15.1709

> <Gold.Chemscore.DG>
-16.4017

> <Gold.Chemscore.ZeroCoef>
-5.4800

> <Gold.Chemscore.Hbond>
1.6875

> <Gold.Chemscore.Metal>
0.0000

> <Gold.Chemscore.Lipo>
85.5799

> <Gold.Chemscore.Internal_Hbond>
0.0000

> <Gold.Chemscore.DEClash>
0.0562

> <Gold.Chemscore.DEInternal>
1.1746

> <Gold.Chemscore.Rot>
1.8466

> <Gold.Chemscore.Internal.Correction>
   9.000000E+99

> <Gold.Chemscore.Hbonds>
donor molecule, donor type, donor heavy atom, donor atom, acceptor molecule, acceptor atom, score
      P1  H  6896  6909       L1    13  1.00
      P1  H  6931  6943       L1    14  0.03
      P1  H  6934  6947       L1    14  0.21

> <Gold.Chemscore.Hbond.Weighted>
-5.6361

> <Gold.Chemscore.Metal.Weighted>
-0.0000

> <Gold.Chemscore.Lipo.Weighted>
-10.0128

> <Gold.Chemscore.Internal_Hbond.Weighted>
0.0000

> <Gold.Chemscore.DEClash.Weighted>
0.0562

> <Gold.Chemscore.DEInternal.Weighted>
1.1746

> <Gold.Chemscore.Rot.Weighted>
4.7272

> <Gold.Chemscore.Internal.Correction.Weighted>
   9.000000E+99

> <Gold.Protein.RotatedTorsions>
[ 6907 6896 6895 6894 ] final   70.65 input  -60.11 | X-H torsion
[ 7974 7965 7964 7962 ] final   99.54 input  175.53 | X-H torsion
[ 8008 7997 7996 7995 ] final   42.47 input   59.86 | X-H torsion
[ 10167 10162 10161 10158 ] final -174.15 input  -65.29 | X-H torsion
[ 10718 10713 10712 10709 ] final -131.92 input   66.30 | X-H torsion
[ 10763 10752 10751 10750 ] final  171.32 input  -60.55 | X-H torsion
[ 11005 11000 10999 10996 ] final  137.71 input  -57.11 | X-H torsion

> <Gold.Protein.ActiveResidues>
 VAL166  LYS551  ARG553  GLY616  TRP617  ASP618  TYR619  PRO620  LYS621  CYS622 
 ASP623  PHE694  ASN695  SER759  ASP760  ASP761  ALA762  ILE779  LEU786  VAL792 
 PHE793  MET794  SER795  GLU796  ALA797  LYS798  CYS799  TRP800  GLU811  SER814 

> <Gold.Protein.RotatedAtoms>
  152.4762  134.4836  159.9673 H   0  0  0  0  0  0  0  0  0  0  0  0  # atno 6907 bound_to 6896
  151.4852  133.3531  159.2852 H   0  0  0  0  0  0  0  0  0  0  0  0  # atno 6908 bound_to 6896
  150.8803  134.8220  159.7281 H   0  0  0  0  0  0  0  0  0  0  0  0  # atno 6909 bound_to 6896
  145.3975  139.2353  143.3318 H   0  0  0  0  0  0  0  0  0  0  0  0  # atno 7974 bound_to 7965
  155.2866  140.3376  155.4255 H   0  0  0  0  0  0  0  0  0  0  0  0  # atno 8008 bound_to 7997
  156.2065  140.1753  156.7828 H   0  0  0  0  0  0  0  0  0  0  0  0  # atno 8009 bound_to 7997
  154.5628  140.0684  156.8829 H   0  0  0  0  0  0  0  0  0  0  0  0  # atno 8010 bound_to 7997
  139.5649  144.1779  152.1297 H   0  0  0  0  0  0  0  0  0  0  0  0  # atno 10167 bound_to 10162
  156.2293  130.7027  151.0841 H   0  0  0  0  0  0  0  0  0  0  0  0  # atno 10718 bound_to 10713
  154.4102  135.2756  155.2041 H   0  0  0  0  0  0  0  0  0  0  0  0  # atno 10763 bound_to 10752
  154.4030  135.6040  153.5912 H   0  0  0  0  0  0  0  0  0  0  0  0  # atno 10764 bound_to 10752
  152.9831  135.5931  154.4382 H   0  0  0  0  0  0  0  0  0  0  0  0  # atno 10765 bound_to 10752
  140.0133  134.9429  157.0323 H   0  0  0  0  0  0  0  0  0  0  0  0  # atno 11005 bound_to 11000
  146.2768  140.4667  142.8792 LP  0  0  0  0  0  0  0  0  0  0  0  0  # atno 17320 bound_to 7965
  144.8397  140.6838  143.6237 LP  0  0  0  0  0  0  0  0  0  0  0  0  # atno 17321 bound_to 7965
  140.1300  144.5297  150.6808 LP  0  0  0  0  0  0  0  0  0  0  0  0  # atno 17342 bound_to 10162
  140.6932  143.2388  151.5073 LP  0  0  0  0  0  0  0  0  0  0  0  0  # atno 17343 bound_to 10162
  157.7125  131.0727  150.6448 LP  0  0  0  0  0  0  0  0  0  0  0  0  # atno 17370 bound_to 10713
  156.6515  130.4486  149.5718 LP  0  0  0  0  0  0  0  0  0  0  0  0  # atno 17371 bound_to 10713
  140.4516  134.1576  155.7182 LP  0  0  0  0  0  0  0  0  0  0  0  0  # atno 17394 bound_to 11000
  141.1726  133.8579  157.1524 LP  0  0  0  0  0  0  0  0  0  0  0  0  # atno 17395 bound_to 11000

$$$$
