AV-unprocessed.smi:1247|AV-procd|sdf|5247|dock7
  -GOLD-   22720 4353D 1   1.00000     0.00000
 Structure written by MMmdl.
 47 48  0  0  0  0  0  0  0  0  2 V2000
  153.7728  138.3257  158.8136 C   0  0  0  0  0  0  0  0  0  0  0  0
  153.1180  137.9815  157.5084 C   0  0  0  0  0  0  0  0  0  0  0  0
  152.1971  136.9276  157.2383 C   0  0  0  0  0  0  0  0  0  0  0  0
  151.9380  137.0875  155.9044 C   0  0  0  0  0  0  0  0  0  0  0  0
  151.1107  136.3616  155.1059 N   0  0  0  0  0  0  0  0  0  0  0  0
  150.5539  135.1612  155.3434 C   0  0  0  0  0  0  0  0  0  0  0  0
  150.7383  134.4721  156.3470 O   0  0  0  0  0  0  0  0  0  0  0  0
  149.7624  134.7843  154.3288 N   0  0  0  0  0  0  0  0  0  0  0  0
  149.0154  133.5330  154.2760 C   0  0  0  0  0  0  0  0  0  0  0  0
  149.3207  132.7496  152.9853 C   0  0  0  0  0  0  0  0  0  0  0  0
  148.1584  131.9502  152.5253 N   0  3  1  0  0  0  0  0  0  0  0  0
  147.6392  131.0452  153.5782 C   0  0  0  0  0  0  0  0  0  0  0  0
  146.4770  130.1823  153.0482 C   0  0  2  0  0  0  0  0  0  0  0  0
  146.9286  129.0601  152.0965 C   0  0  0  0  0  0  0  0  0  0  0  0
  145.4722  131.0129  152.4663 O   0  0  0  0  0  0  0  0  0  0  0  0
  145.9333  131.8741  151.4282 C   0  0  1  0  0  0  0  0  0  0  0  0
  144.7365  132.6892  150.9261 C   0  0  0  0  0  0  0  0  0  0  0  0
  147.0582  132.7743  151.9698 C   0  0  0  0  0  0  0  0  0  0  0  0
  152.6569  138.1675  155.4380 N   0  0  0  0  0  0  0  0  0  0  0  0
  152.7264  138.7434  154.1085 C   0  0  0  0  0  0  0  0  0  0  0  0
  153.3881  138.7129  156.4334 N   0  0  0  0  0  0  0  0  0  0  0  0
  153.3743  137.7190  159.6269 H   0  0  0  0  0  0  0  0  0  0  0  0
  153.6109  139.3727  159.0719 H   0  0  0  0  0  0  0  0  0  0  0  0
  154.8487  138.1548  158.7685 H   0  0  0  0  0  0  0  0  0  0  0  0
  151.8038  136.1924  157.9240 H   0  0  0  0  0  0  0  0  0  0  0  0
  150.8931  136.7858  154.2162 H   0  0  0  0  0  0  0  0  0  0  0  0
  149.6657  135.4085  153.5411 H   0  0  0  0  0  0  0  0  0  0  0  0
  149.2386  132.9426  155.1653 H   0  0  0  0  0  0  0  0  0  0  0  0
  147.9525  133.7712  154.3220 H   0  0  0  0  0  0  0  0  0  0  0  0
  149.5902  133.4696  152.2111 H   0  0  0  0  0  0  0  0  0  0  0  0
  150.1864  132.0974  153.1132 H   0  0  0  0  0  0  0  0  0  0  0  0
  148.4375  130.4023  153.9513 H   0  0  0  0  0  0  0  0  0  0  0  0
  147.2959  131.6446  154.4230 H   0  0  0  0  0  0  0  0  0  0  0  0
  146.0074  129.6973  153.9045 H   0  0  0  0  0  0  0  0  0  0  0  0
  147.5938  128.3643  152.6085 H   0  0  0  0  0  0  0  0  0  0  0  0
  147.4668  129.4415  151.2294 H   0  0  0  0  0  0  0  0  0  0  0  0
  146.0729  128.4896  151.7347 H   0  0  0  0  0  0  0  0  0  0  0  0
  146.3089  131.2793  150.5953 H   0  0  0  0  0  0  0  0  0  0  0  0
  145.0302  133.3655  150.1229 H   0  0  0  0  0  0  0  0  0  0  0  0
  144.3031  133.2891  151.7269 H   0  0  0  0  0  0  0  0  0  0  0  0
  143.9543  132.0354  150.5396 H   0  0  0  0  0  0  0  0  0  0  0  0
  146.6714  133.4370  152.7460 H   0  0  0  0  0  0  0  0  0  0  0  0
  147.4286  133.4102  151.1662 H   0  0  0  0  0  0  0  0  0  0  0  0
  151.9860  138.2875  153.4514 H   0  0  0  0  0  0  0  0  0  0  0  0
  153.7198  138.5786  153.6898 H   0  0  0  0  0  0  0  0  0  0  0  0
  152.5352  139.8156  154.1602 H   0  0  0  0  0  0  0  0  0  0  0  0
  148.4927  131.3555  151.7805 H   0  0  0  0  0  0  0  0  0  0  0  0
  1  2  1  0  0  0  0
  1 22  1  0  0  0  0
  1 23  1  0  0  0  0
  1 24  1  0  0  0  0
  2 21  2  0  0  0  0
  2  3  1  0  0  0  0
  3  4  2  0  0  0  0
  3 25  1  0  0  0  0
  4  5  1  0  0  0  0
  4 19  1  0  0  0  0
  5  6  1  0  0  0  0
  5 26  1  0  0  0  0
  6  7  2  0  0  0  0
  6  8  1  0  0  0  0
  8  9  1  0  0  0  0
  8 27  1  0  0  0  0
  9 10  1  0  0  0  0
  9 28  1  0  0  0  0
  9 29  1  0  0  0  0
 10 11  1  0  0  0  0
 10 30  1  0  0  0  0
 10 31  1  0  0  0  0
 11 18  1  0  0  0  0
 11 12  1  0  0  0  0
 11 47  1  0  0  0  0
 12 13  1  0  0  0  0
 12 32  1  0  0  0  0
 12 33  1  0  0  0  0
 13 14  1  0  0  0  0
 13 15  1  0  0  0  0
 13 34  1  0  0  0  0
 14 35  1  0  0  0  0
 14 36  1  0  0  0  0
 14 37  1  0  0  0  0
 15 16  1  0  0  0  0
 16 17  1  0  0  0  0
 16 18  1  0  0  0  0
 16 38  1  0  0  0  0
 17 39  1  0  0  0  0
 17 40  1  0  0  0  0
 17 41  1  0  0  0  0
 18 42  1  0  0  0  0
 18 43  1  0  0  0  0
 19 20  1  0  0  0  0
 19 21  1  0  0  0  0
 20 44  1  0  0  0  0
 20 45  1  0  0  0  0
 20 46  1  0  0  0  0
M  CHG  1  11   1
M  END
> <s_m_source_file>
AV-unprocessed.smi

> <i_m_source_file_index>
1247

> <i_lp_mmshare_version>
43012

> <i_f3d_flags>
0

> <s_epik_input>
W0NIM11jMVtjSF1jKG4objEpW0NIM10pW05IXUMoPU8pW05IXVtDSDJdW0NIMl1OMltDSDJdW0NAQEhdKFtDSDNdKU9bQ0BASF0oW0NIM10pW0NIMl0y

> <s_epik_cmdline>
J2VwaWtfcHl0aG9uJywgJy1waCcsICc3LjAnLCAnLXRuJywgJzgnLCAnLW1hJywgJzIwMCcsICctbWV0YWxfYmluZGluZycsICctaW1hZScsICc8aW5maWxlLm1hZT4nLCAnLW9tYWUnLCAnPG91dGZpbGUubWFlPic=

> <r_lp_tautomer_probability>
1

> <r_epik_Ionization_Penalty>
0.663902

> <r_epik_Ionization_Penalty_Charging>
0.663826

> <r_epik_Ionization_Penalty_Neutral>
7.65444e-05

> <r_epik_State_Penalty>
0.683414

> <r_epik_Charging_Adjusted_Penalty>
1.34724

> <i_epik_Tot_Q>
1

> <i_epik_Tot_abs_Q>
1

> <r_epik_Metal_State_Penalty>
0.683419

> <b_epik_Metal_Only>
0

> <s_lp_Force_Field>
OPLS_2005

> <r_lp_Energy>
19.2404

> <b_lp_Chiralities_Consistent>
1

> <s_lp_Variant>
AV-unprocessed.smi:1247-5

> <Gold.Version>
5.8.1

> <Gold.Id.Protein>
6NUR|6NUR_protein|mol2

> <Gold.PLP.Fitness>
41.9928

> <Gold.PLP.PLP>
-33.7377

> <Gold.PLP.part.hbond>
-3.0000

> <Gold.PLP.part.metal>
0.0000

> <Gold.PLP.part.buried>
-5.8563

> <Gold.PLP.part.nonpolar>
-24.6053

> <Gold.PLP.part.repulsive>
0.2711

> <Gold.PLP.ligand.clash>
0.0000

> <Gold.PLP.ligand.torsion>
0.3058

> <Gold.PLP.Chemscore.Hbond>
2.9500

> <Gold.PLP.Chemscore.CHOScore>
0.0000

> <Gold.PLP.Chemscore.Metal>
0.0000

> <Gold.Chemscore.Hbonds>
donor molecule, donor type, donor heavy atom, donor atom, acceptor molecule, acceptor atom, score
      L1  H     8    27       P1  7948  0.60
      L1  H    11    47       P1 10747  1.00
      P1  H  7997  8010       L1    21  0.82

> <Gold.PLP.Chemscore.Internal.Correction>
0.0167

> <Gold.Rescore>
     Score         DG    S(hbond)    S(metal)    S(lipo)     H(rot)  DE(clash)    DE(int)     intcor
     17.59     -18.96       2.49        0.00      77.34       1.52       0.04       1.33       ----

> <Gold.Chemscore.Fitness>
17.5862

> <Gold.Chemscore.DG>
-18.9632

> <Gold.Chemscore.ZeroCoef>
-5.4800

> <Gold.Chemscore.Hbond>
2.4945

> <Gold.Chemscore.Metal>
0.0000

> <Gold.Chemscore.Lipo>
77.3353

> <Gold.Chemscore.Internal_Hbond>
0.0000

> <Gold.Chemscore.DEClash>
0.0431

> <Gold.Chemscore.DEInternal>
1.3339

> <Gold.Chemscore.Rot>
1.5221

> <Gold.Chemscore.Internal.Correction>
   9.000000E+99

> <Gold.Chemscore.Hbonds>
donor molecule, donor type, donor heavy atom, donor atom, acceptor molecule, acceptor atom, score
      L1  H     8    27       P1  7948  0.04
      L1  H    11    47       P1 10747  0.99
      P1  H  7997  8010       L1    21  0.69

> <Gold.Chemscore.Hbond.Weighted>
-8.3316

> <Gold.Chemscore.Metal.Weighted>
-0.0000

> <Gold.Chemscore.Lipo.Weighted>
-9.0482

> <Gold.Chemscore.Internal_Hbond.Weighted>
0.0000

> <Gold.Chemscore.DEClash.Weighted>
0.0431

> <Gold.Chemscore.DEInternal.Weighted>
1.3339

> <Gold.Chemscore.Rot.Weighted>
3.8967

> <Gold.Chemscore.Internal.Correction.Weighted>
   9.000000E+99

> <Gold.Protein.RotatedTorsions>
[ 6907 6896 6895 6894 ] final  141.45 input  -60.11 | X-H torsion
[ 7974 7965 7964 7962 ] final   91.35 input  175.53 | X-H torsion
[ 8008 7997 7996 7995 ] final   49.45 input   59.86 | X-H torsion
[ 10167 10162 10161 10158 ] final  144.14 input  -65.29 | X-H torsion
[ 10718 10713 10712 10709 ] final  -96.85 input   66.30 | X-H torsion
[ 10763 10752 10751 10750 ] final -156.15 input  -60.55 | X-H torsion
[ 11005 11000 10999 10996 ] final   99.44 input  -57.11 | X-H torsion

> <Gold.Protein.ActiveResidues>
 VAL166  LYS551  ARG553  GLY616  TRP617  ASP618  TYR619  PRO620  LYS621  CYS622 
 ASP623  PHE694  ASN695  SER759  ASP760  ASP761  ALA762  ILE779  LEU786  VAL792 
 PHE793  MET794  SER795  GLU796  ALA797  LYS798  CYS799  TRP800  GLU811  SER814 

> <Gold.Protein.RotatedAtoms>
  152.2308  133.5056  159.5214 H   0  0  0  0  0  0  0  0  0  0  0  0  # atno 6907 bound_to 6896
  150.7037  134.1219  159.4047 H   0  0  0  0  0  0  0  0  0  0  0  0  # atno 6908 bound_to 6896
  151.9140  135.0326  160.0567 H   0  0  0  0  0  0  0  0  0  0  0  0  # atno 6909 bound_to 6896
  145.5069  139.2276  143.2746 H   0  0  0  0  0  0  0  0  0  0  0  0  # atno 7974 bound_to 7965
  155.4025  140.3438  155.4258 H   0  0  0  0  0  0  0  0  0  0  0  0  # atno 8008 bound_to 7997
  156.1495  140.1566  156.8824 H   0  0  0  0  0  0  0  0  0  0  0  0  # atno 8009 bound_to 7997
  154.5040  140.0807  156.7838 H   0  0  0  0  0  0  0  0  0  0  0  0  # atno 8010 bound_to 7997
  139.4953  144.5992  151.6517 H   0  0  0  0  0  0  0  0  0  0  0  0  # atno 10167 bound_to 10162
  156.0071  130.5169  150.6286 H   0  0  0  0  0  0  0  0  0  0  0  0  # atno 10718 bound_to 10713
  154.7735  135.3152  154.8141 H   0  0  0  0  0  0  0  0  0  0  0  0  # atno 10763 bound_to 10752
  153.8871  135.6829  153.4767 H   0  0  0  0  0  0  0  0  0  0  0  0  # atno 10764 bound_to 10752
  153.1353  135.4762  154.9348 H   0  0  0  0  0  0  0  0  0  0  0  0  # atno 10765 bound_to 10752
  139.8771  134.9095  156.4605 H   0  0  0  0  0  0  0  0  0  0  0  0  # atno 11005 bound_to 11000
  146.2191  140.5873  142.9025 LP  0  0  0  0  0  0  0  0  0  0  0  0  # atno 17320 bound_to 7965
  144.7749  140.5717  143.6645 LP  0  0  0  0  0  0  0  0  0  0  0  0  # atno 17321 bound_to 7965
  140.5638  144.0225  150.6182 LP  0  0  0  0  0  0  0  0  0  0  0  0  # atno 17342 bound_to 10162
  140.3319  143.3072  152.0678 LP  0  0  0  0  0  0  0  0  0  0  0  0  # atno 17343 bound_to 10162
  157.4089  131.0820  151.1240 LP  0  0  0  0  0  0  0  0  0  0  0  0  # atno 17370 bound_to 10713
  157.1878  130.6338  149.5694 LP  0  0  0  0  0  0  0  0  0  0  0  0  # atno 17371 bound_to 10713
  140.8867  133.7878  155.9526 LP  0  0  0  0  0  0  0  0  0  0  0  0  # atno 17394 bound_to 11000
  140.8797  134.2626  157.5150 LP  0  0  0  0  0  0  0  0  0  0  0  0  # atno 17395 bound_to 11000

$$$$
