#       Name:                AV-unprocessed.smi:34
#       Creating user name   scv26
#       Creation time:       Thu Mar 26 15:57:26 2020


#       File generated by GOLD software.
#

@<TRIPOS>MOLECULE
AV-unprocessed.smi:34
    66    70     1
SMALL
NO_CHARGES


@<TRIPOS>ATOM
      1 ****        -4.7288   1.4914   3.1231 O.2            1 S1                 0.0000
      2 ****        -5.2123   1.0929   2.0611 C.2            1 S1                 0.0000
      3 ****        -4.6297   1.0721   0.8353 N.pl3          1 S1                -1.0000
      4 ****        -3.3606   1.4846   0.6951 C.ar           1 S1                 0.0000
      5 ****        -3.0898   2.7703   0.3522 N.ar           1 S1                 0.0000
      6 ****        -1.8238   3.1830   0.2194 C.ar           1 S1                 0.0000
      7 ****        -0.6923   2.4888   0.3769 N.ar           1 S1                 0.0000
      8 ****        -0.9527   1.1906   0.7089 C.ar           1 S1                 0.0000
      9 ****        -2.2474   0.6192   0.8782 C.ar           1 S1                 0.0000
     10 ****        -2.1520  -0.7256   1.2064 N.2            1 S1                 0.0000
     11 ****        -0.8327  -0.9049   1.2248 C.2            1 S1                 0.0000
     12 ****        -0.0572   0.1656   0.9575 N.pl3          1 S1                 0.0000
     13 ****         1.4322   0.2453   0.9195 C.3            1 S1                 0.0000
     14 ****         1.8798  -0.7707   0.0736 O.3            1 S1                 0.0000
     15 ****         3.0378  -1.3882   0.6217 C.3            1 S1                 0.0000
     16 ****         4.2886  -0.6111   0.1788 C.3            1 S1                 0.0000
     17 ****         4.5393  -0.8631  -1.1940 O.3            1 S1                 0.0000
     18 ****         5.4551  -0.1284  -1.8567 C.2            1 S1                 0.0000
     19 ****         6.1198   0.7676  -1.3319 O.2            1 S1                 0.0000
     20 ****         5.5762  -0.5079  -3.2939 C.ar           1 S1                 0.0000
     21 ****         6.4679   0.2081  -4.1264 C.ar           1 S1                 0.0000
     22 ****         6.6015  -0.1248  -5.4884 C.ar           1 S1                 0.0000
     23 ****         5.8462  -1.1790  -6.0342 C.ar           1 S1                 0.0000
     24 ****         4.9569  -1.9001  -5.2162 C.ar           1 S1                 0.0000
     25 ****         4.8210  -1.5678  -3.8541 C.ar           1 S1                 0.0000
     26 ****         2.7915  -1.3120   2.1289 C.3            1 S1                 0.0000
     27 ****         2.0284  -2.3403   2.5023 F              1 S1                 0.0000
     28 ****         2.0205  -0.0120   2.3179 C.3            1 S1                 0.0000
     29 ****         2.8926   1.0235   2.7248 O.3            1 S1                 0.0000
     30 ****        -6.6415   0.6217   2.0488 C.ar           1 S1                 0.0000
     31 ****        -7.5969   1.2631   2.8698 C.ar           1 S1                 0.0000
     32 ****        -8.9338   0.8204   2.8934 C.ar           1 S1                 0.0000
     33 ****        -9.3273  -0.2761   2.1036 C.ar           1 S1                 0.0000
     34 ****        -8.3820  -0.9312   1.2924 C.ar           1 S1                 0.0000
     35 ****        -7.0451  -0.4881   1.2670 C.ar           1 S1                 0.0000
     36 ****        -1.6996   4.2210  -0.0513 H              1 S1                 0.0000
     37 ****        -0.4040  -1.8701   1.4504 H              1 S1                 0.0000
     38 ****         1.6682   1.2293   0.5121 H              1 S1                 0.0000
     39 ****         3.1138  -2.4250   0.2908 H              1 S1                 0.0000
     40 ****         4.1608   0.4577   0.3561 H              1 S1                 0.0000
     41 ****         5.1548  -0.9370   0.7559 H              1 S1                 0.0000
     42 ****         7.0578   1.0220  -3.7300 H              1 S1                 0.0000
     43 ****         7.2847   0.4301  -6.1146 H              1 S1                 0.0000
     44 ****         5.9489  -1.4341  -7.0787 H              1 S1                 0.0000
     45 ****         4.3774  -2.7102  -5.6337 H              1 S1                 0.0000
     46 ****         4.1297  -2.1413  -3.2541 H              1 S1                 0.0000
     47 ****         3.7048  -1.3740   2.7222 H              1 S1                 0.0000
     48 ****         1.2357  -0.1130   3.0694 H              1 S1                 0.0000
     49 ****         3.5489   1.1458   2.0562 H              1 S1                 0.0000
     50 ****        -7.3097   2.1044   3.4839 H              1 S1                 0.0000
     51 ****        -9.6565   1.3217   3.5197 H              1 S1                 0.0000
     52 ****       -10.3518  -0.6169   2.1234 H              1 S1                 0.0000
     53 ****        -8.6809  -1.7771   0.6912 H              1 S1                 0.0000
     54 ****        -6.3323  -1.0114   0.6459 H              1 S1                 0.0000
     55 ****        -3.7971   1.8542   3.1433 LP             1 S1                 0.0000
     56 ****        -5.2684   1.4519   3.9641 LP             1 S1                 0.0000
     57 ****        -5.1441   0.7508   0.0402 LP             1 S1                 0.0000
     58 ****        -3.8408   3.4124   0.1980 LP             1 S1                 0.0000
     59 ****         0.2252   2.8707   0.2660 LP             1 S1                 0.0000
     60 ****        -2.8818  -1.3861   1.3827 LP             1 S1                 0.0000
     61 ****         2.1038  -0.3822  -0.8202 LP             1 S1                 0.0000
     62 ****         1.1584  -1.4552  -0.0318 LP             1 S1                 0.0000
     63 ****         5.9932   0.9823  -0.3635 LP             1 S1                 0.0000
     64 ****         6.7855   1.2797  -1.8747 LP             1 S1                 0.0000
     65 ****         3.3329   0.7735   3.5871 LP             1 S1                 0.0000
     66 ****         2.3754   1.8705   2.8479 LP             1 S1                 0.0000
@<TRIPOS>BOND
    1    1    2 2     
    2    2    3 1     
    3    2   30 1     
    4    3    4 1     
    5    4    9 ar    
    6    4    5 ar    
    7    5    6 ar    
    8    6    7 ar    
    9    6   36 1     
   10    7    8 ar    
   11    8   12 1     
   12    8    9 ar    
   13    9   10 1     
   14   10   11 2     
   15   11   12 1     
   16   11   37 1     
   17   12   13 1     
   18   13   28 1     
   19   13   14 1     
   20   13   38 1     
   21   14   15 1     
   22   15   16 1     
   23   15   26 1     
   24   15   39 1     
   25   16   17 1     
   26   16   40 1     
   27   16   41 1     
   28   17   18 1     
   29   18   19 2     
   30   18   20 1     
   31   20   25 ar    
   32   20   21 ar    
   33   21   22 ar    
   34   21   42 1     
   35   22   23 ar    
   36   22   43 1     
   37   23   24 ar    
   38   23   44 1     
   39   24   25 ar    
   40   24   45 1     
   41   25   46 1     
   42   26   27 1     
   43   26   28 1     
   44   26   47 1     
   45   28   29 1     
   46   28   48 1     
   47   29   49 1     
   48   30   35 ar    
   49   30   31 ar    
   50   31   32 ar    
   51   31   50 1     
   52   32   33 ar    
   53   32   51 1     
   54   33   34 ar    
   55   33   52 1     
   56   34   35 ar    
   57   34   53 1     
   58   35   54 1     
   59    1   55 1     
   60    1   56 1     
   61    3   57 1     
   62    5   58 1     
   63    7   59 1     
   64   10   60 1     
   65   14   61 1     
   66   14   62 1     
   67   19   63 1     
   68   19   64 1     
   69   29   65 1     
   70   29   66 1     
@<TRIPOS>SUBSTRUCTURE
      1 S1             1
@<TRIPOS>SET
LONE_PAIRS      STATIC     ATOMS    <user>   **** ""
12 55 56 57 58 59 60 61 62 63 64 65 66
DONOR_HYDROGENS      STATIC     ATOMS    <user>   **** ""
1 49
ATOM$BLUE        STATIC     ATOMS    COLORGROUP SYSTEM
12 55 56 57 58 59 60 61 62 63 64 65 66
ATOM$RED        STATIC     ATOMS    COLORGROUP SYSTEM
1 49
