AV-unprocessed.smi:2403|AV-procd|sdf|9509|dock3
  -GOLD-   2272013133D 1   1.00000     0.00000
 Structure written by MMmdl.
 47 49  0  0  0  0  0  0  0  0  1 V2000
  150.9450  137.6444  154.2774 C   0  0  0  0  0  0  0  0  0  0  0  0
  150.5203  137.1756  155.6578 C   0  0  0  0  0  0  0  0  0  0  0  0
  151.0431  137.8072  156.8053 C   0  0  0  0  0  0  0  0  0  0  0  0
  150.6340  137.3510  158.0731 C   0  0  0  0  0  0  0  0  0  0  0  0
  149.7688  136.3314  158.2487 N   0  0  0  0  0  0  0  0  0  0  0  0
  149.2681  135.7293  157.1492 C   0  0  0  0  0  0  0  0  0  0  0  0
  149.5981  136.1148  155.8261 C   0  0  0  0  0  0  0  0  0  0  0  0
  149.0810  135.4540  154.6776 N   0  0  0  0  0  0  0  0  0  0  0  0
  148.2376  134.4091  154.6375 C   0  0  0  0  0  0  0  0  0  0  0  0
  147.7612  133.8459  155.6229 O   0  0  0  0  0  0  0  0  0  0  0  0
  147.9414  134.0741  153.3691 N   0  0  0  0  0  0  0  0  0  0  0  0
  147.0273  133.0157  152.8991 C   0  0  0  0  0  0  0  0  0  0  0  0
  147.2725  131.6450  153.5941 C   0  0  0  0  0  0  0  0  0  0  0  0
  147.0804  131.5273  154.8053 O   0  0  0  0  0  0  0  0  0  0  0  0
  147.7104  130.6214  152.8430 N   0  0  0  0  0  0  0  0  0  0  0  0
  147.9799  129.2788  153.3324 C   0  0  0  0  0  0  0  0  0  0  0  0
  147.0906  128.2185  152.7182 C   0  0  0  0  0  0  0  0  0  0  0  0
  147.2621  127.8134  151.2734 C   0  0  0  0  0  0  0  0  0  0  0  0
  146.0351  128.5830  151.7007 C   0  0  0  0  0  0  0  0  0  0  0  0
  145.5760  133.4672  153.1948 C   0  0  0  0  0  0  0  0  0  0  0  0
  144.7253  132.9851  152.0215 C   0  0  0  0  0  0  0  0  0  0  0  0
  145.6432  133.1438  150.8172 C   0  0  0  0  0  0  0  0  0  0  0  0
  147.0609  132.8864  151.3435 C   0  0  0  0  0  0  0  0  0  0  0  0
  151.6217  138.4971  154.3388 H   0  0  0  0  0  0  0  0  0  0  0  0
  150.0756  137.9471  153.6931 H   0  0  0  0  0  0  0  0  0  0  0  0
  151.4580  136.8432  153.7452 H   0  0  0  0  0  0  0  0  0  0  0  0
  151.7441  138.6247  156.7212 H   0  0  0  0  0  0  0  0  0  0  0  0
  151.0167  137.8144  158.9703 H   0  0  0  0  0  0  0  0  0  0  0  0
  148.6036  134.9028  157.3491 H   0  0  0  0  0  0  0  0  0  0  0  0
  149.3091  135.8792  153.7910 H   0  0  0  0  0  0  0  0  0  0  0  0
  148.3873  134.6134  152.6418 H   0  0  0  0  0  0  0  0  0  0  0  0
  147.8483  130.7850  151.8563 H   0  0  0  0  0  0  0  0  0  0  0  0
  149.0257  129.0306  153.1446 H   0  0  0  0  0  0  0  0  0  0  0  0
  147.8372  129.2574  154.4140 H   0  0  0  0  0  0  0  0  0  0  0  0
  146.8394  127.4099  153.4025 H   0  0  0  0  0  0  0  0  0  0  0  0
  148.0069  128.3434  150.6830 H   0  0  0  0  0  0  0  0  0  0  0  0
  147.1350  126.7609  151.0285 H   0  0  0  0  0  0  0  0  0  0  0  0
  145.0910  128.0438  151.7431 H   0  0  0  0  0  0  0  0  0  0  0  0
  145.9639  129.6245  151.3934 H   0  0  0  0  0  0  0  0  0  0  0  0
  145.1919  133.0974  154.1470 H   0  0  0  0  0  0  0  0  0  0  0  0
  145.5178  134.5562  153.2405 H   0  0  0  0  0  0  0  0  0  0  0  0
  144.4657  131.9343  152.1547 H   0  0  0  0  0  0  0  0  0  0  0  0
  143.7963  133.5465  151.9174 H   0  0  0  0  0  0  0  0  0  0  0  0
  145.3736  132.4756  149.9985 H   0  0  0  0  0  0  0  0  0  0  0  0
  145.5756  134.1661  150.4428 H   0  0  0  0  0  0  0  0  0  0  0  0
  147.7473  133.5913  150.8736 H   0  0  0  0  0  0  0  0  0  0  0  0
  147.3956  131.8976  151.0262 H   0  0  0  0  0  0  0  0  0  0  0  0
  1  2  1  0  0  0  0
  1 24  1  0  0  0  0
  1 25  1  0  0  0  0
  1 26  1  0  0  0  0
  2  7  1  0  0  0  0
  2  3  2  0  0  0  0
  3  4  1  0  0  0  0
  3 27  1  0  0  0  0
  4  5  2  0  0  0  0
  4 28  1  0  0  0  0
  5  6  1  0  0  0  0
  6  7  2  0  0  0  0
  6 29  1  0  0  0  0
  7  8  1  0  0  0  0
  8  9  1  0  0  0  0
  8 30  1  0  0  0  0
  9 10  2  0  0  0  0
  9 11  1  0  0  0  0
 11 12  1  0  0  0  0
 11 31  1  0  0  0  0
 12 23  1  0  0  0  0
 12 13  1  0  0  0  0
 12 20  1  0  0  0  0
 13 14  2  0  0  0  0
 13 15  1  0  0  0  0
 15 16  1  0  0  0  0
 15 32  1  0  0  0  0
 16 17  1  0  0  0  0
 16 33  1  0  0  0  0
 16 34  1  0  0  0  0
 17 19  1  0  0  0  0
 17 18  1  0  0  0  0
 17 35  1  0  0  0  0
 18 19  1  0  0  0  0
 18 36  1  0  0  0  0
 18 37  1  0  0  0  0
 19 38  1  0  0  0  0
 19 39  1  0  0  0  0
 20 21  1  0  0  0  0
 20 40  1  0  0  0  0
 20 41  1  0  0  0  0
 21 22  1  0  0  0  0
 21 42  1  0  0  0  0
 21 43  1  0  0  0  0
 22 23  1  0  0  0  0
 22 44  1  0  0  0  0
 22 45  1  0  0  0  0
 23 46  1  0  0  0  0
 23 47  1  0  0  0  0
M  END
> <s_m_source_file>
AV-unprocessed.smi

> <i_m_source_file_index>
2403

> <i_lp_mmshare_version>
43012

> <i_f3d_flags>
0

> <s_epik_input>
W0NIM11jMVtjSF1bY0hdbltjSF1jMVtOSF1DKD1PKVtOSF1DMihbQ0gyXVtDSDJdW0NIMl1bQ0gyXTIpQyg9TylbTkhdW0NIMl1bQ0hdM1tDSDJdW0NIMl0z

> <s_epik_cmdline>
J2VwaWtfcHl0aG9uJywgJy1waCcsICc3LjAnLCAnLXRuJywgJzgnLCAnLW1hJywgJzIwMCcsICctbWV0YWxfYmluZGluZycsICctaW1hZScsICc8aW5maWxlLm1hZT4nLCAnLW9tYWUnLCAnPG91dGZpbGUubWFlPic=

> <r_epik_Ionization_Penalty>
0.0192934

> <r_epik_Ionization_Penalty_Charging>
0

> <r_epik_Ionization_Penalty_Neutral>
0.0192934

> <r_epik_State_Penalty>
0.0153733

> <r_epik_Charging_Adjusted_Penalty>
0.0153733

> <i_epik_Tot_Q>
0

> <i_epik_Tot_abs_Q>
0

> <r_epik_Metal_State_Penalty>
0.014888

> <b_epik_Metal_Only>
0

> <s_lp_Force_Field>
OPLS_2005

> <r_lp_Energy>
32.7874

> <b_lp_Chiralities_Consistent>
1

> <s_lp_Variant>
AV-unprocessed.smi:2403-1

> <Gold.Version>
5.8.1

> <Gold.Id.Protein>
6NUR|6NUR_protein|mol2

> <Gold.PLP.Fitness>
43.7901

> <Gold.PLP.PLP>
-33.8881

> <Gold.PLP.part.hbond>
-4.0000

> <Gold.PLP.part.metal>
0.0000

> <Gold.PLP.part.buried>
-2.8463

> <Gold.PLP.part.nonpolar>
-27.1812

> <Gold.PLP.part.repulsive>
0.0922

> <Gold.PLP.ligand.clash>
0.0000

> <Gold.PLP.ligand.torsion>
0.7074

> <Gold.PLP.Chemscore.Hbond>
3.5569

> <Gold.PLP.Chemscore.CHOScore>
0.0000

> <Gold.PLP.Chemscore.Metal>
0.0000

> <Gold.Chemscore.Hbonds>
donor molecule, donor type, donor heavy atom, donor atom, acceptor molecule, acceptor atom, score
      L1  H     8    30       P1  7948  1.00
      L1  H    11    31       P1  7948  1.00
      L1  H    15    32       P1 10747  1.00
      P1  H  6896  6907       L1     5  0.12

> <Gold.PLP.Chemscore.Internal.Correction>
0.6461

> <Gold.Rescore>
     Score         DG    S(hbond)    S(metal)    S(lipo)     H(rot)  DE(clash)    DE(int)     intcor
     15.52     -20.21       2.75        0.00      82.34       1.59       0.26       4.42       ----

> <Gold.Chemscore.Fitness>
15.5245

> <Gold.Chemscore.DG>
-20.2091

> <Gold.Chemscore.ZeroCoef>
-5.4800

> <Gold.Chemscore.Hbond>
2.7473

> <Gold.Chemscore.Metal>
0.0000

> <Gold.Chemscore.Lipo>
82.3419

> <Gold.Chemscore.Internal_Hbond>
0.0000

> <Gold.Chemscore.DEClash>
0.2626

> <Gold.Chemscore.DEInternal>
4.4220

> <Gold.Chemscore.Rot>
1.5941

> <Gold.Chemscore.Internal.Correction>
   9.000000E+99

> <Gold.Chemscore.Hbonds>
donor molecule, donor type, donor heavy atom, donor atom, acceptor molecule, acceptor atom, score
      L1  H     8    30       P1  7948  0.67
      L1  H    11    31       P1  7948  0.25
      L1  H    15    32       P1 10747  0.95
      P1  H  6896  6907       L1     5  0.03

> <Gold.Chemscore.Hbond.Weighted>
-9.1760

> <Gold.Chemscore.Metal.Weighted>
-0.0000

> <Gold.Chemscore.Lipo.Weighted>
-9.6340

> <Gold.Chemscore.Internal_Hbond.Weighted>
0.0000

> <Gold.Chemscore.DEClash.Weighted>
0.2626

> <Gold.Chemscore.DEInternal.Weighted>
4.4220

> <Gold.Chemscore.Rot.Weighted>
4.0809

> <Gold.Chemscore.Internal.Correction.Weighted>
   9.000000E+99

> <Gold.Protein.RotatedTorsions>
[ 6907 6896 6895 6894 ] final  -34.02 input  -60.11 | X-H torsion
[ 7974 7965 7964 7962 ] final  126.53 input  175.53 | X-H torsion
[ 8008 7997 7996 7995 ] final  107.47 input   59.86 | X-H torsion
[ 10167 10162 10161 10158 ] final   97.42 input  -65.29 | X-H torsion
[ 10718 10713 10712 10709 ] final  -39.91 input   66.30 | X-H torsion
[ 10763 10752 10751 10750 ] final   73.44 input  -60.55 | X-H torsion
[ 11005 11000 10999 10996 ] final  -27.41 input  -57.11 | X-H torsion

> <Gold.Protein.ActiveResidues>
 VAL166  LYS551  ARG553  GLY616  TRP617  ASP618  TYR619  PRO620  LYS621  CYS622 
 ASP623  PHE694  ASN695  SER759  ASP760  ASP761  ALA762  ILE779  LEU786  VAL792 
 PHE793  MET794  SER795  GLU796  ALA797  LYS798  CYS799  TRP800  GLU811  SER814 

> <Gold.Protein.RotatedAtoms>
  151.0580  134.9718  159.8245 H   0  0  0  0  0  0  0  0  0  0  0  0  # atno 6907 bound_to 6896
  152.5391  134.2453  159.8888 H   0  0  0  0  0  0  0  0  0  0  0  0  # atno 6908 bound_to 6896
  151.2472  133.4326  159.2643 H   0  0  0  0  0  0  0  0  0  0  0  0  # atno 6909 bound_to 6896
  145.0607  139.3807  143.5007 H   0  0  0  0  0  0  0  0  0  0  0  0  # atno 7974 bound_to 7965
  156.1826  140.3094  155.9178 H   0  0  0  0  0  0  0  0  0  0  0  0  # atno 8008 bound_to 7997
  155.3350  140.0463  157.3060 H   0  0  0  0  0  0  0  0  0  0  0  0  # atno 8009 bound_to 7997
  154.5360  140.2246  155.8732 H   0  0  0  0  0  0  0  0  0  0  0  0  # atno 8010 bound_to 7997
  139.7803  144.6891  151.0032 H   0  0  0  0  0  0  0  0  0  0  0  0  # atno 10167 bound_to 10162
  156.2872  130.4224  149.8275 H   0  0  0  0  0  0  0  0  0  0  0  0  # atno 10718 bound_to 10713
  153.0522  135.5063  154.7894 H   0  0  0  0  0  0  0  0  0  0  0  0  # atno 10763 bound_to 10752
  154.6747  135.2958  154.9696 H   0  0  0  0  0  0  0  0  0  0  0  0  # atno 10764 bound_to 10752
  154.0503  135.6705  153.4852 H   0  0  0  0  0  0  0  0  0  0  0  0  # atno 10765 bound_to 10752
  140.9117  133.7457  156.0679 H   0  0  0  0  0  0  0  0  0  0  0  0  # atno 11005 bound_to 11000
  146.3524  140.0304  142.8651 LP  0  0  0  0  0  0  0  0  0  0  0  0  # atno 17320 bound_to 7965
  145.1412  140.9572  143.4487 LP  0  0  0  0  0  0  0  0  0  0  0  0  # atno 17321 bound_to 7965
  140.7818  143.4491  151.0439 LP  0  0  0  0  0  0  0  0  0  0  0  0  # atno 17342 bound_to 10162
  139.8171  143.7870  152.3175 LP  0  0  0  0  0  0  0  0  0  0  0  0  # atno 17343 bound_to 10162
  156.5701  130.8421  151.3354 LP  0  0  0  0  0  0  0  0  0  0  0  0  # atno 17370 bound_to 10713
  157.7332  130.9727  150.1966 LP  0  0  0  0  0  0  0  0  0  0  0  0  # atno 17371 bound_to 10713
  140.8102  134.3408  157.5414 LP  0  0  0  0  0  0  0  0  0  0  0  0  # atno 17394 bound_to 11000
  139.8758  134.9249  156.3362 LP  0  0  0  0  0  0  0  0  0  0  0  0  # atno 17395 bound_to 11000

$$$$
