#       Name:                AV-unprocessed.smi:1905
#       Creating user name   scv26
#       Creation time:       Fri Mar 27 09:46:47 2020


#       File generated by GOLD software.
#

@<TRIPOS>MOLECULE
AV-unprocessed.smi:1905
    45    46     1
SMALL
NO_CHARGES


@<TRIPOS>ATOM
      1 ****        -3.2420   3.6938   0.8728 C.3            1 S1                 0.0000
      2 ****        -1.7662   4.0816   0.9905 C.3            1 S1                 0.0000
      3 ****        -0.9785   2.8962   0.9378 O.3            1 S1                 0.0000
      4 ****         0.3970   3.0074   1.0159 C.ar           1 S1                 0.0000
      5 ****         0.9393   4.2472   1.1128 N.ar           1 S1                 0.0000
      6 ****         2.2809   4.3572   1.1915 C.ar           1 S1                 0.0000
      7 ****         3.1457   3.2479   1.1847 C.ar           1 S1                 0.0000
      8 ****         2.5858   1.9608   1.0858 C.ar           1 S1                 0.0000
      9 ****         1.1785   1.8283   0.9900 C.ar           1 S1                 0.0000
     10 ****         0.4956   0.5825   0.8993 N.am           1 S1                 0.0000
     11 ****         0.9825  -0.6413   0.6321 C.2            1 S1                 0.0000
     12 ****         2.1577  -0.9075   0.3828 O.2            1 S1                 0.0000
     13 ****         0.0077  -1.5609   0.6571 N.am           1 S1                 0.0000
     14 ****         0.1923  -2.9884   0.4177 C.3            1 S1                 0.0000
     15 ****         0.3439  -3.3153  -1.0805 C.3            1 S1                 0.0000
     16 ****        -0.8411  -2.9113  -1.9498 C.3            1 S1                 0.0000
     17 ****        -0.9240  -4.0143  -3.0111 C.3            1 S1                 0.0000
     18 ****         0.1774  -4.8775  -2.7589 O.3            1 S1                 0.0000
     19 ****         0.4731  -4.8064  -1.3750 C.3            1 S1                 0.0000
     20 ****        -3.8804   4.5762   0.9163 H              1 S1                 0.0000
     21 ****        -3.5375   3.0261   1.6825 H              1 S1                 0.0000
     22 ****        -3.4385   3.1849  -0.0712 H              1 S1                 0.0000
     23 ****        -1.4999   4.7552   0.1746 H              1 S1                 0.0000
     24 ****        -1.5992   4.6071   1.9323 H              1 S1                 0.0000
     25 ****         2.6764   5.3594   1.2675 H              1 S1                 0.0000
     26 ****         4.2148   3.3807   1.2585 H              1 S1                 0.0000
     27 ****         3.2490   1.1110   1.0983 H              1 S1                 0.0000
     28 ****        -0.5050   0.6384   1.0226 H              1 S1                 0.0000
     29 ****        -0.9308  -1.2530   0.8659 H              1 S1                 0.0000
     30 ****         1.0612  -3.3469   0.9722 H              1 S1                 0.0000
     31 ****        -0.6713  -3.5118   0.8289 H              1 S1                 0.0000
     32 ****         1.2363  -2.8236  -1.4715 H              1 S1                 0.0000
     33 ****        -1.7672  -2.8791  -1.3745 H              1 S1                 0.0000
     34 ****        -0.6899  -1.9262  -2.3926 H              1 S1                 0.0000
     35 ****        -1.8536  -4.5754  -2.9080 H              1 S1                 0.0000
     36 ****        -0.8771  -3.6196  -4.0262 H              1 S1                 0.0000
     37 ****         1.4675  -5.1954  -1.1554 H              1 S1                 0.0000
     38 ****        -0.2595  -5.3892  -0.8141 H              1 S1                 0.0000
     39 ****        -1.1881   2.4422   0.0718 LP             1 S1                 0.0000
     40 ****        -1.2702   2.3154   1.6977 LP             1 S1                 0.0000
     41 ****         0.3576   5.0606   1.1255 LP             1 S1                 0.0000
     42 ****         2.8429  -0.1793   0.3674 LP             1 S1                 0.0000
     43 ****         2.4275  -1.8520   0.1955 LP             1 S1                 0.0000
     44 ****         0.9703  -4.5824  -3.2921 LP             1 S1                 0.0000
     45 ****        -0.0615  -5.8160  -3.0083 LP             1 S1                 0.0000
@<TRIPOS>BOND
    1    1    2 1     
    2    1   20 1     
    3    1   21 1     
    4    1   22 1     
    5    2    3 1     
    6    2   23 1     
    7    2   24 1     
    8    3    4 1     
    9    4    9 ar    
   10    4    5 ar    
   11    5    6 ar    
   12    6    7 ar    
   13    6   25 1     
   14    7    8 ar    
   15    7   26 1     
   16    8    9 ar    
   17    8   27 1     
   18    9   10 1     
   19   10   11 am    
   20   10   28 1     
   21   11   12 2     
   22   11   13 am    
   23   13   14 1     
   24   13   29 1     
   25   14   15 1     
   26   14   30 1     
   27   14   31 1     
   28   15   19 1     
   29   15   16 1     
   30   15   32 1     
   31   16   17 1     
   32   16   33 1     
   33   16   34 1     
   34   17   18 1     
   35   17   35 1     
   36   17   36 1     
   37   18   19 1     
   38   19   37 1     
   39   19   38 1     
   40    3   39 1     
   41    3   40 1     
   42    5   41 1     
   43   12   42 1     
   44   12   43 1     
   45   18   44 1     
   46   18   45 1     
@<TRIPOS>SUBSTRUCTURE
      1 S1             1
@<TRIPOS>SET
LONE_PAIRS      STATIC     ATOMS    <user>   **** ""
7 39 40 41 42 43 44 45
DONOR_HYDROGENS      STATIC     ATOMS    <user>   **** ""
2 28 29
ATOM$BLUE        STATIC     ATOMS    COLORGROUP SYSTEM
7 39 40 41 42 43 44 45
ATOM$RED        STATIC     ATOMS    COLORGROUP SYSTEM
2 28 29
