AV-unprocessed.smi:3240|AV-procd|sdf|12381|dock10
  -GOLD-   2272018243D 1   1.00000     0.00000
 Structure written by MMmdl.
 44 45  0  0  0  0  0  0  0  0  2 V2000
  140.7801  136.6138  153.6077 C   0  0  0  0  0  0  0  0  0  0  0  0
  142.2025  136.2697  153.2719 C   0  0  0  0  0  0  0  0  0  0  0  0
  142.9172  135.0822  153.5986 C   0  0  0  0  0  0  0  0  0  0  0  0
  144.1631  135.0943  153.1535 N   0  0  0  0  0  0  0  0  0  0  0  0
  144.2862  136.2818  152.5236 N   0  0  0  0  0  0  0  0  0  0  0  0
  145.5515  136.6509  151.9121 C   0  0  0  0  0  0  0  0  0  0  0  0
  146.1685  137.9234  152.5280 C   0  0  2  0  0  0  0  0  0  0  0  0
  146.6573  138.8768  151.4248 C   0  0  0  0  0  0  0  0  0  0  0  0
  147.2704  137.5592  153.4479 N   0  3  0  0  0  0  0  0  0  0  0  0
  147.9700  138.6963  154.0864 C   0  0  0  0  0  0  0  0  0  0  0  0
  149.3019  138.2689  154.7419 C   0  0  0  0  0  0  0  0  0  0  0  0
  149.4285  136.8697  154.5582 O   0  0  0  0  0  0  0  0  0  0  0  0
  150.5193  138.9847  154.1046 C   0  0  0  0  0  0  0  0  0  0  0  0
  151.8417  138.6856  154.8339 C   0  0  0  0  0  0  0  0  0  0  0  0
  151.7427  139.0125  156.3302 C   0  0  0  0  0  0  0  0  0  0  0  0
  150.5780  138.2530  156.9797 C   0  0  0  0  0  0  0  0  0  0  0  0
  149.2488  138.5499  156.2628 C   0  0  0  0  0  0  0  0  0  0  0  0
  143.1205  137.0153  152.5882 C   0  0  0  0  0  0  0  0  0  0  0  0
  140.2928  135.8193  154.1734 H   0  0  0  0  0  0  0  0  0  0  0  0
  140.1845  136.7805  152.7100 H   0  0  0  0  0  0  0  0  0  0  0  0
  140.7167  137.5211  154.2087 H   0  0  0  0  0  0  0  0  0  0  0  0
  142.5695  134.2176  154.1447 H   0  0  0  0  0  0  0  0  0  0  0  0
  146.2410  135.8105  152.0056 H   0  0  0  0  0  0  0  0  0  0  0  0
  145.3778  136.7933  150.8446 H   0  0  0  0  0  0  0  0  0  0  0  0
  145.3951  138.4345  153.1034 H   0  0  0  0  0  0  0  0  0  0  0  0
  145.8488  139.1187  150.7341 H   0  0  0  0  0  0  0  0  0  0  0  0
  147.4659  138.4316  150.8439 H   0  0  0  0  0  0  0  0  0  0  0  0
  147.0191  139.8202  151.8333 H   0  0  0  0  0  0  0  0  0  0  0  0
  146.8717  137.0084  154.1955 H   0  0  0  0  0  0  0  0  0  0  0  0
  148.1618  139.4669  153.3397 H   0  0  0  0  0  0  0  0  0  0  0  0
  147.3135  139.1401  154.8366 H   0  0  0  0  0  0  0  0  0  0  0  0
  149.1143  136.6507  153.6936 H   0  0  0  0  0  0  0  0  0  0  0  0
  150.6213  138.7090  153.0544 H   0  0  0  0  0  0  0  0  0  0  0  0
  150.3496  140.0623  154.1189 H   0  0  0  0  0  0  0  0  0  0  0  0
  152.1064  137.6353  154.7062 H   0  0  0  0  0  0  0  0  0  0  0  0
  152.6504  139.2615  154.3831 H   0  0  0  0  0  0  0  0  0  0  0  0
  152.6779  138.7583  156.8302 H   0  0  0  0  0  0  0  0  0  0  0  0
  151.6019  140.0859  156.4637 H   0  0  0  0  0  0  0  0  0  0  0  0
  150.7809  137.1816  156.9582 H   0  0  0  0  0  0  0  0  0  0  0  0
  150.4990  138.5279  158.0320 H   0  0  0  0  0  0  0  0  0  0  0  0
  148.9974  139.5992  156.4247 H   0  0  0  0  0  0  0  0  0  0  0  0
  148.4463  137.9746  156.7267 H   0  0  0  0  0  0  0  0  0  0  0  0
  143.0392  137.9974  152.1457 H   0  0  0  0  0  0  0  0  0  0  0  0
  147.9414  136.9890  152.9540 H   0  0  0  0  0  0  0  0  0  0  0  0
  1  2  1  0  0  0  0
  1 19  1  0  0  0  0
  1 20  1  0  0  0  0
  1 21  1  0  0  0  0
  2 18  2  0  0  0  0
  2  3  1  0  0  0  0
  3  4  2  0  0  0  0
  3 22  1  0  0  0  0
  4  5  1  0  0  0  0
  5  6  1  0  0  0  0
  5 18  1  0  0  0  0
  6  7  1  0  0  0  0
  6 23  1  0  0  0  0
  6 24  1  0  0  0  0
  7  8  1  0  0  0  0
  7  9  1  0  0  0  0
  7 25  1  0  0  0  0
  8 26  1  0  0  0  0
  8 27  1  0  0  0  0
  8 28  1  0  0  0  0
  9 10  1  0  0  0  0
  9 29  1  0  0  0  0
  9 44  1  0  0  0  0
 10 11  1  0  0  0  0
 10 30  1  0  0  0  0
 10 31  1  0  0  0  0
 11 17  1  0  0  0  0
 11 12  1  0  0  0  0
 11 13  1  0  0  0  0
 12 32  1  0  0  0  0
 13 14  1  0  0  0  0
 13 33  1  0  0  0  0
 13 34  1  0  0  0  0
 14 15  1  0  0  0  0
 14 35  1  0  0  0  0
 14 36  1  0  0  0  0
 15 16  1  0  0  0  0
 15 37  1  0  0  0  0
 15 38  1  0  0  0  0
 16 17  1  0  0  0  0
 16 39  1  0  0  0  0
 16 40  1  0  0  0  0
 17 41  1  0  0  0  0
 17 42  1  0  0  0  0
 18 43  1  0  0  0  0
M  CHG  1   9   1
M  END
> <s_m_source_file>
AV-unprocessed.smi

> <i_m_source_file_index>
3240

> <i_lp_mmshare_version>
43012

> <i_f3d_flags>
0

> <s_epik_input>
W0NIM11jMVtjSF1ubihbY0hdMSlbQ0gyXVtDQEhdKFtDSDNdKVtOSF1bQ0gyXUMyKFtPSF0pW0NIMl1bQ0gyXVtDSDJdW0NIMl1bQ0gyXTI=

> <s_epik_cmdline>
J2VwaWtfcHl0aG9uJywgJy1waCcsICc3LjAnLCAnLXRuJywgJzgnLCAnLW1hJywgJzIwMCcsICctbWV0YWxfYmluZGluZycsICctaW1hZScsICc8aW5maWxlLm1hZT4nLCAnLW9tYWUnLCAnPG91dGZpbGUubWFlPic=

> <r_lp_tautomer_probability>
1

> <r_epik_Ionization_Penalty>
0.0111573

> <r_epik_Ionization_Penalty_Charging>
0.0111472

> <r_epik_Ionization_Penalty_Neutral>
1.01652e-05

> <r_epik_State_Penalty>
0.00856328

> <r_epik_Charging_Adjusted_Penalty>
0.0197104

> <i_epik_Tot_Q>
1

> <i_epik_Tot_abs_Q>
1

> <r_epik_Metal_State_Penalty>
0.00856448

> <b_epik_Metal_Only>
0

> <s_lp_Force_Field>
OPLS_2005

> <r_lp_Energy>
16.744

> <b_lp_Chiralities_Consistent>
1

> <s_lp_Variant>
AV-unprocessed.smi:3240-1

> <Gold.Version>
5.8.1

> <Gold.Id.Protein>
6NUR|6NUR_protein|mol2

> <Gold.PLP.Fitness>
44.7884

> <Gold.PLP.PLP>
-30.6505

> <Gold.PLP.part.hbond>
-2.0000

> <Gold.PLP.part.metal>
0.0000

> <Gold.PLP.part.buried>
-2.2404

> <Gold.PLP.part.nonpolar>
-26.6218

> <Gold.PLP.part.repulsive>
0.0782

> <Gold.PLP.ligand.clash>
0.0000

> <Gold.PLP.ligand.torsion>
1.8088

> <Gold.PLP.Chemscore.Hbond>
3.0000

> <Gold.PLP.Chemscore.CHOScore>
2.9081

> <Gold.PLP.Chemscore.Metal>
0.0000

> <Gold.Chemscore.Hbonds>
donor molecule, donor type, donor heavy atom, donor atom, acceptor molecule, acceptor atom, score
      L1  H     9    44       P1  7948  2.00
      L1  H    12    32       P1  7948  1.00
      L1  C     3    22       P1 10957  1.00
      L1  C    18    43       P1 10171  0.90
      L1  C    18    43       P1 10175  1.00

> <Gold.PLP.Chemscore.Internal.Correction>
0.0311

> <Gold.Rescore>
     Score         DG    S(hbond)    S(metal)    S(lipo)     H(rot)  DE(clash)    DE(int)     intcor
     14.36     -16.39       1.98        0.00      83.01       2.12       0.21       1.82       ----

> <Gold.Chemscore.Fitness>
14.3618

> <Gold.Chemscore.DG>
-16.3866

> <Gold.Chemscore.ZeroCoef>
-5.4800

> <Gold.Chemscore.Hbond>
1.9819

> <Gold.Chemscore.Metal>
0.0000

> <Gold.Chemscore.Lipo>
83.0114

> <Gold.Chemscore.Internal_Hbond>
0.0000

> <Gold.Chemscore.DEClash>
0.2075

> <Gold.Chemscore.DEInternal>
1.8173

> <Gold.Chemscore.Rot>
2.1193

> <Gold.Chemscore.Internal.Correction>
   9.000000E+99

> <Gold.Chemscore.Hbonds>
donor molecule, donor type, donor heavy atom, donor atom, acceptor molecule, acceptor atom, score
      L1  H     9    44       P1  7948  1.00
      L1  H    12    32       P1  7948  0.99

> <Gold.Chemscore.Hbond.Weighted>
-6.6197

> <Gold.Chemscore.Metal.Weighted>
-0.0000

> <Gold.Chemscore.Lipo.Weighted>
-9.7123

> <Gold.Chemscore.Internal_Hbond.Weighted>
0.0000

> <Gold.Chemscore.DEClash.Weighted>
0.2075

> <Gold.Chemscore.DEInternal.Weighted>
1.8173

> <Gold.Chemscore.Rot.Weighted>
5.4254

> <Gold.Chemscore.Internal.Correction.Weighted>
   9.000000E+99

> <Gold.Protein.RotatedTorsions>
[ 6907 6896 6895 6894 ] final  -45.98 input  -60.11 | X-H torsion
[ 7974 7965 7964 7962 ] final  113.46 input  175.53 | X-H torsion
[ 8008 7997 7996 7995 ] final -103.96 input   59.86 | X-H torsion
[ 10167 10162 10161 10158 ] final -176.59 input  -65.29 | X-H torsion
[ 10718 10713 10712 10709 ] final  -73.41 input   66.30 | X-H torsion
[ 10763 10752 10751 10750 ] final  -54.68 input  -60.55 | X-H torsion
[ 11005 11000 10999 10996 ] final -159.10 input  -57.11 | X-H torsion

> <Gold.Protein.ActiveResidues>
 VAL166  LYS551  ARG553  GLY616  TRP617  ASP618  TYR619  PRO620  LYS621  CYS622 
 ASP623  PHE694  ASN695  SER759  ASP760  ASP761  ALA762  ILE779  LEU786  VAL792 
 PHE793  MET794  SER795  GLU796  ALA797  LYS798  CYS799  TRP800  GLU811  SER814 

> <Gold.Protein.RotatedAtoms>
  150.9161  134.8579  159.7457 H   0  0  0  0  0  0  0  0  0  0  0  0  # atno 6907 bound_to 6896
  152.4969  134.4287  159.9515 H   0  0  0  0  0  0  0  0  0  0  0  0  # atno 6908 bound_to 6896
  151.4325  133.3627  159.2806 H   0  0  0  0  0  0  0  0  0  0  0  0  # atno 6909 bound_to 6896
  145.2167  139.2881  143.4240 H   0  0  0  0  0  0  0  0  0  0  0  0  # atno 7974 bound_to 7965
  154.8784  140.0420  157.1767 H   0  0  0  0  0  0  0  0  0  0  0  0  # atno 8008 bound_to 7997
  154.8665  140.2952  155.5486 H   0  0  0  0  0  0  0  0  0  0  0  0  # atno 8009 bound_to 7997
  156.2999  140.2437  156.3647 H   0  0  0  0  0  0  0  0  0  0  0  0  # atno 8010 bound_to 7997
  139.5522  144.2081  152.1097 H   0  0  0  0  0  0  0  0  0  0  0  0  # atno 10167 bound_to 10162
  156.0281  130.4393  150.2738 H   0  0  0  0  0  0  0  0  0  0  0  0  # atno 10718 bound_to 10713
  154.1788  135.6447  153.5028 H   0  0  0  0  0  0  0  0  0  0  0  0  # atno 10763 bound_to 10752
  153.0065  135.5401  154.6536 H   0  0  0  0  0  0  0  0  0  0  0  0  # atno 10764 bound_to 10752
  154.5895  135.2933  155.0623 H   0  0  0  0  0  0  0  0  0  0  0  0  # atno 10765 bound_to 10752
  140.6463  134.4498  157.5234 H   0  0  0  0  0  0  0  0  0  0  0  0  # atno 11005 bound_to 11000
  146.3385  140.2460  142.8597 LP  0  0  0  0  0  0  0  0  0  0  0  0  # atno 17320 bound_to 7965
  144.9804  140.8454  143.5401 LP  0  0  0  0  0  0  0  0  0  0  0  0  # atno 17321 bound_to 7965
  140.1578  144.5054  150.6650 LP  0  0  0  0  0  0  0  0  0  0  0  0  # atno 17342 bound_to 10162
  140.6787  143.2316  151.5441 LP  0  0  0  0  0  0  0  0  0  0  0  0  # atno 17343 bound_to 10162
  157.0841  131.0151  151.3146 LP  0  0  0  0  0  0  0  0  0  0  0  0  # atno 17370 bound_to 10713
  157.4905  130.7819  149.7503 LP  0  0  0  0  0  0  0  0  0  0  0  0  # atno 17371 bound_to 10713
  139.9062  134.8445  156.1699 LP  0  0  0  0  0  0  0  0  0  0  0  0  # atno 17394 bound_to 11000
  141.0570  133.6860  156.1879 LP  0  0  0  0  0  0  0  0  0  0  0  0  # atno 17395 bound_to 11000

$$$$
