AV-unprocessed.smi:3031|AV-procd|sdf|11548|dock6
  -GOLD-   2272016503D 1   1.00000     0.00000
 Structure written by MMmdl.
 47 48  0  0  0  0  0  0  0  0  2 V2000
  151.8594  145.6793  160.0880 C   0  0  0  0  0  0  0  0  0  0  0  0
  151.7473  144.3944  159.3196 C   0  0  0  0  0  0  0  0  0  0  0  0
  152.2099  143.1035  159.7035 C   0  0  0  0  0  0  0  0  0  0  0  0
  151.9480  142.1737  158.7998 N   0  0  0  0  0  0  0  0  0  0  0  0
  151.3072  142.8349  157.8114 N   0  0  0  0  0  0  0  0  0  0  0  0
  150.8565  142.1148  156.6342 C   0  0  0  0  0  0  0  0  0  0  0  0
  150.9851  140.5759  156.7452 C   0  0  1  0  0  0  0  0  0  0  0  0
  149.9926  140.0437  157.7882 C   0  0  0  0  0  0  0  0  0  0  0  0
  150.7334  139.9038  155.4665 N   0  0  0  0  0  0  0  0  0  0  0  0
  149.5573  140.3730  154.7285 C   0  0  0  0  0  0  0  0  0  0  0  0
  148.9226  139.2596  153.8772 C   0  0  1  0  0  0  0  0  0  0  0  0
  149.9413  138.5466  153.2040 O   0  0  0  0  0  0  0  0  0  0  0  0
  148.0343  138.2975  154.6954 C   0  0  0  0  0  0  0  0  0  0  0  0
  147.2517  137.3748  153.8357 N   0  3  0  0  0  0  0  0  0  0  0  0
  146.6410  136.2636  154.6035 C   0  0  0  0  0  0  0  0  0  0  0  0
  145.8930  135.3054  153.6611 C   0  0  0  0  0  0  0  0  0  0  0  0
  144.9111  136.0263  152.9270 O   0  0  0  0  0  0  0  0  0  0  0  0
  145.4909  137.0428  152.1190 C   0  0  0  0  0  0  0  0  0  0  0  0
  146.2235  138.0580  153.0119 C   0  0  0  0  0  0  0  0  0  0  0  0
  151.1815  144.1783  158.0950 C   0  0  0  0  0  0  0  0  0  0  0  0
  152.6534  145.6374  160.8337 H   0  0  0  0  0  0  0  0  0  0  0  0
  150.9345  145.9118  160.6161 H   0  0  0  0  0  0  0  0  0  0  0  0
  152.0784  146.5238  159.4339 H   0  0  0  0  0  0  0  0  0  0  0  0
  152.7237  142.8161  160.6089 H   0  0  0  0  0  0  0  0  0  0  0  0
  149.8119  142.3849  156.4743 H   0  0  0  0  0  0  0  0  0  0  0  0
  151.4006  142.4787  155.7607 H   0  0  0  0  0  0  0  0  0  0  0  0
  151.9861  140.3247  157.0992 H   0  0  0  0  0  0  0  0  0  0  0  0
  150.1715  140.4920  158.7657 H   0  0  0  0  0  0  0  0  0  0  0  0
  150.0847  138.9633  157.9035 H   0  0  0  0  0  0  0  0  0  0  0  0
  148.9618  140.2621  157.5062 H   0  0  0  0  0  0  0  0  0  0  0  0
  151.5527  139.9865  154.8726 H   0  0  0  0  0  0  0  0  0  0  0  0
  148.7970  140.7460  155.4094 H   0  0  0  0  0  0  0  0  0  0  0  0
  149.8289  141.2173  154.0941 H   0  0  0  0  0  0  0  0  0  0  0  0
  148.3246  139.7516  153.1111 H   0  0  0  0  0  0  0  0  0  0  0  0
  149.5393  137.9883  152.5556 H   0  0  0  0  0  0  0  0  0  0  0  0
  148.6701  137.7170  155.3657 H   0  0  0  0  0  0  0  0  0  0  0  0
  147.3519  138.8581  155.3364 H   0  0  0  0  0  0  0  0  0  0  0  0
  147.4147  135.7150  155.1420 H   0  0  0  0  0  0  0  0  0  0  0  0
  145.9547  136.6674  155.3497 H   0  0  0  0  0  0  0  0  0  0  0  0
  146.5855  134.8108  152.9781 H   0  0  0  0  0  0  0  0  0  0  0  0
  145.3997  134.5220  154.2365 H   0  0  0  0  0  0  0  0  0  0  0  0
  146.1727  136.6014  151.3901 H   0  0  0  0  0  0  0  0  0  0  0  0
  144.7008  137.5399  151.5555 H   0  0  0  0  0  0  0  0  0  0  0  0
  145.5078  138.5622  153.6634 H   0  0  0  0  0  0  0  0  0  0  0  0
  146.6788  138.8247  152.3862 H   0  0  0  0  0  0  0  0  0  0  0  0
  150.6976  144.8606  157.4116 H   0  0  0  0  0  0  0  0  0  0  0  0
  147.9127  136.9499  153.2004 H   0  0  0  0  0  0  0  0  0  0  0  0
  1  2  1  0  0  0  0
  1 21  1  0  0  0  0
  1 22  1  0  0  0  0
  1 23  1  0  0  0  0
  2 20  2  0  0  0  0
  2  3  1  0  0  0  0
  3  4  2  0  0  0  0
  3 24  1  0  0  0  0
  4  5  1  0  0  0  0
  5  6  1  0  0  0  0
  5 20  1  0  0  0  0
  6  7  1  0  0  0  0
  6 25  1  0  0  0  0
  6 26  1  0  0  0  0
  7  8  1  0  0  0  0
  7  9  1  0  0  0  0
  7 27  1  0  0  0  0
  8 28  1  0  0  0  0
  8 29  1  0  0  0  0
  8 30  1  0  0  0  0
  9 10  1  0  0  0  0
  9 31  1  0  0  0  0
 10 11  1  0  0  0  0
 10 32  1  0  0  0  0
 10 33  1  0  0  0  0
 11 12  1  0  0  0  0
 11 13  1  0  0  0  0
 11 34  1  0  0  0  0
 12 35  1  0  0  0  0
 13 14  1  0  0  0  0
 13 36  1  0  0  0  0
 13 37  1  0  0  0  0
 14 19  1  0  0  0  0
 14 15  1  0  0  0  0
 14 47  1  0  0  0  0
 15 16  1  0  0  0  0
 15 38  1  0  0  0  0
 15 39  1  0  0  0  0
 16 17  1  0  0  0  0
 16 40  1  0  0  0  0
 16 41  1  0  0  0  0
 17 18  1  0  0  0  0
 18 19  1  0  0  0  0
 18 42  1  0  0  0  0
 18 43  1  0  0  0  0
 19 44  1  0  0  0  0
 19 45  1  0  0  0  0
 20 46  1  0  0  0  0
M  CHG  1  14   1
M  END
> <s_m_source_file>
AV-unprocessed.smi

> <i_m_source_file_index>
3031

> <i_lp_mmshare_version>
43012

> <i_f3d_flags>
0

> <s_epik_input>
W0NIM11jMVtjSF1ubihbY0hdMSlbQ0gyXVtDQEhdKFtDSDNdKVtOSF1bQ0gyXVtDQEhdKFtPSF0pW0NIMl1OMltDSDJdW0NIMl1PW0NIMl1bQ0gyXTI=

> <s_epik_cmdline>
J2VwaWtfcHl0aG9uJywgJy1waCcsICc3LjAnLCAnLXRuJywgJzgnLCAnLW1hJywgJzIwMCcsICctbWV0YWxfYmluZGluZycsICctaW1hZScsICc8aW5maWxlLm1hZT4nLCAnLW9tYWUnLCAnPG91dGZpbGUubWFlPic=

> <r_epik_Ionization_Penalty>
0.467051

> <r_epik_Ionization_Penalty_Charging>
0.202493

> <r_epik_Ionization_Penalty_Neutral>
0.264558

> <r_epik_State_Penalty>
1.34287

> <r_epik_Charging_Adjusted_Penalty>
1.54537

> <i_epik_Tot_Q>
1

> <i_epik_Tot_abs_Q>
1

> <r_epik_Metal_State_Penalty>
1.34281

> <b_epik_Metal_Only>
0

> <s_lp_Force_Field>
OPLS_2005

> <r_lp_Energy>
30.2263

> <b_lp_Chiralities_Consistent>
1

> <s_lp_Variant>
AV-unprocessed.smi:3031-8

> <Gold.Version>
5.8.1

> <Gold.Id.Protein>
6NUR|6NUR_protein|mol2

> <Gold.PLP.Fitness>
47.1683

> <Gold.PLP.PLP>
-36.3708

> <Gold.PLP.part.hbond>
-3.4554

> <Gold.PLP.part.metal>
0.0000

> <Gold.PLP.part.buried>
-1.2263

> <Gold.PLP.part.nonpolar>
-32.1912

> <Gold.PLP.part.repulsive>
0.1164

> <Gold.PLP.ligand.clash>
0.0000

> <Gold.PLP.ligand.torsion>
0.6531

> <Gold.PLP.Chemscore.Hbond>
3.0000

> <Gold.PLP.Chemscore.CHOScore>
1.0000

> <Gold.PLP.Chemscore.Metal>
0.0000

> <Gold.Chemscore.Hbonds>
donor molecule, donor type, donor heavy atom, donor atom, acceptor molecule, acceptor atom, score
      L1  H    12    35       P1  7948  1.00
      L1  H    14    47       P1  7948  2.00
      L1  C    20    46       P1  8028  1.00

> <Gold.PLP.Chemscore.Internal.Correction>
0.1037

> <Gold.Rescore>
     Score         DG    S(hbond)    S(metal)    S(lipo)     H(rot)  DE(clash)    DE(int)     intcor
     13.76     -15.40       1.76        0.00      92.56       2.65       0.12       1.52       ----

> <Gold.Chemscore.Fitness>
13.7631

> <Gold.Chemscore.DG>
-15.4044

> <Gold.Chemscore.ZeroCoef>
-5.4800

> <Gold.Chemscore.Hbond>
1.7619

> <Gold.Chemscore.Metal>
0.0000

> <Gold.Chemscore.Lipo>
92.5566

> <Gold.Chemscore.Internal_Hbond>
0.0000

> <Gold.Chemscore.DEClash>
0.1234

> <Gold.Chemscore.DEInternal>
1.5179

> <Gold.Chemscore.Rot>
2.6521

> <Gold.Chemscore.Internal.Correction>
   9.000000E+99

> <Gold.Chemscore.Hbonds>
donor molecule, donor type, donor heavy atom, donor atom, acceptor molecule, acceptor atom, score
      L1  H    12    35       P1  7948  0.63
      L1  H    14    47       P1  7948  1.00

> <Gold.Chemscore.Hbond.Weighted>
-5.8847

> <Gold.Chemscore.Metal.Weighted>
-0.0000

> <Gold.Chemscore.Lipo.Weighted>
-10.8291

> <Gold.Chemscore.Internal_Hbond.Weighted>
0.0000

> <Gold.Chemscore.DEClash.Weighted>
0.1234

> <Gold.Chemscore.DEInternal.Weighted>
1.5179

> <Gold.Chemscore.Rot.Weighted>
6.7894

> <Gold.Chemscore.Internal.Correction.Weighted>
   9.000000E+99

> <Gold.Protein.RotatedTorsions>
[ 6907 6896 6895 6894 ] final  -20.58 input  -60.11 | X-H torsion
[ 7974 7965 7964 7962 ] final -115.14 input  175.53 | X-H torsion
[ 8008 7997 7996 7995 ] final  -83.29 input   59.86 | X-H torsion
[ 10167 10162 10161 10158 ] final   18.92 input  -65.29 | X-H torsion
[ 10718 10713 10712 10709 ] final   60.31 input   66.30 | X-H torsion
[ 10763 10752 10751 10750 ] final  -72.19 input  -60.55 | X-H torsion
[ 11005 11000 10999 10996 ] final   14.03 input  -57.11 | X-H torsion

> <Gold.Protein.ActiveResidues>
 VAL166  LYS551  ARG553  GLY616  TRP617  ASP618  TYR619  PRO620  LYS621  CYS622 
 ASP623  PHE694  ASN695  SER759  ASP760  ASP761  ALA762  ILE779  LEU786  VAL792 
 PHE793  MET794  SER795  GLU796  ALA797  LYS798  CYS799  TRP800  GLU811  SER814 

> <Gold.Protein.RotatedAtoms>
  151.2461  135.0606  159.9043 H   0  0  0  0  0  0  0  0  0  0  0  0  # atno 6907 bound_to 6896
  152.5386  134.0382  159.8066 H   0  0  0  0  0  0  0  0  0  0  0  0  # atno 6908 bound_to 6896
  151.0583  133.5516  159.2667 H   0  0  0  0  0  0  0  0  0  0  0  0  # atno 6909 bound_to 6896
  145.1119  140.8616  143.3865 H   0  0  0  0  0  0  0  0  0  0  0  0  # atno 7974 bound_to 7965
  154.6176  140.0621  156.9573 H   0  0  0  0  0  0  0  0  0  0  0  0  # atno 8008 bound_to 7997
  155.1871  140.3304  155.4346 H   0  0  0  0  0  0  0  0  0  0  0  0  # atno 8009 bound_to 7997
  156.2413  140.1887  156.6963 H   0  0  0  0  0  0  0  0  0  0  0  0  # atno 8010 bound_to 7997
  140.5618  143.9324  150.6648 H   0  0  0  0  0  0  0  0  0  0  0  0  # atno 10167 bound_to 10162
  157.5743  130.8931  149.9320 H   0  0  0  0  0  0  0  0  0  0  0  0  # atno 10718 bound_to 10713
  154.4422  135.5938  153.6137 H   0  0  0  0  0  0  0  0  0  0  0  0  # atno 10763 bound_to 10752
  152.9806  135.6001  154.3708 H   0  0  0  0  0  0  0  0  0  0  0  0  # atno 10764 bound_to 10752
  154.3559  135.2841  155.2325 H   0  0  0  0  0  0  0  0  0  0  0  0  # atno 10765 bound_to 10752
  140.4741  134.1001  155.7738 H   0  0  0  0  0  0  0  0  0  0  0  0  # atno 11005 bound_to 11000
  145.0838  139.2940  143.5770 LP  0  0  0  0  0  0  0  0  0  0  0  0  # atno 17320 bound_to 7965
  146.3526  140.0353  142.8647 LP  0  0  0  0  0  0  0  0  0  0  0  0  # atno 17321 bound_to 7965
  140.2776  143.3412  152.1180 LP  0  0  0  0  0  0  0  0  0  0  0  0  # atno 17342 bound_to 10162
  139.5073  144.6830  151.5959 LP  0  0  0  0  0  0  0  0  0  0  0  0  # atno 17343 bound_to 10162
  156.0788  130.3675  150.0623 LP  0  0  0  0  0  0  0  0  0  0  0  0  # atno 17370 bound_to 10713
  156.8772  130.9544  151.3603 LP  0  0  0  0  0  0  0  0  0  0  0  0  # atno 17371 bound_to 10713
  141.1563  133.8877  157.1969 LP  0  0  0  0  0  0  0  0  0  0  0  0  # atno 17394 bound_to 11000
  139.9867  135.0079  156.9878 LP  0  0  0  0  0  0  0  0  0  0  0  0  # atno 17395 bound_to 11000

$$$$
