AV-unprocessed.smi:3083|AV-procd|sdf|11747|dock6
  -GOLD-   2272017143D 1   1.00000     0.00000
 Structure written by MMmdl.
 28 29  0  0  0  0  0  0  0  0  2 V2000
  149.9491  142.5997  156.5236 N   0  3  0  0  0  0  0  0  0  0  0  0
  151.1715  142.5004  157.3424 C   0  0  1  0  0  0  0  0  0  0  0  0
  151.0335  143.3676  158.6079 C   0  0  0  0  0  0  0  0  0  0  0  0
  152.2862  143.2733  159.4927 C   0  0  0  0  0  0  0  0  0  0  0  0
  152.5938  141.8153  159.8655 C   0  0  0  0  0  0  0  0  0  0  0  0
  152.7334  140.9388  158.6110 C   0  0  0  0  0  0  0  0  0  0  0  0
  151.4804  141.0269  157.7152 C   0  0  2  0  0  0  0  0  0  0  0  0
  151.6295  140.1689  156.5454 N   0  0  0  0  0  0  0  0  0  0  0  0
  150.6718  139.8348  155.6100 C   0  0  0  0  0  0  0  0  0  0  0  0
  151.2535  138.9851  154.7135 C   0  0  0  0  0  0  0  0  0  0  0  0
  152.5832  138.8412  155.1977 C   0  0  0  0  0  0  0  0  0  0  0  0
  152.8034  139.5454  156.2959 N   0  0  0  0  0  0  0  0  0  0  0  0
  149.2076  142.0664  156.9542 H   0  0  0  0  0  0  0  0  0  0  0  0
  150.1369  142.2325  155.6013 H   0  0  0  0  0  0  0  0  0  0  0  0
  151.9911  142.9027  156.7451 H   0  0  0  0  0  0  0  0  0  0  0  0
  150.8596  144.4086  158.3322 H   0  0  0  0  0  0  0  0  0  0  0  0
  150.1613  143.0506  159.1818 H   0  0  0  0  0  0  0  0  0  0  0  0
  153.1392  143.7045  158.9672 H   0  0  0  0  0  0  0  0  0  0  0  0
  152.1477  143.8667  160.3970 H   0  0  0  0  0  0  0  0  0  0  0  0
  153.5099  141.7679  160.4554 H   0  0  0  0  0  0  0  0  0  0  0  0
  151.7977  141.4231  160.4996 H   0  0  0  0  0  0  0  0  0  0  0  0
  153.6153  141.2517  158.0497 H   0  0  0  0  0  0  0  0  0  0  0  0
  152.9092  139.9039  158.9069 H   0  0  0  0  0  0  0  0  0  0  0  0
  150.6353  140.6391  158.2871 H   0  0  0  0  0  0  0  0  0  0  0  0
  149.6654  140.2244  155.6588 H   0  0  0  0  0  0  0  0  0  0  0  0
  150.7963  138.5286  153.8479 H   0  0  0  0  0  0  0  0  0  0  0  0
  153.3883  138.2483  154.7887 H   0  0  0  0  0  0  0  0  0  0  0  0
  149.6707  143.5677  156.4494 H   0  0  0  0  0  0  0  0  0  0  0  0
  1  2  1  0  0  0  0
  1 13  1  0  0  0  0
  1 14  1  0  0  0  0
  1 28  1  0  0  0  0
  2  7  1  0  0  0  0
  2  3  1  0  0  0  0
  2 15  1  0  0  0  0
  3  4  1  0  0  0  0
  3 16  1  0  0  0  0
  3 17  1  0  0  0  0
  4  5  1  0  0  0  0
  4 18  1  0  0  0  0
  4 19  1  0  0  0  0
  5  6  1  0  0  0  0
  5 20  1  0  0  0  0
  5 21  1  0  0  0  0
  6  7  1  0  0  0  0
  6 22  1  0  0  0  0
  6 23  1  0  0  0  0
  7  8  1  0  0  0  0
  7 24  1  0  0  0  0
  8 12  1  0  0  0  0
  8  9  1  0  0  0  0
  9 10  2  0  0  0  0
  9 25  1  0  0  0  0
 10 11  1  0  0  0  0
 10 26  1  0  0  0  0
 11 12  2  0  0  0  0
 11 27  1  0  0  0  0
M  CHG  1   1   1
M  END
> <s_m_source_file>
AV-unprocessed.smi

> <i_m_source_file_index>
3083

> <i_lp_mmshare_version>
43012

> <i_f3d_flags>
0

> <s_epik_input>
W05IMl1bQ0BASF0xW0NIMl1bQ0gyXVtDSDJdW0NIMl1bQ0BIXTFuMltjSF1bY0hdW2NIXW4y

> <s_epik_cmdline>
J2VwaWtfcHl0aG9uJywgJy1waCcsICc3LjAnLCAnLXRuJywgJzgnLCAnLW1hJywgJzIwMCcsICctbWV0YWxfYmluZGluZycsICctaW1hZScsICc8aW5maWxlLm1hZT4nLCAnLW9tYWUnLCAnPG91dGZpbGUubWFlPic=

> <r_lp_tautomer_probability>
1

> <r_epik_Ionization_Penalty>
0.00385053

> <r_epik_Ionization_Penalty_Charging>
0.0038389

> <r_epik_Ionization_Penalty_Neutral>
1.16305e-05

> <r_epik_State_Penalty>
-0

> <r_epik_Charging_Adjusted_Penalty>
0.0038389

> <i_epik_Tot_Q>
1

> <i_epik_Tot_abs_Q>
1

> <r_epik_Metal_State_Penalty>
-0

> <b_epik_Metal_Only>
0

> <s_lp_Force_Field>
OPLS_2005

> <r_lp_Energy>
13.574

> <b_lp_Chiralities_Consistent>
1

> <s_lp_Variant>
AV-unprocessed.smi:3083-4

> <Gold.Version>
5.8.1

> <Gold.Id.Protein>
6NUR|6NUR_protein|mol2

> <Gold.PLP.Fitness>
37.7354

> <Gold.PLP.PLP>
-28.8695

> <Gold.PLP.part.hbond>
-1.9663

> <Gold.PLP.part.metal>
0.0000

> <Gold.PLP.part.buried>
-3.5356

> <Gold.PLP.part.nonpolar>
-23.8992

> <Gold.PLP.part.repulsive>
0.0638

> <Gold.PLP.ligand.clash>
0.0000

> <Gold.PLP.ligand.torsion>
0.0812

> <Gold.PLP.Chemscore.Hbond>
3.0000

> <Gold.PLP.Chemscore.CHOScore>
0.0000

> <Gold.PLP.Chemscore.Metal>
0.0000

> <Gold.Chemscore.Hbonds>
donor molecule, donor type, donor heavy atom, donor atom, acceptor molecule, acceptor atom, score
      L1  H     1    28       P1  8028  2.00
      P1  H  7997  8010       L1    12  1.00

> <Gold.PLP.Chemscore.Internal.Correction>
0.0283

> <Gold.Rescore>
     Score         DG    S(hbond)    S(metal)    S(lipo)     H(rot)  DE(clash)    DE(int)     intcor
     17.50     -18.67       1.98        0.00      78.07       1.00       0.06       1.10       ----

> <Gold.Chemscore.Fitness>
17.5049

> <Gold.Chemscore.DG>
-18.6664

> <Gold.Chemscore.ZeroCoef>
-5.4800

> <Gold.Chemscore.Hbond>
1.9798

> <Gold.Chemscore.Metal>
0.0000

> <Gold.Chemscore.Lipo>
78.0673

> <Gold.Chemscore.Internal_Hbond>
0.0000

> <Gold.Chemscore.DEClash>
0.0642

> <Gold.Chemscore.DEInternal>
1.0972

> <Gold.Chemscore.Rot>
1.0000

> <Gold.Chemscore.Internal.Correction>
   9.000000E+99

> <Gold.Chemscore.Hbonds>
donor molecule, donor type, donor heavy atom, donor atom, acceptor molecule, acceptor atom, score
      L1  H     1    28       P1  8028  0.93
      P1  H  7997  8010       L1    12  0.82

> <Gold.Chemscore.Hbond.Weighted>
-6.6125

> <Gold.Chemscore.Metal.Weighted>
-0.0000

> <Gold.Chemscore.Lipo.Weighted>
-9.1339

> <Gold.Chemscore.Internal_Hbond.Weighted>
0.0000

> <Gold.Chemscore.DEClash.Weighted>
0.0642

> <Gold.Chemscore.DEInternal.Weighted>
1.0972

> <Gold.Chemscore.Rot.Weighted>
2.5600

> <Gold.Chemscore.Internal.Correction.Weighted>
   9.000000E+99

> <Gold.Protein.RotatedTorsions>
[ 6907 6896 6895 6894 ] final  -22.57 input  -60.11 | X-H torsion
[ 7974 7965 7964 7962 ] final   57.94 input  175.53 | X-H torsion
[ 8008 7997 7996 7995 ] final   75.77 input   59.86 | X-H torsion
[ 10167 10162 10161 10158 ] final  -29.05 input  -65.29 | X-H torsion
[ 10718 10713 10712 10709 ] final   23.81 input   66.30 | X-H torsion
[ 10763 10752 10751 10750 ] final   40.64 input  -60.55 | X-H torsion
[ 11005 11000 10999 10996 ] final  130.90 input  -57.11 | X-H torsion

> <Gold.Protein.ActiveResidues>
 VAL166  LYS551  ARG553  GLY616  TRP617  ASP618  TYR619  PRO620  LYS621  CYS622 
 ASP623  PHE694  ASN695  SER759  ASP760  ASP761  ALA762  ILE779  LEU786  VAL792 
 PHE793  MET794  SER795  GLU796  ALA797  LYS798  CYS799  TRP800  GLU811  SER814 

> <Gold.Protein.RotatedAtoms>
  151.2167  135.0502  159.8932 H   0  0  0  0  0  0  0  0  0  0  0  0  # atno 6907 bound_to 6896
  152.5419  134.0685  159.8194 H   0  0  0  0  0  0  0  0  0  0  0  0  # atno 6908 bound_to 6896
  151.0846  133.5315  159.2650 H   0  0  0  0  0  0  0  0  0  0  0  0  # atno 6909 bound_to 6896
  145.9236  139.3750  143.0463 H   0  0  0  0  0  0  0  0  0  0  0  0  # atno 7974 bound_to 7965
  155.8177  140.3471  155.5495 H   0  0  0  0  0  0  0  0  0  0  0  0  # atno 8008 bound_to 7997
  155.8375  140.0936  157.1775 H   0  0  0  0  0  0  0  0  0  0  0  0  # atno 8009 bound_to 7997
  154.4004  140.1400  156.3676 H   0  0  0  0  0  0  0  0  0  0  0  0  # atno 8010 bound_to 7997
  140.7264  143.3960  151.1347 H   0  0  0  0  0  0  0  0  0  0  0  0  # atno 10167 bound_to 10162
  157.1712  130.6760  149.6078 H   0  0  0  0  0  0  0  0  0  0  0  0  # atno 10718 bound_to 10713
  152.9930  135.6185  154.2658 H   0  0  0  0  0  0  0  0  0  0  0  0  # atno 10763 bound_to 10752
  154.2393  135.2789  155.2862 H   0  0  0  0  0  0  0  0  0  0  0  0  # atno 10764 bound_to 10752
  154.5383  135.5768  153.6875 H   0  0  0  0  0  0  0  0  0  0  0  0  # atno 10765 bound_to 10752
  139.9698  134.9580  156.9360 H   0  0  0  0  0  0  0  0  0  0  0  0  # atno 11005 bound_to 11000
  145.8517  140.9525  143.0746 LP  0  0  0  0  0  0  0  0  0  0  0  0  # atno 17320 bound_to 7965
  144.6756  140.0416  143.7481 LP  0  0  0  0  0  0  0  0  0  0  0  0  # atno 17321 bound_to 7965
  139.7572  143.8689  152.3091 LP  0  0  0  0  0  0  0  0  0  0  0  0  # atno 17342 bound_to 10162
  139.8563  144.7139  150.9153 LP  0  0  0  0  0  0  0  0  0  0  0  0  # atno 17343 bound_to 10162
  155.9738  130.4678  150.6338 LP  0  0  0  0  0  0  0  0  0  0  0  0  # atno 17370 bound_to 10713
  157.4041  131.0814  151.1281 LP  0  0  0  0  0  0  0  0  0  0  0  0  # atno 17371 bound_to 10713
  140.5317  134.0807  155.7317 LP  0  0  0  0  0  0  0  0  0  0  0  0  # atno 17394 bound_to 11000
  141.1378  133.9191  157.2394 LP  0  0  0  0  0  0  0  0  0  0  0  0  # atno 17395 bound_to 11000

$$$$
