AV-unprocessed.smi:2579|AV-procd|sdf|10125|dock10
  -GOLD-   2272014143D 1   1.00000     0.00000
 Structure written by MMmdl.
 38 40  0  0  0  0  0  0  0  0  1 V2000
  150.5148  138.1523  153.3141 O   0  0  0  0  0  0  0  0  0  0  0  0
  151.1139  137.4871  154.4056 C   0  0  0  0  0  0  0  0  0  0  0  0
  152.2183  138.3606  155.0143 C   0  0  0  0  0  0  0  0  0  0  0  0
  151.7119  139.6557  155.4268 N   0  0  0  0  0  0  0  0  0  0  0  0
  151.9056  140.4073  156.5785 C   0  0  0  0  0  0  0  0  0  0  0  0
  152.6665  140.0204  157.6007 N   0  0  0  0  0  0  0  0  0  0  0  0
  152.5331  141.0781  158.4810 C   0  0  0  0  0  0  0  0  0  0  0  0
  153.0926  141.2808  159.7630 C   0  0  0  0  0  0  0  0  0  0  0  0
  152.8078  142.4561  160.4889 C   0  0  0  0  0  0  0  0  0  0  0  0
  151.9604  143.4434  159.9457 C   0  0  0  0  0  0  0  0  0  0  0  0
  151.3923  143.2626  158.6700 C   0  0  0  0  0  0  0  0  0  0  0  0
  151.6809  142.0890  157.9480 C   0  0  0  0  0  0  0  0  0  0  0  0
  151.2955  141.6096  156.6996 N   0  0  0  0  0  0  0  0  0  0  0  0
  150.4136  142.2721  155.7499 C   0  0  0  0  0  0  0  0  0  0  0  0
  149.2092  141.3916  155.3814 C   0  0  2  0  0  0  0  0  0  0  0  0
  148.5876  141.7290  154.0261 C   0  0  0  0  0  0  0  0  0  0  0  0
  147.1530  141.2973  154.2273 C   0  0  0  0  0  0  0  0  0  0  0  0
  146.9103  141.7201  155.6715 C   0  0  0  0  0  0  0  0  0  0  0  0
  148.1572  141.5397  156.3348 O   0  0  0  0  0  0  0  0  0  0  0  0
  150.1797  137.5041  152.7136 H   0  0  0  0  0  0  0  0  0  0  0  0
  150.3368  137.3092  155.1494 H   0  0  0  0  0  0  0  0  0  0  0  0
  151.4934  136.5118  154.0979 H   0  0  0  0  0  0  0  0  0  0  0  0
  152.7010  137.8602  155.8544 H   0  0  0  0  0  0  0  0  0  0  0  0
  152.9914  138.5370  154.2659 H   0  0  0  0  0  0  0  0  0  0  0  0
  151.0816  140.0712  154.7566 H   0  0  0  0  0  0  0  0  0  0  0  0
  153.7412  140.5297  160.1890 H   0  0  0  0  0  0  0  0  0  0  0  0
  153.2403  142.5999  161.4681 H   0  0  0  0  0  0  0  0  0  0  0  0
  151.7454  144.3394  160.5096 H   0  0  0  0  0  0  0  0  0  0  0  0
  150.7399  144.0154  158.2528 H   0  0  0  0  0  0  0  0  0  0  0  0
  150.0749  143.2102  156.1908 H   0  0  0  0  0  0  0  0  0  0  0  0
  150.9804  142.5406  154.8578 H   0  0  0  0  0  0  0  0  0  0  0  0
  149.5021  140.3405  155.3843 H   0  0  0  0  0  0  0  0  0  0  0  0
  148.6267  142.8031  153.8387 H   0  0  0  0  0  0  0  0  0  0  0  0
  149.0765  141.2198  153.1952 H   0  0  0  0  0  0  0  0  0  0  0  0
  146.4605  141.7610  153.5242 H   0  0  0  0  0  0  0  0  0  0  0  0
  147.0682  140.2139  154.1320 H   0  0  0  0  0  0  0  0  0  0  0  0
  146.6431  142.7765  155.7180 H   0  0  0  0  0  0  0  0  0  0  0  0
  146.1158  141.1468  156.1496 H   0  0  0  0  0  0  0  0  0  0  0  0
  1  2  1  0  0  0  0
  1 20  1  0  0  0  0
  2  3  1  0  0  0  0
  2 21  1  0  0  0  0
  2 22  1  0  0  0  0
  3  4  1  0  0  0  0
  3 23  1  0  0  0  0
  3 24  1  0  0  0  0
  4  5  1  0  0  0  0
  4 25  1  0  0  0  0
  5 13  1  0  0  0  0
  5  6  2  0  0  0  0
  6  7  1  0  0  0  0
  7 12  2  0  0  0  0
  7  8  1  0  0  0  0
  8  9  2  0  0  0  0
  8 26  1  0  0  0  0
  9 10  1  0  0  0  0
  9 27  1  0  0  0  0
 10 11  2  0  0  0  0
 10 28  1  0  0  0  0
 11 12  1  0  0  0  0
 11 29  1  0  0  0  0
 12 13  1  0  0  0  0
 13 14  1  0  0  0  0
 14 15  1  0  0  0  0
 14 30  1  0  0  0  0
 14 31  1  0  0  0  0
 15 19  1  0  0  0  0
 15 16  1  0  0  0  0
 15 32  1  0  0  0  0
 16 17  1  0  0  0  0
 16 33  1  0  0  0  0
 16 34  1  0  0  0  0
 17 18  1  0  0  0  0
 17 35  1  0  0  0  0
 17 36  1  0  0  0  0
 18 19  1  0  0  0  0
 18 37  1  0  0  0  0
 18 38  1  0  0  0  0
M  END
> <s_m_source_file>
AV-unprocessed.smi

> <i_m_source_file_index>
2579

> <i_lp_mmshare_version>
43012

> <i_f3d_flags>
0

> <s_epik_input>
W09IXVtDSDJdW0NIMl1bTkhdYyhuMSluKGMoYzEyKVtjSF1bY0hdW2NIXVtjSF0yKVtDSDJdW0NAQEhdM1tDSDJdW0NIMl1bQ0gyXU8z

> <s_epik_cmdline>
J2VwaWtfcHl0aG9uJywgJy1waCcsICc3LjAnLCAnLXRuJywgJzgnLCAnLW1hJywgJzIwMCcsICctbWV0YWxfYmluZGluZycsICctaW1hZScsICc8aW5maWxlLm1hZT4nLCAnLW9tYWUnLCAnPG91dGZpbGUubWFlPic=

> <r_epik_Ionization_Penalty>
1.27244

> <r_epik_Ionization_Penalty_Charging>
0

> <r_epik_Ionization_Penalty_Neutral>
1.27244

> <r_epik_State_Penalty>
1.34401

> <r_epik_Charging_Adjusted_Penalty>
1.34401

> <i_epik_Tot_Q>
0

> <i_epik_Tot_abs_Q>
0

> <r_epik_Metal_State_Penalty>
0.00511131

> <b_epik_Metal_Only>
0

> <s_lp_Force_Field>
OPLS_2005

> <r_lp_Energy>
20.4938

> <b_lp_Chiralities_Consistent>
1

> <s_lp_Variant>
AV-unprocessed.smi:2579-3

> <Gold.Version>
5.8.1

> <Gold.Id.Protein>
6NUR|6NUR_protein|mol2

> <Gold.PLP.Fitness>
43.2486

> <Gold.PLP.PLP>
-38.0022

> <Gold.PLP.part.hbond>
-3.8007

> <Gold.PLP.part.metal>
0.0000

> <Gold.PLP.part.buried>
-2.2702

> <Gold.PLP.part.nonpolar>
-32.4607

> <Gold.PLP.part.repulsive>
0.2594

> <Gold.PLP.ligand.clash>
0.0000

> <Gold.PLP.ligand.torsion>
0.3812

> <Gold.PLP.Chemscore.Hbond>
2.0000

> <Gold.PLP.Chemscore.CHOScore>
0.0000

> <Gold.PLP.Chemscore.Metal>
0.0000

> <Gold.Chemscore.Hbonds>
donor molecule, donor type, donor heavy atom, donor atom, acceptor molecule, acceptor atom, score
      L1  H     1    20       P1  7948  0.55
      P1  H  7997  8010       L1     6  1.00

> <Gold.PLP.Chemscore.Internal.Correction>
0.0089

> <Gold.Rescore>
     Score         DG    S(hbond)    S(metal)    S(lipo)     H(rot)  DE(clash)    DE(int)     intcor
     15.00     -16.87       1.37        0.00     105.70       2.17       1.27       0.61       ----

> <Gold.Chemscore.Fitness>
14.9985

> <Gold.Chemscore.DG>
-16.8734

> <Gold.Chemscore.ZeroCoef>
-5.4800

> <Gold.Chemscore.Hbond>
1.3708

> <Gold.Chemscore.Metal>
0.0000

> <Gold.Chemscore.Lipo>
105.7012

> <Gold.Chemscore.Internal_Hbond>
0.0000

> <Gold.Chemscore.DEClash>
1.2656

> <Gold.Chemscore.DEInternal>
0.6093

> <Gold.Chemscore.Rot>
2.1688

> <Gold.Chemscore.Internal.Correction>
   9.000000E+99

> <Gold.Chemscore.Hbonds>
donor molecule, donor type, donor heavy atom, donor atom, acceptor molecule, acceptor atom, score
      L1  H     1    20       P1  7948  0.03
      P1  H  7997  8010       L1     6  0.24

> <Gold.Chemscore.Hbond.Weighted>
-4.5785

> <Gold.Chemscore.Metal.Weighted>
-0.0000

> <Gold.Chemscore.Lipo.Weighted>
-12.3670

> <Gold.Chemscore.Internal_Hbond.Weighted>
0.0000

> <Gold.Chemscore.DEClash.Weighted>
1.2656

> <Gold.Chemscore.DEInternal.Weighted>
0.6093

> <Gold.Chemscore.Rot.Weighted>
5.5522

> <Gold.Chemscore.Internal.Correction.Weighted>
   9.000000E+99

> <Gold.Protein.RotatedTorsions>
[ 6907 6896 6895 6894 ] final  152.43 input  -60.11 | X-H torsion
[ 7974 7965 7964 7962 ] final  -10.17 input  175.53 | X-H torsion
[ 8008 7997 7996 7995 ] final   48.58 input   59.86 | X-H torsion
[ 10167 10162 10161 10158 ] final   84.22 input  -65.29 | X-H torsion
[ 10718 10713 10712 10709 ] final  148.23 input   66.30 | X-H torsion
[ 10763 10752 10751 10750 ] final   -1.24 input  -60.55 | X-H torsion
[ 11005 11000 10999 10996 ] final -112.48 input  -57.11 | X-H torsion

> <Gold.Protein.ActiveResidues>
 VAL166  LYS551  ARG553  GLY616  TRP617  ASP618  TYR619  PRO620  LYS621  CYS622 
 ASP623  PHE694  ASN695  SER759  ASP760  ASP761  ALA762  ILE779  LEU786  VAL792 
 PHE793  MET794  SER795  GLU796  ALA797  LYS798  CYS799  TRP800  GLU811  SER814 

> <Gold.Protein.RotatedAtoms>
  152.0868  133.4180  159.4525 H   0  0  0  0  0  0  0  0  0  0  0  0  # atno 6907 bound_to 6896
  150.6862  134.2918  159.4679 H   0  0  0  0  0  0  0  0  0  0  0  0  # atno 6908 bound_to 6896
  152.0765  134.9498  160.0624 H   0  0  0  0  0  0  0  0  0  0  0  0  # atno 6909 bound_to 6896
  146.2229  140.2724  142.8357 H   0  0  0  0  0  0  0  0  0  0  0  0  # atno 7974 bound_to 7965
  155.3879  140.3432  155.4250 H   0  0  0  0  0  0  0  0  0  0  0  0  # atno 8008 bound_to 7997
  156.1574  140.1590  156.8703 H   0  0  0  0  0  0  0  0  0  0  0  0  # atno 8009 bound_to 7997
  154.5107  140.0791  156.7966 H   0  0  0  0  0  0  0  0  0  0  0  0  # atno 8010 bound_to 7997
  139.9102  144.6276  150.8545 H   0  0  0  0  0  0  0  0  0  0  0  0  # atno 10167 bound_to 10162
  157.3112  131.0888  151.1314 H   0  0  0  0  0  0  0  0  0  0  0  0  # atno 10718 bound_to 10713
  153.3423  135.6981  153.6857 H   0  0  0  0  0  0  0  0  0  0  0  0  # atno 10763 bound_to 10752
  153.5617  135.3533  155.2802 H   0  0  0  0  0  0  0  0  0  0  0  0  # atno 10764 bound_to 10752
  154.8639  135.4251  154.2639 H   0  0  0  0  0  0  0  0  0  0  0  0  # atno 10765 bound_to 10752
  141.0672  133.9439  157.2555 H   0  0  0  0  0  0  0  0  0  0  0  0  # atno 11005 bound_to 11000
  144.9258  140.7920  143.5720 LP  0  0  0  0  0  0  0  0  0  0  0  0  # atno 17320 bound_to 7965
  145.2664  139.1972  143.4865 LP  0  0  0  0  0  0  0  0  0  0  0  0  # atno 17321 bound_to 7965
  140.7687  143.3371  151.2286 LP  0  0  0  0  0  0  0  0  0  0  0  0  # atno 17342 bound_to 10162
  139.6949  143.9630  152.2877 LP  0  0  0  0  0  0  0  0  0  0  0  0  # atno 17343 bound_to 10162
  157.2636  130.6670  149.5986 LP  0  0  0  0  0  0  0  0  0  0  0  0  # atno 17370 bound_to 10713
  155.9678  130.4501  150.5684 LP  0  0  0  0  0  0  0  0  0  0  0  0  # atno 17371 bound_to 10713
  139.9488  135.0179  156.8933 LP  0  0  0  0  0  0  0  0  0  0  0  0  # atno 17394 bound_to 11000
  140.5748  134.0409  155.7443 LP  0  0  0  0  0  0  0  0  0  0  0  0  # atno 17395 bound_to 11000

$$$$
