AV-unprocessed.smi:2453|AV-procd|sdf|9687|dock4
  -GOLD-   2272013323D 1   1.00000     0.00000
 Structure written by MMmdl.
 40 41  0  0  0  0  0  0  0  0  1 V2000
  150.4083  136.2884  155.0378 C   0  0  0  0  0  0  0  0  0  0  0  0
  150.5194  134.8684  155.5647 C   0  0  0  0  0  0  0  0  0  0  0  0
  151.4215  134.5740  156.6096 C   0  0  0  0  0  0  0  0  0  0  0  0
  151.5774  133.3421  157.1361 N   0  0  0  0  0  0  0  0  0  0  0  0
  150.8226  132.3438  156.6336 C   0  0  0  0  0  0  0  0  0  0  0  0
  149.8919  132.5243  155.5923 C   0  0  0  0  0  0  0  0  0  0  0  0
  149.7393  133.8146  155.0294 C   0  0  0  0  0  0  0  0  0  0  0  0
  148.8097  134.1085  153.9918 N   0  0  0  0  0  0  0  0  0  0  0  0
  147.7438  133.3953  153.5889 C   0  0  0  0  0  0  0  0  0  0  0  0
  147.4144  132.2953  154.0323 O   0  0  0  0  0  0  0  0  0  0  0  0
  147.0782  134.0347  152.6157 N   0  0  0  0  0  0  0  0  0  0  0  0
  145.8653  133.5607  151.9488 C   0  0  2  0  0  0  0  0  0  0  0  0
  146.0152  132.0518  151.6685 C   0  0  0  0  0  0  0  0  0  0  0  0
  144.8069  131.4904  150.9071 C   0  0  0  0  0  0  0  0  0  0  0  0
  144.5751  132.2663  149.6047 C   0  0  0  0  0  0  0  0  0  0  0  0
  144.4020  133.7667  149.8821 C   0  0  0  0  0  0  0  0  0  0  0  0
  145.6066  134.3632  150.6458 C   0  0  1  0  0  0  0  0  0  0  0  0
  145.3956  135.8693  150.9205 C   0  0  0  0  0  0  0  0  0  0  0  0
  145.3805  136.6044  149.7147 O   0  0  0  0  0  0  0  0  0  0  0  0
  151.0948  136.9590  155.5556 H   0  0  0  0  0  0  0  0  0  0  0  0
  149.3962  136.6684  155.1783 H   0  0  0  0  0  0  0  0  0  0  0  0
  150.6456  136.3192  153.9741 H   0  0  0  0  0  0  0  0  0  0  0  0
  152.0374  135.3502  157.0399 H   0  0  0  0  0  0  0  0  0  0  0  0
  150.9581  131.3703  157.0813 H   0  0  0  0  0  0  0  0  0  0  0  0
  149.3090  131.6792  155.2605 H   0  0  0  0  0  0  0  0  0  0  0  0
  149.0059  134.9464  153.4642 H   0  0  0  0  0  0  0  0  0  0  0  0
  147.4315  134.9317  152.3161 H   0  0  0  0  0  0  0  0  0  0  0  0
  144.9997  133.6944  152.6004 H   0  0  0  0  0  0  0  0  0  0  0  0
  146.9207  131.8712  151.0871 H   0  0  0  0  0  0  0  0  0  0  0  0
  146.1389  131.5092  152.6066 H   0  0  0  0  0  0  0  0  0  0  0  0
  144.9622  130.4336  150.6885 H   0  0  0  0  0  0  0  0  0  0  0  0
  143.9166  131.5501  151.5346 H   0  0  0  0  0  0  0  0  0  0  0  0
  145.4181  132.1128  148.9297 H   0  0  0  0  0  0  0  0  0  0  0  0
  143.6936  131.8787  149.0933 H   0  0  0  0  0  0  0  0  0  0  0  0
  144.2596  134.2877  148.9348 H   0  0  0  0  0  0  0  0  0  0  0  0
  143.4885  133.9239  150.4575 H   0  0  0  0  0  0  0  0  0  0  0  0
  146.4894  134.2588  150.0123 H   0  0  0  0  0  0  0  0  0  0  0  0
  144.4621  136.0369  151.4586 H   0  0  0  0  0  0  0  0  0  0  0  0
  146.1961  136.2767  151.5373 H   0  0  0  0  0  0  0  0  0  0  0  0
  144.9809  137.4448  149.8799 H   0  0  0  0  0  0  0  0  0  0  0  0
  1  2  1  0  0  0  0
  1 20  1  0  0  0  0
  1 21  1  0  0  0  0
  1 22  1  0  0  0  0
  2  7  1  0  0  0  0
  2  3  2  0  0  0  0
  3  4  1  0  0  0  0
  3 23  1  0  0  0  0
  4  5  2  0  0  0  0
  5  6  1  0  0  0  0
  5 24  1  0  0  0  0
  6  7  2  0  0  0  0
  6 25  1  0  0  0  0
  7  8  1  0  0  0  0
  8  9  1  0  0  0  0
  8 26  1  0  0  0  0
  9 10  2  0  0  0  0
  9 11  1  0  0  0  0
 11 12  1  0  0  0  0
 11 27  1  0  0  0  0
 12 17  1  0  0  0  0
 12 13  1  0  0  0  0
 12 28  1  0  0  0  0
 13 14  1  0  0  0  0
 13 29  1  0  0  0  0
 13 30  1  0  0  0  0
 14 15  1  0  0  0  0
 14 31  1  0  0  0  0
 14 32  1  0  0  0  0
 15 16  1  0  0  0  0
 15 33  1  0  0  0  0
 15 34  1  0  0  0  0
 16 17  1  0  0  0  0
 16 35  1  0  0  0  0
 16 36  1  0  0  0  0
 17 18  1  0  0  0  0
 17 37  1  0  0  0  0
 18 19  1  0  0  0  0
 18 38  1  0  0  0  0
 18 39  1  0  0  0  0
 19 40  1  0  0  0  0
M  END
> <s_m_source_file>
AV-unprocessed.smi

> <i_m_source_file_index>
2453

> <i_lp_mmshare_version>
43012

> <i_f3d_flags>
0

> <s_epik_input>
W0NIM11jMVtjSF1uW2NIXVtjSF1jMVtOSF1DKD1PKVtOSF1bQ0BASF0yW0NIMl1bQ0gyXVtDSDJdW0NIMl1bQ0BIXTJbQ0gyXVtPSF0=

> <s_epik_cmdline>
J2VwaWtfcHl0aG9uJywgJy1waCcsICc3LjAnLCAnLXRuJywgJzgnLCAnLW1hJywgJzIwMCcsICctbWV0YWxfYmluZGluZycsICctaW1hZScsICc8aW5maWxlLm1hZT4nLCAnLW9tYWUnLCAnPG91dGZpbGUubWFlPic=

> <r_epik_Ionization_Penalty>
0.210691

> <r_epik_Ionization_Penalty_Charging>
0

> <r_epik_Ionization_Penalty_Neutral>
0.210691

> <r_epik_State_Penalty>
0.200732

> <r_epik_Charging_Adjusted_Penalty>
0.200732

> <i_epik_Tot_Q>
0

> <i_epik_Tot_abs_Q>
0

> <r_epik_Metal_State_Penalty>
0.147519

> <b_epik_Metal_Only>
0

> <s_lp_Force_Field>
OPLS_2005

> <r_lp_Energy>
17.5687

> <b_lp_Chiralities_Consistent>
1

> <s_lp_Variant>
AV-unprocessed.smi:2453-1

> <Gold.Version>
5.8.1

> <Gold.Id.Protein>
6NUR|6NUR_protein|mol2

> <Gold.PLP.Fitness>
45.5807

> <Gold.PLP.PLP>
-35.7879

> <Gold.PLP.part.hbond>
-4.8283

> <Gold.PLP.part.metal>
0.0000

> <Gold.PLP.part.buried>
-4.0757

> <Gold.PLP.part.nonpolar>
-28.0557

> <Gold.PLP.part.repulsive>
0.0588

> <Gold.PLP.ligand.clash>
0.0000

> <Gold.PLP.ligand.torsion>
0.3279

> <Gold.PLP.Chemscore.Hbond>
3.4797

> <Gold.PLP.Chemscore.CHOScore>
0.0000

> <Gold.PLP.Chemscore.Metal>
0.0000

> <Gold.Chemscore.Hbonds>
donor molecule, donor type, donor heavy atom, donor atom, acceptor molecule, acceptor atom, score
      L1  H     8    26       P1  7948  1.00
      L1  H    11    27       P1  7948  1.00
      L1  H    19    40       P1 10171  1.00
      P1  H  6896  6909       L1     4  0.55

> <Gold.PLP.Chemscore.Internal.Correction>
0.0095

> <Gold.Rescore>
     Score         DG    S(hbond)    S(metal)    S(lipo)     H(rot)  DE(clash)    DE(int)     intcor
     16.12     -19.12       2.57        0.00      81.52       1.75       0.08       2.92       ----

> <Gold.Chemscore.Fitness>
16.1188

> <Gold.Chemscore.DG>
-19.1184

> <Gold.Chemscore.ZeroCoef>
-5.4800

> <Gold.Chemscore.Hbond>
2.5686

> <Gold.Chemscore.Metal>
0.0000

> <Gold.Chemscore.Lipo>
81.5179

> <Gold.Chemscore.Internal_Hbond>
0.0000

> <Gold.Chemscore.DEClash>
0.0782

> <Gold.Chemscore.DEInternal>
2.9214

> <Gold.Chemscore.Rot>
1.7493

> <Gold.Chemscore.Internal.Correction>
   9.000000E+99

> <Gold.Chemscore.Hbonds>
donor molecule, donor type, donor heavy atom, donor atom, acceptor molecule, acceptor atom, score
      L1  H     8    26       P1  7948  0.28
      L1  H    11    27       P1  7948  0.88
      L1  H    19    40       P1 10171  0.96
      P1  H  6896  6909       L1     4  0.36

> <Gold.Chemscore.Hbond.Weighted>
-8.5790

> <Gold.Chemscore.Metal.Weighted>
-0.0000

> <Gold.Chemscore.Lipo.Weighted>
-9.5376

> <Gold.Chemscore.Internal_Hbond.Weighted>
0.0000

> <Gold.Chemscore.DEClash.Weighted>
0.0782

> <Gold.Chemscore.DEInternal.Weighted>
2.9214

> <Gold.Chemscore.Rot.Weighted>
4.4782

> <Gold.Chemscore.Internal.Correction.Weighted>
   9.000000E+99

> <Gold.Protein.RotatedTorsions>
[ 6907 6896 6895 6894 ] final  -50.94 input  -60.11 | X-H torsion
[ 7974 7965 7964 7962 ] final -113.29 input  175.53 | X-H torsion
[ 8008 7997 7996 7995 ] final   57.86 input   59.86 | X-H torsion
[ 10167 10162 10161 10158 ] final  -23.36 input  -65.29 | X-H torsion
[ 10718 10713 10712 10709 ] final  106.10 input   66.30 | X-H torsion
[ 10763 10752 10751 10750 ] final  -21.68 input  -60.55 | X-H torsion
[ 11005 11000 10999 10996 ] final   83.63 input  -57.11 | X-H torsion

> <Gold.Protein.ActiveResidues>
 VAL166  LYS551  ARG553  GLY616  TRP617  ASP618  TYR619  PRO620  LYS621  CYS622 
 ASP623  PHE694  ASN695  SER759  ASP760  ASP761  ALA762  ILE779  LEU786  VAL792 
 PHE793  MET794  SER795  GLU796  ALA797  LYS798  CYS799  TRP800  GLU811  SER814 

> <Gold.Protein.RotatedAtoms>
  150.8658  134.8021  159.7117 H   0  0  0  0  0  0  0  0  0  0  0  0  # atno 6907 bound_to 6896
  152.4680  134.5026  159.9739 H   0  0  0  0  0  0  0  0  0  0  0  0  # atno 6908 bound_to 6896
  151.5122  133.3444  159.2922 H   0  0  0  0  0  0  0  0  0  0  0  0  # atno 6909 bound_to 6896
  145.1338  140.8739  143.3742 H   0  0  0  0  0  0  0  0  0  0  0  0  # atno 7974 bound_to 7965
  155.5407  140.3484  155.4446 H   0  0  0  0  0  0  0  0  0  0  0  0  # atno 8008 bound_to 7997
  156.0653  140.1350  156.9919 H   0  0  0  0  0  0  0  0  0  0  0  0  # atno 8009 bound_to 7997
  154.4500  140.0977  156.6563 H   0  0  0  0  0  0  0  0  0  0  0  0  # atno 8010 bound_to 7997
  140.7288  143.4451  151.0599 H   0  0  0  0  0  0  0  0  0  0  0  0  # atno 10167 bound_to 10162
  157.6681  131.0843  150.5955 H   0  0  0  0  0  0  0  0  0  0  0  0  # atno 10718 bound_to 10713
  153.6400  135.6985  153.5245 H   0  0  0  0  0  0  0  0  0  0  0  0  # atno 10763 bound_to 10752
  153.2790  135.4191  155.1060 H   0  0  0  0  0  0  0  0  0  0  0  0  # atno 10764 bound_to 10752
  154.8502  135.3597  154.5944 H   0  0  0  0  0  0  0  0  0  0  0  0  # atno 10765 bound_to 10752
  139.9025  134.8159  156.2335 H   0  0  0  0  0  0  0  0  0  0  0  0  # atno 11005 bound_to 11000
  145.0607  139.3108  143.5882 LP  0  0  0  0  0  0  0  0  0  0  0  0  # atno 17320 bound_to 7965
  146.3511  140.0047  142.8672 LP  0  0  0  0  0  0  0  0  0  0  0  0  # atno 17321 bound_to 7965
  139.8121  143.7936  152.3172 LP  0  0  0  0  0  0  0  0  0  0  0  0  # atno 17342 bound_to 10162
  139.7989  144.7381  150.9852 LP  0  0  0  0  0  0  0  0  0  0  0  0  # atno 17343 bound_to 10162
  156.6256  130.4418  149.5806 LP  0  0  0  0  0  0  0  0  0  0  0  0  # atno 17370 bound_to 10713
  156.2322  130.6801  151.1474 LP  0  0  0  0  0  0  0  0  0  0  0  0  # atno 17371 bound_to 10713
  141.0330  133.6978  156.1463 LP  0  0  0  0  0  0  0  0  0  0  0  0  # atno 17394 bound_to 11000
  140.7068  134.4504  157.5583 LP  0  0  0  0  0  0  0  0  0  0  0  0  # atno 17395 bound_to 11000

$$$$
