AV-unprocessed.smi:47|AV-procd|sdf|425|dock2
  -GOLD-   2262016303D 1   1.00000     0.00000
 Structure written by MMmdl.
 32 34  0  0  0  0  0  0  0  0  2 V2000
  145.6389  139.7809  154.0953 O   0  0  0  0  0  0  0  0  0  0  0  0
  146.8272  140.4015  153.6526 C   0  0  1  0  0  0  0  0  0  0  0  0
  146.7913  141.9226  153.8379 C   0  0  0  0  0  0  0  0  0  0  0  0
  148.1831  142.3387  154.1050 N   0  3  0  0  0  0  0  0  0  0  0  0
  149.0188  141.1274  154.2369 C   0  0  1  0  0  0  0  0  0  0  0  0
  150.0543  141.2599  155.3086 C   0  0  0  0  0  0  0  0  0  0  0  0
  151.0502  140.3862  155.4066 N   0  0  0  0  0  0  0  0  0  0  0  0
  151.7059  140.8351  156.4967 N   0  0  0  0  0  0  0  0  0  0  0  0
  151.0893  141.9119  157.0006 C   0  0  0  0  0  0  0  0  0  0  0  0
  151.5317  142.6480  158.1871 C   0  0  0  0  0  0  0  0  0  0  0  0
  151.2047  144.0150  158.3457 C   0  0  0  0  0  0  0  0  0  0  0  0
  151.6303  144.7238  159.4859 C   0  0  0  0  0  0  0  0  0  0  0  0
  152.3877  144.0745  160.4784 C   0  0  0  0  0  0  0  0  0  0  0  0
  152.7190  142.7147  160.3300 C   0  0  0  0  0  0  0  0  0  0  0  0
  152.2935  142.0047  159.1904 C   0  0  0  0  0  0  0  0  0  0  0  0
  150.0132  142.2241  156.2767 N   0  0  0  0  0  0  0  0  0  0  0  0
  148.0387  139.9761  154.4756 C   0  0  0  0  0  0  0  0  0  0  0  0
  146.9946  140.1606  152.6018 H   0  0  0  0  0  0  0  0  0  0  0  0
  149.5137  140.9756  153.2760 H   0  0  0  0  0  0  0  0  0  0  0  0
  152.5374  140.3890  156.8574 H   0  0  0  0  0  0  0  0  0  0  0  0
  144.9359  140.0174  153.5090 H   0  0  0  0  0  0  0  0  0  0  0  0
  146.3783  142.4361  152.9693 H   0  0  0  0  0  0  0  0  0  0  0  0
  146.1905  142.1950  154.7068 H   0  0  0  0  0  0  0  0  0  0  0  0
  148.5370  142.9229  153.3613 H   0  0  0  0  0  0  0  0  0  0  0  0
  150.6239  144.5342  157.5975 H   0  0  0  0  0  0  0  0  0  0  0  0
  151.3747  145.7671  159.5992 H   0  0  0  0  0  0  0  0  0  0  0  0
  152.7142  144.6187  161.3525 H   0  0  0  0  0  0  0  0  0  0  0  0
  153.3008  142.2154  161.0910 H   0  0  0  0  0  0  0  0  0  0  0  0
  152.5598  140.9621  159.0970 H   0  0  0  0  0  0  0  0  0  0  0  0
  147.7671  139.9315  155.5322 H   0  0  0  0  0  0  0  0  0  0  0  0
  148.4418  139.0037  154.1905 H   0  0  0  0  0  0  0  0  0  0  0  0
  148.2061  142.8479  154.9775 H   0  0  0  0  0  0  0  0  0  0  0  0
  1  2  1  0  0  0  0
  1 21  1  0  0  0  0
  2 18  1  0  0  0  0
  2 17  1  0  0  0  0
  2  3  1  0  0  0  0
  3  4  1  0  0  0  0
  3 22  1  0  0  0  0
  3 23  1  0  0  0  0
  4  5  1  0  0  0  0
  4 24  1  0  0  0  0
  4 32  1  0  0  0  0
  5 19  1  0  0  0  0
  5  6  1  0  0  0  0
  5 17  1  0  0  0  0
  6 16  1  0  0  0  0
  6  7  2  0  0  0  0
  7  8  1  0  0  0  0
  8 20  1  0  0  0  0
  8  9  1  0  0  0  0
  9 10  1  0  0  0  0
  9 16  2  0  0  0  0
 10 15  1  0  0  0  0
 10 11  2  0  0  0  0
 11 12  1  0  0  0  0
 11 25  1  0  0  0  0
 12 13  2  0  0  0  0
 12 26  1  0  0  0  0
 13 14  1  0  0  0  0
 13 27  1  0  0  0  0
 14 15  2  0  0  0  0
 14 28  1  0  0  0  0
 15 29  1  0  0  0  0
 17 30  1  0  0  0  0
 17 31  1  0  0  0  0
M  CHG  1   4   1
M  END
> <s_m_source_file>
AV-unprocessed.smi

> <i_m_source_file_index>
47

> <i_lp_mmshare_version>
43012

> <i_f3d_flags>
0

> <s_epik_input>
W09IXVtDQEhdMVtDSDJdW05IXVtDQEBIXShbQ0gyXTEpYzJuW25IXWMobjIpLWMzW2NIXVtjSF1bY0hdW2NIXVtjSF0z

> <s_epik_cmdline>
J2VwaWtfcHl0aG9uJywgJy1waCcsICc3LjAnLCAnLXRuJywgJzgnLCAnLW1hJywgJzIwMCcsICctbWV0YWxfYmluZGluZycsICctaW1hZScsICc8aW5maWxlLm1hZT4nLCAnLW9tYWUnLCAnPG91dGZpbGUubWFlPic=

> <r_lp_tautomer_probability>
0.948284

> <r_epik_Ionization_Penalty>
0.163822

> <r_epik_Ionization_Penalty_Charging>
0.0371552

> <r_epik_Ionization_Penalty_Neutral>
0.126667

> <r_epik_State_Penalty>
0.318338

> <r_epik_Charging_Adjusted_Penalty>
0.355493

> <i_epik_Tot_Q>
1

> <i_epik_Tot_abs_Q>
1

> <r_epik_Metal_State_Penalty>
0.81572

> <b_epik_Metal_Only>
0

> <s_lp_Force_Field>
OPLS_2005

> <r_lp_Energy>
24.6024

> <b_lp_Chiralities_Consistent>
1

> <s_lp_Variant>
AV-unprocessed.smi:47-3

> <Gold.Version>
5.8.1

> <Gold.Id.Protein>
6NUR|6NUR_protein|mol2

> <Gold.PLP.Fitness>
43.3009

> <Gold.PLP.PLP>
-35.5419

> <Gold.PLP.part.hbond>
-3.0000

> <Gold.PLP.part.metal>
0.0000

> <Gold.PLP.part.buried>
-4.3032

> <Gold.PLP.part.nonpolar>
-30.3092

> <Gold.PLP.part.repulsive>
4.1016

> <Gold.PLP.ligand.clash>
0.0000

> <Gold.PLP.ligand.torsion>
0.6453

> <Gold.PLP.Chemscore.Hbond>
3.0128

> <Gold.PLP.Chemscore.CHOScore>
0.0000

> <Gold.PLP.Chemscore.Metal>
0.0000

> <Gold.Chemscore.Hbonds>
donor molecule, donor type, donor heavy atom, donor atom, acceptor molecule, acceptor atom, score
      L1  H     1    21       P1 10175  1.00
      L1  H     4    32       P1  8028  1.29
      P1  H  7989  7998       L1     7  0.43

> <Gold.PLP.Chemscore.Internal.Correction>
0.0112

> <Gold.Rescore>
     Score         DG    S(hbond)    S(metal)    S(lipo)     H(rot)  DE(clash)    DE(int)     intcor
     16.47     -18.81       1.85        0.00      93.80       1.50       1.72       0.62       ----

> <Gold.Chemscore.Fitness>
16.4674

> <Gold.Chemscore.DG>
-18.8086

> <Gold.Chemscore.ZeroCoef>
-5.4800

> <Gold.Chemscore.Hbond>
1.8518

> <Gold.Chemscore.Metal>
0.0000

> <Gold.Chemscore.Lipo>
93.8015

> <Gold.Chemscore.Internal_Hbond>
0.0000

> <Gold.Chemscore.DEClash>
1.7211

> <Gold.Chemscore.DEInternal>
0.6202

> <Gold.Chemscore.Rot>
1.4966

> <Gold.Chemscore.Internal.Correction>
   9.000000E+99

> <Gold.Chemscore.Hbonds>
donor molecule, donor type, donor heavy atom, donor atom, acceptor molecule, acceptor atom, score
      L1  H     1    21       P1 10175  1.00
      L1  H     4    32       P1  8028  0.63
      P1  H  7989  7998       L1     7  0.01

> <Gold.Chemscore.Hbond.Weighted>
-6.1851

> <Gold.Chemscore.Metal.Weighted>
-0.0000

> <Gold.Chemscore.Lipo.Weighted>
-10.9748

> <Gold.Chemscore.Internal_Hbond.Weighted>
0.0000

> <Gold.Chemscore.DEClash.Weighted>
1.7211

> <Gold.Chemscore.DEInternal.Weighted>
0.6202

> <Gold.Chemscore.Rot.Weighted>
3.8312

> <Gold.Chemscore.Internal.Correction.Weighted>
   9.000000E+99

> <Gold.Protein.RotatedTorsions>
[ 6907 6896 6895 6894 ] final  161.97 input  -60.11 | X-H torsion
[ 7974 7965 7964 7962 ] final  143.24 input  175.53 | X-H torsion
[ 8008 7997 7996 7995 ] final   92.13 input   59.86 | X-H torsion
[ 10167 10162 10161 10158 ] final  176.67 input  -65.29 | X-H torsion
[ 10718 10713 10712 10709 ] final -104.69 input   66.30 | X-H torsion
[ 10763 10752 10751 10750 ] final -132.31 input  -60.55 | X-H torsion
[ 11005 11000 10999 10996 ] final  146.45 input  -57.11 | X-H torsion

> <Gold.Protein.ActiveResidues>
 VAL166  LYS551  ARG553  GLY616  TRP617  ASP618  TYR619  PRO620  LYS621  CYS622 
 ASP623  PHE694  ASN695  SER759  ASP760  ASP761  ALA762  ILE779  LEU786  VAL792 
 PHE793  MET794  SER795  GLU796  ALA797  LYS798  CYS799  TRP800  GLU811  SER814 

> <Gold.Protein.RotatedAtoms>
  151.9476  133.3656  159.3987 H   0  0  0  0  0  0  0  0  0  0  0  0  # atno 6907 bound_to 6896
  150.6986  134.4374  159.5286 H   0  0  0  0  0  0  0  0  0  0  0  0  # atno 6908 bound_to 6896
  152.2042  134.8560  160.0555 H   0  0  0  0  0  0  0  0  0  0  0  0  # atno 6909 bound_to 6896
  144.8938  139.5520  143.5786 H   0  0  0  0  0  0  0  0  0  0  0  0  # atno 7974 bound_to 7965
  156.0318  140.3329  155.7148 H   0  0  0  0  0  0  0  0  0  0  0  0  # atno 8008 bound_to 7997
  155.5873  140.0643  157.2785 H   0  0  0  0  0  0  0  0  0  0  0  0  # atno 8009 bound_to 7997
  154.4356  140.1833  156.1026 H   0  0  0  0  0  0  0  0  0  0  0  0  # atno 8010 bound_to 7997
  139.5223  144.2888  152.0482 H   0  0  0  0  0  0  0  0  0  0  0  0  # atno 10167 bound_to 10162
  156.0315  130.5527  150.7433 H   0  0  0  0  0  0  0  0  0  0  0  0  # atno 10718 bound_to 10713
  154.8744  135.3802  154.4389 H   0  0  0  0  0  0  0  0  0  0  0  0  # atno 10763 bound_to 10752
  153.5076  135.7030  153.5803 H   0  0  0  0  0  0  0  0  0  0  0  0  # atno 10764 bound_to 10752
  153.4107  135.3925  155.2015 H   0  0  0  0  0  0  0  0  0  0  0  0  # atno 10765 bound_to 10752
  140.0794  134.9106  157.1476 H   0  0  0  0  0  0  0  0  0  0  0  0  # atno 11005 bound_to 11000
  146.3069  139.7611  142.9049 LP  0  0  0  0  0  0  0  0  0  0  0  0  # atno 17320 bound_to 7965
  145.3736  141.0347  143.3217 LP  0  0  0  0  0  0  0  0  0  0  0  0  # atno 17321 bound_to 7965
  140.2340  144.4339  150.6288 LP  0  0  0  0  0  0  0  0  0  0  0  0  # atno 17342 bound_to 10162
  140.6336  143.2191  151.6443 LP  0  0  0  0  0  0  0  0  0  0  0  0  # atno 17343 bound_to 10162
  157.4996  131.0917  151.0330 LP  0  0  0  0  0  0  0  0  0  0  0  0  # atno 17370 bound_to 10713
  157.0715  130.5866  149.5403 LP  0  0  0  0  0  0  0  0  0  0  0  0  # atno 17371 bound_to 10713
  140.3509  134.2599  155.7198 LP  0  0  0  0  0  0  0  0  0  0  0  0  # atno 17394 bound_to 11000
  141.2041  133.7894  157.0303 LP  0  0  0  0  0  0  0  0  0  0  0  0  # atno 17395 bound_to 11000

$$$$
