AV-unprocessed.smi:2165|AV-procd|sdf|8813|dock6
  -GOLD-   2272012 03D 1   1.00000     0.00000
 Structure written by MMmdl.
 36 37  0  0  0  0  0  0  0  0  1 V2000
  153.4080  136.3314  164.3549 C   0  0  0  0  0  0  0  0  0  0  0  0
  153.3228  136.5755  162.9302 N   0  0  0  0  0  0  0  0  0  0  0  0
  152.6461  135.6415  162.1087 C   0  0  0  0  0  0  0  0  0  0  0  0
  152.1178  134.6229  162.5554 O   0  0  0  0  0  0  0  0  0  0  0  0
  152.6324  135.9844  160.6915 C   0  0  0  0  0  0  0  0  0  0  0  0
  153.2341  137.1078  160.2428 C   0  0  0  0  0  0  0  0  0  0  0  0
  153.8945  138.0004  161.0672 N   0  0  0  0  0  0  0  0  0  0  0  0
  154.5345  139.1894  160.4900 C   0  0  0  0  0  0  0  0  0  0  0  0
  153.5486  140.0978  159.7433 C   0  0  0  0  0  0  0  0  0  0  0  0
  153.5898  140.1974  158.5160 O   0  0  0  0  0  0  0  0  0  0  0  0
  152.6527  140.7448  160.5034 N   0  0  0  0  0  0  0  0  0  0  0  0
  151.6439  141.6716  160.0039 C   0  0  0  0  0  0  0  0  0  0  0  0
  151.7593  143.0483  160.6794 C   0  0  1  0  0  0  0  0  0  0  0  0
  152.6820  144.0181  159.9438 C   0  0  0  0  0  0  0  0  0  0  0  0
  152.1482  145.3540  160.4063 C   0  0  0  0  0  0  0  0  0  0  0  0
  150.6451  145.0933  160.4383 C   0  0  0  0  0  0  0  0  0  0  0  0
  150.4922  143.7019  160.7087 O   0  0  0  0  0  0  0  0  0  0  0  0
  153.9550  137.7448  162.4538 C   0  0  0  0  0  0  0  0  0  0  0  0
  154.5446  138.5191  163.2122 O   0  0  0  0  0  0  0  0  0  0  0  0
  152.7959  135.4792  164.6486 H   0  0  0  0  0  0  0  0  0  0  0  0
  153.0444  137.2257  164.8643 H   0  0  0  0  0  0  0  0  0  0  0  0
  154.4580  136.1420  164.5834 H   0  0  0  0  0  0  0  0  0  0  0  0
  152.1363  135.3281  159.9916 H   0  0  0  0  0  0  0  0  0  0  0  0
  153.1997  137.3142  159.1829 H   0  0  0  0  0  0  0  0  0  0  0  0
  155.0084  139.7772  161.2771 H   0  0  0  0  0  0  0  0  0  0  0  0
  155.3418  138.8886  159.8194 H   0  0  0  0  0  0  0  0  0  0  0  0
  152.6886  140.6059  161.5028 H   0  0  0  0  0  0  0  0  0  0  0  0
  151.7366  141.7717  158.9212 H   0  0  0  0  0  0  0  0  0  0  0  0
  150.6589  141.2436  160.1921 H   0  0  0  0  0  0  0  0  0  0  0  0
  152.1079  142.9442  161.7083 H   0  0  0  0  0  0  0  0  0  0  0  0
  153.7346  143.8701  160.1862 H   0  0  0  0  0  0  0  0  0  0  0  0
  152.5615  143.9231  158.8636 H   0  0  0  0  0  0  0  0  0  0  0  0
  152.5137  145.5757  161.4101 H   0  0  0  0  0  0  0  0  0  0  0  0
  152.4252  146.1796  159.7502 H   0  0  0  0  0  0  0  0  0  0  0  0
  150.1344  145.7027  161.1840 H   0  0  0  0  0  0  0  0  0  0  0  0
  150.2007  145.3058  159.4653 H   0  0  0  0  0  0  0  0  0  0  0  0
  1  2  1  0  0  0  0
  1 20  1  0  0  0  0
  1 21  1  0  0  0  0
  1 22  1  0  0  0  0
  2 18  1  0  0  0  0
  2  3  1  0  0  0  0
  3  4  2  0  0  0  0
  3  5  1  0  0  0  0
  5  6  2  0  0  0  0
  5 23  1  0  0  0  0
  6  7  1  0  0  0  0
  6 24  1  0  0  0  0
  7  8  1  0  0  0  0
  7 18  1  0  0  0  0
  8  9  1  0  0  0  0
  8 25  1  0  0  0  0
  8 26  1  0  0  0  0
  9 10  2  0  0  0  0
  9 11  1  0  0  0  0
 11 12  1  0  0  0  0
 11 27  1  0  0  0  0
 12 13  1  0  0  0  0
 12 28  1  0  0  0  0
 12 29  1  0  0  0  0
 13 17  1  0  0  0  0
 13 14  1  0  0  0  0
 13 30  1  0  0  0  0
 14 15  1  0  0  0  0
 14 31  1  0  0  0  0
 14 32  1  0  0  0  0
 15 16  1  0  0  0  0
 15 33  1  0  0  0  0
 15 34  1  0  0  0  0
 16 17  1  0  0  0  0
 16 35  1  0  0  0  0
 16 36  1  0  0  0  0
 18 19  2  0  0  0  0
M  END
> <s_m_source_file>
AV-unprocessed.smi

> <i_m_source_file_index>
2165

> <i_lp_mmshare_version>
43012

> <i_f3d_flags>
0

> <s_epik_input>
W0NIM11uMWMoPU8pW2NIXVtjSF1uKGMxPU8pW0NIMl1DKD1PKVtOSF1bQ0gyXVtDQEBIXTJbQ0gyXVtDSDJdW0NIMl1PMg==

> <s_epik_cmdline>
J2VwaWtfcHl0aG9uJywgJy1waCcsICc3LjAnLCAnLXRuJywgJzgnLCAnLW1hJywgJzIwMCcsICctbWV0YWxfYmluZGluZycsICctaW1hZScsICc8aW5maWxlLm1hZT4nLCAnLW9tYWUnLCAnPG91dGZpbGUubWFlPic=

> <r_lp_tautomer_probability>
1

> <r_epik_Ionization_Penalty>
3.89869e-08

> <r_epik_Ionization_Penalty_Charging>
1.21279e-08

> <r_epik_Ionization_Penalty_Neutral>
2.6859e-08

> <r_epik_State_Penalty>
-0

> <r_epik_Charging_Adjusted_Penalty>
1.21279e-08

> <i_epik_Tot_Q>
0

> <i_epik_Tot_abs_Q>
0

> <r_epik_Metal_State_Penalty>
-0

> <b_epik_Metal_Only>
0

> <s_lp_Force_Field>
OPLS_2005

> <r_lp_Energy>
24.234

> <b_lp_Chiralities_Consistent>
1

> <s_lp_Variant>
AV-unprocessed.smi:2165-2

> <Gold.Version>
5.8.1

> <Gold.Id.Protein>
6NUR|6NUR_protein|mol2

> <Gold.PLP.Fitness>
42.4958

> <Gold.PLP.PLP>
-40.3837

> <Gold.PLP.part.hbond>
-1.9161

> <Gold.PLP.part.metal>
0.0000

> <Gold.PLP.part.buried>
-5.6819

> <Gold.PLP.part.nonpolar>
-33.1205

> <Gold.PLP.part.repulsive>
0.2790

> <Gold.PLP.ligand.clash>
0.0000

> <Gold.PLP.ligand.torsion>
0.4482

> <Gold.PLP.Chemscore.Hbond>
1.0000

> <Gold.PLP.Chemscore.CHOScore>
0.0000

> <Gold.PLP.Chemscore.Metal>
0.0000

> <Gold.Chemscore.Hbonds>
donor molecule, donor type, donor heavy atom, donor atom, acceptor molecule, acceptor atom, score
      P1  H  7997  8009       L1    10  0.90

> <Gold.PLP.Chemscore.Internal.Correction>
0.0085

> <Gold.Rescore>
     Score         DG    S(hbond)    S(metal)    S(lipo)     H(rot)  DE(clash)    DE(int)     intcor
     12.22     -13.32       0.91        0.00      81.74       1.87       0.65       0.45       ----

> <Gold.Chemscore.Fitness>
12.2166

> <Gold.Chemscore.DG>
-13.3163

> <Gold.Chemscore.ZeroCoef>
-5.4800

> <Gold.Chemscore.Hbond>
0.9148

> <Gold.Chemscore.Metal>
0.0000

> <Gold.Chemscore.Lipo>
81.7369

> <Gold.Chemscore.Internal_Hbond>
0.0000

> <Gold.Chemscore.DEClash>
0.6509

> <Gold.Chemscore.DEInternal>
0.4488

> <Gold.Chemscore.Rot>
1.8681

> <Gold.Chemscore.Internal.Correction>
   9.000000E+99

> <Gold.Chemscore.Hbonds>
donor molecule, donor type, donor heavy atom, donor atom, acceptor molecule, acceptor atom, score
      P1  H  7997  8009       L1    10  0.88

> <Gold.Chemscore.Hbond.Weighted>
-3.0553

> <Gold.Chemscore.Metal.Weighted>
-0.0000

> <Gold.Chemscore.Lipo.Weighted>
-9.5632

> <Gold.Chemscore.Internal_Hbond.Weighted>
0.0000

> <Gold.Chemscore.DEClash.Weighted>
0.6509

> <Gold.Chemscore.DEInternal.Weighted>
0.4488

> <Gold.Chemscore.Rot.Weighted>
4.7822

> <Gold.Chemscore.Internal.Correction.Weighted>
   9.000000E+99

> <Gold.Protein.RotatedTorsions>
[ 6907 6896 6895 6894 ] final  151.94 input  -60.11 | X-H torsion
[ 7974 7965 7964 7962 ] final  -44.82 input  175.53 | X-H torsion
[ 8008 7997 7996 7995 ] final  154.13 input   59.86 | X-H torsion
[ 10167 10162 10161 10158 ] final -177.10 input  -65.29 | X-H torsion
[ 10718 10713 10712 10709 ] final -111.28 input   66.30 | X-H torsion
[ 10763 10752 10751 10750 ] final  -43.35 input  -60.55 | X-H torsion
[ 11005 11000 10999 10996 ] final  -93.74 input  -57.11 | X-H torsion

> <Gold.Protein.ActiveResidues>
 VAL166  LYS551  ARG553  GLY616  TRP617  ASP618  TYR619  PRO620  LYS621  CYS622 
 ASP623  PHE694  ASN695  SER759  ASP760  ASP761  ALA762  ILE779  LEU786  VAL792 
 PHE793  MET794  SER795  GLU796  ALA797  LYS798  CYS799  TRP800  GLU811  SER814 

> <Gold.Protein.RotatedAtoms>
  152.0936  133.4213  159.4554 H   0  0  0  0  0  0  0  0  0  0  0  0  # atno 6907 bound_to 6896
  150.6863  134.2842  159.4649 H   0  0  0  0  0  0  0  0  0  0  0  0  # atno 6908 bound_to 6896
  152.0696  134.9541  160.0625 H   0  0  0  0  0  0  0  0  0  0  0  0  # atno 6909 bound_to 6896
  145.9882  140.7209  142.9330 H   0  0  0  0  0  0  0  0  0  0  0  0  # atno 7974 bound_to 7965
  156.2547  140.1975  156.6597 H   0  0  0  0  0  0  0  0  0  0  0  0  # atno 8008 bound_to 7997
  154.6473  140.0576  156.9941 H   0  0  0  0  0  0  0  0  0  0  0  0  # atno 8009 bound_to 7997
  155.1471  140.3248  155.4442 H   0  0  0  0  0  0  0  0  0  0  0  0  # atno 8010 bound_to 7997
  139.5497  144.2143  152.1053 H   0  0  0  0  0  0  0  0  0  0  0  0  # atno 10167 bound_to 10162
  156.0638  130.5859  150.8352 H   0  0  0  0  0  0  0  0  0  0  0  0  # atno 10718 bound_to 10713
  153.9941  135.6702  153.4755 H   0  0  0  0  0  0  0  0  0  0  0  0  # atno 10763 bound_to 10752
  153.0692  135.4984  154.8263 H   0  0  0  0  0  0  0  0  0  0  0  0  # atno 10764 bound_to 10752
  154.7092  135.3094  154.9186 H   0  0  0  0  0  0  0  0  0  0  0  0  # atno 10765 bound_to 10752
  141.1489  133.7908  157.0202 H   0  0  0  0  0  0  0  0  0  0  0  0  # atno 11005 bound_to 11000
  144.6881  140.3025  143.7261 LP  0  0  0  0  0  0  0  0  0  0  0  0  # atno 17320 bound_to 7965
  145.7669  139.1843  143.2235 LP  0  0  0  0  0  0  0  0  0  0  0  0  # atno 17321 bound_to 7965
  140.1636  144.5003  150.6619 LP  0  0  0  0  0  0  0  0  0  0  0  0  # atno 17342 bound_to 10162
  140.6755  143.2303  151.5517 LP  0  0  0  0  0  0  0  0  0  0  0  0  # atno 17343 bound_to 10162
  157.5666  131.0946  150.9481 LP  0  0  0  0  0  0  0  0  0  0  0  0  # atno 17370 bound_to 10713
  156.9706  130.5489  149.5290 LP  0  0  0  0  0  0  0  0  0  0  0  0  # atno 17371 bound_to 10713
  140.0821  134.9642  157.1640 LP  0  0  0  0  0  0  0  0  0  0  0  0  # atno 17394 bound_to 11000
  140.3563  134.2543  155.7192 LP  0  0  0  0  0  0  0  0  0  0  0  0  # atno 17395 bound_to 11000

$$$$
