AV-unprocessed.smi:236|AV-procd|sdf|1815|dock10
  -GOLD-   2262020403D 1   1.00000     0.00000
 Structure written by MMmdl.
 58 62  0  0  0  0  0  0  0  0  1 V2000
  147.7535  133.0713  152.7195 C   0  0  0  0  0  0  0  0  0  0  0  0
  146.2451  132.9182  152.4655 C   0  0  2  0  0  0  0  0  0  0  0  0
  145.9819  131.7591  151.6885 O   0  0  0  0  0  0  0  0  0  0  0  0
  144.6643  131.8892  151.1863 C   0  0  0  0  0  0  0  0  0  0  0  0
  144.6198  133.3412  150.7262 C   0  0  0  0  0  0  0  0  0  0  0  0
  145.5316  134.0742  151.7159 C   0  0  2  0  0  0  0  0  0  0  0  0
  146.4475  134.8606  150.9706 O   0  0  0  0  0  0  0  0  0  0  0  0
  144.7354  135.0125  152.6563 C   0  0  0  0  0  0  0  0  0  0  0  0
  145.4932  136.1732  153.1001 N   0  0  0  0  0  0  0  0  0  0  0  0
  145.4181  137.4497  152.5889 C   0  0  0  0  0  0  0  0  0  0  0  0
  146.1995  138.3256  153.1584 N   0  0  0  0  0  0  0  0  0  0  0  0
  146.8621  137.6000  154.1407 C   0  0  0  0  0  0  0  0  0  0  0  0
  147.8415  137.9184  155.1236 C   0  0  0  0  0  0  0  0  0  0  0  0
  148.3757  139.1432  155.3126 N   0  0  0  0  0  0  0  0  0  0  0  0
  148.7812  139.7918  154.0729 C   0  0  0  0  0  0  0  0  0  0  0  0
  149.2401  141.2299  154.3622 C   0  0  0  0  0  0  0  0  0  0  0  0
  150.2735  141.2088  155.3424 O   0  0  0  0  0  0  0  0  0  0  0  0
  149.8356  140.6593  156.5841 C   0  0  2  0  0  0  0  0  0  0  0  0
  150.9938  140.7526  157.5857 C   0  0  0  0  0  0  0  0  0  0  0  0
  151.5664  142.0470  157.5084 O   0  0  0  0  0  0  0  0  0  0  0  0
  150.7245  143.0556  158.0452 C   0  0  0  0  0  0  0  0  0  0  0  0
  151.3180  144.4381  157.8420 C   0  0  0  0  0  0  0  0  0  0  0  0
  152.7966  144.6932  158.0520 C   0  0  0  0  0  0  0  0  0  0  0  0
  151.7953  145.2610  159.0213 C   0  0  0  0  0  0  0  0  0  0  0  0
  149.4040  139.1993  156.3445 C   0  0  0  0  0  0  0  0  0  0  0  0
  148.2643  136.9277  155.9458 N   0  0  0  0  0  0  0  0  0  0  0  0
  147.7647  135.6946  155.8167 C   0  0  0  0  0  0  0  0  0  0  0  0
  146.8509  135.2496  154.9510 N   0  0  0  0  0  0  0  0  0  0  0  0
  146.4240  136.2459  154.1225 C   0  0  0  0  0  0  0  0  0  0  0  0
  147.9662  133.9699  153.2991 H   0  0  0  0  0  0  0  0  0  0  0  0
  148.3144  133.1290  151.7865 H   0  0  0  0  0  0  0  0  0  0  0  0
  148.1369  132.2188  153.2803 H   0  0  0  0  0  0  0  0  0  0  0  0
  145.7503  132.7520  153.4229 H   0  0  0  0  0  0  0  0  0  0  0  0
  144.4679  131.1841  150.3784 H   0  0  0  0  0  0  0  0  0  0  0  0
  143.9445  131.7089  151.9865 H   0  0  0  0  0  0  0  0  0  0  0  0
  145.0145  133.3993  149.7103 H   0  0  0  0  0  0  0  0  0  0  0  0
  143.6021  133.7321  150.7002 H   0  0  0  0  0  0  0  0  0  0  0  0
  147.1781  135.0800  151.5282 H   0  0  0  0  0  0  0  0  0  0  0  0
  143.8308  135.3674  152.1608 H   0  0  0  0  0  0  0  0  0  0  0  0
  144.4020  134.4636  153.5380 H   0  0  0  0  0  0  0  0  0  0  0  0
  144.7631  137.7125  151.7709 H   0  0  0  0  0  0  0  0  0  0  0  0
  149.5942  139.2306  153.6107 H   0  0  0  0  0  0  0  0  0  0  0  0
  147.9498  139.7988  153.3664 H   0  0  0  0  0  0  0  0  0  0  0  0
  149.6214  141.6936  153.4523 H   0  0  0  0  0  0  0  0  0  0  0  0
  148.4067  141.8430  154.7088 H   0  0  0  0  0  0  0  0  0  0  0  0
  148.9874  141.2319  156.9641 H   0  0  0  0  0  0  0  0  0  0  0  0
  150.6223  140.5878  158.5984 H   0  0  0  0  0  0  0  0  0  0  0  0
  151.7397  139.9833  157.3797 H   0  0  0  0  0  0  0  0  0  0  0  0
  149.7447  143.0212  157.5668 H   0  0  0  0  0  0  0  0  0  0  0  0
  150.5779  142.8935  159.1140 H   0  0  0  0  0  0  0  0  0  0  0  0
  150.8513  144.9967  157.0328 H   0  0  0  0  0  0  0  0  0  0  0  0
  153.4159  143.8673  158.3960 H   0  0  0  0  0  0  0  0  0  0  0  0
  153.2860  145.3876  157.3722 H   0  0  0  0  0  0  0  0  0  0  0  0
  151.6180  146.3340  158.9885 H   0  0  0  0  0  0  0  0  0  0  0  0
  151.7465  144.8132  160.0120 H   0  0  0  0  0  0  0  0  0  0  0  0
  149.0201  138.7646  157.2684 H   0  0  0  0  0  0  0  0  0  0  0  0
  150.2684  138.6069  156.0435 H   0  0  0  0  0  0  0  0  0  0  0  0
  148.1516  134.9593  156.5066 H   0  0  0  0  0  0  0  0  0  0  0  0
  1  2  1  0  0  0  0
  1 30  1  0  0  0  0
  1 31  1  0  0  0  0
  1 32  1  0  0  0  0
  2  6  1  0  0  0  0
  2  3  1  0  0  0  0
  2 33  1  0  0  0  0
  3  4  1  0  0  0  0
  4  5  1  0  0  0  0
  4 34  1  0  0  0  0
  4 35  1  0  0  0  0
  5  6  1  0  0  0  0
  5 36  1  0  0  0  0
  5 37  1  0  0  0  0
  6  7  1  0  0  0  0
  6  8  1  0  0  0  0
  7 38  1  0  0  0  0
  8  9  1  0  0  0  0
  8 39  1  0  0  0  0
  8 40  1  0  0  0  0
  9 29  1  0  0  0  0
  9 10  1  0  0  0  0
 10 11  2  0  0  0  0
 10 41  1  0  0  0  0
 11 12  1  0  0  0  0
 12 29  2  0  0  0  0
 12 13  1  0  0  0  0
 13 14  1  0  0  0  0
 13 26  2  0  0  0  0
 14 25  1  0  0  0  0
 14 15  1  0  0  0  0
 15 16  1  0  0  0  0
 15 42  1  0  0  0  0
 15 43  1  0  0  0  0
 16 17  1  0  0  0  0
 16 44  1  0  0  0  0
 16 45  1  0  0  0  0
 17 18  1  0  0  0  0
 18 19  1  0  0  0  0
 18 25  1  0  0  0  0
 18 46  1  0  0  0  0
 19 20  1  0  0  0  0
 19 47  1  0  0  0  0
 19 48  1  0  0  0  0
 20 21  1  0  0  0  0
 21 22  1  0  0  0  0
 21 49  1  0  0  0  0
 21 50  1  0  0  0  0
 22 24  1  0  0  0  0
 22 23  1  0  0  0  0
 22 51  1  0  0  0  0
 23 24  1  0  0  0  0
 23 52  1  0  0  0  0
 23 53  1  0  0  0  0
 24 54  1  0  0  0  0
 24 55  1  0  0  0  0
 25 56  1  0  0  0  0
 25 57  1  0  0  0  0
 26 27  1  0  0  0  0
 27 28  2  0  0  0  0
 27 58  1  0  0  0  0
 28 29  1  0  0  0  0
M  END
> <s_m_source_file>
AV-unprocessed.smi

> <i_m_source_file_index>
236

> <i_lp_mmshare_version>
43012

> <i_f3d_flags>
0

> <s_epik_input>
W0NIMl0xW0NIMl1PW0NAQEhdKFtDSDNdKVtDQEBdMShbT0hdKVtDSDJdbihbY0hdbjIpYyhjMjMpbltjSF1uYzNONFtDSDJdW0NIMl1PW0NASF0oW0NIMl00KVtDSDJdT1tDSDJdW0NIXTVbQ0gyXVtDSDJdNQ==

> <s_epik_cmdline>
J2VwaWtfcHl0aG9uJywgJy1waCcsICc3LjAnLCAnLXRuJywgJzgnLCAnLW1hJywgJzIwMCcsICctbWV0YWxfYmluZGluZycsICctaW1hZScsICc8aW5maWxlLm1hZT4nLCAnLW9tYWUnLCAnPG91dGZpbGUubWFlPic=

> <r_lp_tautomer_probability>
1

> <r_epik_Ionization_Penalty>
7.21838e-05

> <r_epik_Ionization_Penalty_Charging>
0

> <r_epik_Ionization_Penalty_Neutral>
7.21838e-05

> <r_epik_State_Penalty>
-0

> <r_epik_Charging_Adjusted_Penalty>
0

> <i_epik_Tot_Q>
0

> <i_epik_Tot_abs_Q>
0

> <r_epik_Metal_State_Penalty>
-0

> <b_epik_Metal_Only>
0

> <s_lp_Force_Field>
OPLS_2005

> <r_lp_Energy>
47.5689

> <b_lp_Chiralities_Consistent>
1

> <s_lp_Variant>
AV-unprocessed.smi:236-7

> <Gold.Version>
5.8.1

> <Gold.Id.Protein>
6NUR|6NUR_protein|mol2

> <Gold.PLP.Fitness>
43.9269

> <Gold.PLP.PLP>
-40.2485

> <Gold.PLP.part.hbond>
-1.9776

> <Gold.PLP.part.metal>
0.0000

> <Gold.PLP.part.buried>
-1.4605

> <Gold.PLP.part.nonpolar>
-36.2112

> <Gold.PLP.part.repulsive>
0.6355

> <Gold.PLP.ligand.clash>
0.0000

> <Gold.PLP.ligand.torsion>
1.6305

> <Gold.PLP.Chemscore.Hbond>
1.0198

> <Gold.PLP.Chemscore.CHOScore>
1.0000

> <Gold.PLP.Chemscore.Metal>
0.0000

> <Gold.Chemscore.Hbonds>
donor molecule, donor type, donor heavy atom, donor atom, acceptor molecule, acceptor atom, score
      L1  H     7    38       P1  7948  0.81
      P1  H  7989  7998       L1    17  0.03
      L1  C    10    41       P1 10171  1.00

> <Gold.PLP.Chemscore.Internal.Correction>
0.8799

> <Gold.Rescore>
     Score         DG    S(hbond)    S(metal)    S(lipo)     H(rot)  DE(clash)    DE(int)     intcor
     11.46     -13.99       0.86        0.00     110.96       2.87       0.99       1.54       ----

> <Gold.Chemscore.Fitness>
11.4568

> <Gold.Chemscore.DG>
-13.9886

> <Gold.Chemscore.ZeroCoef>
-5.4800

> <Gold.Chemscore.Hbond>
0.8568

> <Gold.Chemscore.Metal>
0.0000

> <Gold.Chemscore.Lipo>
110.9642

> <Gold.Chemscore.Internal_Hbond>
0.0000

> <Gold.Chemscore.DEClash>
0.9937

> <Gold.Chemscore.DEInternal>
1.5382

> <Gold.Chemscore.Rot>
2.8655

> <Gold.Chemscore.Internal.Correction>
   9.000000E+99

> <Gold.Chemscore.Hbonds>
donor molecule, donor type, donor heavy atom, donor atom, acceptor molecule, acceptor atom, score
      L1  H     7    38       P1  7948  0.65

> <Gold.Chemscore.Hbond.Weighted>
-2.8616

> <Gold.Chemscore.Metal.Weighted>
-0.0000

> <Gold.Chemscore.Lipo.Weighted>
-12.9828

> <Gold.Chemscore.Internal_Hbond.Weighted>
0.0000

> <Gold.Chemscore.DEClash.Weighted>
0.9937

> <Gold.Chemscore.DEInternal.Weighted>
1.5382

> <Gold.Chemscore.Rot.Weighted>
7.3358

> <Gold.Chemscore.Internal.Correction.Weighted>
   9.000000E+99

> <Gold.Protein.RotatedTorsions>
[ 6907 6896 6895 6894 ] final  102.42 input  -60.11 | X-H torsion
[ 7974 7965 7964 7962 ] final  -92.22 input  175.53 | X-H torsion
[ 8008 7997 7996 7995 ] final    9.69 input   59.86 | X-H torsion
[ 10167 10162 10161 10158 ] final   79.34 input  -65.29 | X-H torsion
[ 10718 10713 10712 10709 ] final  156.72 input   66.30 | X-H torsion
[ 10763 10752 10751 10750 ] final  -35.59 input  -60.55 | X-H torsion
[ 11005 11000 10999 10996 ] final   80.37 input  -57.11 | X-H torsion

> <Gold.Protein.ActiveResidues>
 VAL166  LYS551  ARG553  GLY616  TRP617  ASP618  TYR619  PRO620  LYS621  CYS622 
 ASP623  PHE694  ASN695  SER759  ASP760  ASP761  ALA762  ILE779  LEU786  VAL792 
 PHE793  MET794  SER795  GLU796  ALA797  LYS798  CYS799  TRP800  GLU811  SER814 

> <Gold.Protein.RotatedAtoms>
  152.5324  133.9978  159.7880 H   0  0  0  0  0  0  0  0  0  0  0  0  # atno 6907 bound_to 6896
  151.0202  133.5876  159.2679 H   0  0  0  0  0  0  0  0  0  0  0  0  # atno 6908 bound_to 6896
  151.2918  135.0751  159.9260 H   0  0  0  0  0  0  0  0  0  0  0  0  # atno 6909 bound_to 6896
  145.4028  140.9539  143.2278 H   0  0  0  0  0  0  0  0  0  0  0  0  # atno 7974 bound_to 7965
  154.7834  140.2823  155.6046 H   0  0  0  0  0  0  0  0  0  0  0  0  # atno 8008 bound_to 7997
  156.2953  140.2619  156.2593 H   0  0  0  0  0  0  0  0  0  0  0  0  # atno 8009 bound_to 7997
  154.9757  140.0375  157.2244 H   0  0  0  0  0  0  0  0  0  0  0  0  # atno 8010 bound_to 7997
  139.9614  144.5958  150.8069 H   0  0  0  0  0  0  0  0  0  0  0  0  # atno 10167 bound_to 10162
  157.2012  131.0676  151.2024 H   0  0  0  0  0  0  0  0  0  0  0  0  # atno 10718 bound_to 10713
  153.8657  135.6836  153.4779 H   0  0  0  0  0  0  0  0  0  0  0  0  # atno 10763 bound_to 10752
  153.1316  135.4695  154.9355 H   0  0  0  0  0  0  0  0  0  0  0  0  # atno 10764 bound_to 10752
  154.7738  135.3247  154.8085 H   0  0  0  0  0  0  0  0  0  0  0  0  # atno 10765 bound_to 10752
  139.9137  134.7915  156.1900 H   0  0  0  0  0  0  0  0  0  0  0  0  # atno 11005 bound_to 11000
  144.8362  139.5546  143.6921 LP  0  0  0  0  0  0  0  0  0  0  0  0  # atno 17320 bound_to 7965
  146.2743  139.6714  142.9274 LP  0  0  0  0  0  0  0  0  0  0  0  0  # atno 17321 bound_to 7965
  140.7552  143.3041  151.3005 LP  0  0  0  0  0  0  0  0  0  0  0  0  # atno 17342 bound_to 10162
  139.6551  144.0290  152.2654 LP  0  0  0  0  0  0  0  0  0  0  0  0  # atno 17343 bound_to 10162
  157.3765  130.7209  149.6600 LP  0  0  0  0  0  0  0  0  0  0  0  0  # atno 17370 bound_to 10713
  155.9700  130.4184  150.4326 LP  0  0  0  0  0  0  0  0  0  0  0  0  # atno 17371 bound_to 10713
  141.0589  133.6851  156.1915 LP  0  0  0  0  0  0  0  0  0  0  0  0  # atno 17394 bound_to 11000
  140.6692  134.4886  157.5586 LP  0  0  0  0  0  0  0  0  0  0  0  0  # atno 17395 bound_to 11000

$$$$
