AV-unprocessed.smi:2390|AV-procd|sdf|9476|dock3
  -GOLD-   2272013103D 1   1.00000     0.00000
 Structure written by MMmdl.
 45 46  0  0  0  0  0  0  0  0  1 V2000
  146.5542  129.2784  152.2559 C   0  0  0  0  0  0  0  0  0  0  0  0
  146.3909  130.7554  151.9651 C   0  0  0  0  0  0  0  0  0  0  0  0
  145.3344  131.2236  151.1592 C   0  0  0  0  0  0  0  0  0  0  0  0
  145.2398  132.6077  150.9290 C   0  0  0  0  0  0  0  0  0  0  0  0
  146.1981  133.4606  151.5100 C   0  0  0  0  0  0  0  0  0  0  0  0
  147.2286  132.9096  152.3046 C   0  0  0  0  0  0  0  0  0  0  0  0
  148.1424  133.8529  152.8450 N   0  0  0  0  0  0  0  0  0  0  0  0
  148.8470  133.7666  153.9870 C   0  0  0  0  0  0  0  0  0  0  0  0
  148.8307  132.8098  154.7621 O   0  0  0  0  0  0  0  0  0  0  0  0
  149.5811  134.8712  154.1858 N   0  0  0  0  0  0  0  0  0  0  0  0
  150.4299  135.1377  155.3473 C   0  0  1  0  0  0  0  0  0  0  0  0
  151.3928  133.9567  155.5672 C   0  0  0  0  0  0  0  0  0  0  0  0
  151.1254  136.5293  155.2137 C   0  0  1  0  0  0  0  0  0  0  0  0
  150.1039  137.5815  154.7099 C   0  0  0  0  0  0  0  0  0  0  0  0
  151.8305  136.9661  156.4457 N   0  0  0  0  0  0  0  0  0  0  0  0
  153.0564  136.1998  156.6980 C   0  0  0  0  0  0  0  0  0  0  0  0
  153.7845  136.6396  157.9800 C   0  0  0  0  0  0  0  0  0  0  0  0
  152.9054  136.5353  159.0911 O   0  0  0  0  0  0  0  0  0  0  0  0
  151.7385  137.3276  158.9219 C   0  0  0  0  0  0  0  0  0  0  0  0
  150.9939  136.8892  157.6495 C   0  0  0  0  0  0  0  0  0  0  0  0
  147.3113  131.5729  152.5202 N   0  0  0  0  0  0  0  0  0  0  0  0
  145.6975  128.7078  151.8964 H   0  0  0  0  0  0  0  0  0  0  0  0
  146.6481  129.1094  153.3291 H   0  0  0  0  0  0  0  0  0  0  0  0
  147.4499  128.8941  151.7674 H   0  0  0  0  0  0  0  0  0  0  0  0
  144.6148  130.5429  150.7283 H   0  0  0  0  0  0  0  0  0  0  0  0
  144.4450  133.0095  150.3178 H   0  0  0  0  0  0  0  0  0  0  0  0
  146.1385  134.5268  151.3444 H   0  0  0  0  0  0  0  0  0  0  0  0
  148.2632  134.6979  152.3068 H   0  0  0  0  0  0  0  0  0  0  0  0
  149.5269  135.6044  153.4940 H   0  0  0  0  0  0  0  0  0  0  0  0
  149.8278  135.1459  156.2546 H   0  0  0  0  0  0  0  0  0  0  0  0
  152.1033  134.1709  156.3660 H   0  0  0  0  0  0  0  0  0  0  0  0
  151.9570  133.7052  154.6695 H   0  0  0  0  0  0  0  0  0  0  0  0
  150.8406  133.0610  155.8540 H   0  0  0  0  0  0  0  0  0  0  0  0
  151.8748  136.4233  154.4278 H   0  0  0  0  0  0  0  0  0  0  0  0
  149.5610  137.2452  153.8291 H   0  0  0  0  0  0  0  0  0  0  0  0
  150.5860  138.5074  154.4003 H   0  0  0  0  0  0  0  0  0  0  0  0
  149.3696  137.8271  155.4777 H   0  0  0  0  0  0  0  0  0  0  0  0
  152.8206  135.1364  156.7626 H   0  0  0  0  0  0  0  0  0  0  0  0
  153.7616  136.3195  155.8777 H   0  0  0  0  0  0  0  0  0  0  0  0
  154.6554  136.0081  158.1562 H   0  0  0  0  0  0  0  0  0  0  0  0
  154.1464  137.6649  157.8871 H   0  0  0  0  0  0  0  0  0  0  0  0
  151.0978  137.2083  159.7955 H   0  0  0  0  0  0  0  0  0  0  0  0
  152.0097  138.3832  158.8653 H   0  0  0  0  0  0  0  0  0  0  0  0
  150.1258  137.5385  157.5606 H   0  0  0  0  0  0  0  0  0  0  0  0
  150.6203  135.8723  157.7777 H   0  0  0  0  0  0  0  0  0  0  0  0
  1  2  1  0  0  0  0
  1 22  1  0  0  0  0
  1 23  1  0  0  0  0
  1 24  1  0  0  0  0
  2 21  1  0  0  0  0
  2  3  2  0  0  0  0
  3  4  1  0  0  0  0
  3 25  1  0  0  0  0
  4  5  2  0  0  0  0
  4 26  1  0  0  0  0
  5  6  1  0  0  0  0
  5 27  1  0  0  0  0
  6  7  1  0  0  0  0
  6 21  2  0  0  0  0
  7  8  1  0  0  0  0
  7 28  1  0  0  0  0
  8  9  2  0  0  0  0
  8 10  1  0  0  0  0
 10 11  1  0  0  0  0
 10 29  1  0  0  0  0
 11 12  1  0  0  0  0
 11 13  1  0  0  0  0
 11 30  1  0  0  0  0
 12 31  1  0  0  0  0
 12 32  1  0  0  0  0
 12 33  1  0  0  0  0
 13 14  1  0  0  0  0
 13 15  1  0  0  0  0
 13 34  1  0  0  0  0
 14 35  1  0  0  0  0
 14 36  1  0  0  0  0
 14 37  1  0  0  0  0
 15 20  1  0  0  0  0
 15 16  1  0  0  0  0
 16 17  1  0  0  0  0
 16 38  1  0  0  0  0
 16 39  1  0  0  0  0
 17 18  1  0  0  0  0
 17 40  1  0  0  0  0
 17 41  1  0  0  0  0
 18 19  1  0  0  0  0
 19 20  1  0  0  0  0
 19 42  1  0  0  0  0
 19 43  1  0  0  0  0
 20 44  1  0  0  0  0
 20 45  1  0  0  0  0
M  END
> <s_m_source_file>
AV-unprocessed.smi

> <i_m_source_file_index>
2390

> <i_lp_mmshare_version>
43012

> <i_f3d_flags>
0

> <s_epik_input>
W0NIM11jMVtjSF1bY0hdW2NIXWMobjEpW05IXUMoPU8pW05IXVtDQEhdKFtDSDNdKVtDQEhdKFtDSDNdKU4yW0NIMl1bQ0gyXU9bQ0gyXVtDSDJdMg==

> <s_epik_cmdline>
J2VwaWtfcHl0aG9uJywgJy1waCcsICc3LjAnLCAnLXRuJywgJzgnLCAnLW1hJywgJzIwMCcsICctbWV0YWxfYmluZGluZycsICctaW1hZScsICc8aW5maWxlLm1hZT4nLCAnLW9tYWUnLCAnPG91dGZpbGUubWFlPic=

> <r_epik_Ionization_Penalty>
0.266074

> <r_epik_Ionization_Penalty_Charging>
0

> <r_epik_Ionization_Penalty_Neutral>
0.266074

> <r_epik_State_Penalty>
0.257924

> <r_epik_Charging_Adjusted_Penalty>
0.257924

> <i_epik_Tot_Q>
0

> <i_epik_Tot_abs_Q>
0

> <r_epik_Metal_State_Penalty>
0.257919

> <b_epik_Metal_Only>
0

> <s_lp_Force_Field>
OPLS_2005

> <r_lp_Energy>
36.7319

> <b_lp_Chiralities_Consistent>
1

> <s_lp_Variant>
AV-unprocessed.smi:2390-4

> <Gold.Version>
5.8.1

> <Gold.Id.Protein>
6NUR|6NUR_protein|mol2

> <Gold.PLP.Fitness>
39.7198

> <Gold.PLP.PLP>
-31.6310

> <Gold.PLP.part.hbond>
-3.0000

> <Gold.PLP.part.metal>
0.0000

> <Gold.PLP.part.buried>
-4.2735

> <Gold.PLP.part.nonpolar>
-23.3372

> <Gold.PLP.part.repulsive>
0.1628

> <Gold.PLP.ligand.clash>
0.0000

> <Gold.PLP.ligand.torsion>
0.5075

> <Gold.PLP.Chemscore.Hbond>
3.0000

> <Gold.PLP.Chemscore.CHOScore>
0.0000

> <Gold.PLP.Chemscore.Metal>
0.0000

> <Gold.Chemscore.Hbonds>
donor molecule, donor type, donor heavy atom, donor atom, acceptor molecule, acceptor atom, score
      L1  H     7    28       P1  7948  0.95
      L1  H    10    29       P1  7948  0.85
      P1  H  6896  6909       L1    18  0.03

> <Gold.PLP.Chemscore.Internal.Correction>
0.1038

> <Gold.Rescore>
     Score         DG    S(hbond)    S(metal)    S(lipo)     H(rot)  DE(clash)    DE(int)     intcor
     15.94     -18.85       2.52        0.00      73.83       1.44       0.02       2.89       ----

> <Gold.Chemscore.Fitness>
15.9408

> <Gold.Chemscore.DG>
-18.8497

> <Gold.Chemscore.ZeroCoef>
-5.4800

> <Gold.Chemscore.Hbond>
2.5202

> <Gold.Chemscore.Metal>
0.0000

> <Gold.Chemscore.Lipo>
73.8255

> <Gold.Chemscore.Internal_Hbond>
0.0000

> <Gold.Chemscore.DEClash>
0.0174

> <Gold.Chemscore.DEInternal>
2.8915

> <Gold.Chemscore.Rot>
1.4396

> <Gold.Chemscore.Internal.Correction>
   9.000000E+99

> <Gold.Chemscore.Hbonds>
donor molecule, donor type, donor heavy atom, donor atom, acceptor molecule, acceptor atom, score
      L1  H     7    28       P1  7948  0.21
      L1  H    10    29       P1  7948  0.14

> <Gold.Chemscore.Hbond.Weighted>
-8.4176

> <Gold.Chemscore.Metal.Weighted>
-0.0000

> <Gold.Chemscore.Lipo.Weighted>
-8.6376

> <Gold.Chemscore.Internal_Hbond.Weighted>
0.0000

> <Gold.Chemscore.DEClash.Weighted>
0.0174

> <Gold.Chemscore.DEInternal.Weighted>
2.8915

> <Gold.Chemscore.Rot.Weighted>
3.6855

> <Gold.Chemscore.Internal.Correction.Weighted>
   9.000000E+99

> <Gold.Protein.RotatedTorsions>
[ 6907 6896 6895 6894 ] final  112.41 input  -60.11 | X-H torsion
[ 7974 7965 7964 7962 ] final   28.29 input  175.53 | X-H torsion
[ 8008 7997 7996 7995 ] final  -63.22 input   59.86 | X-H torsion
[ 10167 10162 10161 10158 ] final  -90.22 input  -65.29 | X-H torsion
[ 10718 10713 10712 10709 ] final   55.53 input   66.30 | X-H torsion
[ 10763 10752 10751 10750 ] final   46.46 input  -60.55 | X-H torsion
[ 11005 11000 10999 10996 ] final  151.93 input  -57.11 | X-H torsion

> <Gold.Protein.ActiveResidues>
 VAL166  LYS551  ARG553  GLY616  TRP617  ASP618  TYR619  PRO620  LYS621  CYS622 
 ASP623  PHE694  ASN695  SER759  ASP760  ASP761  ALA762  ILE779  LEU786  VAL792 
 PHE793  MET794  SER795  GLU796  ALA797  LYS798  CYS799  TRP800  GLU811  SER814 

> <Gold.Protein.RotatedAtoms>
  152.4918  133.8520  159.7206 H   0  0  0  0  0  0  0  0  0  0  0  0  # atno 6907 bound_to 6896
  150.9055  133.7055  159.2874 H   0  0  0  0  0  0  0  0  0  0  0  0  # atno 6908 bound_to 6896
  151.4482  135.1031  159.9742 H   0  0  0  0  0  0  0  0  0  0  0  0  # atno 6909 bound_to 6896
  146.1737  139.7076  142.8949 H   0  0  0  0  0  0  0  0  0  0  0  0  # atno 7974 bound_to 7965
  154.4542  140.0979  156.6709 H   0  0  0  0  0  0  0  0  0  0  0  0  # atno 8008 bound_to 7997
  155.5189  140.3478  155.4384 H   0  0  0  0  0  0  0  0  0  0  0  0  # atno 8009 bound_to 7997
  156.0744  140.1357  156.9778 H   0  0  0  0  0  0  0  0  0  0  0  0  # atno 8010 bound_to 7997
  140.3570  143.2861  151.9659 H   0  0  0  0  0  0  0  0  0  0  0  0  # atno 10167 bound_to 10162
  157.5353  130.8659  149.8745 H   0  0  0  0  0  0  0  0  0  0  0  0  # atno 10718 bound_to 10713
  152.9810  135.6007  154.3604 H   0  0  0  0  0  0  0  0  0  0  0  0  # atno 10763 bound_to 10752
  154.3286  135.2769  155.2485 H   0  0  0  0  0  0  0  0  0  0  0  0  # atno 10764 bound_to 10752
  154.4619  135.5963  153.6317 H   0  0  0  0  0  0  0  0  0  0  0  0  # atno 10765 bound_to 10752
  140.1263  134.8831  157.2141 H   0  0  0  0  0  0  0  0  0  0  0  0  # atno 11005 bound_to 11000
  145.4270  141.0412  143.2932 LP  0  0  0  0  0  0  0  0  0  0  0  0  # atno 17320 bound_to 7965
  144.8203  139.5804  143.6990 LP  0  0  0  0  0  0  0  0  0  0  0  0  # atno 17321 bound_to 7965
  139.4819  144.6026  151.7578 LP  0  0  0  0  0  0  0  0  0  0  0  0  # atno 17342 bound_to 10162
  140.5164  144.0947  150.6009 LP  0  0  0  0  0  0  0  0  0  0  0  0  # atno 17343 bound_to 10162
  156.0454  130.3729  150.1331 LP  0  0  0  0  0  0  0  0  0  0  0  0  # atno 17370 bound_to 10713
  156.9514  130.9776  151.3497 LP  0  0  0  0  0  0  0  0  0  0  0  0  # atno 17371 bound_to 10713
  140.2900  134.3251  155.7318 LP  0  0  0  0  0  0  0  0  0  0  0  0  # atno 17394 bound_to 11000
  141.2161  133.7529  156.9489 LP  0  0  0  0  0  0  0  0  0  0  0  0  # atno 17395 bound_to 11000

$$$$
