AV-unprocessed.smi:2706|AV-procd|sdf|10455|dock1
  -GOLD-   2272014493D 1   1.00000     0.00000
 Structure written by MMmdl.
 43 46  0  0  0  0  0  0  0  0  1 V2000
  151.9139  145.3298  160.4589 C   0  0  0  0  0  0  0  0  0  0  0  0
  151.7222  144.4165  159.3452 N   0  0  0  0  0  0  0  0  0  0  0  0
  151.3139  145.0230  158.0895 C   0  0  0  0  0  0  0  0  0  0  0  0
  152.1861  143.1159  159.3961 C   0  0  0  0  0  0  0  0  0  0  0  0
  152.8282  142.6861  160.4989 C   0  0  0  0  0  0  0  0  0  0  0  0
  153.3160  141.3238  160.5564 C   0  0  0  0  0  0  0  0  0  0  0  0
  153.1377  140.4766  159.5223 C   0  0  0  0  0  0  0  0  0  0  0  0
  152.4501  140.9017  158.3149 C   0  0  0  0  0  0  0  0  0  0  0  0
  152.2917  140.0631  157.3318 N   0  0  0  0  0  0  0  0  0  0  0  0
  151.6440  140.4016  156.1483 C   0  0  0  0  0  0  0  0  0  0  0  0
  152.0066  140.2070  154.9842 O   0  0  0  0  0  0  0  0  0  0  0  0
  150.4855  141.0136  156.4300 N   0  0  0  0  0  0  0  0  0  0  0  0
  149.5374  141.5113  155.4854 C   0  0  2  0  0  0  0  0  0  0  0  0
  148.1083  140.9999  155.4619 C   0  0  2  0  0  0  0  0  0  0  0  0
  147.5212  139.6331  155.8328 C   0  0  2  0  0  0  0  0  0  0  0  0
  148.5364  138.6992  156.5222 C   0  0  0  0  0  0  0  0  0  0  0  0
  149.5037  138.3537  155.3691 C   0  0  0  0  0  0  0  0  0  0  0  0
  148.9023  139.1398  154.1868 C   0  0  1  0  0  0  0  0  0  0  0  0
  147.4140  138.9640  154.4670 C   0  0  0  0  0  0  0  0  0  0  0  0
  149.0649  140.6584  154.3219 C   0  0  2  0  0  0  0  0  0  0  0  0
  152.0040  142.2369  158.3297 N   0  0  0  0  0  0  0  0  0  0  0  0
  151.9673  144.7839  161.4015 H   0  0  0  0  0  0  0  0  0  0  0  0
  151.0889  146.0395  160.5261 H   0  0  0  0  0  0  0  0  0  0  0  0
  152.8416  145.8885  160.3338 H   0  0  0  0  0  0  0  0  0  0  0  0
  150.9526  144.2650  157.3937 H   0  0  0  0  0  0  0  0  0  0  0  0
  152.1563  145.5381  157.6273 H   0  0  0  0  0  0  0  0  0  0  0  0
  150.5122  145.7446  158.2488 H   0  0  0  0  0  0  0  0  0  0  0  0
  152.9822  143.3478  161.3392 H   0  0  0  0  0  0  0  0  0  0  0  0
  153.8309  140.9813  161.4419 H   0  0  0  0  0  0  0  0  0  0  0  0
  153.5238  139.4726  159.6237 H   0  0  0  0  0  0  0  0  0  0  0  0
  150.2521  141.1395  157.4045 H   0  0  0  0  0  0  0  0  0  0  0  0
  149.6344  142.5699  155.2495 H   0  0  0  0  0  0  0  0  0  0  0  0
  147.3484  141.7448  155.2326 H   0  0  0  0  0  0  0  0  0  0  0  0
  146.5752  139.7273  156.3666 H   0  0  0  0  0  0  0  0  0  0  0  0
  149.0182  139.1530  157.3871 H   0  0  0  0  0  0  0  0  0  0  0  0
  148.0394  137.7952  156.8763 H   0  0  0  0  0  0  0  0  0  0  0  0
  150.5437  138.6082  155.5688 H   0  0  0  0  0  0  0  0  0  0  0  0
  149.4747  137.2825  155.1655 H   0  0  0  0  0  0  0  0  0  0  0  0
  149.2246  138.7811  153.2089 H   0  0  0  0  0  0  0  0  0  0  0  0
  147.0917  137.9217  154.5090 H   0  0  0  0  0  0  0  0  0  0  0  0
  146.7754  139.5076  153.7682 H   0  0  0  0  0  0  0  0  0  0  0  0
  148.8957  141.1923  153.3885 H   0  0  0  0  0  0  0  0  0  0  0  0
  151.5157  142.6173  157.5318 H   0  0  0  0  0  0  0  0  0  0  0  0
  1  2  1  0  0  0  0
  1 22  1  0  0  0  0
  1 23  1  0  0  0  0
  1 24  1  0  0  0  0
  2  3  1  0  0  0  0
  2  4  1  0  0  0  0
  3 25  1  0  0  0  0
  3 26  1  0  0  0  0
  3 27  1  0  0  0  0
  4 21  1  0  0  0  0
  4  5  2  0  0  0  0
  5  6  1  0  0  0  0
  5 28  1  0  0  0  0
  6  7  2  0  0  0  0
  6 29  1  0  0  0  0
  7  8  1  0  0  0  0
  7 30  1  0  0  0  0
  8  9  2  0  0  0  0
  8 21  1  0  0  0  0
  9 10  1  0  0  0  0
 10 11  2  0  0  0  0
 10 12  1  0  0  0  0
 12 13  1  0  0  0  0
 12 31  1  0  0  0  0
 13 20  1  0  0  0  0
 13 14  1  0  0  0  0
 13 32  1  0  0  0  0
 14 20  1  0  0  0  0
 14 15  1  0  0  0  0
 14 33  1  0  0  0  0
 15 19  1  0  0  0  0
 15 16  1  0  0  0  0
 15 34  1  0  0  0  0
 16 17  1  0  0  0  0
 16 35  1  0  0  0  0
 16 36  1  0  0  0  0
 17 18  1  0  0  0  0
 17 37  1  0  0  0  0
 17 38  1  0  0  0  0
 18 19  1  0  0  0  0
 18 20  1  0  0  0  0
 18 39  1  0  0  0  0
 19 40  1  0  0  0  0
 19 41  1  0  0  0  0
 20 42  1  0  0  0  0
 21 43  1  0  0  0  0
M  END
> <s_m_source_file>
AV-unprocessed.smi

> <i_m_source_file_index>
2706

> <i_lp_mmshare_version>
43012

> <i_f3d_flags>
0

> <s_epik_input>
W0NIM11OKFtDSDNdKWMxW2NIXVtjSF1bY0hdYyhuMSlbTkhdQyg9TylbTkhdW0NASF0yW0NAQEhdM1tDQEBIXShbQ0gyXTQpW0NIMl1bQ0gyXVtDQEBIXTRbQ0BIXTIz

> <s_epik_cmdline>
J2VwaWtfcHl0aG9uJywgJy1waCcsICc3LjAnLCAnLXRuJywgJzgnLCAnLW1hJywgJzIwMCcsICctbWV0YWxfYmluZGluZycsICctaW1hZScsICc8aW5maWxlLm1hZT4nLCAnLW9tYWUnLCAnPG91dGZpbGUubWFlPic=

> <r_lp_tautomer_probability>
0.999994

> <r_epik_Ionization_Penalty>
2.07242

> <r_epik_Ionization_Penalty_Charging>
2.07242

> <r_epik_Ionization_Penalty_Neutral>
9.73808e-07

> <r_epik_State_Penalty>
3.96009

> <r_epik_Charging_Adjusted_Penalty>
6.03251

> <i_epik_Tot_Q>
0

> <i_epik_Tot_abs_Q>
0

> <r_epik_Metal_State_Penalty>
3.98849

> <b_epik_Metal_Only>
1

> <s_lp_Force_Field>
OPLS_2005

> <r_lp_Energy>
108.692

> <b_lp_Chiralities_Consistent>
1

> <s_lp_Variant>
AV-unprocessed.smi:2706-12

> <Gold.Version>
5.8.1

> <Gold.Id.Protein>
6NUR|6NUR_protein|mol2

> <Gold.PLP.Fitness>
42.9390

> <Gold.PLP.PLP>
-40.8408

> <Gold.PLP.part.hbond>
-1.7158

> <Gold.PLP.part.metal>
0.0000

> <Gold.PLP.part.buried>
-3.6199

> <Gold.PLP.part.nonpolar>
-34.7149

> <Gold.PLP.part.repulsive>
0.1852

> <Gold.PLP.ligand.clash>
0.9089

> <Gold.PLP.ligand.torsion>
0.5240

> <Gold.PLP.Chemscore.Hbond>
1.2954

> <Gold.PLP.Chemscore.CHOScore>
0.0000

> <Gold.PLP.Chemscore.Metal>
0.0000

> <Gold.Chemscore.Hbonds>
donor molecule, donor type, donor heavy atom, donor atom, acceptor molecule, acceptor atom, score
      P1  H  7989  7998       L1    11  0.77
      P1  H  7997  8010       L1     9  0.47

> <Gold.PLP.Chemscore.Internal.Correction>
0.1688

> <Gold.Rescore>
     Score         DG    S(hbond)    S(metal)    S(lipo)     H(rot)  DE(clash)    DE(int)     intcor
     13.66     -15.80       0.86        0.00      85.42       1.00       0.14       2.00       ----

> <Gold.Chemscore.Fitness>
13.6620

> <Gold.Chemscore.DG>
-15.8008

> <Gold.Chemscore.ZeroCoef>
-5.4800

> <Gold.Chemscore.Hbond>
0.8641

> <Gold.Chemscore.Metal>
0.0000

> <Gold.Chemscore.Lipo>
85.4244

> <Gold.Chemscore.Internal_Hbond>
0.0000

> <Gold.Chemscore.DEClash>
0.1429

> <Gold.Chemscore.DEInternal>
1.9958

> <Gold.Chemscore.Rot>
1.0000

> <Gold.Chemscore.Internal.Correction>
   9.000000E+99

> <Gold.Chemscore.Hbonds>
donor molecule, donor type, donor heavy atom, donor atom, acceptor molecule, acceptor atom, score
      P1  H  7989  7998       L1    11  0.77
      P1  H  7997  8010       L1     9  0.02

> <Gold.Chemscore.Hbond.Weighted>
-2.8861

> <Gold.Chemscore.Metal.Weighted>
-0.0000

> <Gold.Chemscore.Lipo.Weighted>
-9.9947

> <Gold.Chemscore.Internal_Hbond.Weighted>
0.0000

> <Gold.Chemscore.DEClash.Weighted>
0.1429

> <Gold.Chemscore.DEInternal.Weighted>
1.9958

> <Gold.Chemscore.Rot.Weighted>
2.5600

> <Gold.Chemscore.Internal.Correction.Weighted>
   9.000000E+99

> <Gold.Protein.RotatedTorsions>
[ 6907 6896 6895 6894 ] final  132.87 input  -60.11 | X-H torsion
[ 7974 7965 7964 7962 ] final  139.75 input  175.53 | X-H torsion
[ 8008 7997 7996 7995 ] final   61.43 input   59.86 | X-H torsion
[ 10167 10162 10161 10158 ] final  131.28 input  -65.29 | X-H torsion
[ 10718 10713 10712 10709 ] final   95.78 input   66.30 | X-H torsion
[ 10763 10752 10751 10750 ] final  133.14 input  -60.55 | X-H torsion
[ 11005 11000 10999 10996 ] final  -12.38 input  -57.11 | X-H torsion

> <Gold.Protein.ActiveResidues>
 VAL166  LYS551  ARG553  GLY616  TRP617  ASP618  TYR619  PRO620  LYS621  CYS622 
 ASP623  PHE694  ASN695  SER759  ASP760  ASP761  ALA762  ILE779  LEU786  VAL792 
 PHE793  MET794  SER795  GLU796  ALA797  LYS798  CYS799  TRP800  GLU811  SER814 

> <Gold.Protein.RotatedAtoms>
  152.3278  133.5925  159.5788 H   0  0  0  0  0  0  0  0  0  0  0  0  # atno 6907 bound_to 6896
  150.7406  133.9913  159.3617 H   0  0  0  0  0  0  0  0  0  0  0  0  # atno 6908 bound_to 6896
  151.7791  135.0767  160.0422 H   0  0  0  0  0  0  0  0  0  0  0  0  # atno 6909 bound_to 6896
  144.9249  139.5120  143.5645 H   0  0  0  0  0  0  0  0  0  0  0  0  # atno 7974 bound_to 7965
  155.5982  140.3493  155.4586 H   0  0  0  0  0  0  0  0  0  0  0  0  # atno 8008 bound_to 7997
  156.0248  140.1261  157.0344 H   0  0  0  0  0  0  0  0  0  0  0  0  # atno 8009 bound_to 7997
  154.4329  140.1055  156.6002 H   0  0  0  0  0  0  0  0  0  0  0  0  # atno 8010 bound_to 7997
  139.5391  144.6713  151.4684 H   0  0  0  0  0  0  0  0  0  0  0  0  # atno 10167 bound_to 10162
  157.6935  131.0557  150.4392 H   0  0  0  0  0  0  0  0  0  0  0  0  # atno 10718 bound_to 10713
  153.8022  135.3140  155.3391 H   0  0  0  0  0  0  0  0  0  0  0  0  # atno 10763 bound_to 10752
  154.8084  135.4683  154.0456 H   0  0  0  0  0  0  0  0  0  0  0  0  # atno 10764 bound_to 10752
  153.1807  135.6893  153.8569 H   0  0  0  0  0  0  0  0  0  0  0  0  # atno 10765 bound_to 10752
  140.7651  133.8483  155.9158 H   0  0  0  0  0  0  0  0  0  0  0  0  # atno 11005 bound_to 11000
  146.3222  139.8157  142.8937 LP  0  0  0  0  0  0  0  0  0  0  0  0  # atno 17320 bound_to 7965
  145.3235  141.0249  143.3487 LP  0  0  0  0  0  0  0  0  0  0  0  0  # atno 17321 bound_to 7965
  140.6613  143.8493  150.6891 LP  0  0  0  0  0  0  0  0  0  0  0  0  # atno 17342 bound_to 10162
  140.1888  143.4053  152.1878 LP  0  0  0  0  0  0  0  0  0  0  0  0  # atno 17343 bound_to 10162
  156.4752  130.4061  149.6494 LP  0  0  0  0  0  0  0  0  0  0  0  0  # atno 17370 bound_to 10713
  156.3560  130.7457  151.2423 LP  0  0  0  0  0  0  0  0  0  0  0  0  # atno 17371 bound_to 10713
  140.9626  134.1635  157.4641 LP  0  0  0  0  0  0  0  0  0  0  0  0  # atno 17394 bound_to 11000
  139.8764  134.9950  156.5723 LP  0  0  0  0  0  0  0  0  0  0  0  0  # atno 17395 bound_to 11000

$$$$
