AV-unprocessed.smi:738|AV-procd|sdf|3539|dock5
  -GOLD-   22720 0533D 1   1.00000     0.00000
 Structure written by MMmdl.
 35 37  0  0  0  0  0  0  0  0  1 V2000
  151.1663  137.8002  153.5006 N   0  0  0  0  0  0  0  0  0  0  0  0
  151.2607  137.2123  154.6972 C   0  0  0  0  0  0  0  0  0  0  0  0
  151.1885  135.9933  154.8402 O   0  0  0  0  0  0  0  0  0  0  0  0
  151.5297  138.1195  155.8629 C   0  0  0  0  0  0  0  0  0  0  0  0
  151.6063  139.5179  155.6818 C   0  0  0  0  0  0  0  0  0  0  0  0
  151.8642  140.3865  156.6823 N   0  0  0  0  0  0  0  0  0  0  0  0
  152.0729  139.8961  157.9277 C   0  0  0  0  0  0  0  0  0  0  0  0
  152.3378  140.8115  158.9599 N   0  0  0  0  0  0  0  0  0  0  0  0
  153.6351  140.5910  159.6006 C   0  0  0  0  0  0  0  0  0  0  0  0
  153.8635  141.5896  160.7621 C   0  0  0  0  0  0  0  0  0  0  0  0
  153.6652  142.9394  160.3288 O   0  0  0  0  0  0  0  0  0  0  0  0
  152.3530  143.0936  159.8057 C   0  0  1  0  0  0  0  0  0  0  0  0
  151.9919  144.4736  159.2633 C   0  0  0  0  0  0  0  0  0  0  0  0
  150.8681  144.1912  158.2429 C   0  0  0  0  0  0  0  0  0  0  0  0
  150.8699  142.6679  157.9962 C   0  0  0  0  0  0  0  0  0  0  0  0
  152.2105  142.2109  158.5750 C   0  0  2  0  0  0  0  0  0  0  0  0
  152.0305  138.5113  158.2119 C   0  0  0  0  0  0  0  0  0  0  0  0
  152.3005  137.9067  159.8089 Cl  0  0  0  0  0  0  0  0  0  0  0  0
  151.7589  137.6130  157.1618 C   0  0  0  0  0  0  0  0  0  0  0  0
  150.9919  137.2377  152.6803 H   0  0  0  0  0  0  0  0  0  0  0  0
  151.2744  138.8002  153.4173 H   0  0  0  0  0  0  0  0  0  0  0  0
  151.4518  139.9609  154.7088 H   0  0  0  0  0  0  0  0  0  0  0  0
  153.6923  139.5670  159.9720 H   0  0  0  0  0  0  0  0  0  0  0  0
  154.4316  140.7080  158.8641 H   0  0  0  0  0  0  0  0  0  0  0  0
  153.1890  141.3687  161.5908 H   0  0  0  0  0  0  0  0  0  0  0  0
  154.8774  141.4874  161.1490 H   0  0  0  0  0  0  0  0  0  0  0  0
  151.6176  142.8142  160.5642 H   0  0  0  0  0  0  0  0  0  0  0  0
  151.6856  145.1636  160.0500 H   0  0  0  0  0  0  0  0  0  0  0  0
  152.8519  144.9095  158.7531 H   0  0  0  0  0  0  0  0  0  0  0  0
  149.8986  144.5116  158.6257 H   0  0  0  0  0  0  0  0  0  0  0  0
  151.0503  144.7395  157.3181 H   0  0  0  0  0  0  0  0  0  0  0  0
  150.0452  142.2049  158.5403 H   0  0  0  0  0  0  0  0  0  0  0  0
  150.7607  142.4132  156.9417 H   0  0  0  0  0  0  0  0  0  0  0  0
  153.0029  142.4601  157.8660 H   0  0  0  0  0  0  0  0  0  0  0  0
  151.7320  136.5516  157.3605 H   0  0  0  0  0  0  0  0  0  0  0  0
  1  2  1  0  0  0  0
  1 20  1  0  0  0  0
  1 21  1  0  0  0  0
  2  3  2  0  0  0  0
  2  4  1  0  0  0  0
  4 19  1  0  0  0  0
  4  5  2  0  0  0  0
  5  6  1  0  0  0  0
  5 22  1  0  0  0  0
  6  7  2  0  0  0  0
  7  8  1  0  0  0  0
  7 17  1  0  0  0  0
  8 16  1  0  0  0  0
  8  9  1  0  0  0  0
  9 10  1  0  0  0  0
  9 23  1  0  0  0  0
  9 24  1  0  0  0  0
 10 11  1  0  0  0  0
 10 25  1  0  0  0  0
 10 26  1  0  0  0  0
 11 12  1  0  0  0  0
 12 16  1  0  0  0  0
 12 13  1  0  0  0  0
 12 27  1  0  0  0  0
 13 14  1  0  0  0  0
 13 28  1  0  0  0  0
 13 29  1  0  0  0  0
 14 15  1  0  0  0  0
 14 30  1  0  0  0  0
 14 31  1  0  0  0  0
 15 16  1  0  0  0  0
 15 32  1  0  0  0  0
 15 33  1  0  0  0  0
 16 34  1  0  0  0  0
 17 18  1  0  0  0  0
 17 19  2  0  0  0  0
 19 35  1  0  0  0  0
M  END
> <s_m_source_file>
AV-unprocessed.smi

> <i_m_source_file_index>
738

> <i_lp_mmshare_version>
43012

> <i_f3d_flags>
0

> <s_epik_input>
W05IMl1DKD1PKWMxW2NIXW5jKGMoQ2wpW2NIXTEpTihbQ0gyXVtDSDJdTzIpW0NASF0oW0NASF0yMylbQ0gyXVtDSDJdW0NIMl0z

> <s_epik_cmdline>
J2VwaWtfcHl0aG9uJywgJy1waCcsICc3LjAnLCAnLXRuJywgJzgnLCAnLW1hJywgJzIwMCcsICctbWV0YWxfYmluZGluZycsICctaW1hZScsICc8aW5maWxlLm1hZT4nLCAnLW9tYWUnLCAnPG91dGZpbGUubWFlPic=

> <r_lp_tautomer_probability>
1

> <r_epik_Ionization_Penalty>
6.75978e-06

> <r_epik_Ionization_Penalty_Charging>
0

> <r_epik_Ionization_Penalty_Neutral>
6.75978e-06

> <r_epik_State_Penalty>
-0

> <r_epik_Charging_Adjusted_Penalty>
0

> <i_epik_Tot_Q>
0

> <i_epik_Tot_abs_Q>
0

> <r_epik_Metal_State_Penalty>
-0

> <b_epik_Metal_Only>
0

> <s_lp_Force_Field>
OPLS_2005

> <r_lp_Energy>
40.6009

> <b_lp_Chiralities_Consistent>
1

> <s_lp_Variant>
AV-unprocessed.smi:738-2

> <Gold.Version>
5.8.1

> <Gold.Id.Protein>
6NUR|6NUR_protein|mol2

> <Gold.PLP.Fitness>
38.3879

> <Gold.PLP.PLP>
-32.4321

> <Gold.PLP.part.hbond>
-2.7497

> <Gold.PLP.part.metal>
0.0000

> <Gold.PLP.part.buried>
-0.0268

> <Gold.PLP.part.nonpolar>
-29.6363

> <Gold.PLP.part.repulsive>
0.2788

> <Gold.PLP.ligand.clash>
0.0000

> <Gold.PLP.ligand.torsion>
0.0462

> <Gold.PLP.Chemscore.Hbond>
2.0000

> <Gold.PLP.Chemscore.CHOScore>
0.0000

> <Gold.PLP.Chemscore.Metal>
0.0000

> <Gold.Chemscore.Hbonds>
donor molecule, donor type, donor heavy atom, donor atom, acceptor molecule, acceptor atom, score
      L1  H     1    20       P1  7949  1.00
      P1  H 10752 10763       L1     3  1.00

> <Gold.PLP.Chemscore.Internal.Correction>
0.0482

> <Gold.Rescore>
     Score         DG    S(hbond)    S(metal)    S(lipo)     H(rot)  DE(clash)    DE(int)     intcor
     15.98     -20.20       1.64        0.00     100.98       1.00       1.75       2.46       ----

> <Gold.Chemscore.Fitness>
15.9816

> <Gold.Chemscore.DG>
-20.1975

> <Gold.Chemscore.ZeroCoef>
-5.4800

> <Gold.Chemscore.Hbond>
1.6356

> <Gold.Chemscore.Metal>
0.0000

> <Gold.Chemscore.Lipo>
100.9799

> <Gold.Chemscore.Internal_Hbond>
0.0000

> <Gold.Chemscore.DEClash>
1.7537

> <Gold.Chemscore.DEInternal>
2.4622

> <Gold.Chemscore.Rot>
1.0000

> <Gold.Chemscore.Internal.Correction>
   9.000000E+99

> <Gold.Chemscore.Hbonds>
donor molecule, donor type, donor heavy atom, donor atom, acceptor molecule, acceptor atom, score
      L1  H     1    20       P1  7949  0.26
      P1  H 10752 10763       L1     3  0.26

> <Gold.Chemscore.Hbond.Weighted>
-5.4629

> <Gold.Chemscore.Metal.Weighted>
-0.0000

> <Gold.Chemscore.Lipo.Weighted>
-11.8147

> <Gold.Chemscore.Internal_Hbond.Weighted>
0.0000

> <Gold.Chemscore.DEClash.Weighted>
1.7537

> <Gold.Chemscore.DEInternal.Weighted>
2.4622

> <Gold.Chemscore.Rot.Weighted>
2.5600

> <Gold.Chemscore.Internal.Correction.Weighted>
   9.000000E+99

> <Gold.Protein.RotatedTorsions>
[ 6907 6896 6895 6894 ] final   73.89 input  -60.11 | X-H torsion
[ 7974 7965 7964 7962 ] final   88.40 input  175.53 | X-H torsion
[ 8008 7997 7996 7995 ] final   14.15 input   59.86 | X-H torsion
[ 10167 10162 10161 10158 ] final  -20.01 input  -65.29 | X-H torsion
[ 10718 10713 10712 10709 ] final  -42.75 input   66.30 | X-H torsion
[ 10763 10752 10751 10750 ] final   67.68 input  -60.55 | X-H torsion
[ 11005 11000 10999 10996 ] final  -58.00 input  -57.11 | X-H torsion

> <Gold.Protein.ActiveResidues>
 VAL166  LYS551  ARG553  GLY616  TRP617  ASP618  TYR619  PRO620  LYS621  CYS622 
 ASP623  PHE694  ASN695  SER759  ASP760  ASP761  ALA762  ILE779  LEU786  VAL792 
 PHE793  MET794  SER795  GLU796  ALA797  LYS798  CYS799  TRP800  GLU811  SER814 

> <Gold.Protein.RotatedAtoms>
  152.4947  134.4354  159.9525 H   0  0  0  0  0  0  0  0  0  0  0  0  # atno 6907 bound_to 6896
  151.4334  133.3657  159.2779 H   0  0  0  0  0  0  0  0  0  0  0  0  # atno 6908 bound_to 6896
  150.9138  134.8579  159.7503 H   0  0  0  0  0  0  0  0  0  0  0  0  # atno 6909 bound_to 6896
  145.5462  139.2292  143.2538 H   0  0  0  0  0  0  0  0  0  0  0  0  # atno 7974 bound_to 7965
  154.8444  140.2920  155.5638 H   0  0  0  0  0  0  0  0  0  0  0  0  # atno 8008 bound_to 7997
  156.3013  140.2508  156.3324 H   0  0  0  0  0  0  0  0  0  0  0  0  # atno 8009 bound_to 7997
  154.9089  140.0389  157.1924 H   0  0  0  0  0  0  0  0  0  0  0  0  # atno 8010 bound_to 7997
  140.7273  143.4763  151.0178 H   0  0  0  0  0  0  0  0  0  0  0  0  # atno 10167 bound_to 10162
  156.2563  130.4192  149.8593 H   0  0  0  0  0  0  0  0  0  0  0  0  # atno 10718 bound_to 10713
  153.0198  135.5275  154.7016 H   0  0  0  0  0  0  0  0  0  0  0  0  # atno 10763 bound_to 10752
  154.6123  135.2879  155.0420 H   0  0  0  0  0  0  0  0  0  0  0  0  # atno 10764 bound_to 10752
  154.1437  135.6574  153.5000 H   0  0  0  0  0  0  0  0  0  0  0  0  # atno 10765 bound_to 10752
  141.1189  133.6611  156.4854 H   0  0  0  0  0  0  0  0  0  0  0  0  # atno 11005 bound_to 11000
  146.1948  140.6284  142.9129 LP  0  0  0  0  0  0  0  0  0  0  0  0  # atno 17320 bound_to 7965
  144.7552  140.5289  143.6774 LP  0  0  0  0  0  0  0  0  0  0  0  0  # atno 17321 bound_to 7965
  139.8459  143.7502  152.3179 LP  0  0  0  0  0  0  0  0  0  0  0  0  # atno 17342 bound_to 10162
  139.7667  144.7489  151.0283 LP  0  0  0  0  0  0  0  0  0  0  0  0  # atno 17343 bound_to 10162
  156.6124  130.8592  151.3457 LP  0  0  0  0  0  0  0  0  0  0  0  0  # atno 17370 bound_to 10713
  157.7234  130.9589  150.1531 LP  0  0  0  0  0  0  0  0  0  0  0  0  # atno 17371 bound_to 10713
  140.4566  134.6880  157.5065 LP  0  0  0  0  0  0  0  0  0  0  0  0  # atno 17394 bound_to 11000
  140.0131  134.6661  155.9351 LP  0  0  0  0  0  0  0  0  0  0  0  0  # atno 17395 bound_to 11000

$$$$
