AV-unprocessed.smi:1589|AV-procd|sdf|6393|dock1
  -GOLD-   22720 7 23D 1   1.00000     0.00000
 Structure written by MMmdl.
 44 45  0  0  0  0  0  0  0  0  2 V2000
  148.6190  129.5719  153.5931 C   0  0  0  0  0  0  0  0  0  0  0  0
  147.3419  129.4355  152.7370 C   0  0  0  0  0  0  0  0  0  0  0  0
  147.5074  128.2237  151.7966 C   0  0  0  0  0  0  0  0  0  0  0  0
  147.0092  130.6916  151.9893 N   0  3  0  0  0  0  0  0  0  0  0  0
  146.8260  131.8821  152.8757 C   0  0  0  0  0  0  0  0  0  0  0  0
  146.4247  133.1457  152.0931 C   0  0  0  0  0  0  0  0  0  0  0  0
  145.2189  132.8547  151.3107 N   0  0  0  0  0  0  0  0  0  0  0  0
  143.9511  133.2339  151.6126 C   0  0  0  0  0  0  0  0  0  0  0  0
  142.9656  132.7528  151.0532 O   0  0  0  0  0  0  0  0  0  0  0  0
  143.8716  134.2121  152.5345 N   0  0  0  0  0  0  0  0  0  0  0  0
  142.6998  134.7848  153.0894 C   0  0  0  0  0  0  0  0  0  0  0  0
  141.3795  134.2566  153.1571 C   0  0  0  0  0  0  0  0  0  0  0  0
  140.5595  135.1036  153.7606 N   0  0  0  0  0  0  0  0  0  0  0  0
  141.3302  136.1706  154.0889 N   0  0  0  0  0  0  0  0  0  0  0  0
  140.7357  137.3031  154.7805 C   0  0  0  0  0  0  0  0  0  0  0  0
  141.0471  138.6367  154.0905 C   0  0  0  0  0  0  0  0  0  0  0  0
  142.3328  138.9905  154.0201 N   0  0  0  0  0  0  0  0  0  0  0  0
  140.1518  139.3390  153.6234 O   0  0  0  0  0  0  0  0  0  0  0  0
  142.6417  136.0079  153.6865 C   0  0  0  0  0  0  0  0  0  0  0  0
  145.5083  131.8289  150.3095 C   0  0  0  0  0  0  0  0  0  0  0  0
  145.8769  130.5186  151.0282 C   0  0  0  0  0  0  0  0  0  0  0  0
  148.8961  128.6163  154.0393 H   0  0  0  0  0  0  0  0  0  0  0  0
  148.4870  130.2640  154.4246 H   0  0  0  0  0  0  0  0  0  0  0  0
  149.4657  129.9114  152.9953 H   0  0  0  0  0  0  0  0  0  0  0  0
  146.5142  129.2211  153.4150 H   0  0  0  0  0  0  0  0  0  0  0  0
  147.8532  127.3463  152.3439 H   0  0  0  0  0  0  0  0  0  0  0  0
  148.2356  128.4270  151.0106 H   0  0  0  0  0  0  0  0  0  0  0  0
  146.5690  127.9329  151.3253 H   0  0  0  0  0  0  0  0  0  0  0  0
  146.0673  131.6592  153.6278 H   0  0  0  0  0  0  0  0  0  0  0  0
  147.7496  132.1072  153.4071 H   0  0  0  0  0  0  0  0  0  0  0  0
  146.3145  133.9848  152.7800 H   0  0  0  0  0  0  0  0  0  0  0  0
  147.2295  133.4348  151.4155 H   0  0  0  0  0  0  0  0  0  0  0  0
  144.7455  134.5594  152.9014 H   0  0  0  0  0  0  0  0  0  0  0  0
  140.9877  133.3154  152.8019 H   0  0  0  0  0  0  0  0  0  0  0  0
  139.6570  137.1475  154.8274 H   0  0  0  0  0  0  0  0  0  0  0  0
  141.1020  137.3362  155.8077 H   0  0  0  0  0  0  0  0  0  0  0  0
  142.5956  139.8602  153.5795 H   0  0  0  0  0  0  0  0  0  0  0  0
  143.0394  138.3852  154.4127 H   0  0  0  0  0  0  0  0  0  0  0  0
  143.3993  136.7574  153.8627 H   0  0  0  0  0  0  0  0  0  0  0  0
  144.6734  131.6605  149.6276 H   0  0  0  0  0  0  0  0  0  0  0  0
  146.3362  132.1584  149.6798 H   0  0  0  0  0  0  0  0  0  0  0  0
  146.1316  129.7852  150.2647 H   0  0  0  0  0  0  0  0  0  0  0  0
  145.0053  130.1361  151.5621 H   0  0  0  0  0  0  0  0  0  0  0  0
  147.8174  130.9020  151.4214 H   0  0  0  0  0  0  0  0  0  0  0  0
  1  2  1  0  0  0  0
  1 22  1  0  0  0  0
  1 23  1  0  0  0  0
  1 24  1  0  0  0  0
  2  3  1  0  0  0  0
  2  4  1  0  0  0  0
  2 25  1  0  0  0  0
  3 26  1  0  0  0  0
  3 27  1  0  0  0  0
  3 28  1  0  0  0  0
  4 21  1  0  0  0  0
  4  5  1  0  0  0  0
  4 44  1  0  0  0  0
  5  6  1  0  0  0  0
  5 29  1  0  0  0  0
  5 30  1  0  0  0  0
  6  7  1  0  0  0  0
  6 31  1  0  0  0  0
  6 32  1  0  0  0  0
  7  8  1  0  0  0  0
  7 20  1  0  0  0  0
  8  9  2  0  0  0  0
  8 10  1  0  0  0  0
 10 11  1  0  0  0  0
 10 33  1  0  0  0  0
 11 19  2  0  0  0  0
 11 12  1  0  0  0  0
 12 13  2  0  0  0  0
 12 34  1  0  0  0  0
 13 14  1  0  0  0  0
 14 15  1  0  0  0  0
 14 19  1  0  0  0  0
 15 16  1  0  0  0  0
 15 35  1  0  0  0  0
 15 36  1  0  0  0  0
 16 17  1  0  0  0  0
 16 18  2  0  0  0  0
 17 37  1  0  0  0  0
 17 38  1  0  0  0  0
 19 39  1  0  0  0  0
 20 21  1  0  0  0  0
 20 40  1  0  0  0  0
 20 41  1  0  0  0  0
 21 42  1  0  0  0  0
 21 43  1  0  0  0  0
M  CHG  1   4   1
M  END
> <s_m_source_file>
AV-unprocessed.smi

> <i_m_source_file_index>
1589

> <i_lp_mmshare_version>
43012

> <i_f3d_flags>
0

> <s_epik_input>
W0NIM11bQ0hdKFtDSDNdKU4xW0NIMl1bQ0gyXU4oW0NIMl1bQ0gyXTEpQyg9TylbTkhdYzJbY0hdbm4oW2NIXTIpW0NIMl1DKD1PKVtOSDJd

> <s_epik_cmdline>
J2VwaWtfcHl0aG9uJywgJy1waCcsICc3LjAnLCAnLXRuJywgJzgnLCAnLW1hJywgJzIwMCcsICctbWV0YWxfYmluZGluZycsICctaW1hZScsICc8aW5maWxlLm1hZT4nLCAnLW9tYWUnLCAnPG91dGZpbGUubWFlPic=

> <r_lp_tautomer_probability>
1

> <r_epik_Ionization_Penalty>
0.241469

> <r_epik_Ionization_Penalty_Charging>
0.241445

> <r_epik_Ionization_Penalty_Neutral>
2.46507e-05

> <r_epik_State_Penalty>
0.232445

> <r_epik_Charging_Adjusted_Penalty>
0.47389

> <i_epik_Tot_Q>
1

> <i_epik_Tot_abs_Q>
1

> <r_epik_Metal_State_Penalty>
0.232446

> <b_epik_Metal_Only>
0

> <s_lp_Force_Field>
OPLS_2005

> <r_lp_Energy>
56.898

> <b_lp_Chiralities_Consistent>
1

> <s_lp_Variant>
AV-unprocessed.smi:1589-1

> <Gold.Version>
5.8.1

> <Gold.Id.Protein>
6NUR|6NUR_protein|mol2

> <Gold.PLP.Fitness>
44.4184

> <Gold.PLP.PLP>
-36.5094

> <Gold.PLP.part.hbond>
-3.4797

> <Gold.PLP.part.metal>
0.0000

> <Gold.PLP.part.buried>
-6.2350

> <Gold.PLP.part.nonpolar>
-28.3372

> <Gold.PLP.part.repulsive>
2.4829

> <Gold.PLP.ligand.clash>
0.0000

> <Gold.PLP.ligand.torsion>
0.2697

> <Gold.PLP.Chemscore.Hbond>
2.7260

> <Gold.PLP.Chemscore.CHOScore>
0.0475

> <Gold.PLP.Chemscore.Metal>
0.0000

> <Gold.Chemscore.Hbonds>
donor molecule, donor type, donor heavy atom, donor atom, acceptor molecule, acceptor atom, score
      L1  H     4    44       P1 10747  1.00
      L1  H    17    37       P1 10175  0.85
      P1  H 11000 11005       L1    13  0.69

> <Gold.PLP.Chemscore.Internal.Correction>
0.1278

> <Gold.Rescore>
     Score         DG    S(hbond)    S(metal)    S(lipo)     H(rot)  DE(clash)    DE(int)     intcor
     14.45     -15.74       1.93        0.00      72.80       1.84       0.08       1.21       ----

> <Gold.Chemscore.Fitness>
14.4490

> <Gold.Chemscore.DG>
-15.7394

> <Gold.Chemscore.ZeroCoef>
-5.4800

> <Gold.Chemscore.Hbond>
1.9311

> <Gold.Chemscore.Metal>
0.0000

> <Gold.Chemscore.Lipo>
72.8007

> <Gold.Chemscore.Internal_Hbond>
0.0000

> <Gold.Chemscore.DEClash>
0.0842

> <Gold.Chemscore.DEInternal>
1.2062

> <Gold.Chemscore.Rot>
1.8392

> <Gold.Chemscore.Internal.Correction>
   9.000000E+99

> <Gold.Chemscore.Hbonds>
donor molecule, donor type, donor heavy atom, donor atom, acceptor molecule, acceptor atom, score
      L1  H     4    44       P1 10747  0.99
      L1  H    17    37       P1 10175  0.81
      P1  H 11000 11005       L1    13  0.06

> <Gold.Chemscore.Hbond.Weighted>
-6.4500

> <Gold.Chemscore.Metal.Weighted>
-0.0000

> <Gold.Chemscore.Lipo.Weighted>
-8.5177

> <Gold.Chemscore.Internal_Hbond.Weighted>
0.0000

> <Gold.Chemscore.DEClash.Weighted>
0.0842

> <Gold.Chemscore.DEInternal.Weighted>
1.2062

> <Gold.Chemscore.Rot.Weighted>
4.7083

> <Gold.Chemscore.Internal.Correction.Weighted>
   9.000000E+99

> <Gold.Protein.RotatedTorsions>
[ 6907 6896 6895 6894 ] final  169.22 input  -60.11 | X-H torsion
[ 7974 7965 7964 7962 ] final   15.58 input  175.53 | X-H torsion
[ 8008 7997 7996 7995 ] final   79.17 input   59.86 | X-H torsion
[ 10167 10162 10161 10158 ] final  115.83 input  -65.29 | X-H torsion
[ 10718 10713 10712 10709 ] final  -53.36 input   66.30 | X-H torsion
[ 10763 10752 10751 10750 ] final -143.02 input  -60.55 | X-H torsion
[ 11005 11000 10999 10996 ] final   27.51 input  -57.11 | X-H torsion

> <Gold.Protein.ActiveResidues>
 VAL166  LYS551  ARG553  GLY616  TRP617  ASP618  TYR619  PRO620  LYS621  CYS622 
 ASP623  PHE694  ASN695  SER759  ASP760  ASP761  ALA762  ILE779  LEU786  VAL792 
 PHE793  MET794  SER795  GLU796  ALA797  LYS798  CYS799  TRP800  GLU811  SER814 

> <Gold.Protein.RotatedAtoms>
  151.8354  133.3415  159.3626 H   0  0  0  0  0  0  0  0  0  0  0  0  # atno 6907 bound_to 6896
  150.7251  134.5442  159.5772 H   0  0  0  0  0  0  0  0  0  0  0  0  # atno 6908 bound_to 6896
  152.2905  134.7728  160.0430 H   0  0  0  0  0  0  0  0  0  0  0  0  # atno 6909 bound_to 6896
  146.2274  139.8874  142.8560 H   0  0  0  0  0  0  0  0  0  0  0  0  # atno 7974 bound_to 7965
  155.8660  140.3451  155.5788 H   0  0  0  0  0  0  0  0  0  0  0  0  # atno 8008 bound_to 7997
  155.7880  140.0867  157.2043 H   0  0  0  0  0  0  0  0  0  0  0  0  # atno 8009 bound_to 7997
  154.4014  140.1488  156.3117 H   0  0  0  0  0  0  0  0  0  0  0  0  # atno 8010 bound_to 7997
  139.6290  144.7112  151.2473 H   0  0  0  0  0  0  0  0  0  0  0  0  # atno 10167 bound_to 10162
  156.1542  130.4150  149.9896 H   0  0  0  0  0  0  0  0  0  0  0  0  # atno 10718 bound_to 10713
  154.8486  135.3479  154.6120 H   0  0  0  0  0  0  0  0  0  0  0  0  # atno 10763 bound_to 10752
  153.6729  135.6984  153.5146 H   0  0  0  0  0  0  0  0  0  0  0  0  # atno 10764 bound_to 10752
  153.2728  135.4287  155.0961 H   0  0  0  0  0  0  0  0  0  0  0  0  # atno 10765 bound_to 10752
  140.3255  134.2496  155.7710 H   0  0  0  0  0  0  0  0  0  0  0  0  # atno 11005 bound_to 11000
  145.2452  141.0024  143.3913 LP  0  0  0  0  0  0  0  0  0  0  0  0  # atno 17320 bound_to 7965
  144.9419  139.4179  143.6444 LP  0  0  0  0  0  0  0  0  0  0  0  0  # atno 17321 bound_to 7965
  140.7428  143.6515  150.8244 LP  0  0  0  0  0  0  0  0  0  0  0  0  # atno 17342 bound_to 10162
  140.0137  143.5615  152.2828 LP  0  0  0  0  0  0  0  0  0  0  0  0  # atno 17343 bound_to 10162
  156.7745  130.9198  151.3645 LP  0  0  0  0  0  0  0  0  0  0  0  0  # atno 17370 bound_to 10713
  157.6681  130.9026  149.9978 LP  0  0  0  0  0  0  0  0  0  0  0  0  # atno 17371 bound_to 10713
  141.2076  133.7800  157.0108 LP  0  0  0  0  0  0  0  0  0  0  0  0  # atno 17394 bound_to 11000
  140.0905  134.9595  157.1769 LP  0  0  0  0  0  0  0  0  0  0  0  0  # atno 17395 bound_to 11000

$$$$
