#       Name:                AV-unprocessed.smi:1779
#       Creating user name   scv26
#       Creation time:       Fri Mar 27 08:42:03 2020


#       File generated by GOLD software.
#

@<TRIPOS>MOLECULE
AV-unprocessed.smi:1779
    52    53     1
SMALL
NO_CHARGES


@<TRIPOS>ATOM
      1 ****        -4.9261   4.1517   1.3372 C.3            1 S1                 0.0000
      2 ****        -4.1712   2.9209   1.7448 C.2            1 S1                 0.0000
      3 ****        -2.7648   2.6951   1.6921 C.2            1 S1                 0.0000
      4 ****        -2.6459   1.4229   2.1812 C.2            1 S1                 0.0000
      5 ****        -1.5219   0.6824   2.3720 N.am           1 S1                 0.0000
      6 ****        -0.2600   0.9639   2.0039 C.2            1 S1                 0.0000
      7 ****         0.1001   1.9740   1.3993 O.2            1 S1                 0.0000
      8 ****         0.5797  -0.0167   2.3653 N.am           1 S1                 0.0000
      9 ****         2.0187  -0.0308   2.1208 C.3            1 S1                 0.0000
     10 ****         2.3849  -0.8525   0.8690 C.3            1 S1                 0.0000
     11 ****         3.7800  -1.0781   0.8954 O.3            1 S1                 0.0000
     12 ****         2.0222  -0.1528  -0.4591 C.3            1 S1                 0.0000
     13 ****         2.2935  -1.0077  -1.6432 N.4            1 S1                 1.0000
     14 ****         2.5509  -0.2090  -2.8700 C.3            1 S1                 0.0000
     15 ****         2.9683  -1.1108  -4.0443 C.3            1 S1                 0.0000
     16 ****         1.9138  -2.1932  -4.3093 C.3            1 S1                 0.0000
     17 ****         1.6405  -2.9826  -3.0227 C.3            1 S1                 0.0000
     18 ****         1.2475  -2.0409  -1.8723 C.3            1 S1                 0.0000
     19 ****        -3.8992   0.9488   2.4984 N.pl3          1 S1                 0.0000
     20 ****        -4.2866  -0.3345   3.0508 C.3            1 S1                 0.0000
     21 ****        -4.8398   1.8780   2.2241 N.2            1 S1                 0.0000
     22 ****        -4.2470   4.9474   1.0304 H              1 S1                 0.0000
     23 ****        -5.5314   4.5323   2.1604 H              1 S1                 0.0000
     24 ****        -5.5928   3.9435   0.5000 H              1 S1                 0.0000
     25 ****        -1.9918   3.3684   1.3535 H              1 S1                 0.0000
     26 ****        -1.6641  -0.2014   2.8385 H              1 S1                 0.0000
     27 ****         0.1977  -0.8092   2.8610 H              1 S1                 0.0000
     28 ****         2.4235   0.9810   2.0569 H              1 S1                 0.0000
     29 ****         2.4772  -0.4837   3.0009 H              1 S1                 0.0000
     30 ****         1.8968  -1.8242   0.9390 H              1 S1                 0.0000
     31 ****         4.2221  -0.2433   0.9343 H              1 S1                 0.0000
     32 ****         0.9721   0.1390  -0.4767 H              1 S1                 0.0000
     33 ****         2.5939   0.7742  -0.5273 H              1 S1                 0.0000
     34 ****         1.6568   0.3603  -3.1300 H              1 S1                 0.0000
     35 ****         3.3443   0.5150  -2.6791 H              1 S1                 0.0000
     36 ****         3.1182  -0.5093  -4.9415 H              1 S1                 0.0000
     37 ****         3.9276  -1.5806  -3.8226 H              1 S1                 0.0000
     38 ****         0.9911  -1.7312  -4.6629 H              1 S1                 0.0000
     39 ****         2.2509  -2.8642  -5.1000 H              1 S1                 0.0000
     40 ****         0.8488  -3.7126  -3.1944 H              1 S1                 0.0000
     41 ****         2.5296  -3.5500  -2.7437 H              1 S1                 0.0000
     42 ****         1.0920  -2.6322  -0.9708 H              1 S1                 0.0000
     43 ****         0.2966  -1.5544  -2.0960 H              1 S1                 0.0000
     44 ****        -3.8507  -1.1379   2.4561 H              1 S1                 0.0000
     45 ****        -5.3723  -0.4427   3.0462 H              1 S1                 0.0000
     46 ****        -3.9265  -0.4131   4.0769 H              1 S1                 0.0000
     47 ****         3.1540  -1.4979  -1.4428 H              1 S1                 0.0000
     48 ****        -0.5716   2.6685   1.1416 LP             1 S1                 0.0000
     49 ****         1.0643   2.0999   1.1659 LP             1 S1                 0.0000
     50 ****         4.0573  -1.5673   0.0685 LP             1 S1                 0.0000
     51 ****         4.0175  -1.6223   1.7001 LP             1 S1                 0.0000
     52 ****        -5.8281   1.7981   2.3540 LP             1 S1                 0.0000
@<TRIPOS>BOND
    1    1    2 1     
    2    1   22 1     
    3    1   23 1     
    4    1   24 1     
    5    2   21 2     
    6    2    3 1     
    7    3    4 2     
    8    3   25 1     
    9    4    5 1     
   10    4   19 1     
   11    5    6 am    
   12    5   26 1     
   13    6    7 2     
   14    6    8 am    
   15    8    9 1     
   16    8   27 1     
   17    9   10 1     
   18    9   28 1     
   19    9   29 1     
   20   10   11 1     
   21   10   12 1     
   22   10   30 1     
   23   11   31 1     
   24   12   13 1     
   25   12   32 1     
   26   12   33 1     
   27   13   18 1     
   28   13   14 1     
   29   13   47 1     
   30   14   15 1     
   31   14   34 1     
   32   14   35 1     
   33   15   16 1     
   34   15   36 1     
   35   15   37 1     
   36   16   17 1     
   37   16   38 1     
   38   16   39 1     
   39   17   18 1     
   40   17   40 1     
   41   17   41 1     
   42   18   42 1     
   43   18   43 1     
   44   19   20 1     
   45   19   21 1     
   46   20   44 1     
   47   20   45 1     
   48   20   46 1     
   49    7   48 1     
   50    7   49 1     
   51   11   50 1     
   52   11   51 1     
   53   21   52 1     
@<TRIPOS>SUBSTRUCTURE
      1 S1             1
@<TRIPOS>SET
LONE_PAIRS      STATIC     ATOMS    <user>   **** ""
5 48 49 50 51 52
DONOR_HYDROGENS      STATIC     ATOMS    <user>   **** ""
4 26 27 31 47
ATOM$BLUE        STATIC     ATOMS    COLORGROUP SYSTEM
5 48 49 50 51 52
ATOM$RED        STATIC     ATOMS    COLORGROUP SYSTEM
4 26 27 31 47
