AV-unprocessed.smi:745|AV-procd|sdf|3572|dock6
  -GOLD-   22720 0563D 1   1.00000     0.00000
 Structure written by MMmdl.
 42 43  0  0  0  0  0  0  0  0  2 V2000
  149.6597  139.7066  153.9442 C   0  0  0  0  0  0  0  0  0  0  0  0
  148.6021  140.7866  154.2317 C   0  0  2  0  0  0  0  0  0  0  0  0
  149.2399  141.8304  155.0356 N   0  0  0  0  0  0  0  0  0  0  0  0
  150.0546  141.6306  156.0834 C   0  0  0  0  0  0  0  0  0  0  0  0
  150.4005  140.5149  156.4730 O   0  0  0  0  0  0  0  0  0  0  0  0
  150.4368  142.7982  156.6299 N   0  0  0  0  0  0  0  0  0  0  0  0
  151.2962  143.0076  157.7413 C   0  0  0  0  0  0  0  0  0  0  0  0
  151.5122  144.3615  158.0839 C   0  0  0  0  0  0  0  0  0  0  0  0
  152.3496  144.6758  159.1718 C   0  0  0  0  0  0  0  0  0  0  0  0
  152.9507  143.6268  159.8899 C   0  0  0  0  0  0  0  0  0  0  0  0
  152.6839  142.3067  159.4826 C   0  0  0  0  0  0  0  0  0  0  0  0
  151.8821  142.0031  158.4399 N   0  0  0  0  0  0  0  0  0  0  0  0
  147.3318  140.2353  154.9378 C   0  0  2  0  0  0  0  0  0  0  0  0
  146.7829  138.9670  154.2467 C   0  0  0  0  0  0  0  0  0  0  0  0
  145.5007  138.4499  154.9193 C   0  0  0  0  0  0  0  0  0  0  0  0
  144.4565  139.5006  154.9502 N   0  3  1  0  0  0  0  0  0  0  0  0
  143.1660  138.9997  155.4696 C   0  0  0  0  0  0  0  0  0  0  0  0
  144.9233  140.7114  155.6653 C   0  0  0  0  0  0  0  0  0  0  0  0
  146.1935  141.2805  155.0130 C   0  0  0  0  0  0  0  0  0  0  0  0
  149.3047  138.9715  153.2229 H   0  0  0  0  0  0  0  0  0  0  0  0
  149.9463  139.1765  154.8530 H   0  0  0  0  0  0  0  0  0  0  0  0
  150.5624  140.1485  153.5204 H   0  0  0  0  0  0  0  0  0  0  0  0
  148.3020  141.2034  153.2685 H   0  0  0  0  0  0  0  0  0  0  0  0
  149.0197  142.7842  154.7884 H   0  0  0  0  0  0  0  0  0  0  0  0
  150.0680  143.6354  156.2039 H   0  0  0  0  0  0  0  0  0  0  0  0
  151.0424  145.1553  157.5215 H   0  0  0  0  0  0  0  0  0  0  0  0
  152.5268  145.7043  159.4495 H   0  0  0  0  0  0  0  0  0  0  0  0
  153.5989  143.8281  160.7299 H   0  0  0  0  0  0  0  0  0  0  0  0
  153.1260  141.4721  160.0065 H   0  0  0  0  0  0  0  0  0  0  0  0
  147.6045  139.9678  155.9602 H   0  0  0  0  0  0  0  0  0  0  0  0
  146.5824  139.1778  153.1952 H   0  0  0  0  0  0  0  0  0  0  0  0
  147.5236  138.1680  154.2658 H   0  0  0  0  0  0  0  0  0  0  0  0
  145.1294  137.5820  154.3730 H   0  0  0  0  0  0  0  0  0  0  0  0
  145.7165  138.1163  155.9358 H   0  0  0  0  0  0  0  0  0  0  0  0
  143.2592  138.6817  156.5088 H   0  0  0  0  0  0  0  0  0  0  0  0
  142.8183  138.1500  154.8811 H   0  0  0  0  0  0  0  0  0  0  0  0
  142.4023  139.7761  155.4156 H   0  0  0  0  0  0  0  0  0  0  0  0
  144.1385  141.4689  155.6514 H   0  0  0  0  0  0  0  0  0  0  0  0
  145.1134  140.4695  156.7123 H   0  0  0  0  0  0  0  0  0  0  0  0
  146.5090  142.1529  155.5850 H   0  0  0  0  0  0  0  0  0  0  0  0
  145.9575  141.6397  154.0101 H   0  0  0  0  0  0  0  0  0  0  0  0
  144.2934  139.7755  153.9920 H   0  0  0  0  0  0  0  0  0  0  0  0
  1  2  1  0  0  0  0
  1 20  1  0  0  0  0
  1 21  1  0  0  0  0
  1 22  1  0  0  0  0
  2  3  1  0  0  0  0
  2 13  1  0  0  0  0
  2 23  1  0  0  0  0
  3  4  1  0  0  0  0
  3 24  1  0  0  0  0
  4  5  2  0  0  0  0
  4  6  1  0  0  0  0
  6  7  1  0  0  0  0
  6 25  1  0  0  0  0
  7 12  1  0  0  0  0
  7  8  2  0  0  0  0
  8  9  1  0  0  0  0
  8 26  1  0  0  0  0
  9 10  2  0  0  0  0
  9 27  1  0  0  0  0
 10 11  1  0  0  0  0
 10 28  1  0  0  0  0
 11 12  2  0  0  0  0
 11 29  1  0  0  0  0
 13 19  1  0  0  0  0
 13 14  1  0  0  0  0
 13 30  1  0  0  0  0
 14 15  1  0  0  0  0
 14 31  1  0  0  0  0
 14 32  1  0  0  0  0
 15 16  1  0  0  0  0
 15 33  1  0  0  0  0
 15 34  1  0  0  0  0
 16 17  1  0  0  0  0
 16 18  1  0  0  0  0
 16 42  1  0  0  0  0
 17 35  1  0  0  0  0
 17 36  1  0  0  0  0
 17 37  1  0  0  0  0
 18 19  1  0  0  0  0
 18 38  1  0  0  0  0
 18 39  1  0  0  0  0
 19 40  1  0  0  0  0
 19 41  1  0  0  0  0
M  CHG  1  16   1
M  END
> <s_m_source_file>
AV-unprocessed.smi

> <i_m_source_file_index>
745

> <i_lp_mmshare_version>
43012

> <i_f3d_flags>
0

> <s_epik_input>
W0NIMl0xW0NIMl1OKFtDSDNdKVtDSDJdW0NIMl1bQ0hdMVtDQEhdKFtDSDNdKVtOSF1DKD1PKVtOSF1jMltjSF1bY0hdW2NIXVtjSF1uMg==

> <s_epik_cmdline>
J2VwaWtfcHl0aG9uJywgJy1waCcsICc3LjAnLCAnLXRuJywgJzgnLCAnLW1hJywgJzIwMCcsICctbWV0YWxfYmluZGluZycsICctaW1hZScsICc8aW5maWxlLm1hZT4nLCAnLW9tYWUnLCAnPG91dGZpbGUubWFlPic=

> <r_epik_Ionization_Penalty>
0.0011087

> <r_epik_Ionization_Penalty_Charging>
0.00106265

> <r_epik_Ionization_Penalty_Neutral>
4.60506e-05

> <r_epik_State_Penalty>
0.000695551

> <r_epik_Charging_Adjusted_Penalty>
0.0017582

> <i_epik_Tot_Q>
1

> <i_epik_Tot_abs_Q>
1

> <r_epik_Metal_State_Penalty>
-0

> <b_epik_Metal_Only>
0

> <s_lp_Force_Field>
OPLS_2005

> <r_lp_Energy>
20.1287

> <b_lp_Chiralities_Consistent>
1

> <s_lp_Variant>
AV-unprocessed.smi:745-1

> <Gold.Version>
5.8.1

> <Gold.Id.Protein>
6NUR|6NUR_protein|mol2

> <Gold.PLP.Fitness>
44.4120

> <Gold.PLP.PLP>
-33.5896

> <Gold.PLP.part.hbond>
-3.0000

> <Gold.PLP.part.metal>
0.0000

> <Gold.PLP.part.buried>
-3.3553

> <Gold.PLP.part.nonpolar>
-28.2117

> <Gold.PLP.part.repulsive>
0.2638

> <Gold.PLP.ligand.clash>
0.0000

> <Gold.PLP.ligand.torsion>
0.3454

> <Gold.PLP.Chemscore.Hbond>
3.8320

> <Gold.PLP.Chemscore.CHOScore>
0.0000

> <Gold.PLP.Chemscore.Metal>
0.0000

> <Gold.Chemscore.Hbonds>
donor molecule, donor type, donor heavy atom, donor atom, acceptor molecule, acceptor atom, score
      L1  H     3    24       P1  8028  0.66
      L1  H     6    25       P1  8028  1.00
      L1  H    16    42       P1 10175  2.00

> <Gold.PLP.Chemscore.Internal.Correction>
0.0172

> <Gold.Rescore>
     Score         DG    S(hbond)    S(metal)    S(lipo)     H(rot)  DE(clash)    DE(int)     intcor
     17.46     -20.69       2.95        0.00      73.41       1.26       0.00       3.22       ----

> <Gold.Chemscore.Fitness>
17.4642

> <Gold.Chemscore.DG>
-20.6880

> <Gold.Chemscore.ZeroCoef>
-5.4800

> <Gold.Chemscore.Hbond>
2.9476

> <Gold.Chemscore.Metal>
0.0000

> <Gold.Chemscore.Lipo>
73.4101

> <Gold.Chemscore.Internal_Hbond>
0.0000

> <Gold.Chemscore.DEClash>
0.0044

> <Gold.Chemscore.DEInternal>
3.2194

> <Gold.Chemscore.Rot>
1.2601

> <Gold.Chemscore.Internal.Correction>
   9.000000E+99

> <Gold.Chemscore.Hbonds>
donor molecule, donor type, donor heavy atom, donor atom, acceptor molecule, acceptor atom, score
      L1  H     3    24       P1  8028  0.65
      L1  H     6    25       P1  8028  0.99
      L1  H    16    42       P1 10175  1.00

> <Gold.Chemscore.Hbond.Weighted>
-9.8450

> <Gold.Chemscore.Metal.Weighted>
-0.0000

> <Gold.Chemscore.Lipo.Weighted>
-8.5890

> <Gold.Chemscore.Internal_Hbond.Weighted>
0.0000

> <Gold.Chemscore.DEClash.Weighted>
0.0044

> <Gold.Chemscore.DEInternal.Weighted>
3.2194

> <Gold.Chemscore.Rot.Weighted>
3.2260

> <Gold.Chemscore.Internal.Correction.Weighted>
   9.000000E+99

> <Gold.Protein.RotatedTorsions>
[ 6907 6896 6895 6894 ] final -176.57 input  -60.11 | X-H torsion
[ 7974 7965 7964 7962 ] final  121.70 input  175.53 | X-H torsion
[ 8008 7997 7996 7995 ] final  157.68 input   59.86 | X-H torsion
[ 10167 10162 10161 10158 ] final   53.44 input  -65.29 | X-H torsion
[ 10718 10713 10712 10709 ] final  -89.06 input   66.30 | X-H torsion
[ 10763 10752 10751 10750 ] final  131.65 input  -60.55 | X-H torsion
[ 11005 11000 10999 10996 ] final -144.65 input  -57.11 | X-H torsion

> <Gold.Protein.ActiveResidues>
 VAL166  LYS551  ARG553  GLY616  TRP617  ASP618  TYR619  PRO620  LYS621  CYS622 
 ASP623  PHE694  ASN695  SER759  ASP760  ASP761  ALA762  ILE779  LEU786  VAL792 
 PHE793  MET794  SER795  GLU796  ALA797  LYS798  CYS799  TRP800  GLU811  SER814 

> <Gold.Protein.RotatedAtoms>
  151.6069  133.3351  159.3058 H   0  0  0  0  0  0  0  0  0  0  0  0  # atno 6907 bound_to 6896
  150.8178  134.7372  159.6756 H   0  0  0  0  0  0  0  0  0  0  0  0  # atno 6908 bound_to 6896
  152.4273  134.5850  160.0010 H   0  0  0  0  0  0  0  0  0  0  0  0  # atno 6909 bound_to 6896
  145.1162  139.3419  143.4737 H   0  0  0  0  0  0  0  0  0  0  0  0  # atno 7974 bound_to 7965
  156.2349  140.1879  156.7145 H   0  0  0  0  0  0  0  0  0  0  0  0  # atno 8008 bound_to 7997
  154.6089  140.0625  156.9494 H   0  0  0  0  0  0  0  0  0  0  0  0  # atno 8009 bound_to 7997
  155.2050  140.3295  155.4340 H   0  0  0  0  0  0  0  0  0  0  0  0  # atno 8010 bound_to 7997
  140.2407  144.3587  150.6381 H   0  0  0  0  0  0  0  0  0  0  0  0  # atno 10167 bound_to 10162
  155.9984  130.4858  150.5114 H   0  0  0  0  0  0  0  0  0  0  0  0  # atno 10718 bound_to 10713
  153.7779  135.3172  155.3361 H   0  0  0  0  0  0  0  0  0  0  0  0  # atno 10763 bound_to 10752
  154.8172  135.4628  154.0680 H   0  0  0  0  0  0  0  0  0  0  0  0  # atno 10764 bound_to 10752
  153.1960  135.6915  153.8377 H   0  0  0  0  0  0  0  0  0  0  0  0  # atno 10765 bound_to 10752
  140.8003  134.2864  157.4981 H   0  0  0  0  0  0  0  0  0  0  0  0  # atno 11005 bound_to 11000
  146.3523  140.1102  142.8604 LP  0  0  0  0  0  0  0  0  0  0  0  0  # atno 17320 bound_to 7965
  145.0791  140.9208  143.4836 LP  0  0  0  0  0  0  0  0  0  0  0  0  # atno 17321 bound_to 7965
  140.6116  143.2170  151.6875 LP  0  0  0  0  0  0  0  0  0  0  0  0  # atno 17342 bound_to 10162
  139.5078  144.3632  152.0542 LP  0  0  0  0  0  0  0  0  0  0  0  0  # atno 17343 bound_to 10162
  157.3087  131.0659  151.2017 LP  0  0  0  0  0  0  0  0  0  0  0  0  # atno 17370 bound_to 10713
  157.2970  130.6824  149.6144 LP  0  0  0  0  0  0  0  0  0  0  0  0  # atno 17371 bound_to 10713
  139.8722  134.9426  156.3828 LP  0  0  0  0  0  0  0  0  0  0  0  0  # atno 17394 bound_to 11000
  140.9301  133.7585  156.0014 LP  0  0  0  0  0  0  0  0  0  0  0  0  # atno 17395 bound_to 11000

$$$$
