AV-unprocessed.smi:141|AV-procd|sdf|1187|dock6
  -GOLD-   2262018343D 1   1.00000     0.00000
 Structure written by MMmdl.
 56 59  0  0  0  0  0  0  0  0  1 V2000
  149.7342  134.1909  157.7254 O   0  0  0  0  0  0  0  0  0  0  0  0
  149.6262  135.2669  157.1335 C   0  0  0  0  0  0  0  0  0  0  0  0
  149.6334  135.2773  155.5901 C   0  0  0  0  0  0  0  0  0  0  0  0
  149.2104  133.9955  154.9822 N   0  0  0  0  0  0  0  0  0  0  0  0
  150.0260  132.8517  155.1692 C   0  0  0  0  0  0  0  0  0  0  0  0
  151.0764  132.9135  155.8099 O   0  0  0  0  0  0  0  0  0  0  0  0
  149.5296  131.6194  154.5677 C   0  0  0  0  0  0  0  0  0  0  0  0
  150.2304  130.4811  154.7059 F   0  0  0  0  0  0  0  0  0  0  0  0
  148.3717  131.6018  153.8763 C   0  0  0  0  0  0  0  0  0  0  0  0
  147.5953  132.7276  153.6842 N   0  0  0  0  0  0  0  0  0  0  0  0
  146.2857  132.6022  152.9407 C   0  0  2  0  0  0  0  0  0  0  0  0
  145.9189  131.1515  152.5744 C   0  0  0  0  0  0  0  0  0  0  0  0
  145.7883  131.2059  151.0610 C   0  0  0  0  0  0  0  0  0  0  0  0
  145.5511  132.6881  150.7944 C   0  0  0  0  0  0  0  0  0  0  0  0
  146.3766  133.3287  151.7542 O   0  0  0  0  0  0  0  0  0  0  0  0
  147.9888  133.9544  154.2675 C   0  0  0  0  0  0  0  0  0  0  0  0
  147.2851  134.9607  154.1651 O   0  0  0  0  0  0  0  0  0  0  0  0
  149.4962  136.4422  157.7958 N   0  0  0  0  0  0  0  0  0  0  0  0
  149.5203  136.6094  159.2545 C   0  0  0  0  0  0  0  0  0  0  0  0
  150.8422  137.2922  159.6472 C   0  0  0  0  0  0  0  0  0  0  0  0
  151.0036  138.6486  158.9244 C   0  0  0  0  0  0  0  0  0  0  0  0
  152.3635  139.3114  159.2375 C   0  0  0  0  0  0  0  0  0  0  0  0
  152.2330  140.7902  159.5500 C   0  0  0  0  0  0  0  0  0  0  0  0
  152.8320  141.3255  160.7097 C   0  0  0  0  0  0  0  0  0  0  0  0
  152.7157  142.6999  160.9952 C   0  0  0  0  0  0  0  0  0  0  0  0
  152.0005  143.5430  160.1226 C   0  0  0  0  0  0  0  0  0  0  0  0
  151.4042  143.0120  158.9623 C   0  0  0  0  0  0  0  0  0  0  0  0
  151.5207  141.6379  158.6759 C   0  0  0  0  0  0  0  0  0  0  0  0
  150.7735  138.4881  157.4042 C   0  0  0  0  0  0  0  0  0  0  0  0
  149.4598  137.7399  157.1104 C   0  0  0  0  0  0  0  0  0  0  0  0
  148.9916  136.0866  155.2384 H   0  0  0  0  0  0  0  0  0  0  0  0
  150.6318  135.5530  155.2476 H   0  0  0  0  0  0  0  0  0  0  0  0
  148.0461  130.6615  153.4559 H   0  0  0  0  0  0  0  0  0  0  0  0
  145.5304  133.0583  153.5822 H   0  0  0  0  0  0  0  0  0  0  0  0
  146.6644  130.4312  152.9127 H   0  0  0  0  0  0  0  0  0  0  0  0
  144.9651  130.9063  153.0425 H   0  0  0  0  0  0  0  0  0  0  0  0
  146.7195  130.8884  150.5915 H   0  0  0  0  0  0  0  0  0  0  0  0
  144.9863  130.5735  150.6797 H   0  0  0  0  0  0  0  0  0  0  0  0
  145.8130  132.9813  149.7774 H   0  0  0  0  0  0  0  0  0  0  0  0
  144.5081  132.9546  150.9734 H   0  0  0  0  0  0  0  0  0  0  0  0
  148.6770  137.2318  159.5578 H   0  0  0  0  0  0  0  0  0  0  0  0
  149.4015  135.6797  159.8081 H   0  0  0  0  0  0  0  0  0  0  0  0
  150.8753  137.4403  160.7272 H   0  0  0  0  0  0  0  0  0  0  0  0
  151.6766  136.6348  159.3981 H   0  0  0  0  0  0  0  0  0  0  0  0
  150.2077  139.2959  159.2977 H   0  0  0  0  0  0  0  0  0  0  0  0
  152.8455  138.8219  160.0849 H   0  0  0  0  0  0  0  0  0  0  0  0
  153.0566  139.1889  158.4040 H   0  0  0  0  0  0  0  0  0  0  0  0
  153.3839  140.6839  161.3813 H   0  0  0  0  0  0  0  0  0  0  0  0
  153.1761  143.1069  161.8834 H   0  0  0  0  0  0  0  0  0  0  0  0
  151.9111  144.5967  160.3421 H   0  0  0  0  0  0  0  0  0  0  0  0
  150.8580  143.6584  158.2910 H   0  0  0  0  0  0  0  0  0  0  0  0
  151.0642  141.2364  157.7827 H   0  0  0  0  0  0  0  0  0  0  0  0
  150.7568  139.4673  156.9246 H   0  0  0  0  0  0  0  0  0  0  0  0
  151.6048  137.9390  156.9592 H   0  0  0  0  0  0  0  0  0  0  0  0
  149.3193  137.6476  156.0326 H   0  0  0  0  0  0  0  0  0  0  0  0
  148.6075  138.3175  157.4708 H   0  0  0  0  0  0  0  0  0  0  0  0
  1  2  2  0  0  0  0
  2  3  1  0  0  0  0
  2 18  1  0  0  0  0
  3  4  1  0  0  0  0
  3 31  1  0  0  0  0
  3 32  1  0  0  0  0
  4 16  1  0  0  0  0
  4  5  1  0  0  0  0
  5  6  2  0  0  0  0
  5  7  1  0  0  0  0
  7  8  1  0  0  0  0
  7  9  2  0  0  0  0
  9 10  1  0  0  0  0
  9 33  1  0  0  0  0
 10 11  1  0  0  0  0
 10 16  1  0  0  0  0
 11 15  1  0  0  0  0
 11 12  1  0  0  0  0
 11 34  1  0  0  0  0
 12 13  1  0  0  0  0
 12 35  1  0  0  0  0
 12 36  1  0  0  0  0
 13 14  1  0  0  0  0
 13 37  1  0  0  0  0
 13 38  1  0  0  0  0
 14 15  1  0  0  0  0
 14 39  1  0  0  0  0
 14 40  1  0  0  0  0
 16 17  2  0  0  0  0
 18 30  1  0  0  0  0
 18 19  1  0  0  0  0
 19 20  1  0  0  0  0
 19 41  1  0  0  0  0
 19 42  1  0  0  0  0
 20 21  1  0  0  0  0
 20 43  1  0  0  0  0
 20 44  1  0  0  0  0
 21 22  1  0  0  0  0
 21 29  1  0  0  0  0
 21 45  1  0  0  0  0
 22 23  1  0  0  0  0
 22 46  1  0  0  0  0
 22 47  1  0  0  0  0
 23 28  1  0  0  0  0
 23 24  2  0  0  0  0
 24 25  1  0  0  0  0
 24 48  1  0  0  0  0
 25 26  2  0  0  0  0
 25 49  1  0  0  0  0
 26 27  1  0  0  0  0
 26 50  1  0  0  0  0
 27 28  2  0  0  0  0
 27 51  1  0  0  0  0
 28 52  1  0  0  0  0
 29 30  1  0  0  0  0
 29 53  1  0  0  0  0
 29 54  1  0  0  0  0
 30 55  1  0  0  0  0
 30 56  1  0  0  0  0
M  END
> <s_m_source_file>
AV-unprocessed.smi

> <i_m_source_file_index>
141

> <i_lp_mmshare_version>
43012

> <i_f3d_flags>
0

> <s_epik_input>
W2NIXTFbY0hdW2NIXVtjSF1bY0hdYzFbQ0gyXVtDSF0oW0NIMl1bQ0gyXTIpW0NIMl1bQ0gyXU4yQyg9TylbQ0gyXW4zYyg9TyljKEYpW2NIXW4oYzM9TylbQ0BASF00W0NIMl1bQ0gyXVtDSDJdTzQ=

> <s_epik_cmdline>
J2VwaWtfcHl0aG9uJywgJy1waCcsICc3LjAnLCAnLXRuJywgJzgnLCAnLW1hJywgJzIwMCcsICctbWV0YWxfYmluZGluZycsICctaW1hZScsICc8aW5maWxlLm1hZT4nLCAnLW9tYWUnLCAnPG91dGZpbGUubWFlPic=

> <r_lp_tautomer_probability>
1

> <r_epik_Ionization_Penalty>
3.78313e-08

> <r_epik_Ionization_Penalty_Charging>
4.95074e-09

> <r_epik_Ionization_Penalty_Neutral>
3.28806e-08

> <r_epik_State_Penalty>
-0

> <r_epik_Charging_Adjusted_Penalty>
4.95074e-09

> <i_epik_Tot_Q>
0

> <i_epik_Tot_abs_Q>
0

> <r_epik_Metal_State_Penalty>
-0

> <b_epik_Metal_Only>
0

> <s_epik_Chemistry_Notes>
This compound contains an acetal/aminal-like group ( X-CH(R)-Y where X, Y are N, S, or O) that may be acid/base labile, releasing an aldehyde.

> <s_lp_Force_Field>
OPLS_2005

> <r_lp_Energy>
44.5211

> <b_lp_Chiralities_Consistent>
1

> <s_lp_Variant>
AV-unprocessed.smi:141-1

> <Gold.Version>
5.8.1

> <Gold.Id.Protein>
6NUR|6NUR_protein|mol2

> <Gold.PLP.Fitness>
51.0866

> <Gold.PLP.PLP>
-50.3855

> <Gold.PLP.part.hbond>
-1.0000

> <Gold.PLP.part.metal>
0.0000

> <Gold.PLP.part.buried>
-5.4703

> <Gold.PLP.part.nonpolar>
-45.1128

> <Gold.PLP.part.repulsive>
1.7685

> <Gold.PLP.ligand.clash>
0.0000

> <Gold.PLP.ligand.torsion>
1.1834

> <Gold.PLP.Chemscore.Hbond>
0.9920

> <Gold.PLP.Chemscore.CHOScore>
0.0000

> <Gold.PLP.Chemscore.Metal>
0.0000

> <Gold.Chemscore.Hbonds>
donor molecule, donor type, donor heavy atom, donor atom, acceptor molecule, acceptor atom, score
      P1  H  6896  6907       L1     1  1.00

> <Gold.PLP.Chemscore.Internal.Correction>
0.0920

> <Gold.Rescore>
     Score         DG    S(hbond)    S(metal)    S(lipo)     H(rot)  DE(clash)    DE(int)     intcor
     14.30     -18.30       0.91        0.00     123.98       1.85       0.01       3.99       ----

> <Gold.Chemscore.Fitness>
14.2998

> <Gold.Chemscore.DG>
-18.2967

> <Gold.Chemscore.ZeroCoef>
-5.4800

> <Gold.Chemscore.Hbond>
0.9093

> <Gold.Chemscore.Metal>
0.0000

> <Gold.Chemscore.Lipo>
123.9808

> <Gold.Chemscore.Internal_Hbond>
0.0000

> <Gold.Chemscore.DEClash>
0.0071

> <Gold.Chemscore.DEInternal>
3.9898

> <Gold.Chemscore.Rot>
1.8461

> <Gold.Chemscore.Internal.Correction>
   9.000000E+99

> <Gold.Chemscore.Hbonds>
donor molecule, donor type, donor heavy atom, donor atom, acceptor molecule, acceptor atom, score
      P1  H  6896  6907       L1     1  0.97

> <Gold.Chemscore.Hbond.Weighted>
-3.0369

> <Gold.Chemscore.Metal.Weighted>
-0.0000

> <Gold.Chemscore.Lipo.Weighted>
-14.5058

> <Gold.Chemscore.Internal_Hbond.Weighted>
0.0000

> <Gold.Chemscore.DEClash.Weighted>
0.0071

> <Gold.Chemscore.DEInternal.Weighted>
3.9898

> <Gold.Chemscore.Rot.Weighted>
4.7260

> <Gold.Chemscore.Internal.Correction.Weighted>
   9.000000E+99

> <Gold.Protein.RotatedTorsions>
[ 6907 6896 6895 6894 ] final -105.52 input  -60.11 | X-H torsion
[ 7974 7965 7964 7962 ] final   32.44 input  175.53 | X-H torsion
[ 8008 7997 7996 7995 ] final  117.15 input   59.86 | X-H torsion
[ 10167 10162 10161 10158 ] final -169.13 input  -65.29 | X-H torsion
[ 10718 10713 10712 10709 ] final  -21.71 input   66.30 | X-H torsion
[ 10763 10752 10751 10750 ] final -161.30 input  -60.55 | X-H torsion
[ 11005 11000 10999 10996 ] final   16.44 input  -57.11 | X-H torsion

> <Gold.Protein.ActiveResidues>
 VAL166  LYS551  ARG553  GLY616  TRP617  ASP618  TYR619  PRO620  LYS621  CYS622 
 ASP623  PHE694  ASN695  SER759  ASP760  ASP761  ALA762  ILE779  LEU786  VAL792 
 PHE793  MET794  SER795  GLU796  ALA797  LYS798  CYS799  TRP800  GLU811  SER814 

> <Gold.Protein.RotatedAtoms>
  150.7341  134.0115  159.3670 H   0  0  0  0  0  0  0  0  0  0  0  0  # atno 6907 bound_to 6896
  151.8075  135.0688  160.0418 H   0  0  0  0  0  0  0  0  0  0  0  0  # atno 6908 bound_to 6896
  152.3097  133.5703  159.5709 H   0  0  0  0  0  0  0  0  0  0  0  0  # atno 6909 bound_to 6896
  146.1486  139.6526  142.9114 H   0  0  0  0  0  0  0  0  0  0  0  0  # atno 7974 bound_to 7965
  156.2478  140.2902  156.0634 H   0  0  0  0  0  0  0  0  0  0  0  0  # atno 8008 bound_to 7997
  155.1751  140.0403  157.2888 H   0  0  0  0  0  0  0  0  0  0  0  0  # atno 8009 bound_to 7997
  154.6299  140.2496  155.7454 H   0  0  0  0  0  0  0  0  0  0  0  0  # atno 8010 bound_to 7997
  139.5942  144.1148  152.1669 H   0  0  0  0  0  0  0  0  0  0  0  0  # atno 10167 bound_to 10162
  156.5144  130.4617  149.6630 H   0  0  0  0  0  0  0  0  0  0  0  0  # atno 10718 bound_to 10713
  154.7315  135.3047  154.8883 H   0  0  0  0  0  0  0  0  0  0  0  0  # atno 10763 bound_to 10752
  153.9725  135.6740  153.4751 H   0  0  0  0  0  0  0  0  0  0  0  0  # atno 10764 bound_to 10752
  153.0923  135.4953  154.8634 H   0  0  0  0  0  0  0  0  0  0  0  0  # atno 10765 bound_to 10752
  140.4471  134.1262  155.7697 H   0  0  0  0  0  0  0  0  0  0  0  0  # atno 11005 bound_to 11000
  145.4877  141.0438  143.2610 LP  0  0  0  0  0  0  0  0  0  0  0  0  # atno 17320 bound_to 7965
  144.7877  139.6393  143.7127 LP  0  0  0  0  0  0  0  0  0  0  0  0  # atno 17321 bound_to 7965
  140.0730  144.5764  150.7178 LP  0  0  0  0  0  0  0  0  0  0  0  0  # atno 17342 bound_to 10162
  140.7198  143.2578  151.4316 LP  0  0  0  0  0  0  0  0  0  0  0  0  # atno 17343 bound_to 10162
  156.3209  130.7280  151.2192 LP  0  0  0  0  0  0  0  0  0  0  0  0  # atno 17370 bound_to 10713
  157.7446  131.0456  150.4850 LP  0  0  0  0  0  0  0  0  0  0  0  0  # atno 17371 bound_to 10713
  141.1680  133.8664  157.1656 LP  0  0  0  0  0  0  0  0  0  0  0  0  # atno 17394 bound_to 11000
  140.0031  135.0019  157.0234 LP  0  0  0  0  0  0  0  0  0  0  0  0  # atno 17395 bound_to 11000

$$$$
