AV-unprocessed.smi:1328|AV-procd|sdf|5481|dock9
  -GOLD-   22720 5 53D 1   1.00000     0.00000
 Structure written by MMmdl.
 38 39  0  0  0  0  0  0  0  0  1 V2000
  151.7959  136.7809  155.8947 C   0  0  0  0  0  0  0  0  0  0  0  0
  151.4191  138.2233  155.7128 C   0  0  0  0  0  0  0  0  0  0  0  0
  151.1696  138.6880  154.4999 N   0  0  0  0  0  0  0  0  0  0  0  0
  150.8572  140.0409  154.6651 O   0  0  0  0  0  0  0  0  0  0  0  0
  150.9323  140.3408  155.9867 C   0  0  0  0  0  0  0  0  0  0  0  0
  150.6381  141.7513  156.3708 C   0  0  0  0  0  0  0  0  0  0  0  0
  151.2794  139.2317  156.7085 C   0  0  0  0  0  0  0  0  0  0  0  0
  151.4743  139.0988  158.1985 C   0  0  0  0  0  0  0  0  0  0  0  0
  152.6581  139.9435  158.6836 C   0  0  0  0  0  0  0  0  0  0  0  0
  153.8145  139.6409  158.3851 O   0  0  0  0  0  0  0  0  0  0  0  0
  152.3463  141.0177  159.4255 N   0  0  0  0  0  0  0  0  0  0  0  0
  153.2987  141.9796  159.9762 C   0  0  2  0  0  0  0  0  0  0  0  0
  153.8224  141.4334  161.3134 C   0  0  0  0  0  0  0  0  0  0  0  0
  152.6249  143.3599  160.1316 C   0  0  1  0  0  0  0  0  0  0  0  0
  152.1805  144.0068  158.8210 C   0  0  0  0  0  0  0  0  0  0  0  0
  151.1439  145.0134  159.2821 C   0  0  0  0  0  0  0  0  0  0  0  0
  150.6167  144.4173  160.5903 C   0  0  0  0  0  0  0  0  0  0  0  0
  151.3925  143.2485  160.8294 O   0  0  0  0  0  0  0  0  0  0  0  0
  151.0253  136.2449  156.4486 H   0  0  0  0  0  0  0  0  0  0  0  0
  152.7289  136.6895  156.4508 H   0  0  0  0  0  0  0  0  0  0  0  0
  151.9302  136.2731  154.9387 H   0  0  0  0  0  0  0  0  0  0  0  0
  151.1506  142.0174  157.2954 H   0  0  0  0  0  0  0  0  0  0  0  0
  149.5683  141.8938  156.5227 H   0  0  0  0  0  0  0  0  0  0  0  0
  150.9666  142.4432  155.5950 H   0  0  0  0  0  0  0  0  0  0  0  0
  150.5849  139.4188  158.7421 H   0  0  0  0  0  0  0  0  0  0  0  0
  151.6389  138.0565  158.4751 H   0  0  0  0  0  0  0  0  0  0  0  0
  151.3697  141.1903  159.6149 H   0  0  0  0  0  0  0  0  0  0  0  0
  154.1518  142.0756  159.3021 H   0  0  0  0  0  0  0  0  0  0  0  0
  154.5923  142.0806  161.7333 H   0  0  0  0  0  0  0  0  0  0  0  0
  154.2653  140.4449  161.1868 H   0  0  0  0  0  0  0  0  0  0  0  0
  153.0217  141.3478  162.0488 H   0  0  0  0  0  0  0  0  0  0  0  0
  153.2766  144.0443  160.6784 H   0  0  0  0  0  0  0  0  0  0  0  0
  153.0012  144.4694  158.2722 H   0  0  0  0  0  0  0  0  0  0  0  0
  151.7124  143.2648  158.1728 H   0  0  0  0  0  0  0  0  0  0  0  0
  151.6126  145.9792  159.4745 H   0  0  0  0  0  0  0  0  0  0  0  0
  150.3574  145.1617  158.5416 H   0  0  0  0  0  0  0  0  0  0  0  0
  150.7416  145.1196  161.4152 H   0  0  0  0  0  0  0  0  0  0  0  0
  149.5608  144.1538  160.5251 H   0  0  0  0  0  0  0  0  0  0  0  0
  1  2  1  0  0  0  0
  1 19  1  0  0  0  0
  1 20  1  0  0  0  0
  1 21  1  0  0  0  0
  2  7  1  0  0  0  0
  2  3  2  0  0  0  0
  3  4  1  0  0  0  0
  4  5  1  0  0  0  0
  5  6  1  0  0  0  0
  5  7  2  0  0  0  0
  6 22  1  0  0  0  0
  6 23  1  0  0  0  0
  6 24  1  0  0  0  0
  7  8  1  0  0  0  0
  8  9  1  0  0  0  0
  8 25  1  0  0  0  0
  8 26  1  0  0  0  0
  9 10  2  0  0  0  0
  9 11  1  0  0  0  0
 11 12  1  0  0  0  0
 11 27  1  0  0  0  0
 12 13  1  0  0  0  0
 12 14  1  0  0  0  0
 12 28  1  0  0  0  0
 13 29  1  0  0  0  0
 13 30  1  0  0  0  0
 13 31  1  0  0  0  0
 14 18  1  0  0  0  0
 14 15  1  0  0  0  0
 14 32  1  0  0  0  0
 15 16  1  0  0  0  0
 15 33  1  0  0  0  0
 15 34  1  0  0  0  0
 16 17  1  0  0  0  0
 16 35  1  0  0  0  0
 16 36  1  0  0  0  0
 17 18  1  0  0  0  0
 17 37  1  0  0  0  0
 17 38  1  0  0  0  0
M  END
> <s_m_source_file>
AV-unprocessed.smi

> <i_m_source_file_index>
1328

> <i_lp_mmshare_version>
43012

> <i_f3d_flags>
0

> <s_epik_input>
W0NIM11jMW5vYyhbQ0gzXSljMVtDSDJdQyg9TylbTkhdW0NASF0oW0NIM10pW0NAQEhdMltDSDJdW0NIMl1bQ0gyXU8y

> <s_epik_cmdline>
J2VwaWtfcHl0aG9uJywgJy1waCcsICc3LjAnLCAnLXRuJywgJzgnLCAnLW1hJywgJzIwMCcsICctbWV0YWxfYmluZGluZycsICctaW1hZScsICc8aW5maWxlLm1hZT4nLCAnLW9tYWUnLCAnPG91dGZpbGUubWFlPic=

> <r_lp_tautomer_probability>
1

> <r_epik_Ionization_Penalty>
2.66156e-08

> <r_epik_Ionization_Penalty_Charging>
0

> <r_epik_Ionization_Penalty_Neutral>
2.66156e-08

> <r_epik_State_Penalty>
-0

> <r_epik_Charging_Adjusted_Penalty>
0

> <i_epik_Tot_Q>
0

> <i_epik_Tot_abs_Q>
0

> <r_epik_Metal_State_Penalty>
-0

> <b_epik_Metal_Only>
0

> <s_lp_Force_Field>
OPLS_2005

> <r_lp_Energy>
12.7116

> <b_lp_Chiralities_Consistent>
1

> <s_lp_Variant>
AV-unprocessed.smi:1328-3

> <Gold.Version>
5.8.1

> <Gold.Id.Protein>
6NUR|6NUR_protein|mol2

> <Gold.PLP.Fitness>
45.3612

> <Gold.PLP.PLP>
-40.3746

> <Gold.PLP.part.hbond>
-2.0546

> <Gold.PLP.part.metal>
0.0000

> <Gold.PLP.part.buried>
-6.8020

> <Gold.PLP.part.nonpolar>
-32.2655

> <Gold.PLP.part.repulsive>
0.4782

> <Gold.PLP.ligand.clash>
0.0000

> <Gold.PLP.ligand.torsion>
0.5266

> <Gold.PLP.Chemscore.Hbond>
2.0000

> <Gold.PLP.Chemscore.CHOScore>
0.0000

> <Gold.PLP.Chemscore.Metal>
0.0000

> <Gold.Chemscore.Hbonds>
donor molecule, donor type, donor heavy atom, donor atom, acceptor molecule, acceptor atom, score
      P1  H  7989  7998       L1     4  1.00
      P1  H  7997  8008       L1    10  1.00

> <Gold.PLP.Chemscore.Internal.Correction>
0.0397

> <Gold.Rescore>
     Score         DG    S(hbond)    S(metal)    S(lipo)     H(rot)  DE(clash)    DE(int)     intcor
     20.03     -20.58       1.95        0.00     106.54       1.52       0.01       0.54       ----

> <Gold.Chemscore.Fitness>
20.0303

> <Gold.Chemscore.DG>
-20.5800

> <Gold.Chemscore.ZeroCoef>
-5.4800

> <Gold.Chemscore.Hbond>
1.9509

> <Gold.Chemscore.Metal>
0.0000

> <Gold.Chemscore.Lipo>
106.5365

> <Gold.Chemscore.Internal_Hbond>
0.0000

> <Gold.Chemscore.DEClash>
0.0115

> <Gold.Chemscore.DEInternal>
0.5382

> <Gold.Chemscore.Rot>
1.5159

> <Gold.Chemscore.Internal.Correction>
   9.000000E+99

> <Gold.Chemscore.Hbonds>
donor molecule, donor type, donor heavy atom, donor atom, acceptor molecule, acceptor atom, score
      P1  H  6933  6945       L1    18  0.01
      P1  H  7989  7998       L1     4  0.65
      P1  H  7997  8008       L1    10  0.98

> <Gold.Chemscore.Hbond.Weighted>
-6.5160

> <Gold.Chemscore.Metal.Weighted>
-0.0000

> <Gold.Chemscore.Lipo.Weighted>
-12.4648

> <Gold.Chemscore.Internal_Hbond.Weighted>
0.0000

> <Gold.Chemscore.DEClash.Weighted>
0.0115

> <Gold.Chemscore.DEInternal.Weighted>
0.5382

> <Gold.Chemscore.Rot.Weighted>
3.8807

> <Gold.Chemscore.Internal.Correction.Weighted>
   9.000000E+99

> <Gold.Protein.RotatedTorsions>
[ 6907 6896 6895 6894 ] final   68.21 input  -60.11 | X-H torsion
[ 7974 7965 7964 7962 ] final  164.80 input  175.53 | X-H torsion
[ 8008 7997 7996 7995 ] final  -89.35 input   59.86 | X-H torsion
[ 10167 10162 10161 10158 ] final  -60.48 input  -65.29 | X-H torsion
[ 10718 10713 10712 10709 ] final   42.28 input   66.30 | X-H torsion
[ 10763 10752 10751 10750 ] final   77.54 input  -60.55 | X-H torsion
[ 11005 11000 10999 10996 ] final   86.14 input  -57.11 | X-H torsion

> <Gold.Protein.ActiveResidues>
 VAL166  LYS551  ARG553  GLY616  TRP617  ASP618  TYR619  PRO620  LYS621  CYS622 
 ASP623  PHE694  ASN695  SER759  ASP760  ASP761  ALA762  ILE779  LEU786  VAL792 
 PHE793  MET794  SER795  GLU796  ALA797  LYS798  CYS799  TRP800  GLU811  SER814 

> <Gold.Protein.RotatedAtoms>
  152.4605  134.5196  159.9778 H   0  0  0  0  0  0  0  0  0  0  0  0  # atno 6907 bound_to 6896
  151.5246  133.3454  159.2915 H   0  0  0  0  0  0  0  0  0  0  0  0  # atno 6908 bound_to 6896
  150.8565  134.7935  159.7112 H   0  0  0  0  0  0  0  0  0  0  0  0  # atno 6909 bound_to 6896
  144.7529  139.8379  143.6360 H   0  0  0  0  0  0  0  0  0  0  0  0  # atno 7974 bound_to 7965
  154.6855  140.0543  157.0310 H   0  0  0  0  0  0  0  0  0  0  0  0  # atno 8008 bound_to 7997
  155.0890  140.3217  155.4560 H   0  0  0  0  0  0  0  0  0  0  0  0  # atno 8009 bound_to 7997
  156.2710  140.2051  156.6018 H   0  0  0  0  0  0  0  0  0  0  0  0  # atno 8010 bound_to 7997
  140.6069  143.2376  151.5801 H   0  0  0  0  0  0  0  0  0  0  0  0  # atno 10167 bound_to 10162
  157.4031  130.7871  149.7365 H   0  0  0  0  0  0  0  0  0  0  0  0  # atno 10718 bound_to 10713
  153.0806  135.4910  154.8496 H   0  0  0  0  0  0  0  0  0  0  0  0  # atno 10763 bound_to 10752
  154.7146  135.3027  154.9146 H   0  0  0  0  0  0  0  0  0  0  0  0  # atno 10764 bound_to 10752
  153.9829  135.6787  153.4804 H   0  0  0  0  0  0  0  0  0  0  0  0  # atno 10765 bound_to 10752
  139.8952  134.8335  156.2680 H   0  0  0  0  0  0  0  0  0  0  0  0  # atno 11005 bound_to 11000
  146.1503  139.4585  143.0052 LP  0  0  0  0  0  0  0  0  0  0  0  0  # atno 17320 bound_to 7965
  145.6879  141.0172  143.1571 LP  0  0  0  0  0  0  0  0  0  0  0  0  # atno 17321 bound_to 7965
  139.5331  144.2858  152.1193 LP  0  0  0  0  0  0  0  0  0  0  0  0  # atno 17342 bound_to 10162
  140.2049  144.4621  150.6413 LP  0  0  0  0  0  0  0  0  0  0  0  0  # atno 17343 bound_to 10162
  155.9829  130.4006  150.3394 LP  0  0  0  0  0  0  0  0  0  0  0  0  # atno 17370 bound_to 10713
  157.1523  131.0324  151.2879 LP  0  0  0  0  0  0  0  0  0  0  0  0  # atno 17371 bound_to 10713
  141.0119  133.7090  156.1126 LP  0  0  0  0  0  0  0  0  0  0  0  0  # atno 17394 bound_to 11000
  140.7355  134.4208  157.5561 LP  0  0  0  0  0  0  0  0  0  0  0  0  # atno 17395 bound_to 11000

$$$$
