AV-unprocessed.smi:545|AV-procd|sdf|2882|dock4
  -GOLD-   2262023373D 1   1.00000     0.00000
 Structure written by MMmdl.
 35 36  0  0  0  0  0  0  0  0  2 V2000
  155.4402  139.7296  161.2742 C   0  0  0  0  0  0  0  0  0  0  0  0
  155.8032  141.0229  160.8265 O   0  0  0  0  0  0  0  0  0  0  0  0
  154.9300  141.5179  159.8241 C   0  0  0  0  0  0  0  0  0  0  0  0
  153.5140  141.6657  160.3981 C   0  0  0  0  0  0  0  0  0  0  0  0
  152.5240  141.9192  159.3502 N   0  0  0  0  0  0  0  0  0  0  0  0
  151.6707  142.9757  159.2005 C   0  0  0  0  0  0  0  0  0  0  0  0
  151.5833  144.0429  160.1042 N   0  0  0  0  0  0  0  0  0  0  0  0
  150.6648  145.1591  159.9227 C   0  0  0  0  0  0  0  0  0  0  0  0
  152.1831  144.1424  161.4285 C   0  0  0  0  0  0  0  0  0  0  0  0
  150.9394  142.9343  158.0837 N   0  0  0  0  0  0  0  0  0  0  0  0
  151.3415  141.7559  157.4793 C   0  0  0  0  0  0  0  0  0  0  0  0
  152.3012  141.1323  158.2123 C   0  0  0  0  0  0  0  0  0  0  0  0
  152.9591  139.8718  157.7948 C   0  0  0  0  0  0  0  0  0  0  0  0
  153.8512  139.3633  158.4705 O   0  0  0  0  0  0  0  0  0  0  0  0
  152.4596  139.3931  156.6117 N   0  5  0  0  0  0  0  0  0  0  0  0
  151.4805  139.9874  155.8458 C   0  0  0  0  0  0  0  0  0  0  0  0
  151.0867  139.4874  154.7911 O   0  0  0  0  0  0  0  0  0  0  0  0
  150.9198  141.1679  156.2557 N   0  0  0  0  0  0  0  0  0  0  0  0
  149.8834  141.8285  155.4569 C   0  0  0  0  0  0  0  0  0  0  0  0
  156.1378  139.4007  162.0443 H   0  0  0  0  0  0  0  0  0  0  0  0
  155.4743  139.0067  160.4580 H   0  0  0  0  0  0  0  0  0  0  0  0
  154.4375  139.7273  161.7035 H   0  0  0  0  0  0  0  0  0  0  0  0
  155.2870  142.4824  159.4596 H   0  0  0  0  0  0  0  0  0  0  0  0
  154.9147  140.8342  158.9742 H   0  0  0  0  0  0  0  0  0  0  0  0
  153.2332  140.7712  160.9505 H   0  0  0  0  0  0  0  0  0  0  0  0
  153.4971  142.4484  161.1471 H   0  0  0  0  0  0  0  0  0  0  0  0
  150.4174  145.2876  158.8685 H   0  0  0  0  0  0  0  0  0  0  0  0
  151.1041  146.0941  160.2731 H   0  0  0  0  0  0  0  0  0  0  0  0
  149.7380  144.9831  160.4699 H   0  0  0  0  0  0  0  0  0  0  0  0
  152.3758  143.1501  161.8369 H   0  0  0  0  0  0  0  0  0  0  0  0
  151.5266  144.6538  162.1342 H   0  0  0  0  0  0  0  0  0  0  0  0
  153.1221  144.6946  161.3811 H   0  0  0  0  0  0  0  0  0  0  0  0
  150.2493  142.0386  154.4507 H   0  0  0  0  0  0  0  0  0  0  0  0
  149.5596  142.7754  155.8879 H   0  0  0  0  0  0  0  0  0  0  0  0
  149.0030  141.1895  155.3734 H   0  0  0  0  0  0  0  0  0  0  0  0
  1  2  1  0  0  0  0
  1 20  1  0  0  0  0
  1 21  1  0  0  0  0
  1 22  1  0  0  0  0
  2  3  1  0  0  0  0
  3  4  1  0  0  0  0
  3 23  1  0  0  0  0
  3 24  1  0  0  0  0
  4  5  1  0  0  0  0
  4 25  1  0  0  0  0
  4 26  1  0  0  0  0
  5 12  1  0  0  0  0
  5  6  1  0  0  0  0
  6  7  1  0  0  0  0
  6 10  2  0  0  0  0
  7  8  1  0  0  0  0
  7  9  1  0  0  0  0
  8 27  1  0  0  0  0
  8 28  1  0  0  0  0
  8 29  1  0  0  0  0
  9 30  1  0  0  0  0
  9 31  1  0  0  0  0
  9 32  1  0  0  0  0
 10 11  1  0  0  0  0
 11 18  1  0  0  0  0
 11 12  2  0  0  0  0
 12 13  1  0  0  0  0
 13 14  2  0  0  0  0
 13 15  1  0  0  0  0
 15 16  1  0  0  0  0
 16 17  2  0  0  0  0
 16 18  1  0  0  0  0
 18 19  1  0  0  0  0
 19 33  1  0  0  0  0
 19 34  1  0  0  0  0
 19 35  1  0  0  0  0
M  CHG  1  15  -1
M  END
> <s_m_source_file>
AV-unprocessed.smi

> <i_m_source_file_index>
545

> <i_lp_mmshare_version>
43012

> <i_f3d_flags>
0

> <s_epik_input>
W0NIM11PW0NIMl1bQ0gyXW4oYyhuMSlOKFtDSDNdKVtDSDNdKWMoYzEyKWMoPU8pW25IXWMoPU8pbjJbQ0gzXQ==

> <s_epik_cmdline>
J2VwaWtfcHl0aG9uJywgJy1waCcsICc3LjAnLCAnLXRuJywgJzgnLCAnLW1hJywgJzIwMCcsICctbWV0YWxfYmluZGluZycsICctaW1hZScsICc8aW5maWxlLm1hZT4nLCAnLW9tYWUnLCAnPG91dGZpbGUubWFlPic=

> <r_lp_tautomer_probability>
1

> <r_epik_Ionization_Penalty>
6.28808

> <r_epik_Ionization_Penalty_Charging>
0.078064

> <r_epik_Ionization_Penalty_Neutral>
6.21001

> <r_epik_State_Penalty>
6.20933

> <r_epik_Charging_Adjusted_Penalty>
6.2874

> <i_epik_Tot_Q>
-1

> <i_epik_Tot_abs_Q>
1

> <r_epik_Metal_State_Penalty>
2.14897

> <b_epik_Metal_Only>
1

> <s_lp_Force_Field>
OPLS_2005

> <r_lp_Energy>
31.5619

> <b_lp_Chiralities_Consistent>
1

> <s_lp_Variant>
AV-unprocessed.smi:545-2

> <Gold.Version>
5.8.1

> <Gold.Id.Protein>
6NUR|6NUR_protein|mol2

> <Gold.PLP.Fitness>
43.0276

> <Gold.PLP.PLP>
-38.5842

> <Gold.PLP.part.hbond>
-3.3297

> <Gold.PLP.part.metal>
0.0000

> <Gold.PLP.part.buried>
-1.9819

> <Gold.PLP.part.nonpolar>
-32.1523

> <Gold.PLP.part.repulsive>
0.1968

> <Gold.PLP.ligand.clash>
0.1827

> <Gold.PLP.ligand.torsion>
0.0696

> <Gold.PLP.Chemscore.Hbond>
1.5104

> <Gold.PLP.Chemscore.CHOScore>
0.0000

> <Gold.PLP.Chemscore.Metal>
0.0000

> <Gold.Chemscore.Hbonds>
donor molecule, donor type, donor heavy atom, donor atom, acceptor molecule, acceptor atom, score
      P1  H  7989  7998       L1    17  1.00
      P1  H  7997  8010       L1    14  0.45

> <Gold.PLP.Chemscore.Internal.Correction>
0.2340

> <Gold.Rescore>
     Score         DG    S(hbond)    S(metal)    S(lipo)     H(rot)  DE(clash)    DE(int)     intcor
      8.46     -11.97       0.93        0.00      62.91       1.55       0.90       2.60       ----

> <Gold.Chemscore.Fitness>
8.4624

> <Gold.Chemscore.DG>
-11.9690

> <Gold.Chemscore.ZeroCoef>
-5.4800

> <Gold.Chemscore.Hbond>
0.9267

> <Gold.Chemscore.Metal>
0.0000

> <Gold.Chemscore.Lipo>
62.9087

> <Gold.Chemscore.Internal_Hbond>
0.0000

> <Gold.Chemscore.DEClash>
0.9028

> <Gold.Chemscore.DEInternal>
2.6038

> <Gold.Chemscore.Rot>
1.5494

> <Gold.Chemscore.Internal.Correction>
   9.000000E+99

> <Gold.Chemscore.Hbonds>
donor molecule, donor type, donor heavy atom, donor atom, acceptor molecule, acceptor atom, score
      P1  H  7989  7998       L1    17  0.29
      P1  H  7997  8010       L1    14  0.02

> <Gold.Chemscore.Hbond.Weighted>
-3.0952

> <Gold.Chemscore.Metal.Weighted>
-0.0000

> <Gold.Chemscore.Lipo.Weighted>
-7.3603

> <Gold.Chemscore.Internal_Hbond.Weighted>
0.0000

> <Gold.Chemscore.DEClash.Weighted>
0.9028

> <Gold.Chemscore.DEInternal.Weighted>
2.6038

> <Gold.Chemscore.Rot.Weighted>
3.9666

> <Gold.Chemscore.Internal.Correction.Weighted>
   9.000000E+99

> <Gold.Protein.RotatedTorsions>
[ 6907 6896 6895 6894 ] final -104.62 input  -60.11 | X-H torsion
[ 7974 7965 7964 7962 ] final  169.85 input  175.53 | X-H torsion
[ 8008 7997 7996 7995 ] final    2.70 input   59.86 | X-H torsion
[ 10167 10162 10161 10158 ] final -119.31 input  -65.29 | X-H torsion
[ 10718 10713 10712 10709 ] final   22.25 input   66.30 | X-H torsion
[ 10763 10752 10751 10750 ] final  -63.76 input  -60.55 | X-H torsion
[ 11005 11000 10999 10996 ] final  -14.64 input  -57.11 | X-H torsion

> <Gold.Protein.ActiveResidues>
 VAL166  LYS551  ARG553  GLY616  TRP617  ASP618  TYR619  PRO620  LYS621  CYS622 
 ASP623  PHE694  ASN695  SER759  ASP760  ASP761  ALA762  ILE779  LEU786  VAL792 
 PHE793  MET794  SER795  GLU796  ALA797  LYS798  CYS799  TRP800  GLU811  SER814 

> <Gold.Protein.RotatedAtoms>
  150.7296  134.0250  159.3713 H   0  0  0  0  0  0  0  0  0  0  0  0  # atno 6907 bound_to 6896
  151.8217  135.0647  160.0435 H   0  0  0  0  0  0  0  0  0  0  0  0  # atno 6908 bound_to 6896
  152.2999  133.5608  159.5648 H   0  0  0  0  0  0  0  0  0  0  0  0  # atno 6909 bound_to 6896
  144.7342  139.9115  143.6415 H   0  0  0  0  0  0  0  0  0  0  0  0  # atno 7974 bound_to 7965
  154.6947  140.2660  155.6778 H   0  0  0  0  0  0  0  0  0  0  0  0  # atno 8008 bound_to 7997
  156.2744  140.2784  156.1461 H   0  0  0  0  0  0  0  0  0  0  0  0  # atno 8009 bound_to 7997
  155.0847  140.0373  157.2640 H   0  0  0  0  0  0  0  0  0  0  0  0  # atno 8010 bound_to 7997
  140.0480  143.5087  152.2096 H   0  0  0  0  0  0  0  0  0  0  0  0  # atno 10167 bound_to 10162
  157.1498  130.6669  149.6008 H   0  0  0  0  0  0  0  0  0  0  0  0  # atno 10718 bound_to 10713
  154.3199  135.6198  153.5503 H   0  0  0  0  0  0  0  0  0  0  0  0  # atno 10763 bound_to 10752
  152.9821  135.5721  154.5082 H   0  0  0  0  0  0  0  0  0  0  0  0  # atno 10764 bound_to 10752
  154.4748  135.2861  155.1592 H   0  0  0  0  0  0  0  0  0  0  0  0  # atno 10765 bound_to 10752
  140.7885  133.8306  155.9357 H   0  0  0  0  0  0  0  0  0  0  0  0  # atno 11005 bound_to 11000
  146.0997  139.3992  143.0354 LP  0  0  0  0  0  0  0  0  0  0  0  0  # atno 17320 bound_to 7965
  145.7595  140.9941  143.1207 LP  0  0  0  0  0  0  0  0  0  0  0  0  # atno 17321 bound_to 7965
  139.5971  144.7570  151.3260 LP  0  0  0  0  0  0  0  0  0  0  0  0  # atno 17342 bound_to 10162
  140.7230  143.7084  150.7789 LP  0  0  0  0  0  0  0  0  0  0  0  0  # atno 17343 bound_to 10162
  155.9773  130.4748  150.6582 LP  0  0  0  0  0  0  0  0  0  0  0  0  # atno 17370 bound_to 10713
  157.4231  131.0839  151.1112 LP  0  0  0  0  0  0  0  0  0  0  0  0  # atno 17371 bound_to 10713
  140.9413  134.1897  157.4796 LP  0  0  0  0  0  0  0  0  0  0  0  0  # atno 17394 bound_to 11000
  139.8734  134.9873  156.5361 LP  0  0  0  0  0  0  0  0  0  0  0  0  # atno 17395 bound_to 11000

$$$$
