AV-unprocessed.smi:1801|AV-procd|sdf|7268|dock10
  -GOLD-   22720 8523D 1   1.00000     0.00000
 Structure written by MMmdl.
 38 39  0  0  0  0  0  0  0  0  2 V2000
  146.6914  133.2312  153.4258 C   0  0  0  0  0  0  0  0  0  0  0  0
  148.0968  132.6054  153.4042 C   0  0  1  0  0  0  0  0  0  0  0  0
  149.0365  133.2922  154.4231 C   0  0  0  0  0  0  0  0  0  0  0  0
  149.3017  134.6865  154.0838 N   0  0  0  0  0  0  0  0  0  0  0  0
  150.0062  135.5355  154.8460 C   0  0  0  0  0  0  0  0  0  0  0  0
  150.5026  135.2181  155.9274 O   0  0  0  0  0  0  0  0  0  0  0  0
  150.0932  136.7474  154.2746 N   0  0  0  0  0  0  0  0  0  0  0  0
  150.7646  137.8956  154.7646 C   0  0  0  0  0  0  0  0  0  0  0  0
  150.3264  139.0964  154.3682 N   0  0  0  0  0  0  0  0  0  0  0  0
  151.0723  140.1309  154.9198 N   0  0  0  0  0  0  0  0  0  0  0  0
  152.0452  139.6690  155.7113 C   0  0  0  0  0  0  0  0  0  0  0  0
  152.1482  137.9238  155.8621 S   0  0  0  0  0  0  0  0  0  0  0  0
  148.0096  131.0834  153.6469 C   0  0  0  0  0  0  0  0  0  0  0  0
  147.5619  130.3375  152.4457 N   0  3  0  0  0  0  0  0  0  0  0  0
  147.8184  128.8853  152.5027 C   0  0  0  0  0  0  0  0  0  0  0  0
  146.8597  128.2817  151.4822 C   0  0  0  0  0  0  0  0  0  0  0  0
  145.6123  129.1486  151.6301 C   0  0  0  0  0  0  0  0  0  0  0  0
  146.1383  130.5213  152.0725 C   0  0  0  0  0  0  0  0  0  0  0  0
  146.2214  133.1161  154.4031 H   0  0  0  0  0  0  0  0  0  0  0  0
  146.0415  132.7610  152.6874 H   0  0  0  0  0  0  0  0  0  0  0  0
  146.7220  134.2962  153.1946 H   0  0  0  0  0  0  0  0  0  0  0  0
  148.4959  132.7644  152.4019 H   0  0  0  0  0  0  0  0  0  0  0  0
  148.5955  133.2600  155.4198 H   0  0  0  0  0  0  0  0  0  0  0  0
  149.9875  132.7625  154.4966 H   0  0  0  0  0  0  0  0  0  0  0  0
  148.9259  135.0254  153.2098 H   0  0  0  0  0  0  0  0  0  0  0  0
  149.6315  136.8631  153.3843 H   0  0  0  0  0  0  0  0  0  0  0  0
  152.7076  140.3615  156.2093 H   0  0  0  0  0  0  0  0  0  0  0  0
  148.9892  130.7109  153.9503 H   0  0  0  0  0  0  0  0  0  0  0  0
  147.3276  130.8671  154.4708 H   0  0  0  0  0  0  0  0  0  0  0  0
  148.8619  128.6509  152.2898 H   0  0  0  0  0  0  0  0  0  0  0  0
  147.5811  128.5066  153.4986 H   0  0  0  0  0  0  0  0  0  0  0  0
  147.2710  128.3901  150.4776 H   0  0  0  0  0  0  0  0  0  0  0  0
  146.6651  127.2228  151.6556 H   0  0  0  0  0  0  0  0  0  0  0  0
  145.0279  129.1989  150.7108 H   0  0  0  0  0  0  0  0  0  0  0  0
  144.9693  128.7351  152.4083 H   0  0  0  0  0  0  0  0  0  0  0  0
  145.5446  130.9004  152.9057 H   0  0  0  0  0  0  0  0  0  0  0  0
  146.0762  131.2502  151.2635 H   0  0  0  0  0  0  0  0  0  0  0  0
  148.1016  130.6801  151.6636 H   0  0  0  0  0  0  0  0  0  0  0  0
  1  2  1  0  0  0  0
  1 19  1  0  0  0  0
  1 20  1  0  0  0  0
  1 21  1  0  0  0  0
  2  3  1  0  0  0  0
  2 13  1  0  0  0  0
  2 22  1  0  0  0  0
  3  4  1  0  0  0  0
  3 23  1  0  0  0  0
  3 24  1  0  0  0  0
  4  5  1  0  0  0  0
  4 25  1  0  0  0  0
  5  6  2  0  0  0  0
  5  7  1  0  0  0  0
  7  8  1  0  0  0  0
  7 26  1  0  0  0  0
  8 12  1  0  0  0  0
  8  9  2  0  0  0  0
  9 10  1  0  0  0  0
 10 11  2  0  0  0  0
 11 12  1  0  0  0  0
 11 27  1  0  0  0  0
 13 14  1  0  0  0  0
 13 28  1  0  0  0  0
 13 29  1  0  0  0  0
 14 18  1  0  0  0  0
 14 15  1  0  0  0  0
 14 38  1  0  0  0  0
 15 16  1  0  0  0  0
 15 30  1  0  0  0  0
 15 31  1  0  0  0  0
 16 17  1  0  0  0  0
 16 32  1  0  0  0  0
 16 33  1  0  0  0  0
 17 18  1  0  0  0  0
 17 34  1  0  0  0  0
 17 35  1  0  0  0  0
 18 36  1  0  0  0  0
 18 37  1  0  0  0  0
M  CHG  1  14   1
M  END
> <s_m_source_file>
AV-unprocessed.smi

> <i_m_source_file_index>
1801

> <i_lp_mmshare_version>
43012

> <i_f3d_flags>
0

> <s_epik_input>
W0NIMl0xW0NIMl1bQ0gyXVtDSDJdTjFbQ0gyXVtDQEhdKFtDSDNdKVtDSDJdW05IXUMoPU8pW05IXWMybm5bY0hdczI=

> <s_epik_cmdline>
J2VwaWtfcHl0aG9uJywgJy1waCcsICc3LjAnLCAnLXRuJywgJzgnLCAnLW1hJywgJzIwMCcsICctbWV0YWxfYmluZGluZycsICctaW1hZScsICc8aW5maWxlLm1hZT4nLCAnLW9tYWUnLCAnPG91dGZpbGUubWFlPic=

> <r_lp_tautomer_probability>
1

> <r_epik_Ionization_Penalty>
0.00281598

> <r_epik_Ionization_Penalty_Charging>
0.000371708

> <r_epik_Ionization_Penalty_Neutral>
0.00244427

> <r_epik_State_Penalty>
-0

> <r_epik_Charging_Adjusted_Penalty>
0.000371708

> <i_epik_Tot_Q>
1

> <i_epik_Tot_abs_Q>
1

> <r_epik_Metal_State_Penalty>
0.350595

> <b_epik_Metal_Only>
0

> <s_lp_Force_Field>
OPLS_2005

> <r_lp_Energy>
27.8609

> <b_lp_Chiralities_Consistent>
1

> <s_lp_Variant>
AV-unprocessed.smi:1801-2

> <Gold.Version>
5.8.1

> <Gold.Id.Protein>
6NUR|6NUR_protein|mol2

> <Gold.PLP.Fitness>
45.8133

> <Gold.PLP.PLP>
-34.9869

> <Gold.PLP.part.hbond>
-5.3581

> <Gold.PLP.part.metal>
0.0000

> <Gold.PLP.part.buried>
-3.3288

> <Gold.PLP.part.nonpolar>
-27.1190

> <Gold.PLP.part.repulsive>
0.3805

> <Gold.PLP.ligand.clash>
0.0000

> <Gold.PLP.ligand.torsion>
0.4541

> <Gold.PLP.Chemscore.Hbond>
3.8968

> <Gold.PLP.Chemscore.CHOScore>
0.0000

> <Gold.PLP.Chemscore.Metal>
0.0000

> <Gold.Chemscore.Hbonds>
donor molecule, donor type, donor heavy atom, donor atom, acceptor molecule, acceptor atom, score
      L1  H     4    25       P1  7948  0.99
      L1  H     7    26       P1  7948  1.00
      L1  H    14    38       P1 10747  1.00
      P1  H  7989  7998       L1    10  1.00

> <Gold.PLP.Chemscore.Internal.Correction>
0.0443

> <Gold.Rescore>
     Score         DG    S(hbond)    S(metal)    S(lipo)     H(rot)  DE(clash)    DE(int)     intcor
     15.99     -16.41       2.41        0.00      67.66       1.97       0.00       0.42       ----

> <Gold.Chemscore.Fitness>
15.9941

> <Gold.Chemscore.DG>
-16.4149

> <Gold.Chemscore.ZeroCoef>
-5.4800

> <Gold.Chemscore.Hbond>
2.4112

> <Gold.Chemscore.Metal>
0.0000

> <Gold.Chemscore.Lipo>
67.6619

> <Gold.Chemscore.Internal_Hbond>
0.0000

> <Gold.Chemscore.DEClash>
0.0029

> <Gold.Chemscore.DEInternal>
0.4179

> <Gold.Chemscore.Rot>
1.9667

> <Gold.Chemscore.Internal.Correction>
   9.000000E+99

> <Gold.Chemscore.Hbonds>
donor molecule, donor type, donor heavy atom, donor atom, acceptor molecule, acceptor atom, score
      L1  H     4    25       P1  7948  0.28
      L1  H     7    26       P1  7948  0.63
      L1  H    14    38       P1 10747  0.99
      P1  H  7989  7998       L1    10  0.23

> <Gold.Chemscore.Hbond.Weighted>
-8.0533

> <Gold.Chemscore.Metal.Weighted>
-0.0000

> <Gold.Chemscore.Lipo.Weighted>
-7.9164

> <Gold.Chemscore.Internal_Hbond.Weighted>
0.0000

> <Gold.Chemscore.DEClash.Weighted>
0.0029

> <Gold.Chemscore.DEInternal.Weighted>
0.4179

> <Gold.Chemscore.Rot.Weighted>
5.0348

> <Gold.Chemscore.Internal.Correction.Weighted>
   9.000000E+99

> <Gold.Protein.RotatedTorsions>
[ 6907 6896 6895 6894 ] final -107.43 input  -60.11 | X-H torsion
[ 7974 7965 7964 7962 ] final   79.10 input  175.53 | X-H torsion
[ 8008 7997 7996 7995 ] final   82.99 input   59.86 | X-H torsion
[ 10167 10162 10161 10158 ] final  -83.88 input  -65.29 | X-H torsion
[ 10718 10713 10712 10709 ] final  159.97 input   66.30 | X-H torsion
[ 10763 10752 10751 10750 ] final   20.28 input  -60.55 | X-H torsion
[ 11005 11000 10999 10996 ] final  -97.61 input  -57.11 | X-H torsion

> <Gold.Protein.ActiveResidues>
 VAL166  LYS551  ARG553  GLY616  TRP617  ASP618  TYR619  PRO620  LYS621  CYS622 
 ASP623  PHE694  ASN695  SER759  ASP760  ASP761  ALA762  ILE779  LEU786  VAL792 
 PHE793  MET794  SER795  GLU796  ALA797  LYS798  CYS799  TRP800  GLU811  SER814 

> <Gold.Protein.RotatedAtoms>
  150.7444  133.9828  159.3581 H   0  0  0  0  0  0  0  0  0  0  0  0  # atno 6907 bound_to 6896
  151.7770  135.0769  160.0377 H   0  0  0  0  0  0  0  0  0  0  0  0  # atno 6908 bound_to 6896
  152.3300  133.5911  159.5839 H   0  0  0  0  0  0  0  0  0  0  0  0  # atno 6909 bound_to 6896
  145.6686  139.2490  143.1881 H   0  0  0  0  0  0  0  0  0  0  0  0  # atno 7974 bound_to 7965
  155.9180  140.3423  155.6150 H   0  0  0  0  0  0  0  0  0  0  0  0  # atno 8008 bound_to 7997
  155.7308  140.0795  157.2308 H   0  0  0  0  0  0  0  0  0  0  0  0  # atno 8009 bound_to 7997
  154.4065  140.1588  156.2494 H   0  0  0  0  0  0  0  0  0  0  0  0  # atno 8010 bound_to 7997
  140.4185  143.2594  151.8922 H   0  0  0  0  0  0  0  0  0  0  0  0  # atno 10167 bound_to 10162
  157.1569  131.0577  151.2252 H   0  0  0  0  0  0  0  0  0  0  0  0  # atno 10718 bound_to 10713
  153.1091  135.6692  153.9533 H   0  0  0  0  0  0  0  0  0  0  0  0  # atno 10763 bound_to 10752
  153.9081  135.3028  155.3450 H   0  0  0  0  0  0  0  0  0  0  0  0  # atno 10764 bound_to 10752
  154.7511  135.5034  153.9368 H   0  0  0  0  0  0  0  0  0  0  0  0  # atno 10765 bound_to 10752
  141.1373  133.8183  157.0729 H   0  0  0  0  0  0  0  0  0  0  0  0  # atno 11005 bound_to 11000
  146.1065  140.7481  142.9524 LP  0  0  0  0  0  0  0  0  0  0  0  0  # atno 17320 bound_to 7965
  144.7064  140.3870  143.7114 LP  0  0  0  0  0  0  0  0  0  0  0  0  # atno 17321 bound_to 7965
  139.4782  144.5463  151.8453 LP  0  0  0  0  0  0  0  0  0  0  0  0  # atno 17342 bound_to 10162
  140.4560  144.1788  150.5901 LP  0  0  0  0  0  0  0  0  0  0  0  0  # atno 17343 bound_to 10162
  157.4169  130.7416  149.6882 LP  0  0  0  0  0  0  0  0  0  0  0  0  # atno 17370 bound_to 10713
  155.9760  130.4081  150.3806 LP  0  0  0  0  0  0  0  0  0  0  0  0  # atno 17371 bound_to 10713
  140.0500  134.9810  157.1119 LP  0  0  0  0  0  0  0  0  0  0  0  0  # atno 17394 bound_to 11000
  140.4004  134.2088  155.7163 LP  0  0  0  0  0  0  0  0  0  0  0  0  # atno 17395 bound_to 11000

$$$$
