AV-unprocessed.smi:1228|AV-procd|sdf|5149|dock1
  -GOLD-   22720 4223D 1   1.00000     0.00000
 Structure written by MMmdl.
 43 45  0  0  0  0  0  0  0  0  1 V2000
  150.0246  141.7839  155.8987 C   0  0  0  0  0  0  0  0  0  0  0  0
  150.3159  140.4042  155.3867 C   0  0  0  0  0  0  0  0  0  0  0  0
  149.4037  139.3240  155.2066 C   0  0  0  0  0  0  0  0  0  0  0  0
  150.2073  138.3287  154.7211 C   0  0  0  0  0  0  0  0  0  0  0  0
  149.8758  137.0598  154.3624 N   0  0  0  0  0  0  0  0  0  0  0  0
  149.8694  135.9471  155.1172 C   0  0  0  0  0  0  0  0  0  0  0  0
  150.1780  135.8891  156.3078 O   0  0  0  0  0  0  0  0  0  0  0  0
  149.4797  134.8815  154.4027 N   0  0  0  0  0  0  0  0  0  0  0  0
  149.3611  133.5204  154.9173 C   0  0  0  0  0  0  0  0  0  0  0  0
  150.7167  133.0078  155.4354 C   0  0  0  0  0  0  0  0  0  0  0  0
  150.6326  131.5232  155.8312 C   0  0  0  0  0  0  0  0  0  0  0  0
  150.1985  130.7177  154.6892 N   0  0  0  0  0  0  0  0  0  0  0  0
  150.1714  129.3191  155.0852 C   0  0  0  0  0  0  0  0  0  0  0  0
  151.3382  128.4526  154.6696 C   0  0  0  0  0  0  0  0  0  0  0  0
  149.9978  128.2860  153.9954 C   0  0  0  0  0  0  0  0  0  0  0  0
  148.8525  131.1198  154.2805 C   0  0  0  0  0  0  0  0  0  0  0  0
  148.8583  132.5842  153.8075 C   0  0  0  0  0  0  0  0  0  0  0  0
  151.4968  138.8035  154.6289 N   0  0  0  0  0  0  0  0  0  0  0  0
  152.6961  138.1299  154.1701 C   0  0  0  0  0  0  0  0  0  0  0  0
  151.5590  140.0882  155.0410 N   0  0  0  0  0  0  0  0  0  0  0  0
  148.9627  141.9093  156.1109 H   0  0  0  0  0  0  0  0  0  0  0  0
  150.3079  142.5424  155.1686 H   0  0  0  0  0  0  0  0  0  0  0  0
  150.5726  141.9849  156.8194 H   0  0  0  0  0  0  0  0  0  0  0  0
  148.3427  139.3053  155.4055 H   0  0  0  0  0  0  0  0  0  0  0  0
  149.5989  136.9445  153.3987 H   0  0  0  0  0  0  0  0  0  0  0  0
  149.2465  135.0198  153.4303 H   0  0  0  0  0  0  0  0  0  0  0  0
  148.6367  133.5032  155.7342 H   0  0  0  0  0  0  0  0  0  0  0  0
  151.4827  133.1347  154.6687 H   0  0  0  0  0  0  0  0  0  0  0  0
  151.0389  133.5969  156.2947 H   0  0  0  0  0  0  0  0  0  0  0  0
  151.6129  131.1817  156.1658 H   0  0  0  0  0  0  0  0  0  0  0  0
  149.9446  131.3922  156.6682 H   0  0  0  0  0  0  0  0  0  0  0  0
  149.7218  129.0607  156.0428 H   0  0  0  0  0  0  0  0  0  0  0  0
  152.1362  128.9141  154.0909 H   0  0  0  0  0  0  0  0  0  0  0  0
  151.6545  127.6739  155.3605 H   0  0  0  0  0  0  0  0  0  0  0  0
  149.4211  127.3953  154.2364 H   0  0  0  0  0  0  0  0  0  0  0  0
  149.9063  128.6366  152.9689 H   0  0  0  0  0  0  0  0  0  0  0  0
  148.5111  130.4771  153.4682 H   0  0  0  0  0  0  0  0  0  0  0  0
  148.1520  130.9906  155.1070 H   0  0  0  0  0  0  0  0  0  0  0  0
  147.8536  132.8757  153.4994 H   0  0  0  0  0  0  0  0  0  0  0  0
  149.4922  132.6754  152.9238 H   0  0  0  0  0  0  0  0  0  0  0  0
  152.8140  137.1858  154.7029 H   0  0  0  0  0  0  0  0  0  0  0  0
  153.5767  138.7481  154.3505 H   0  0  0  0  0  0  0  0  0  0  0  0
  152.6163  137.9296  153.1014 H   0  0  0  0  0  0  0  0  0  0  0  0
  1  2  1  0  0  0  0
  1 21  1  0  0  0  0
  1 22  1  0  0  0  0
  1 23  1  0  0  0  0
  2 20  2  0  0  0  0
  2  3  1  0  0  0  0
  3  4  2  0  0  0  0
  3 24  1  0  0  0  0
  4  5  1  0  0  0  0
  4 18  1  0  0  0  0
  5  6  1  0  0  0  0
  5 25  1  0  0  0  0
  6  7  2  0  0  0  0
  6  8  1  0  0  0  0
  8  9  1  0  0  0  0
  8 26  1  0  0  0  0
  9 17  1  0  0  0  0
  9 10  1  0  0  0  0
  9 27  1  0  0  0  0
 10 11  1  0  0  0  0
 10 28  1  0  0  0  0
 10 29  1  0  0  0  0
 11 12  1  0  0  0  0
 11 30  1  0  0  0  0
 11 31  1  0  0  0  0
 12 13  1  0  0  0  0
 12 16  1  0  0  0  0
 13 15  1  0  0  0  0
 13 14  1  0  0  0  0
 13 32  1  0  0  0  0
 14 15  1  0  0  0  0
 14 33  1  0  0  0  0
 14 34  1  0  0  0  0
 15 35  1  0  0  0  0
 15 36  1  0  0  0  0
 16 17  1  0  0  0  0
 16 37  1  0  0  0  0
 16 38  1  0  0  0  0
 17 39  1  0  0  0  0
 17 40  1  0  0  0  0
 18 19  1  0  0  0  0
 18 20  1  0  0  0  0
 19 41  1  0  0  0  0
 19 42  1  0  0  0  0
 19 43  1  0  0  0  0
M  END
> <s_m_source_file>
AV-unprocessed.smi

> <i_m_source_file_index>
1228

> <i_lp_mmshare_version>
43012

> <i_f3d_flags>
0

> <s_epik_input>
W0NIM11jMVtjSF1jKG4objEpW0NIM10pW05IXUMoPU8pW05IXVtDSF0yW0NIMl1bQ0gyXU4oW0NIMl1bQ0gyXTIpW0NIXTNbQ0gyXVtDSDJdMw==

> <s_epik_cmdline>
J2VwaWtfcHl0aG9uJywgJy1waCcsICc3LjAnLCAnLXRuJywgJzgnLCAnLW1hJywgJzIwMCcsICctbWV0YWxfYmluZGluZycsICctaW1hZScsICc8aW5maWxlLm1hZT4nLCAnLW9tYWUnLCAnPG91dGZpbGUubWFlPic=

> <r_lp_tautomer_probability>
1

> <r_epik_Ionization_Penalty>
1.01084

> <r_epik_Ionization_Penalty_Charging>
0

> <r_epik_Ionization_Penalty_Neutral>
1.01084

> <r_epik_State_Penalty>
1.06014

> <r_epik_Charging_Adjusted_Penalty>
1.06014

> <i_epik_Tot_Q>
0

> <i_epik_Tot_abs_Q>
0

> <r_epik_Metal_State_Penalty>
1.06013

> <b_epik_Metal_Only>
0

> <s_lp_Force_Field>
OPLS_2005

> <r_lp_Energy>
22.8061

> <b_lp_Chiralities_Consistent>
1

> <s_lp_Variant>
AV-unprocessed.smi:1228-3

> <Gold.Version>
5.8.1

> <Gold.Id.Protein>
6NUR|6NUR_protein|mol2

> <Gold.PLP.Fitness>
39.7722

> <Gold.PLP.PLP>
-32.8154

> <Gold.PLP.part.hbond>
-3.0000

> <Gold.PLP.part.metal>
0.0000

> <Gold.PLP.part.buried>
-2.6627

> <Gold.PLP.part.nonpolar>
-28.1042

> <Gold.PLP.part.repulsive>
0.1518

> <Gold.PLP.ligand.clash>
0.0000

> <Gold.PLP.ligand.torsion>
1.3805

> <Gold.PLP.Chemscore.Hbond>
2.8500

> <Gold.PLP.Chemscore.CHOScore>
0.0000

> <Gold.PLP.Chemscore.Metal>
0.0000

> <Gold.Chemscore.Hbonds>
donor molecule, donor type, donor heavy atom, donor atom, acceptor molecule, acceptor atom, score
      L1  H     5    25       P1  7948  1.00
      L1  H     8    26       P1  7948  0.80
      P1  H  7989  7998       L1    20  0.95

> <Gold.PLP.Chemscore.Internal.Correction>
1.1678

> <Gold.Rescore>
     Score         DG    S(hbond)    S(metal)    S(lipo)     H(rot)  DE(clash)    DE(int)     intcor
     13.41     -14.84       1.66        0.00      58.61       1.19       0.07       1.37       ----

> <Gold.Chemscore.Fitness>
13.4055

> <Gold.Chemscore.DG>
-14.8371

> <Gold.Chemscore.ZeroCoef>
-5.4800

> <Gold.Chemscore.Hbond>
1.6642

> <Gold.Chemscore.Metal>
0.0000

> <Gold.Chemscore.Lipo>
58.6103

> <Gold.Chemscore.Internal_Hbond>
0.0000

> <Gold.Chemscore.DEClash>
0.0650

> <Gold.Chemscore.DEInternal>
1.3666

> <Gold.Chemscore.Rot>
1.1948

> <Gold.Chemscore.Internal.Correction>
   9.000000E+99

> <Gold.Chemscore.Hbonds>
donor molecule, donor type, donor heavy atom, donor atom, acceptor molecule, acceptor atom, score
      L1  H     5    25       P1  7948  0.74
      L1  H     8    26       P1  7948  0.11
      P1  H  7989  7998       L1    20  0.05

> <Gold.Chemscore.Hbond.Weighted>
-5.5584

> <Gold.Chemscore.Metal.Weighted>
-0.0000

> <Gold.Chemscore.Lipo.Weighted>
-6.8574

> <Gold.Chemscore.Internal_Hbond.Weighted>
0.0000

> <Gold.Chemscore.DEClash.Weighted>
0.0650

> <Gold.Chemscore.DEInternal.Weighted>
1.3666

> <Gold.Chemscore.Rot.Weighted>
3.0587

> <Gold.Chemscore.Internal.Correction.Weighted>
   9.000000E+99

> <Gold.Protein.RotatedTorsions>
[ 6907 6896 6895 6894 ] final  -23.64 input  -60.11 | X-H torsion
[ 7974 7965 7964 7962 ] final  162.48 input  175.53 | X-H torsion
[ 8008 7997 7996 7995 ] final -139.90 input   59.86 | X-H torsion
[ 10167 10162 10161 10158 ] final -152.21 input  -65.29 | X-H torsion
[ 10718 10713 10712 10709 ] final -126.62 input   66.30 | X-H torsion
[ 10763 10752 10751 10750 ] final -120.67 input  -60.55 | X-H torsion
[ 11005 11000 10999 10996 ] final -168.80 input  -57.11 | X-H torsion

> <Gold.Protein.ActiveResidues>
 VAL166  LYS551  ARG553  GLY616  TRP617  ASP618  TYR619  PRO620  LYS621  CYS622 
 ASP623  PHE694  ASN695  SER759  ASP760  ASP761  ALA762  ILE779  LEU786  VAL792 
 PHE793  MET794  SER795  GLU796  ALA797  LYS798  CYS799  TRP800  GLU811  SER814 

> <Gold.Protein.RotatedAtoms>
  151.2011  135.0443  159.8872 H   0  0  0  0  0  0  0  0  0  0  0  0  # atno 6907 bound_to 6896
  152.5432  134.0849  159.8262 H   0  0  0  0  0  0  0  0  0  0  0  0  # atno 6908 bound_to 6896
  151.0990  133.5210  159.2643 H   0  0  0  0  0  0  0  0  0  0  0  0  # atno 6909 bound_to 6896
  144.7634  139.8046  143.6324 H   0  0  0  0  0  0  0  0  0  0  0  0  # atno 7974 bound_to 7965
  155.4525  140.0540  157.2999 H   0  0  0  0  0  0  0  0  0  0  0  0  # atno 8008 bound_to 7997
  154.4771  140.2065  155.9808 H   0  0  0  0  0  0  0  0  0  0  0  0  # atno 8009 bound_to 7997
  156.1149  140.3198  155.8129 H   0  0  0  0  0  0  0  0  0  0  0  0  # atno 8010 bound_to 7997
  139.7201  143.8971  152.2500 H   0  0  0  0  0  0  0  0  0  0  0  0  # atno 10167 bound_to 10162
  156.1782  130.6714  151.0270 H   0  0  0  0  0  0  0  0  0  0  0  0  # atno 10718 bound_to 10713
  154.8650  135.4195  154.2496 H   0  0  0  0  0  0  0  0  0  0  0  0  # atno 10763 bound_to 10752
  153.3445  135.6995  153.6845 H   0  0  0  0  0  0  0  0  0  0  0  0  # atno 10764 bound_to 10752
  153.5810  135.3573  155.2847 H   0  0  0  0  0  0  0  0  0  0  0  0  # atno 10765 bound_to 10752
  140.5379  134.5552  157.5092 H   0  0  0  0  0  0  0  0  0  0  0  0  # atno 11005 bound_to 11000
  146.1720  139.4874  142.9921 LP  0  0  0  0  0  0  0  0  0  0  0  0  # atno 17320 bound_to 7965
  145.6545  141.0255  143.1742 LP  0  0  0  0  0  0  0  0  0  0  0  0  # atno 17321 bound_to 7965
  139.8864  144.6989  150.8819 LP  0  0  0  0  0  0  0  0  0  0  0  0  # atno 17342 bound_to 10162
  140.7752  143.3620  151.1810 LP  0  0  0  0  0  0  0  0  0  0  0  0  # atno 17343 bound_to 10162
  157.6850  131.0827  150.7267 LP  0  0  0  0  0  0  0  0  0  0  0  0  # atno 17370 bound_to 10713
  156.7324  130.4714  149.5496 LP  0  0  0  0  0  0  0  0  0  0  0  0  # atno 17371 bound_to 10713
  139.9519  134.7601  156.0428 LP  0  0  0  0  0  0  0  0  0  0  0  0  # atno 17394 bound_to 11000
  141.1244  133.6603  156.3298 LP  0  0  0  0  0  0  0  0  0  0  0  0  # atno 17395 bound_to 11000

$$$$
