AV-unprocessed.smi:2922|AV-procd|sdf|11199|dock5
  -GOLD-   2272016 93D 1   1.00000     0.00000
 Structure written by MMmdl.
 30 31  0  0  0  0  0  0  0  0  1 V2000
  142.9693  133.4810  148.0753 N   0  0  0  0  0  0  0  0  0  0  0  0
  143.8543  132.7490  148.7580 C   0  0  0  0  0  0  0  0  0  0  0  0
  144.6210  131.9690  148.1960 O   0  0  0  0  0  0  0  0  0  0  0  0
  143.8686  132.8931  150.2875 C   0  0  1  0  0  0  0  0  0  0  0  0
  144.8639  131.9632  151.0078 C   0  0  0  0  0  0  0  0  0  0  0  0
  145.7891  132.9165  151.7428 C   0  0  0  0  0  0  0  0  0  0  0  0
  144.9271  134.1660  151.8990 C   0  0  1  0  0  0  0  0  0  0  0  0
  145.7183  135.4599  152.1306 C   0  0  0  0  0  0  0  0  0  0  0  0
  144.8970  136.6406  151.9092 N   0  0  0  0  0  0  0  0  0  0  0  0
  143.6800  136.8658  152.5236 C   0  0  0  0  0  0  0  0  0  0  0  0
  143.0807  135.8382  153.1384 N   0  0  0  0  0  0  0  0  0  0  0  0
  141.8926  136.0858  153.7323 C   0  0  0  0  0  0  0  0  0  0  0  0
  141.3094  137.3683  153.7072 C   0  0  0  0  0  0  0  0  0  0  0  0
  139.7936  137.6915  154.4649 Cl  0  0  0  0  0  0  0  0  0  0  0  0
  142.0294  138.3732  153.0310 C   0  0  0  0  0  0  0  0  0  0  0  0
  143.2169  138.1161  152.4390 N   0  0  0  0  0  0  0  0  0  0  0  0
  144.2599  134.2176  150.6491 O   0  0  0  0  0  0  0  0  0  0  0  0
  142.9320  133.4164  147.0685 H   0  0  0  0  0  0  0  0  0  0  0  0
  142.3435  134.0991  148.5719 H   0  0  0  0  0  0  0  0  0  0  0  0
  142.8608  132.7146  150.6652 H   0  0  0  0  0  0  0  0  0  0  0  0
  144.3296  131.3309  151.7180 H   0  0  0  0  0  0  0  0  0  0  0  0
  145.4258  131.3057  150.3430 H   0  0  0  0  0  0  0  0  0  0  0  0
  146.1405  132.5190  152.6953 H   0  0  0  0  0  0  0  0  0  0  0  0
  146.6602  133.1346  151.1232 H   0  0  0  0  0  0  0  0  0  0  0  0
  144.1835  134.0220  152.6855 H   0  0  0  0  0  0  0  0  0  0  0  0
  146.1225  135.4793  153.1435 H   0  0  0  0  0  0  0  0  0  0  0  0
  146.5671  135.4959  151.4469 H   0  0  0  0  0  0  0  0  0  0  0  0
  145.2411  137.3556  151.2848 H   0  0  0  0  0  0  0  0  0  0  0  0
  141.4082  135.2578  154.2286 H   0  0  0  0  0  0  0  0  0  0  0  0
  141.6547  139.3838  152.9640 H   0  0  0  0  0  0  0  0  0  0  0  0
  1  2  1  0  0  0  0
  1 18  1  0  0  0  0
  1 19  1  0  0  0  0
  2  3  2  0  0  0  0
  2  4  1  0  0  0  0
  4 17  1  0  0  0  0
  4  5  1  0  0  0  0
  4 20  1  0  0  0  0
  5  6  1  0  0  0  0
  5 21  1  0  0  0  0
  5 22  1  0  0  0  0
  6  7  1  0  0  0  0
  6 23  1  0  0  0  0
  6 24  1  0  0  0  0
  7  8  1  0  0  0  0
  7 17  1  0  0  0  0
  7 25  1  0  0  0  0
  8  9  1  0  0  0  0
  8 26  1  0  0  0  0
  8 27  1  0  0  0  0
  9 10  1  0  0  0  0
  9 28  1  0  0  0  0
 10 16  1  0  0  0  0
 10 11  2  0  0  0  0
 11 12  1  0  0  0  0
 12 13  2  0  0  0  0
 12 29  1  0  0  0  0
 13 14  1  0  0  0  0
 13 15  1  0  0  0  0
 15 16  2  0  0  0  0
 15 30  1  0  0  0  0
M  END
> <s_m_source_file>
AV-unprocessed.smi

> <i_m_source_file_index>
2922

> <i_lp_mmshare_version>
43012

> <i_f3d_flags>
0

> <s_epik_input>
W05IMl1DKD1PKVtDQEBIXTFbQ0gyXVtDSDJdW0NASF0oTzEpW0NIMl1bTkhdYzJuW2NIXWMoQ2wpW2NIXW4y

> <s_epik_cmdline>
J2VwaWtfcHl0aG9uJywgJy1waCcsICc3LjAnLCAnLXRuJywgJzgnLCAnLW1hJywgJzIwMCcsICctbWV0YWxfYmluZGluZycsICctaW1hZScsICc8aW5maWxlLm1hZT4nLCAnLW9tYWUnLCAnPG91dGZpbGUubWFlPic=

> <r_lp_tautomer_probability>
1

> <r_epik_Ionization_Penalty>
6.13883e-06

> <r_epik_Ionization_Penalty_Charging>
0

> <r_epik_Ionization_Penalty_Neutral>
6.13883e-06

> <r_epik_State_Penalty>
-0

> <r_epik_Charging_Adjusted_Penalty>
0

> <i_epik_Tot_Q>
0

> <i_epik_Tot_abs_Q>
0

> <r_epik_Metal_State_Penalty>
-0

> <b_epik_Metal_Only>
0

> <s_lp_Force_Field>
OPLS_2005

> <r_lp_Energy>
9.86334

> <b_lp_Chiralities_Consistent>
1

> <s_lp_Variant>
AV-unprocessed.smi:2922-2

> <Gold.Version>
5.8.1

> <Gold.Id.Protein>
6NUR|6NUR_protein|mol2

> <Gold.PLP.Fitness>
42.8349

> <Gold.PLP.PLP>
-30.1553

> <Gold.PLP.part.hbond>
-5.0000

> <Gold.PLP.part.metal>
0.0000

> <Gold.PLP.part.buried>
-6.7419

> <Gold.PLP.part.nonpolar>
-22.1318

> <Gold.PLP.part.repulsive>
3.4795

> <Gold.PLP.ligand.clash>
0.0000

> <Gold.PLP.ligand.torsion>
0.1762

> <Gold.PLP.Chemscore.Hbond>
2.9200

> <Gold.PLP.Chemscore.CHOScore>
1.4151

> <Gold.PLP.Chemscore.Metal>
0.0000

> <Gold.Chemscore.Hbonds>
donor molecule, donor type, donor heavy atom, donor atom, acceptor molecule, acceptor atom, score
      L1  H     1    18       P1 10195  0.91
      L1  H     1    19       P1 10186  1.00
      L1  H     9    28       P1 10171  0.09
      P1  H 10785 10796       L1     3  0.02
      L1  C    12    29       P1 11000  0.14
      L1  C    15    30       P1 10160  0.65
      L1  C    15    30       P1 10175  0.40

> <Gold.PLP.Chemscore.Internal.Correction>
0.0267

> <Gold.Rescore>
     Score         DG    S(hbond)    S(metal)    S(lipo)     H(rot)  DE(clash)    DE(int)     intcor
     13.09     -16.73       2.97        0.00      53.21       1.91       2.15       1.49       ----

> <Gold.Chemscore.Fitness>
13.0884

> <Gold.Chemscore.DG>
-16.7343

> <Gold.Chemscore.ZeroCoef>
-5.4800

> <Gold.Chemscore.Hbond>
2.9729

> <Gold.Chemscore.Metal>
0.0000

> <Gold.Chemscore.Lipo>
53.2063

> <Gold.Chemscore.Internal_Hbond>
0.0000

> <Gold.Chemscore.DEClash>
2.1513

> <Gold.Chemscore.DEInternal>
1.4946

> <Gold.Chemscore.Rot>
1.9142

> <Gold.Chemscore.Internal.Correction>
   9.000000E+99

> <Gold.Chemscore.Hbonds>
donor molecule, donor type, donor heavy atom, donor atom, acceptor molecule, acceptor atom, score
      L1  H     1    18       P1 10195  0.88
      L1  H     1    19       P1 10186  0.97
      L1  H     9    28       P1 10171  0.09

> <Gold.Chemscore.Hbond.Weighted>
-9.9294

> <Gold.Chemscore.Metal.Weighted>
-0.0000

> <Gold.Chemscore.Lipo.Weighted>
-6.2251

> <Gold.Chemscore.Internal_Hbond.Weighted>
0.0000

> <Gold.Chemscore.DEClash.Weighted>
2.1513

> <Gold.Chemscore.DEInternal.Weighted>
1.4946

> <Gold.Chemscore.Rot.Weighted>
4.9002

> <Gold.Chemscore.Internal.Correction.Weighted>
   9.000000E+99

> <Gold.Protein.RotatedTorsions>
[ 6907 6896 6895 6894 ] final  136.16 input  -60.11 | X-H torsion
[ 7974 7965 7964 7962 ] final  156.48 input  175.53 | X-H torsion
[ 8008 7997 7996 7995 ] final  -30.85 input   59.86 | X-H torsion
[ 10167 10162 10161 10158 ] final  134.88 input  -65.29 | X-H torsion
[ 10718 10713 10712 10709 ] final  -88.99 input   66.30 | X-H torsion
[ 10763 10752 10751 10750 ] final   31.11 input  -60.55 | X-H torsion
[ 11005 11000 10999 10996 ] final -154.69 input  -57.11 | X-H torsion

> <Gold.Protein.ActiveResidues>
 VAL166  LYS551  ARG553  GLY616  TRP617  ASP618  TYR619  PRO620  LYS621  CYS622 
 ASP623  PHE694  ASN695  SER759  ASP760  ASP761  ALA762  ILE779  LEU786  VAL792 
 PHE793  MET794  SER795  GLU796  ALA797  LYS798  CYS799  TRP800  GLU811  SER814 

> <Gold.Protein.RotatedAtoms>
  152.2924  133.5574  159.5565 H   0  0  0  0  0  0  0  0  0  0  0  0  # atno 6907 bound_to 6896
  150.7241  134.0409  159.3774 H   0  0  0  0  0  0  0  0  0  0  0  0  # atno 6908 bound_to 6896
  151.8314  135.0620  160.0488 H   0  0  0  0  0  0  0  0  0  0  0  0  # atno 6909 bound_to 6896
  144.7961  139.7209  143.6201 H   0  0  0  0  0  0  0  0  0  0  0  0  # atno 7974 bound_to 7965
  154.4235  140.1780  156.1473 H   0  0  0  0  0  0  0  0  0  0  0  0  # atno 8008 bound_to 7997
  155.9943  140.3366  155.6759 H   0  0  0  0  0  0  0  0  0  0  0  0  # atno 8009 bound_to 7997
  155.6329  140.0672  157.2634 H   0  0  0  0  0  0  0  0  0  0  0  0  # atno 8010 bound_to 7997
  139.5239  144.6545  151.5202 H   0  0  0  0  0  0  0  0  0  0  0  0  # atno 10167 bound_to 10162
  155.9984  130.4856  150.5104 H   0  0  0  0  0  0  0  0  0  0  0  0  # atno 10718 bound_to 10713
  153.0334  135.6447  154.1149 H   0  0  0  0  0  0  0  0  0  0  0  0  # atno 10763 bound_to 10752
  154.0867  135.2869  155.3281 H   0  0  0  0  0  0  0  0  0  0  0  0  # atno 10764 bound_to 10752
  154.6493  135.5432  153.7946 H   0  0  0  0  0  0  0  0  0  0  0  0  # atno 10765 bound_to 10752
  140.6945  134.4004  157.5216 H   0  0  0  0  0  0  0  0  0  0  0  0  # atno 11005 bound_to 11000
  146.2229  139.5669  142.9606 LP  0  0  0  0  0  0  0  0  0  0  0  0  # atno 17320 bound_to 7965
  145.5671  141.0398  143.2194 LP  0  0  0  0  0  0  0  0  0  0  0  0  # atno 17321 bound_to 7965
  140.6365  143.8974  150.6652 LP  0  0  0  0  0  0  0  0  0  0  0  0  # atno 17342 bound_to 10162
  140.2295  143.3747  152.1577 LP  0  0  0  0  0  0  0  0  0  0  0  0  # atno 17343 bound_to 10162
  157.3077  131.0658  151.2023 LP  0  0  0  0  0  0  0  0  0  0  0  0  # atno 17370 bound_to 10713
  157.2980  130.6828  149.6149 LP  0  0  0  0  0  0  0  0  0  0  0  0  # atno 17371 bound_to 10713
  139.8914  134.8781  156.2322 LP  0  0  0  0  0  0  0  0  0  0  0  0  # atno 17394 bound_to 11000
  141.0214  133.7039  156.1274 LP  0  0  0  0  0  0  0  0  0  0  0  0  # atno 17395 bound_to 11000

$$$$
