AV-unprocessed.smi:701|AV-procd|sdf|3415|dock10
  -GOLD-   22720 0403D 1   1.00000     0.00000
 Structure written by MMmdl.
 48 50  0  0  0  0  0  0  0  0  2 V2000
  143.9712  132.7308  151.1255 C   0  0  0  0  0  0  0  0  0  0  0  0
  145.1228  133.7019  151.3932 C   0  0  0  0  0  0  0  0  0  0  0  0
  145.7717  133.3181  152.5935 O   0  0  0  0  0  0  0  0  0  0  0  0
  146.7137  134.2761  153.0467 C   0  0  1  0  0  0  0  0  0  0  0  0
  146.0932  135.4955  153.7341 C   0  0  0  0  0  0  0  0  0  0  0  0
  147.2372  135.4112  154.7506 C   0  0  2  0  0  0  0  0  0  0  0  0
  148.3715  136.2436  154.3495 N   0  0  0  0  0  0  0  0  0  0  0  0
  149.0117  137.1037  155.1526 C   0  0  0  0  0  0  0  0  0  0  0  0
  148.6873  137.3067  156.3230 O   0  0  0  0  0  0  0  0  0  0  0  0
  150.1795  137.8740  154.5254 C   0  0  0  0  0  0  0  0  0  0  0  0
  150.7674  138.8471  155.4583 N   0  0  0  0  0  0  0  0  0  0  0  0
  149.9517  139.8989  155.9112 C   0  0  0  0  0  0  0  0  0  0  0  0
  150.4067  140.8310  156.7700 C   0  0  0  0  0  0  0  0  0  0  0  0
  151.7855  140.7297  157.2318 C   0  0  0  0  0  0  0  0  0  0  0  0
  152.2194  141.5749  158.0121 O   0  0  0  0  0  0  0  0  0  0  0  0
  152.5357  139.6874  156.7679 N   0  5  0  0  0  0  0  0  0  0  0  0
  152.0590  138.7454  155.8962 C   0  0  0  0  0  0  0  0  0  0  0  0
  152.7520  137.8110  155.4915 O   0  0  0  0  0  0  0  0  0  0  0  0
  147.4100  133.9087  154.3845 C   0  0  0  0  0  0  0  0  0  0  0  0
  146.6393  132.9625  155.3358 C   0  0  0  0  0  0  0  0  0  0  0  0
  146.7054  131.4742  154.9435 C   0  0  0  0  0  0  0  0  0  0  0  0
  148.1518  130.9973  154.7790 C   0  0  0  0  0  0  0  0  0  0  0  0
  148.9208  131.9083  153.8173 C   0  0  0  0  0  0  0  0  0  0  0  0
  148.8531  133.3739  154.2732 C   0  0  0  0  0  0  0  0  0  0  0  0
  143.4458  132.9921  150.2069 H   0  0  0  0  0  0  0  0  0  0  0  0
  143.2481  132.7468  151.9411 H   0  0  0  0  0  0  0  0  0  0  0  0
  144.3384  131.7093  151.0222 H   0  0  0  0  0  0  0  0  0  0  0  0
  145.8273  133.6800  150.5605 H   0  0  0  0  0  0  0  0  0  0  0  0
  144.7401  134.7199  151.4769 H   0  0  0  0  0  0  0  0  0  0  0  0
  147.4351  134.5559  152.2757 H   0  0  0  0  0  0  0  0  0  0  0  0
  146.0707  136.4002  153.1252 H   0  0  0  0  0  0  0  0  0  0  0  0
  145.1181  135.2882  154.1768 H   0  0  0  0  0  0  0  0  0  0  0  0
  146.9137  135.5709  155.7807 H   0  0  0  0  0  0  0  0  0  0  0  0
  148.7065  136.1393  153.4029 H   0  0  0  0  0  0  0  0  0  0  0  0
  150.9450  137.1810  154.1702 H   0  0  0  0  0  0  0  0  0  0  0  0
  149.8121  138.3765  153.6298 H   0  0  0  0  0  0  0  0  0  0  0  0
  148.9425  139.8970  155.5266 H   0  0  0  0  0  0  0  0  0  0  0  0
  149.7665  141.6311  157.1108 H   0  0  0  0  0  0  0  0  0  0  0  0
  147.0328  133.0694  156.3475 H   0  0  0  0  0  0  0  0  0  0  0  0
  145.5914  133.2560  155.4038 H   0  0  0  0  0  0  0  0  0  0  0  0
  146.2032  130.8715  155.7006 H   0  0  0  0  0  0  0  0  0  0  0  0
  146.1607  131.3039  154.0155 H   0  0  0  0  0  0  0  0  0  0  0  0
  148.6471  130.9937  155.7508 H   0  0  0  0  0  0  0  0  0  0  0  0
  148.1689  129.9686  154.4179 H   0  0  0  0  0  0  0  0  0  0  0  0
  149.9605  131.5866  153.7548 H   0  0  0  0  0  0  0  0  0  0  0  0
  148.5064  131.8172  152.8123 H   0  0  0  0  0  0  0  0  0  0  0  0
  149.4333  133.9690  153.5676 H   0  0  0  0  0  0  0  0  0  0  0  0
  149.3626  133.4763  155.2325 H   0  0  0  0  0  0  0  0  0  0  0  0
  1  2  1  0  0  0  0
  1 25  1  0  0  0  0
  1 26  1  0  0  0  0
  1 27  1  0  0  0  0
  2  3  1  0  0  0  0
  2 28  1  0  0  0  0
  2 29  1  0  0  0  0
  3  4  1  0  0  0  0
  4 19  1  0  0  0  0
  4  5  1  0  0  0  0
  4 30  1  0  0  0  0
  5  6  1  0  0  0  0
  5 31  1  0  0  0  0
  5 32  1  0  0  0  0
  6  7  1  0  0  0  0
  6 19  1  0  0  0  0
  6 33  1  0  0  0  0
  7  8  1  0  0  0  0
  7 34  1  0  0  0  0
  8  9  2  0  0  0  0
  8 10  1  0  0  0  0
 10 11  1  0  0  0  0
 10 35  1  0  0  0  0
 10 36  1  0  0  0  0
 11 17  1  0  0  0  0
 11 12  1  0  0  0  0
 12 13  2  0  0  0  0
 12 37  1  0  0  0  0
 13 14  1  0  0  0  0
 13 38  1  0  0  0  0
 14 15  2  0  0  0  0
 14 16  1  0  0  0  0
 16 17  1  0  0  0  0
 17 18  2  0  0  0  0
 19 24  1  0  0  0  0
 19 20  1  0  0  0  0
 20 21  1  0  0  0  0
 20 39  1  0  0  0  0
 20 40  1  0  0  0  0
 21 22  1  0  0  0  0
 21 41  1  0  0  0  0
 21 42  1  0  0  0  0
 22 23  1  0  0  0  0
 22 43  1  0  0  0  0
 22 44  1  0  0  0  0
 23 24  1  0  0  0  0
 23 45  1  0  0  0  0
 23 46  1  0  0  0  0
 24 47  1  0  0  0  0
 24 48  1  0  0  0  0
M  CHG  1  16  -1
M  END
> <s_m_source_file>
AV-unprocessed.smi

> <i_m_source_file_index>
701

> <i_lp_mmshare_version>
43012

> <i_f3d_flags>
0

> <s_epik_input>
W0NIMl0xW0NIMl1bQ0gyXVtDSDJdW0NIMl1DMTJbQ0BIXShPW0NIMl1bQ0gzXSlbQ0gyXVtDQEhdMltOSF1DKD1PKVtDSDJdbjNbY0hdW2NIXWMoPU8pW25IXWMzPU8=

> <s_epik_cmdline>
J2VwaWtfcHl0aG9uJywgJy1waCcsICc3LjAnLCAnLXRuJywgJzgnLCAnLW1hJywgJzIwMCcsICctbWV0YWxfYmluZGluZycsICctaW1hZScsICc8aW5maWxlLm1hZT4nLCAnLW9tYWUnLCAnPG91dGZpbGUubWFlPic=

> <r_lp_tautomer_probability>
0.999537

> <r_epik_Ionization_Penalty>
3.12423

> <r_epik_Ionization_Penalty_Charging>
2.92877e-08

> <r_epik_Ionization_Penalty_Neutral>
3.12423

> <r_epik_State_Penalty>
3.12332

> <r_epik_Charging_Adjusted_Penalty>
3.12332

> <i_epik_Tot_Q>
-1

> <i_epik_Tot_abs_Q>
1

> <r_epik_Metal_State_Penalty>
0.463873

> <b_epik_Metal_Only>
1

> <s_lp_Force_Field>
OPLS_2005

> <r_lp_Energy>
37.69

> <b_lp_Chiralities_Consistent>
1

> <s_lp_Variant>
AV-unprocessed.smi:701-8

> <Gold.Version>
5.8.1

> <Gold.Id.Protein>
6NUR|6NUR_protein|mol2

> <Gold.PLP.Fitness>
37.9985

> <Gold.PLP.PLP>
-28.2306

> <Gold.PLP.part.hbond>
-3.0078

> <Gold.PLP.part.metal>
0.0000

> <Gold.PLP.part.buried>
-3.5505

> <Gold.PLP.part.nonpolar>
-22.1170

> <Gold.PLP.part.repulsive>
0.1384

> <Gold.PLP.ligand.clash>
0.0000

> <Gold.PLP.ligand.torsion>
0.2227

> <Gold.PLP.Chemscore.Hbond>
3.2933

> <Gold.PLP.Chemscore.CHOScore>
0.0000

> <Gold.PLP.Chemscore.Metal>
0.0000

> <Gold.Chemscore.Hbonds>
donor molecule, donor type, donor heavy atom, donor atom, acceptor molecule, acceptor atom, score
      L1  H     7    34       P1  7948  1.00
      P1  H  7997  8010       L1    16  2.00
      P1  H 10752 10764       L1    18  0.08

> <Gold.PLP.Chemscore.Internal.Correction>
0.3335

> <Gold.Rescore>
     Score         DG    S(hbond)    S(metal)    S(lipo)     H(rot)  DE(clash)    DE(int)     intcor
     12.09     -13.46       1.91        0.00      58.30       2.04       0.00       1.37       ----

> <Gold.Chemscore.Fitness>
12.0888

> <Gold.Chemscore.DG>
-13.4617

> <Gold.Chemscore.ZeroCoef>
-5.4800

> <Gold.Chemscore.Hbond>
1.9110

> <Gold.Chemscore.Metal>
0.0000

> <Gold.Chemscore.Lipo>
58.3013

> <Gold.Chemscore.Internal_Hbond>
0.0000

> <Gold.Chemscore.DEClash>
0.0000

> <Gold.Chemscore.DEInternal>
1.3730

> <Gold.Chemscore.Rot>
2.0399

> <Gold.Chemscore.Internal.Correction>
   9.000000E+99

> <Gold.Chemscore.Hbonds>
donor molecule, donor type, donor heavy atom, donor atom, acceptor molecule, acceptor atom, score
      L1  H     7    34       P1  7948  0.95
      P1  H  7997  8010       L1    16  0.72
      P1  H 10752 10764       L1    18  0.09

> <Gold.Chemscore.Hbond.Weighted>
-6.3826

> <Gold.Chemscore.Metal.Weighted>
-0.0000

> <Gold.Chemscore.Lipo.Weighted>
-6.8212

> <Gold.Chemscore.Internal_Hbond.Weighted>
0.0000

> <Gold.Chemscore.DEClash.Weighted>
0.0000

> <Gold.Chemscore.DEInternal.Weighted>
1.3730

> <Gold.Chemscore.Rot.Weighted>
5.2222

> <Gold.Chemscore.Internal.Correction.Weighted>
   9.000000E+99

> <Gold.Protein.RotatedTorsions>
[ 6907 6896 6895 6894 ] final   56.24 input  -60.11 | X-H torsion
[ 7974 7965 7964 7962 ] final  133.70 input  175.53 | X-H torsion
[ 8008 7997 7996 7995 ] final   72.65 input   59.86 | X-H torsion
[ 10167 10162 10161 10158 ] final  -79.57 input  -65.29 | X-H torsion
[ 10718 10713 10712 10709 ] final -120.98 input   66.30 | X-H torsion
[ 10763 10752 10751 10750 ] final  -44.51 input  -60.55 | X-H torsion
[ 11005 11000 10999 10996 ] final -145.59 input  -57.11 | X-H torsion

> <Gold.Protein.ActiveResidues>
 VAL166  LYS551  ARG553  GLY616  TRP617  ASP618  TYR619  PRO620  LYS621  CYS622 
 ASP623  PHE694  ASN695  SER759  ASP760  ASP761  ALA762  ILE779  LEU786  VAL792 
 PHE793  MET794  SER795  GLU796  ALA797  LYS798  CYS799  TRP800  GLU811  SER814 

> <Gold.Protein.RotatedAtoms>
  152.3617  134.6863  160.0204 H   0  0  0  0  0  0  0  0  0  0  0  0  # atno 6907 bound_to 6896
  151.7184  133.3308  159.3317 H   0  0  0  0  0  0  0  0  0  0  0  0  # atno 6908 bound_to 6896
  150.7609  134.6404  159.6278 H   0  0  0  0  0  0  0  0  0  0  0  0  # atno 6909 bound_to 6896
  144.9838  139.4476  143.5373 H   0  0  0  0  0  0  0  0  0  0  0  0  # atno 7974 bound_to 7965
  155.7719  140.3484  155.5251 H   0  0  0  0  0  0  0  0  0  0  0  0  # atno 8008 bound_to 7997
  155.8813  140.1002  157.1504 H   0  0  0  0  0  0  0  0  0  0  0  0  # atno 8009 bound_to 7997
  154.4025  140.1322  156.4187 H   0  0  0  0  0  0  0  0  0  0  0  0  # atno 8010 bound_to 7997
  140.4581  143.2462  151.8390 H   0  0  0  0  0  0  0  0  0  0  0  0  # atno 10167 bound_to 10162
  156.1301  130.6388  150.9606 H   0  0  0  0  0  0  0  0  0  0  0  0  # atno 10718 bound_to 10713
  154.0132  135.6679  153.4767 H   0  0  0  0  0  0  0  0  0  0  0  0  # atno 10763 bound_to 10752
  153.0612  135.5027  154.8093 H   0  0  0  0  0  0  0  0  0  0  0  0  # atno 10764 bound_to 10752
  154.6983  135.3074  154.9343 H   0  0  0  0  0  0  0  0  0  0  0  0  # atno 10765 bound_to 10752
  140.7907  134.2972  157.5014 H   0  0  0  0  0  0  0  0  0  0  0  0  # atno 11005 bound_to 11000
  146.3415  139.9128  142.8778 LP  0  0  0  0  0  0  0  0  0  0  0  0  # atno 17320 bound_to 7965
  145.2382  140.9999  143.3951 LP  0  0  0  0  0  0  0  0  0  0  0  0  # atno 17321 bound_to 7965
  139.4803  144.5041  151.9021 LP  0  0  0  0  0  0  0  0  0  0  0  0  # atno 17342 bound_to 10162
  140.4127  144.2348  150.5888 LP  0  0  0  0  0  0  0  0  0  0  0  0  # atno 17343 bound_to 10162
  157.6479  131.0901  150.8113 LP  0  0  0  0  0  0  0  0  0  0  0  0  # atno 17370 bound_to 10713
  156.8199  130.4980  149.5344 LP  0  0  0  0  0  0  0  0  0  0  0  0  # atno 17371 bound_to 10713
  139.8731  134.9372  156.3682 LP  0  0  0  0  0  0  0  0  0  0  0  0  # atno 17394 bound_to 11000
  140.9393  133.7526  156.0125 LP  0  0  0  0  0  0  0  0  0  0  0  0  # atno 17395 bound_to 11000

$$$$
