AV-unprocessed.smi:2822|AV-procd|sdf|10883|dock2
  -GOLD-   2272015323D 1   1.00000     0.00000
 Structure written by MMmdl.
 39 41  0  0  0  0  0  0  0  0  1 V2000
  146.9590  141.9560  157.6614 Cl  0  0  0  0  0  0  0  0  0  0  0  0
  147.2508  141.7279  155.9722 C   0  0  0  0  0  0  0  0  0  0  0  0
  146.2897  142.1559  155.0335 C   0  0  0  0  0  0  0  0  0  0  0  0
  146.4379  142.0162  153.6994 N   0  0  0  0  0  0  0  0  0  0  0  0
  147.5705  141.4352  153.2518 C   0  0  0  0  0  0  0  0  0  0  0  0
  148.5944  140.9727  154.1023 C   0  0  0  0  0  0  0  0  0  0  0  0
  148.4373  141.1197  155.5010 C   0  0  0  0  0  0  0  0  0  0  0  0
  149.4052  140.6846  156.4193 N   0  0  0  0  0  0  0  0  0  0  0  0
  150.8162  140.6640  156.0657 C   0  0  0  0  0  0  0  0  0  0  0  0
  151.6782  141.3414  157.1397 C   0  0  1  0  0  0  0  0  0  0  0  0
  151.0044  142.6132  157.6879 C   0  0  0  0  0  0  0  0  0  0  0  0
  151.7753  143.2182  158.7668 N   0  0  0  0  0  0  0  0  0  0  0  0
  151.1161  144.4167  159.2833 C   0  0  0  0  0  0  0  0  0  0  0  0
  151.9252  145.0955  160.4001 C   0  0  0  0  0  0  0  0  0  0  0  0
  152.1955  144.1039  161.5405 C   0  0  0  0  0  0  0  0  0  0  0  0
  152.8385  142.8237  160.9849 C   0  0  0  0  0  0  0  0  0  0  0  0
  151.9955  142.2372  159.8337 C   0  0  2  0  0  0  0  0  0  0  0  0
  152.6498  140.9571  159.2757 C   0  0  0  0  0  0  0  0  0  0  0  0
  151.8549  140.4275  158.2194 O   0  0  0  0  0  0  0  0  0  0  0  0
  145.3741  142.6247  155.3631 H   0  0  0  0  0  0  0  0  0  0  0  0
  147.6644  141.3340  152.1807 H   0  0  0  0  0  0  0  0  0  0  0  0
  149.4723  140.5164  153.6707 H   0  0  0  0  0  0  0  0  0  0  0  0
  149.1520  140.5845  157.3921 H   0  0  0  0  0  0  0  0  0  0  0  0
  151.1281  139.6248  155.9564 H   0  0  0  0  0  0  0  0  0  0  0  0
  150.9649  141.1522  155.1015 H   0  0  0  0  0  0  0  0  0  0  0  0
  152.6509  141.6013  156.7168 H   0  0  0  0  0  0  0  0  0  0  0  0
  150.8788  143.3342  156.8791 H   0  0  0  0  0  0  0  0  0  0  0  0
  150.0025  142.3671  158.0436 H   0  0  0  0  0  0  0  0  0  0  0  0
  150.9635  145.1290  158.4717 H   0  0  0  0  0  0  0  0  0  0  0  0
  150.1243  144.1609  159.6595 H   0  0  0  0  0  0  0  0  0  0  0  0
  152.8707  145.4608  159.9972 H   0  0  0  0  0  0  0  0  0  0  0  0
  151.3890  145.9665  160.7778 H   0  0  0  0  0  0  0  0  0  0  0  0
  152.8408  144.5572  162.2934 H   0  0  0  0  0  0  0  0  0  0  0  0
  151.2579  143.8558  162.0394 H   0  0  0  0  0  0  0  0  0  0  0  0
  153.8447  143.0479  160.6280 H   0  0  0  0  0  0  0  0  0  0  0  0
  152.9488  142.0904  161.7846 H   0  0  0  0  0  0  0  0  0  0  0  0
  151.0257  141.9532  160.2459 H   0  0  0  0  0  0  0  0  0  0  0  0
  153.6582  141.1601  158.9109 H   0  0  0  0  0  0  0  0  0  0  0  0
  152.7391  140.2029  160.0577 H   0  0  0  0  0  0  0  0  0  0  0  0
  1  2  1  0  0  0  0
  2  7  1  0  0  0  0
  2  3  2  0  0  0  0
  3  4  1  0  0  0  0
  3 20  1  0  0  0  0
  4  5  2  0  0  0  0
  5  6  1  0  0  0  0
  5 21  1  0  0  0  0
  6  7  2  0  0  0  0
  6 22  1  0  0  0  0
  7  8  1  0  0  0  0
  8  9  1  0  0  0  0
  8 23  1  0  0  0  0
  9 10  1  0  0  0  0
  9 24  1  0  0  0  0
  9 25  1  0  0  0  0
 10 19  1  0  0  0  0
 10 11  1  0  0  0  0
 10 26  1  0  0  0  0
 11 12  1  0  0  0  0
 11 27  1  0  0  0  0
 11 28  1  0  0  0  0
 12 17  1  0  0  0  0
 12 13  1  0  0  0  0
 13 14  1  0  0  0  0
 13 29  1  0  0  0  0
 13 30  1  0  0  0  0
 14 15  1  0  0  0  0
 14 31  1  0  0  0  0
 14 32  1  0  0  0  0
 15 16  1  0  0  0  0
 15 33  1  0  0  0  0
 15 34  1  0  0  0  0
 16 17  1  0  0  0  0
 16 35  1  0  0  0  0
 16 36  1  0  0  0  0
 17 18  1  0  0  0  0
 17 37  1  0  0  0  0
 18 19  1  0  0  0  0
 18 38  1  0  0  0  0
 18 39  1  0  0  0  0
M  END
> <s_m_source_file>
AV-unprocessed.smi

> <i_m_source_file_index>
2822

> <i_lp_mmshare_version>
43012

> <i_f3d_flags>
0

> <s_epik_input>
Q2xjMVtjSF1uW2NIXVtjSF1jMVtOSF1bQ0gyXVtDQEhdKFtDSDJdMilPW0NIMl1bQ0BASF0oTjIzKVtDSDJdW0NIMl1bQ0gyXVtDSDJdMw==

> <s_epik_cmdline>
J2VwaWtfcHl0aG9uJywgJy1waCcsICc3LjAnLCAnLXRuJywgJzgnLCAnLW1hJywgJzIwMCcsICctbWV0YWxfYmluZGluZycsICctaW1hZScsICc8aW5maWxlLm1hZT4nLCAnLW9tYWUnLCAnPG91dGZpbGUubWFlPic=

> <r_lp_tautomer_probability>
0.999999

> <r_epik_Ionization_Penalty>
2.10064

> <r_epik_Ionization_Penalty_Charging>
0

> <r_epik_Ionization_Penalty_Neutral>
2.10064

> <r_epik_State_Penalty>
2.1757

> <r_epik_Charging_Adjusted_Penalty>
2.1757

> <i_epik_Tot_Q>
0

> <i_epik_Tot_abs_Q>
0

> <r_epik_Metal_State_Penalty>
1.25425

> <b_epik_Metal_Only>
0

> <s_lp_Force_Field>
OPLS_2005

> <r_lp_Energy>
37.6932

> <b_lp_Chiralities_Consistent>
1

> <s_lp_Variant>
AV-unprocessed.smi:2822-24

> <Gold.Version>
5.8.1

> <Gold.Id.Protein>
6NUR|6NUR_protein|mol2

> <Gold.PLP.Fitness>
39.8781

> <Gold.PLP.PLP>
-38.1859

> <Gold.PLP.part.hbond>
0.0000

> <Gold.PLP.part.metal>
0.0000

> <Gold.PLP.part.buried>
-7.0128

> <Gold.PLP.part.nonpolar>
-31.6224

> <Gold.PLP.part.repulsive>
0.2519

> <Gold.PLP.ligand.clash>
0.0000

> <Gold.PLP.ligand.torsion>
0.4133

> <Gold.PLP.Chemscore.Hbond>
0.0000

> <Gold.PLP.Chemscore.CHOScore>
0.8377

> <Gold.PLP.Chemscore.Metal>
0.0000

> <Gold.Chemscore.Hbonds>
donor molecule, donor type, donor heavy atom, donor atom, acceptor molecule, acceptor atom, score
      L1  C     5    21       P1  7957  0.84

> <Gold.PLP.Chemscore.Internal.Correction>
0.0056

> <Gold.Rescore>
     Score         DG    S(hbond)    S(metal)    S(lipo)     H(rot)  DE(clash)    DE(int)     intcor
     15.29     -15.95       0.00        0.00     114.68       1.15       0.28       0.38       ----

> <Gold.Chemscore.Fitness>
15.2877

> <Gold.Chemscore.DG>
-15.9491

> <Gold.Chemscore.ZeroCoef>
-5.4800

> <Gold.Chemscore.Hbond>
0.0000

> <Gold.Chemscore.Metal>
0.0000

> <Gold.Chemscore.Lipo>
114.6827

> <Gold.Chemscore.Internal_Hbond>
0.0000

> <Gold.Chemscore.DEClash>
0.2779

> <Gold.Chemscore.DEInternal>
0.3835

> <Gold.Chemscore.Rot>
1.1519

> <Gold.Chemscore.Internal.Correction>
   9.000000E+99

> <Gold.Chemscore.Hbond.Weighted>
-0.0000

> <Gold.Chemscore.Metal.Weighted>
-0.0000

> <Gold.Chemscore.Lipo.Weighted>
-13.4179

> <Gold.Chemscore.Internal_Hbond.Weighted>
0.0000

> <Gold.Chemscore.DEClash.Weighted>
0.2779

> <Gold.Chemscore.DEInternal.Weighted>
0.3835

> <Gold.Chemscore.Rot.Weighted>
2.9487

> <Gold.Chemscore.Internal.Correction.Weighted>
   9.000000E+99

> <Gold.Protein.RotatedTorsions>
[ 6907 6896 6895 6894 ] final  174.51 input  -60.11 | X-H torsion
[ 7974 7965 7964 7962 ] final  -58.82 input  175.53 | X-H torsion
[ 8008 7997 7996 7995 ] final  -70.62 input   59.86 | X-H torsion
[ 10167 10162 10161 10158 ] final -160.63 input  -65.29 | X-H torsion
[ 10718 10713 10712 10709 ] final    7.48 input   66.30 | X-H torsion
[ 10763 10752 10751 10750 ] final -137.44 input  -60.55 | X-H torsion
[ 11005 11000 10999 10996 ] final   60.67 input  -57.11 | X-H torsion

> <Gold.Protein.ActiveResidues>
 VAL166  LYS551  ARG553  GLY616  TRP617  ASP618  TYR619  PRO620  LYS621  CYS622 
 ASP623  PHE694  ASN695  SER759  ASP760  ASP761  ALA762  ILE779  LEU786  VAL792 
 PHE793  MET794  SER795  GLU796  ALA797  LYS798  CYS799  TRP800  GLU811  SER814 

> <Gold.Protein.RotatedAtoms>
  151.7511  133.3327  159.3391 H   0  0  0  0  0  0  0  0  0  0  0  0  # atno 6907 bound_to 6896
  150.7535  134.6191  159.6136 H   0  0  0  0  0  0  0  0  0  0  0  0  # atno 6908 bound_to 6896
  152.3467  134.7063  160.0300 H   0  0  0  0  0  0  0  0  0  0  0  0  # atno 6909 bound_to 6896
  145.8348  140.8456  143.0065 H   0  0  0  0  0  0  0  0  0  0  0  0  # atno 7974 bound_to 7965
  154.5026  140.0831  156.7828 H   0  0  0  0  0  0  0  0  0  0  0  0  # atno 8008 bound_to 7997
  155.3968  140.3435  155.4236 H   0  0  0  0  0  0  0  0  0  0  0  0  # atno 8009 bound_to 7997
  156.1475  140.1548  156.8810 H   0  0  0  0  0  0  0  0  0  0  0  0  # atno 8010 bound_to 7997
  139.6525  144.0058  152.2171 H   0  0  0  0  0  0  0  0  0  0  0  0  # atno 10167 bound_to 10162
  156.9375  130.5849  149.5651 H   0  0  0  0  0  0  0  0  0  0  0  0  # atno 10718 bound_to 10713
  154.8661  135.3642  154.5224 H   0  0  0  0  0  0  0  0  0  0  0  0  # atno 10763 bound_to 10752
  153.5853  135.7017  153.5451 H   0  0  0  0  0  0  0  0  0  0  0  0  # atno 10764 bound_to 10752
  153.3421  135.4095  155.1542 H   0  0  0  0  0  0  0  0  0  0  0  0  # atno 10765 bound_to 10752
  140.0215  134.6145  155.9632 H   0  0  0  0  0  0  0  0  0  0  0  0  # atno 11005 bound_to 11000
  144.6737  140.0726  143.7472 LP  0  0  0  0  0  0  0  0  0  0  0  0  # atno 17320 bound_to 7965
  145.9530  139.2747  143.1201 LP  0  0  0  0  0  0  0  0  0  0  0  0  # atno 17321 bound_to 7965
  139.9776  144.6450  150.7930 LP  0  0  0  0  0  0  0  0  0  0  0  0  # atno 17342 bound_to 10162
  140.7544  143.3026  151.3041 LP  0  0  0  0  0  0  0  0  0  0  0  0  # atno 17343 bound_to 10162
  156.0419  130.5500  150.8791 LP  0  0  0  0  0  0  0  0  0  0  0  0  # atno 17370 bound_to 10713
  157.5806  131.0946  150.9276 LP  0  0  0  0  0  0  0  0  0  0  0  0  # atno 17371 bound_to 10713
  141.1777  133.6542  156.4893 LP  0  0  0  0  0  0  0  0  0  0  0  0  # atno 17394 bound_to 11000
  140.4379  134.7043  157.4976 LP  0  0  0  0  0  0  0  0  0  0  0  0  # atno 17395 bound_to 11000

$$$$
