AV-unprocessed.smi:1394|AV-procd|sdf|5666|dock4
  -GOLD-   22720 5293D 1   1.00000     0.00000
 Structure written by MMmdl.
 41 42  0  0  0  0  0  0  0  0  1 V2000
  150.8708  138.1495  154.2393 C   0  0  0  0  0  0  0  0  0  0  0  0
  150.3551  139.5674  154.5382 C   0  0  1  0  0  0  0  0  0  0  0  0
  148.8471  139.5644  154.8631 C   0  0  0  0  0  0  0  0  0  0  0  0
  148.3159  140.9879  155.0949 C   0  0  0  0  0  0  0  0  0  0  0  0
  149.1077  141.7065  156.1973 C   0  0  0  0  0  0  0  0  0  0  0  0
  150.6143  141.7155  155.8858 C   0  0  0  0  0  0  0  0  0  0  0  0
  151.1693  140.2980  155.6377 C   0  0  1  0  0  0  0  0  0  0  0  0
  151.1919  139.5493  156.8963 N   0  0  0  0  0  0  0  0  0  0  0  0
  152.2407  138.8822  157.4024 C   0  0  0  0  0  0  0  0  0  0  0  0
  153.3298  138.7994  156.8324 O   0  0  0  0  0  0  0  0  0  0  0  0
  152.0015  138.1912  158.7530 C   0  0  0  0  0  0  0  0  0  0  0  0
  152.8523  138.7106  159.8380 N   0  0  0  0  0  0  0  0  0  0  0  0
  153.1530  140.0840  159.8077 C   0  0  0  0  0  0  0  0  0  0  0  0
  153.9106  140.6616  160.7497 C   0  0  0  0  0  0  0  0  0  0  0  0
  154.4184  139.8355  161.8176 C   0  0  0  0  0  0  0  0  0  0  0  0
  154.1448  138.5114  161.8749 C   0  0  0  0  0  0  0  0  0  0  0  0
  154.6653  137.6251  163.0040 C   0  0  0  0  0  0  0  0  0  0  0  0
  153.6522  137.0852  163.6831 F   0  0  0  0  0  0  0  0  0  0  0  0
  155.4135  136.6355  162.5149 F   0  0  0  0  0  0  0  0  0  0  0  0
  155.4133  138.3131  163.8682 F   0  0  0  0  0  0  0  0  0  0  0  0
  153.3130  137.8838  160.8276 C   0  0  0  0  0  0  0  0  0  0  0  0
  153.0404  136.6821  160.8338 O   0  0  0  0  0  0  0  0  0  0  0  0
  150.7168  137.4768  155.0833 H   0  0  0  0  0  0  0  0  0  0  0  0
  151.9366  138.1601  154.0099 H   0  0  0  0  0  0  0  0  0  0  0  0
  150.3543  137.7205  153.3803 H   0  0  0  0  0  0  0  0  0  0  0  0
  150.4820  140.1413  153.6188 H   0  0  0  0  0  0  0  0  0  0  0  0
  148.2925  139.0995  154.0473 H   0  0  0  0  0  0  0  0  0  0  0  0
  148.6579  138.9553  155.7480 H   0  0  0  0  0  0  0  0  0  0  0  0
  148.3823  141.5578  154.1673 H   0  0  0  0  0  0  0  0  0  0  0  0
  147.2588  140.9518  155.3599 H   0  0  0  0  0  0  0  0  0  0  0  0
  148.7466  142.7294  156.3064 H   0  0  0  0  0  0  0  0  0  0  0  0
  148.9304  141.2154  157.1550 H   0  0  0  0  0  0  0  0  0  0  0  0
  150.7893  142.3271  154.9998 H   0  0  0  0  0  0  0  0  0  0  0  0
  151.1603  142.1982  156.6975 H   0  0  0  0  0  0  0  0  0  0  0  0
  152.1926  140.4165  155.2770 H   0  0  0  0  0  0  0  0  0  0  0  0
  150.3363  139.5505  157.4324 H   0  0  0  0  0  0  0  0  0  0  0  0
  150.9480  138.2874  159.0223 H   0  0  0  0  0  0  0  0  0  0  0  0
  152.1625  137.1205  158.6188 H   0  0  0  0  0  0  0  0  0  0  0  0
  152.7270  140.6327  158.9801 H   0  0  0  0  0  0  0  0  0  0  0  0
  154.1306  141.7185  160.7133 H   0  0  0  0  0  0  0  0  0  0  0  0
  155.0241  140.3002  162.5811 H   0  0  0  0  0  0  0  0  0  0  0  0
  1  2  1  0  0  0  0
  1 23  1  0  0  0  0
  1 24  1  0  0  0  0
  1 25  1  0  0  0  0
  2  7  1  0  0  0  0
  2  3  1  0  0  0  0
  2 26  1  0  0  0  0
  3  4  1  0  0  0  0
  3 27  1  0  0  0  0
  3 28  1  0  0  0  0
  4  5  1  0  0  0  0
  4 29  1  0  0  0  0
  4 30  1  0  0  0  0
  5  6  1  0  0  0  0
  5 31  1  0  0  0  0
  5 32  1  0  0  0  0
  6  7  1  0  0  0  0
  6 33  1  0  0  0  0
  6 34  1  0  0  0  0
  7  8  1  0  0  0  0
  7 35  1  0  0  0  0
  8  9  1  0  0  0  0
  8 36  1  0  0  0  0
  9 10  2  0  0  0  0
  9 11  1  0  0  0  0
 11 12  1  0  0  0  0
 11 37  1  0  0  0  0
 11 38  1  0  0  0  0
 12 21  1  0  0  0  0
 12 13  1  0  0  0  0
 13 14  2  0  0  0  0
 13 39  1  0  0  0  0
 14 15  1  0  0  0  0
 14 40  1  0  0  0  0
 15 16  2  0  0  0  0
 15 41  1  0  0  0  0
 16 17  1  0  0  0  0
 16 21  1  0  0  0  0
 17 18  1  0  0  0  0
 17 19  1  0  0  0  0
 17 20  1  0  0  0  0
 21 22  2  0  0  0  0
M  END
> <s_m_source_file>
AV-unprocessed.smi

> <i_m_source_file_index>
1394

> <i_lp_mmshare_version>
43012

> <i_f3d_flags>
0

> <s_epik_input>
W0NIM11bQ0BASF0xW0NIMl1bQ0gyXVtDSDJdW0NIMl1bQ0BIXTFbTkhdQyg9TylbQ0gyXW4yW2NIXVtjSF1bY0hdYyhDKEYpKEYpRiljMj1P

> <s_epik_cmdline>
J2VwaWtfcHl0aG9uJywgJy1waCcsICc3LjAnLCAnLXRuJywgJzgnLCAnLW1hJywgJzIwMCcsICctbWV0YWxfYmluZGluZycsICctaW1hZScsICc8aW5maWxlLm1hZT4nLCAnLW9tYWUnLCAnPG91dGZpbGUubWFlPic=

> <r_lp_tautomer_probability>
1

> <r_epik_Ionization_Penalty>
2.11487e-08

> <r_epik_Ionization_Penalty_Charging>
2.10183e-09

> <r_epik_Ionization_Penalty_Neutral>
1.90469e-08

> <r_epik_State_Penalty>
-0

> <r_epik_Charging_Adjusted_Penalty>
2.10183e-09

> <i_epik_Tot_Q>
0

> <i_epik_Tot_abs_Q>
0

> <r_epik_Metal_State_Penalty>
-0

> <b_epik_Metal_Only>
0

> <s_lp_Force_Field>
OPLS_2005

> <r_lp_Energy>
19.806

> <b_lp_Chiralities_Consistent>
1

> <s_lp_Variant>
AV-unprocessed.smi:1394-2

> <Gold.Version>
5.8.1

> <Gold.Id.Protein>
6NUR|6NUR_protein|mol2

> <Gold.PLP.Fitness>
43.6084

> <Gold.PLP.PLP>
-38.5403

> <Gold.PLP.part.hbond>
-1.8778

> <Gold.PLP.part.metal>
0.0000

> <Gold.PLP.part.buried>
-3.0002

> <Gold.PLP.part.nonpolar>
-33.9276

> <Gold.PLP.part.repulsive>
0.0632

> <Gold.PLP.ligand.clash>
0.3283

> <Gold.PLP.ligand.torsion>
0.4777

> <Gold.PLP.Chemscore.Hbond>
2.0000

> <Gold.PLP.Chemscore.CHOScore>
0.0000

> <Gold.PLP.Chemscore.Metal>
0.0000

> <Gold.Chemscore.Hbonds>
donor molecule, donor type, donor heavy atom, donor atom, acceptor molecule, acceptor atom, score
      P1  H  6896  6909       L1    22  0.93
      P1  H  7997  8009       L1    10  1.00

> <Gold.PLP.Chemscore.Internal.Correction>
0.3518

> <Gold.Rescore>
     Score         DG    S(hbond)    S(metal)    S(lipo)     H(rot)  DE(clash)    DE(int)     intcor
     15.41     -18.26       1.88        0.00      88.93       1.52       0.04       2.80       ----

> <Gold.Chemscore.Fitness>
15.4138

> <Gold.Chemscore.DG>
-18.2574

> <Gold.Chemscore.ZeroCoef>
-5.4800

> <Gold.Chemscore.Hbond>
1.8787

> <Gold.Chemscore.Metal>
0.0000

> <Gold.Chemscore.Lipo>
88.9270

> <Gold.Chemscore.Internal_Hbond>
0.0000

> <Gold.Chemscore.DEClash>
0.0432

> <Gold.Chemscore.DEInternal>
2.8004

> <Gold.Chemscore.Rot>
1.5242

> <Gold.Chemscore.Internal.Correction>
   9.000000E+99

> <Gold.Chemscore.Hbonds>
donor molecule, donor type, donor heavy atom, donor atom, acceptor molecule, acceptor atom, score
      P1  H  6896  6909       L1    22  0.88
      P1  H  7997  8009       L1    10  0.98

> <Gold.Chemscore.Hbond.Weighted>
-6.2748

> <Gold.Chemscore.Metal.Weighted>
-0.0000

> <Gold.Chemscore.Lipo.Weighted>
-10.4045

> <Gold.Chemscore.Internal_Hbond.Weighted>
0.0000

> <Gold.Chemscore.DEClash.Weighted>
0.0432

> <Gold.Chemscore.DEInternal.Weighted>
2.8004

> <Gold.Chemscore.Rot.Weighted>
3.9019

> <Gold.Chemscore.Internal.Correction.Weighted>
   9.000000E+99

> <Gold.Protein.RotatedTorsions>
[ 6907 6896 6895 6894 ] final  154.74 input  -60.11 | X-H torsion
[ 7974 7965 7964 7962 ] final  -20.40 input  175.53 | X-H torsion
[ 8008 7997 7996 7995 ] final  177.63 input   59.86 | X-H torsion
[ 10167 10162 10161 10158 ] final  103.31 input  -65.29 | X-H torsion
[ 10718 10713 10712 10709 ] final   19.03 input   66.30 | X-H torsion
[ 10763 10752 10751 10750 ] final   40.14 input  -60.55 | X-H torsion
[ 11005 11000 10999 10996 ] final  165.98 input  -57.11 | X-H torsion

> <Gold.Protein.ActiveResidues>
 VAL166  LYS551  ARG553  GLY616  TRP617  ASP618  TYR619  PRO620  LYS621  CYS622 
 ASP623  PHE694  ASN695  SER759  ASP760  ASP761  ALA762  ILE779  LEU786  VAL792 
 PHE793  MET794  SER795  GLU796  ALA797  LYS798  CYS799  TRP800  GLU811  SER814 

> <Gold.Protein.RotatedAtoms>
  152.0541  133.4032  159.4389 H   0  0  0  0  0  0  0  0  0  0  0  0  # atno 6907 bound_to 6896
  150.6869  134.3274  159.4821 H   0  0  0  0  0  0  0  0  0  0  0  0  # atno 6908 bound_to 6896
  152.1087  134.9289  160.0618 H   0  0  0  0  0  0  0  0  0  0  0  0  # atno 6909 bound_to 6896
  146.1790  140.4196  142.8502 H   0  0  0  0  0  0  0  0  0  0  0  0  # atno 7974 bound_to 7965
  156.0636  140.1353  156.9912 H   0  0  0  0  0  0  0  0  0  0  0  0  # atno 8008 bound_to 7997
  154.4494  140.0986  156.6624 H   0  0  0  0  0  0  0  0  0  0  0  0  # atno 8009 bound_to 7997
  155.5339  140.3459  155.4434 H   0  0  0  0  0  0  0  0  0  0  0  0  # atno 8010 bound_to 7997
  139.7274  144.7044  151.0776 H   0  0  0  0  0  0  0  0  0  0  0  0  # atno 10167 bound_to 10162
  157.1047  130.6483  149.5881 H   0  0  0  0  0  0  0  0  0  0  0  0  # atno 10718 bound_to 10713
  152.9945  135.6200  154.2578 H   0  0  0  0  0  0  0  0  0  0  0  0  # atno 10763 bound_to 10752
  154.2315  135.2792  155.2890 H   0  0  0  0  0  0  0  0  0  0  0  0  # atno 10764 bound_to 10752
  154.5446  135.5751  153.6926 H   0  0  0  0  0  0  0  0  0  0  0  0  # atno 10765 bound_to 10752
  140.2617  134.7897  157.3596 H   0  0  0  0  0  0  0  0  0  0  0  0  # atno 11005 bound_to 11000
  144.8284  140.6666  143.6307 LP  0  0  0  0  0  0  0  0  0  0  0  0  # atno 17320 bound_to 7965
  145.4130  139.1577  143.4115 LP  0  0  0  0  0  0  0  0  0  0  0  0  # atno 17321 bound_to 7965
  140.7765  143.5088  150.9679 LP  0  0  0  0  0  0  0  0  0  0  0  0  # atno 17342 bound_to 10162
  139.8775  143.7114  152.3160 LP  0  0  0  0  0  0  0  0  0  0  0  0  # atno 17343 bound_to 10162
  155.9865  130.4900  150.7081 LP  0  0  0  0  0  0  0  0  0  0  0  0  # atno 17370 bound_to 10713
  157.4611  131.0883  151.0745 LP  0  0  0  0  0  0  0  0  0  0  0  0  # atno 17371 bound_to 10713
  140.1458  134.4913  155.7997 LP  0  0  0  0  0  0  0  0  0  0  0  0  # atno 17394 bound_to 11000
  141.2189  133.6843  156.7291 LP  0  0  0  0  0  0  0  0  0  0  0  0  # atno 17395 bound_to 11000

$$$$
