AV-unprocessed.smi:2078|AV-procd|sdf|8469|dock5
  -GOLD-   2272011173D 1   1.00000     0.00000
 Structure written by MMmdl.
 41 42  0  0  0  0  0  0  0  0  3 V2000
  151.5352  141.4859  155.1842 C   0  0  0  0  0  0  0  0  0  0  0  0
  151.7972  140.0263  155.0371 C   0  0  0  0  0  0  0  0  0  0  0  0
  151.0068  138.9734  154.6727 C   0  0  0  0  0  0  0  0  0  0  0  0
  151.8914  137.8630  154.7456 C   0  0  0  0  0  0  0  0  0  0  0  0
  151.5847  136.5877  154.4620 N   0  5  0  0  0  0  0  0  0  0  0  0
  150.6513  135.9333  155.1890 C   0  0  0  0  0  0  0  0  0  0  0  0
  150.7670  135.5491  156.3554 O   0  0  0  0  0  0  0  0  0  0  0  0
  149.5117  135.7044  154.5208 N   0  0  0  0  0  0  0  0  0  0  0  0
  148.3443  135.0079  155.0468 C   0  0  0  0  0  0  0  0  0  0  0  0
  147.7279  134.0718  153.9902 C   0  0  0  0  0  0  0  0  0  0  0  0
  147.0765  134.8193  152.8865 N   0  3  1  0  0  0  0  0  0  0  0  0
  146.4154  133.9149  151.9110 C   0  0  0  0  0  0  0  0  0  0  0  0
  145.8854  134.6983  150.6999 C   0  0  0  0  0  0  0  0  0  0  0  0
  144.9349  135.8199  151.1423 C   0  0  0  0  0  0  0  0  0  0  0  0
  145.5928  136.7245  152.2006 C   0  0  2  0  0  0  0  0  0  0  0  0
  146.6571  137.6631  151.6055 C   0  0  0  0  0  0  0  0  0  0  0  0
  146.1475  135.8792  153.3660 C   0  0  0  0  0  0  0  0  0  0  0  0
  153.1141  138.2133  155.1072 N   0  0  0  0  0  0  0  0  0  0  0  0
  153.0612  139.5989  155.3002 O   0  0  0  0  0  0  0  0  0  0  0  0
  151.5671  141.9822  154.2141 H   0  0  0  0  0  0  0  0  0  0  0  0
  152.2784  141.9546  155.8297 H   0  0  0  0  0  0  0  0  0  0  0  0
  150.5520  141.6597  155.6216 H   0  0  0  0  0  0  0  0  0  0  0  0
  149.9624  138.9928  154.4000 H   0  0  0  0  0  0  0  0  0  0  0  0
  149.4584  136.0376  153.5691 H   0  0  0  0  0  0  0  0  0  0  0  0
  148.6292  134.4685  155.9504 H   0  0  0  0  0  0  0  0  0  0  0  0
  147.6128  135.7569  155.3507 H   0  0  0  0  0  0  0  0  0  0  0  0
  148.5300  133.4530  153.5848 H   0  0  0  0  0  0  0  0  0  0  0  0
  147.0088  133.3845  154.4384 H   0  0  0  0  0  0  0  0  0  0  0  0
  147.1240  133.1622  151.5635 H   0  0  0  0  0  0  0  0  0  0  0  0
  145.6007  133.3809  152.4029 H   0  0  0  0  0  0  0  0  0  0  0  0
  146.7209  135.1164  150.1377 H   0  0  0  0  0  0  0  0  0  0  0  0
  145.3676  134.0224  150.0187 H   0  0  0  0  0  0  0  0  0  0  0  0
  144.6129  136.4068  150.2814 H   0  0  0  0  0  0  0  0  0  0  0  0
  144.0318  135.3750  151.5623 H   0  0  0  0  0  0  0  0  0  0  0  0
  144.8110  137.3673  152.6074 H   0  0  0  0  0  0  0  0  0  0  0  0
  147.5043  137.1128  151.1968 H   0  0  0  0  0  0  0  0  0  0  0  0
  147.0437  138.3445  152.3640 H   0  0  0  0  0  0  0  0  0  0  0  0
  146.2386  138.2721  150.8036 H   0  0  0  0  0  0  0  0  0  0  0  0
  145.3230  135.4098  153.9052 H   0  0  0  0  0  0  0  0  0  0  0  0
  146.6449  136.5354  154.0791 H   0  0  0  0  0  0  0  0  0  0  0  0
  147.8184  135.2832  152.3822 H   0  0  0  0  0  0  0  0  0  0  0  0
  1  2  1  0  0  0  0
  1 20  1  0  0  0  0
  1 21  1  0  0  0  0
  1 22  1  0  0  0  0
  2 19  1  0  0  0  0
  2  3  2  0  0  0  0
  3  4  1  0  0  0  0
  3 23  1  0  0  0  0
  4  5  1  0  0  0  0
  4 18  2  0  0  0  0
  5  6  1  0  0  0  0
  6  7  2  0  0  0  0
  6  8  1  0  0  0  0
  8  9  1  0  0  0  0
  8 24  1  0  0  0  0
  9 10  1  0  0  0  0
  9 25  1  0  0  0  0
  9 26  1  0  0  0  0
 10 11  1  0  0  0  0
 10 27  1  0  0  0  0
 10 28  1  0  0  0  0
 11 17  1  0  0  0  0
 11 12  1  0  0  0  0
 11 41  1  0  0  0  0
 12 13  1  0  0  0  0
 12 29  1  0  0  0  0
 12 30  1  0  0  0  0
 13 14  1  0  0  0  0
 13 31  1  0  0  0  0
 13 32  1  0  0  0  0
 14 15  1  0  0  0  0
 14 33  1  0  0  0  0
 14 34  1  0  0  0  0
 15 16  1  0  0  0  0
 15 17  1  0  0  0  0
 15 35  1  0  0  0  0
 16 36  1  0  0  0  0
 16 37  1  0  0  0  0
 16 38  1  0  0  0  0
 17 39  1  0  0  0  0
 17 40  1  0  0  0  0
 18 19  1  0  0  0  0
M  CHG  1   5  -1
M  CHG  1  11   1
M  END
> <s_m_source_file>
AV-unprocessed.smi

> <i_m_source_file_index>
2078

> <i_lp_mmshare_version>
43012

> <i_f3d_flags>
0

> <s_epik_input>
W0NIM11jMVtjSF1jKG5vMSlbTkhdQyg9TylbTkhdW0NIMl1bQ0gyXU4yW0NIMl1bQ0gyXVtDSDJdW0NAQEhdKFtDSDNdKVtDSDJdMg==

> <s_epik_cmdline>
J2VwaWtfcHl0aG9uJywgJy1waCcsICc3LjAnLCAnLXRuJywgJzgnLCAnLW1hJywgJzIwMCcsICctbWV0YWxfYmluZGluZycsICctaW1hZScsICc8aW5maWxlLm1hZT4nLCAnLW9tYWUnLCAnPG91dGZpbGUubWFlPic=

> <r_epik_Ionization_Penalty>
6.22434

> <r_epik_Ionization_Penalty_Charging>
6.22425

> <r_epik_Ionization_Penalty_Neutral>
9.37855e-05

> <r_epik_State_Penalty>
6.22423

> <r_epik_Charging_Adjusted_Penalty>
12.4485

> <i_epik_Tot_Q>
0

> <i_epik_Tot_abs_Q>
2

> <r_epik_Metal_State_Penalty>
2.16764

> <b_epik_Metal_Only>
1

> <s_lp_Force_Field>
OPLS_2005

> <r_lp_Energy>
5.82233

> <b_lp_Chiralities_Consistent>
1

> <s_lp_Variant>
AV-unprocessed.smi:2078-7

> <Gold.Version>
5.8.1

> <Gold.Id.Protein>
6NUR|6NUR_protein|mol2

> <Gold.PLP.Fitness>
46.3999

> <Gold.PLP.PLP>
-31.2176

> <Gold.PLP.part.hbond>
-4.0220

> <Gold.PLP.part.metal>
0.0000

> <Gold.PLP.part.buried>
-2.6538

> <Gold.PLP.part.nonpolar>
-23.8016

> <Gold.PLP.part.repulsive>
1.1419

> <Gold.PLP.ligand.clash>
0.0000

> <Gold.PLP.ligand.torsion>
1.4420

> <Gold.PLP.Chemscore.Hbond>
6.0000

> <Gold.PLP.Chemscore.CHOScore>
0.0000

> <Gold.PLP.Chemscore.Metal>
0.0000

> <Gold.Chemscore.Hbonds>
donor molecule, donor type, donor heavy atom, donor atom, acceptor molecule, acceptor atom, score
      L1  H     8    24       P1  7948  1.00
      L1  H    11    41       P1  7948  2.00
      P1  H  7997  8009       L1    19  1.00
      P1  H 10752 10763       L1     5  2.00

> <Gold.PLP.Chemscore.Internal.Correction>
0.0662

> <Gold.Rescore>
     Score         DG    S(hbond)    S(metal)    S(lipo)     H(rot)  DE(clash)    DE(int)     intcor
     16.74     -18.15       3.12        0.00      52.89       1.54       0.05       1.37       ----

> <Gold.Chemscore.Fitness>
16.7364

> <Gold.Chemscore.DG>
-18.1530

> <Gold.Chemscore.ZeroCoef>
-5.4800

> <Gold.Chemscore.Hbond>
3.1225

> <Gold.Chemscore.Metal>
0.0000

> <Gold.Chemscore.Lipo>
52.8920

> <Gold.Chemscore.Internal_Hbond>
0.0000

> <Gold.Chemscore.DEClash>
0.0478

> <Gold.Chemscore.DEInternal>
1.3688

> <Gold.Chemscore.Rot>
1.5409

> <Gold.Chemscore.Internal.Correction>
   9.000000E+99

> <Gold.Chemscore.Hbonds>
donor molecule, donor type, donor heavy atom, donor atom, acceptor molecule, acceptor atom, score
      L1  H     8    24       P1  7948  0.55
      L1  H    11    41       P1  7948  0.94
      P1  H  7997  8009       L1    19  0.82
      P1  H 10752 10763       L1     5  0.67

> <Gold.Chemscore.Hbond.Weighted>
-10.4293

> <Gold.Chemscore.Metal.Weighted>
-0.0000

> <Gold.Chemscore.Lipo.Weighted>
-6.1884

> <Gold.Chemscore.Internal_Hbond.Weighted>
0.0000

> <Gold.Chemscore.DEClash.Weighted>
0.0478

> <Gold.Chemscore.DEInternal.Weighted>
1.3688

> <Gold.Chemscore.Rot.Weighted>
3.9446

> <Gold.Chemscore.Internal.Correction.Weighted>
   9.000000E+99

> <Gold.Protein.RotatedTorsions>
[ 6907 6896 6895 6894 ] final  138.19 input  -60.11 | X-H torsion
[ 7974 7965 7964 7962 ] final -146.86 input  175.53 | X-H torsion
[ 8008 7997 7996 7995 ] final -132.08 input   59.86 | X-H torsion
[ 10167 10162 10161 10158 ] final -140.01 input  -65.29 | X-H torsion
[ 10718 10713 10712 10709 ] final  110.56 input   66.30 | X-H torsion
[ 10763 10752 10751 10750 ] final   37.51 input  -60.55 | X-H torsion
[ 11005 11000 10999 10996 ] final  -14.63 input  -57.11 | X-H torsion

> <Gold.Protein.ActiveResidues>
 VAL166  LYS551  ARG553  GLY616  TRP617  ASP618  TYR619  PRO620  LYS621  CYS622 
 ASP623  PHE694  ASN695  SER759  ASP760  ASP761  ALA762  ILE779  LEU786  VAL792 
 PHE793  MET794  SER795  GLU796  ALA797  LYS798  CYS799  TRP800  GLU811  SER814 

> <Gold.Protein.RotatedAtoms>
  152.2695  133.5369  159.5429 H   0  0  0  0  0  0  0  0  0  0  0  0  # atno 6907 bound_to 6896
  150.7154  134.0718  159.3876 H   0  0  0  0  0  0  0  0  0  0  0  0  # atno 6908 bound_to 6896
  151.8633  135.0516  160.0522 H   0  0  0  0  0  0  0  0  0  0  0  0  # atno 6909 bound_to 6896
  144.8131  140.5401  143.5629 H   0  0  0  0  0  0  0  0  0  0  0  0  # atno 7974 bound_to 7965
  155.3230  140.0463  157.3040 H   0  0  0  0  0  0  0  0  0  0  0  0  # atno 8008 bound_to 7997
  154.5370  140.2275  155.8672 H   0  0  0  0  0  0  0  0  0  0  0  0  # atno 8009 bound_to 7997
  156.1844  140.3066  155.9217 H   0  0  0  0  0  0  0  0  0  0  0  0  # atno 8010 bound_to 7997
  139.8323  143.7430  152.2665 H   0  0  0  0  0  0  0  0  0  0  0  0  # atno 10167 bound_to 10162
  157.6488  131.0935  150.6620 H   0  0  0  0  0  0  0  0  0  0  0  0  # atno 10718 bound_to 10713
  153.0035  135.6276  154.2156 H   0  0  0  0  0  0  0  0  0  0  0  0  # atno 10763 bound_to 10752
  154.1900  135.2809  155.3027 H   0  0  0  0  0  0  0  0  0  0  0  0  # atno 10764 bound_to 10752
  154.5767  135.5660  153.7206 H   0  0  0  0  0  0  0  0  0  0  0  0  # atno 10765 bound_to 10752
  140.7884  133.8307  155.9356 H   0  0  0  0  0  0  0  0  0  0  0  0  # atno 11005 bound_to 11000
  145.5277  139.1475  143.3517 LP  0  0  0  0  0  0  0  0  0  0  0  0  # atno 17320 bound_to 7965
  146.2432  140.5418  142.8925 LP  0  0  0  0  0  0  0  0  0  0  0  0  # atno 17321 bound_to 7965
  139.7642  144.7497  151.0319 LP  0  0  0  0  0  0  0  0  0  0  0  0  # atno 17342 bound_to 10162
  140.7805  143.4717  151.0137 LP  0  0  0  0  0  0  0  0  0  0  0  0  # atno 17343 bound_to 10162
  156.6934  130.4602  149.5593 LP  0  0  0  0  0  0  0  0  0  0  0  0  # atno 17370 bound_to 10713
  156.1846  130.6521  151.0991 LP  0  0  0  0  0  0  0  0  0  0  0  0  # atno 17371 bound_to 10713
  140.9414  134.1896  157.4795 LP  0  0  0  0  0  0  0  0  0  0  0  0  # atno 17394 bound_to 11000
  139.8734  134.9873  156.5362 LP  0  0  0  0  0  0  0  0  0  0  0  0  # atno 17395 bound_to 11000

$$$$
