AV-unprocessed.smi:3056|AV-procd|sdf|11652|dock4
  -GOLD-   2272017 53D 1   1.00000     0.00000
 Structure written by MMmdl.
 48 49  0  0  0  0  0  0  0  0  2 V2000
  144.2517  131.4207  150.9210 C   0  0  0  0  0  0  0  0  0  0  0  0
  144.9746  132.6473  151.3984 C   0  0  0  0  0  0  0  0  0  0  0  0
  146.3656  132.7953  151.6626 C   0  0  0  0  0  0  0  0  0  0  0  0
  146.6833  134.0108  152.0775 N   0  0  0  0  0  0  0  0  0  0  0  0
  145.5123  134.6832  152.0911 N   0  0  0  0  0  0  0  0  0  0  0  0
  145.4829  136.0767  152.5176 C   0  0  1  0  0  0  0  0  0  0  0  0
  144.0592  136.6398  152.3547 C   0  0  0  0  0  0  0  0  0  0  0  0
  146.0466  136.2499  153.9532 C   0  0  1  0  0  0  0  0  0  0  0  0
  145.2972  135.4097  155.0034 C   0  0  0  0  0  0  0  0  0  0  0  0
  147.4815  135.8892  153.9960 N   0  3  0  0  0  0  0  0  0  0  0  0
  148.2859  136.6362  154.9879 C   0  0  0  0  0  0  0  0  0  0  0  0
  148.0648  138.1538  154.9014 C   0  0  0  0  0  0  0  0  0  0  0  0
  146.9814  138.6165  155.2632 O   0  0  0  0  0  0  0  0  0  0  0  0
  149.0643  138.9371  154.4296 N   0  0  0  0  0  0  0  0  0  0  0  0
  149.0392  140.3995  154.3233 C   0  0  0  0  0  0  0  0  0  0  0  0
  150.1318  140.9728  155.2428 C   0  0  0  0  0  0  0  0  0  0  0  0
  151.3989  140.4299  154.8804 O   0  0  0  0  0  0  0  0  0  0  0  0
  151.4483  139.0064  154.9586 C   0  0  2  0  0  0  0  0  0  0  0  0
  152.8612  138.5534  154.5749 C   0  0  0  0  0  0  0  0  0  0  0  0
  150.3726  138.4135  154.0262 C   0  0  0  0  0  0  0  0  0  0  0  0
  144.4641  133.8811  151.6862 C   0  0  0  0  0  0  0  0  0  0  0  0
  144.9235  130.7243  150.4188 H   0  0  0  0  0  0  0  0  0  0  0  0
  143.4600  131.6679  150.2136 H   0  0  0  0  0  0  0  0  0  0  0  0
  143.7885  130.8812  151.7471 H   0  0  0  0  0  0  0  0  0  0  0  0
  147.1492  132.0581  151.5676 H   0  0  0  0  0  0  0  0  0  0  0  0
  146.1297  136.6347  151.8374 H   0  0  0  0  0  0  0  0  0  0  0  0
  144.0338  137.7166  152.5210 H   0  0  0  0  0  0  0  0  0  0  0  0
  143.3622  136.1776  153.0543 H   0  0  0  0  0  0  0  0  0  0  0  0
  143.6829  136.4632  151.3465 H   0  0  0  0  0  0  0  0  0  0  0  0
  145.9328  137.2955  154.2453 H   0  0  0  0  0  0  0  0  0  0  0  0
  144.2543  135.7127  155.0985 H   0  0  0  0  0  0  0  0  0  0  0  0
  145.7509  135.5205  155.9888 H   0  0  0  0  0  0  0  0  0  0  0  0
  145.3142  134.3496  154.7475 H   0  0  0  0  0  0  0  0  0  0  0  0
  147.5534  134.9071  154.2211 H   0  0  0  0  0  0  0  0  0  0  0  0
  148.0253  136.2911  155.9887 H   0  0  0  0  0  0  0  0  0  0  0  0
  149.3417  136.4192  154.8191 H   0  0  0  0  0  0  0  0  0  0  0  0
  149.2344  140.6859  153.2889 H   0  0  0  0  0  0  0  0  0  0  0  0
  148.0802  140.8464  154.5794 H   0  0  0  0  0  0  0  0  0  0  0  0
  150.1741  142.0580  155.1485 H   0  0  0  0  0  0  0  0  0  0  0  0
  149.9154  140.7507  156.2889 H   0  0  0  0  0  0  0  0  0  0  0  0
  151.2518  138.7009  155.9879 H   0  0  0  0  0  0  0  0  0  0  0  0
  152.9565  137.4691  154.6373 H   0  0  0  0  0  0  0  0  0  0  0  0
  153.6048  138.9906  155.2416 H   0  0  0  0  0  0  0  0  0  0  0  0
  153.1094  138.8531  153.5565 H   0  0  0  0  0  0  0  0  0  0  0  0
  150.4197  137.3239  154.0546 H   0  0  0  0  0  0  0  0  0  0  0  0
  150.5693  138.6966  152.9909 H   0  0  0  0  0  0  0  0  0  0  0  0
  143.4499  134.2496  151.6389 H   0  0  0  0  0  0  0  0  0  0  0  0
  147.8799  136.0315  153.0788 H   0  0  0  0  0  0  0  0  0  0  0  0
  1  2  1  0  0  0  0
  1 22  1  0  0  0  0
  1 23  1  0  0  0  0
  1 24  1  0  0  0  0
  2 21  2  0  0  0  0
  2  3  1  0  0  0  0
  3  4  2  0  0  0  0
  3 25  1  0  0  0  0
  4  5  1  0  0  0  0
  5  6  1  0  0  0  0
  5 21  1  0  0  0  0
  6  7  1  0  0  0  0
  6  8  1  0  0  0  0
  6 26  1  0  0  0  0
  7 27  1  0  0  0  0
  7 28  1  0  0  0  0
  7 29  1  0  0  0  0
  8  9  1  0  0  0  0
  8 10  1  0  0  0  0
  8 30  1  0  0  0  0
  9 31  1  0  0  0  0
  9 32  1  0  0  0  0
  9 33  1  0  0  0  0
 10 11  1  0  0  0  0
 10 34  1  0  0  0  0
 10 48  1  0  0  0  0
 11 12  1  0  0  0  0
 11 35  1  0  0  0  0
 11 36  1  0  0  0  0
 12 13  2  0  0  0  0
 12 14  1  0  0  0  0
 14 20  1  0  0  0  0
 14 15  1  0  0  0  0
 15 16  1  0  0  0  0
 15 37  1  0  0  0  0
 15 38  1  0  0  0  0
 16 17  1  0  0  0  0
 16 39  1  0  0  0  0
 16 40  1  0  0  0  0
 17 18  1  0  0  0  0
 18 19  1  0  0  0  0
 18 20  1  0  0  0  0
 18 41  1  0  0  0  0
 19 42  1  0  0  0  0
 19 43  1  0  0  0  0
 19 44  1  0  0  0  0
 20 45  1  0  0  0  0
 20 46  1  0  0  0  0
 21 47  1  0  0  0  0
M  CHG  1  10   1
M  END
> <s_m_source_file>
AV-unprocessed.smi

> <i_m_source_file_index>
3056

> <i_lp_mmshare_version>
43012

> <i_f3d_flags>
0

> <s_epik_input>
W0NIM11jMVtjSF1ubihbY0hdMSlbQ0BIXShbQ0gzXSlbQ0BIXShbQ0gzXSlbTkhdW0NIMl1DKD1PKU4yW0NIMl1bQ0gyXU9bQ0BASF0oW0NIM10pW0NIMl0y

> <s_epik_cmdline>
J2VwaWtfcHl0aG9uJywgJy1waCcsICc3LjAnLCAnLXRuJywgJzgnLCAnLW1hJywgJzIwMCcsICctbWV0YWxfYmluZGluZycsICctaW1hZScsICc8aW5maWxlLm1hZT4nLCAnLW9tYWUnLCAnPG91dGZpbGUubWFlPic=

> <r_lp_tautomer_probability>
1

> <r_epik_Ionization_Penalty>
0.233715

> <r_epik_Ionization_Penalty_Charging>
0.233698

> <r_epik_Ionization_Penalty_Neutral>
1.68157e-05

> <r_epik_State_Penalty>
0.225221

> <r_epik_Charging_Adjusted_Penalty>
0.458919

> <i_epik_Tot_Q>
1

> <i_epik_Tot_abs_Q>
1

> <r_epik_Metal_State_Penalty>
0.225535

> <b_epik_Metal_Only>
0

> <s_lp_Force_Field>
OPLS_2005

> <r_lp_Energy>
28.8948

> <b_lp_Chiralities_Consistent>
1

> <s_lp_Variant>
AV-unprocessed.smi:3056-8

> <Gold.Version>
5.8.1

> <Gold.Id.Protein>
6NUR|6NUR_protein|mol2

> <Gold.PLP.Fitness>
45.7968

> <Gold.PLP.PLP>
-34.8449

> <Gold.PLP.part.hbond>
-1.8753

> <Gold.PLP.part.metal>
0.0000

> <Gold.PLP.part.buried>
-3.6601

> <Gold.PLP.part.nonpolar>
-29.3657

> <Gold.PLP.part.repulsive>
0.6427

> <Gold.PLP.ligand.clash>
0.0000

> <Gold.PLP.ligand.torsion>
0.5388

> <Gold.PLP.Chemscore.Hbond>
2.9760

> <Gold.PLP.Chemscore.CHOScore>
1.0000

> <Gold.PLP.Chemscore.Metal>
0.0000

> <Gold.Chemscore.Hbonds>
donor molecule, donor type, donor heavy atom, donor atom, acceptor molecule, acceptor atom, score
      L1  H    10    48       P1  7948  2.00
      P1  H  7989  7998       L1    17  0.82
      L1  C     3    25       P1 10747  0.97

> <Gold.PLP.Chemscore.Internal.Correction>
0.1016

> <Gold.Rescore>
     Score         DG    S(hbond)    S(metal)    S(lipo)     H(rot)  DE(clash)    DE(int)     intcor
     13.97     -15.94       1.59        0.00      81.92       1.74       0.06       1.91       ----

> <Gold.Chemscore.Fitness>
13.9655

> <Gold.Chemscore.DG>
-15.9379

> <Gold.Chemscore.ZeroCoef>
-5.4800

> <Gold.Chemscore.Hbond>
1.5917

> <Gold.Chemscore.Metal>
0.0000

> <Gold.Chemscore.Lipo>
81.9160

> <Gold.Chemscore.Internal_Hbond>
0.0000

> <Gold.Chemscore.DEClash>
0.0576

> <Gold.Chemscore.DEInternal>
1.9148

> <Gold.Chemscore.Rot>
1.7354

> <Gold.Chemscore.Internal.Correction>
   9.000000E+99

> <Gold.Chemscore.Hbonds>
donor molecule, donor type, donor heavy atom, donor atom, acceptor molecule, acceptor atom, score
      L1  H    10    48       P1  7948  0.99
      P1  H  7989  7998       L1    17  0.34

> <Gold.Chemscore.Hbond.Weighted>
-5.3163

> <Gold.Chemscore.Metal.Weighted>
-0.0000

> <Gold.Chemscore.Lipo.Weighted>
-9.5842

> <Gold.Chemscore.Internal_Hbond.Weighted>
0.0000

> <Gold.Chemscore.DEClash.Weighted>
0.0576

> <Gold.Chemscore.DEInternal.Weighted>
1.9148

> <Gold.Chemscore.Rot.Weighted>
4.4426

> <Gold.Chemscore.Internal.Correction.Weighted>
   9.000000E+99

> <Gold.Protein.RotatedTorsions>
[ 6907 6896 6895 6894 ] final  108.35 input  -60.11 | X-H torsion
[ 7974 7965 7964 7962 ] final  -45.43 input  175.53 | X-H torsion
[ 8008 7997 7996 7995 ] final   97.05 input   59.86 | X-H torsion
[ 10167 10162 10161 10158 ] final  -32.94 input  -65.29 | X-H torsion
[ 10718 10713 10712 10709 ] final   57.53 input   66.30 | X-H torsion
[ 10763 10752 10751 10750 ] final  111.81 input  -60.55 | X-H torsion
[ 11005 11000 10999 10996 ] final  -64.10 input  -57.11 | X-H torsion

> <Gold.Protein.ActiveResidues>
 VAL166  LYS551  ARG553  GLY616  TRP617  ASP618  TYR619  PRO620  LYS621  CYS622 
 ASP623  PHE694  ASN695  SER759  ASP760  ASP761  ALA762  ILE779  LEU786  VAL792 
 PHE793  MET794  SER795  GLU796  ALA797  LYS798  CYS799  TRP800  GLU811  SER814 

> <Gold.Protein.RotatedAtoms>
  152.5116  133.9102  159.7483 H   0  0  0  0  0  0  0  0  0  0  0  0  # atno 6907 bound_to 6896
  150.9497  133.6555  159.2781 H   0  0  0  0  0  0  0  0  0  0  0  0  # atno 6908 bound_to 6896
  151.3837  135.0949  159.9557 H   0  0  0  0  0  0  0  0  0  0  0  0  # atno 6909 bound_to 6896
  145.9822  140.7272  142.9358 H   0  0  0  0  0  0  0  0  0  0  0  0  # atno 7974 bound_to 7965
  156.0861  140.3264  155.7755 H   0  0  0  0  0  0  0  0  0  0  0  0  # atno 8008 bound_to 7997
  155.5074  140.0574  157.2946 H   0  0  0  0  0  0  0  0  0  0  0  0  # atno 8009 bound_to 7997
  154.4610  140.1966  156.0262 H   0  0  0  0  0  0  0  0  0  0  0  0  # atno 8010 bound_to 7997
  140.7213  143.3657  151.1875 H   0  0  0  0  0  0  0  0  0  0  0  0  # atno 10167 bound_to 10162
  157.5522  130.8774  149.8980 H   0  0  0  0  0  0  0  0  0  0  0  0  # atno 10718 bound_to 10713
  153.4687  135.3705  155.2378 H   0  0  0  0  0  0  0  0  0  0  0  0  # atno 10763 bound_to 10752
  154.8757  135.3926  154.3838 H   0  0  0  0  0  0  0  0  0  0  0  0  # atno 10764 bound_to 10752
  153.4423  135.7084  153.6225 H   0  0  0  0  0  0  0  0  0  0  0  0  # atno 10765 bound_to 10752
  141.1414  133.6661  156.5782 H   0  0  0  0  0  0  0  0  0  0  0  0  # atno 11005 bound_to 11000
  144.6864  140.2927  143.7275 LP  0  0  0  0  0  0  0  0  0  0  0  0  # atno 17320 bound_to 7965
  145.7753  139.1872  143.2189 LP  0  0  0  0  0  0  0  0  0  0  0  0  # atno 17321 bound_to 7965
  139.7219  143.9210  152.2988 LP  0  0  0  0  0  0  0  0  0  0  0  0  # atno 17342 bound_to 10162
  139.8970  144.6933  150.8707 LP  0  0  0  0  0  0  0  0  0  0  0  0  # atno 17343 bound_to 10162
  156.0587  130.3704  150.1032 LP  0  0  0  0  0  0  0  0  0  0  0  0  # atno 17370 bound_to 10713
  156.9204  130.9681  151.3549 LP  0  0  0  0  0  0  0  0  0  0  0  0  # atno 17371 bound_to 10713
  140.3859  134.7483  157.4691 LP  0  0  0  0  0  0  0  0  0  0  0  0  # atno 17394 bound_to 11000
  140.0603  134.6006  155.8757 LP  0  0  0  0  0  0  0  0  0  0  0  0  # atno 17395 bound_to 11000

$$$$
