AV-unprocessed.smi:28|AV-procd|sdf|189|dock1
  -GOLD-   2262015453D 1   1.00000     0.00000
 Structure written by MMmdl.
 41 44  0  0  0  0  0  0  0  0  1 V2000
  151.9833  136.3733  155.5712 O   0  0  0  0  0  0  0  0  0  0  0  0
  150.8837  136.8628  155.3076 C   0  0  0  0  0  0  0  0  0  0  0  0
  149.6546  136.0797  155.2379 C   0  0  0  0  0  0  0  0  0  0  0  0
  149.6941  134.7592  155.4833 F   0  0  0  0  0  0  0  0  0  0  0  0
  148.4744  136.6577  154.9259 C   0  0  0  0  0  0  0  0  0  0  0  0
  148.3430  138.0107  154.6563 N   0  0  0  0  0  0  0  0  0  0  0  0
  147.0127  138.6324  154.2842 C   0  0  2  0  0  0  0  0  0  0  0  0
  145.8514  137.6804  154.6305 C   0  0  0  0  0  0  0  0  0  0  0  0
  145.0773  137.6066  153.3291 C   0  0  0  0  0  0  0  0  0  0  0  0
  146.1709  137.8382  152.2975 C   0  0  0  0  0  0  0  0  0  0  0  0
  146.9597  138.8537  152.9032 O   0  0  0  0  0  0  0  0  0  0  0  0
  149.4826  138.8437  154.6934 C   0  0  0  0  0  0  0  0  0  0  0  0
  149.3926  140.0453  154.4303 O   0  0  0  0  0  0  0  0  0  0  0  0
  150.7176  138.2429  155.0340 N   0  0  0  0  0  0  0  0  0  0  0  0
  151.9018  139.0857  155.0438 C   0  0  0  0  0  0  0  0  0  0  0  0
  151.7451  140.1871  156.0443 C   0  0  0  0  0  0  0  0  0  0  0  0
  150.9736  141.2711  155.9453 N   0  0  0  0  0  0  0  0  0  0  0  0
  151.1550  141.9665  157.1190 N   0  0  0  0  0  0  0  0  0  0  0  0
  152.0179  141.2486  157.8455 C   0  0  0  0  0  0  0  0  0  0  0  0
  152.5649  141.5315  159.1676 C   0  0  0  0  0  0  0  0  0  0  0  0
  153.2241  140.4941  159.8630 C   0  0  0  0  0  0  0  0  0  0  0  0
  153.7660  140.7219  161.1421 C   0  0  0  0  0  0  0  0  0  0  0  0
  153.6473  141.9899  161.7393 C   0  0  0  0  0  0  0  0  0  0  0  0
  152.9806  143.0257  161.0587 C   0  0  0  0  0  0  0  0  0  0  0  0
  152.4348  142.8041  159.7781 C   0  0  0  0  0  0  0  0  0  0  0  0
  151.5060  144.2389  158.9312 Br  0  0  0  0  0  0  0  0  0  0  0  0
  152.4373  140.1223  157.2106 O   0  0  0  0  0  0  0  0  0  0  0  0
  147.6076  136.0161  154.8866 H   0  0  0  0  0  0  0  0  0  0  0  0
  146.9788  139.5894  154.8078 H   0  0  0  0  0  0  0  0  0  0  0  0
  146.2360  136.6953  154.9007 H   0  0  0  0  0  0  0  0  0  0  0  0
  145.2603  138.0702  155.4598 H   0  0  0  0  0  0  0  0  0  0  0  0
  144.5557  136.6588  153.1942 H   0  0  0  0  0  0  0  0  0  0  0  0
  144.3437  138.4125  153.2824 H   0  0  0  0  0  0  0  0  0  0  0  0
  146.7651  136.9349  152.1514 H   0  0  0  0  0  0  0  0  0  0  0  0
  145.7804  138.1557  151.3305 H   0  0  0  0  0  0  0  0  0  0  0  0
  152.7701  138.4651  155.2708 H   0  0  0  0  0  0  0  0  0  0  0  0
  152.0641  139.4840  154.0412 H   0  0  0  0  0  0  0  0  0  0  0  0
  153.3234  139.5169  159.4127 H   0  0  0  0  0  0  0  0  0  0  0  0
  154.2732  139.9238  161.6640 H   0  0  0  0  0  0  0  0  0  0  0  0
  154.0620  142.1670  162.7207 H   0  0  0  0  0  0  0  0  0  0  0  0
  152.8818  143.9952  161.5244 H   0  0  0  0  0  0  0  0  0  0  0  0
  1  2  2  0  0  0  0
  2 14  1  0  0  0  0
  2  3  1  0  0  0  0
  3  4  1  0  0  0  0
  3  5  2  0  0  0  0
  5  6  1  0  0  0  0
  5 28  1  0  0  0  0
  6  7  1  0  0  0  0
  6 12  1  0  0  0  0
  7 11  1  0  0  0  0
  7  8  1  0  0  0  0
  7 29  1  0  0  0  0
  8  9  1  0  0  0  0
  8 30  1  0  0  0  0
  8 31  1  0  0  0  0
  9 10  1  0  0  0  0
  9 32  1  0  0  0  0
  9 33  1  0  0  0  0
 10 11  1  0  0  0  0
 10 34  1  0  0  0  0
 10 35  1  0  0  0  0
 12 13  2  0  0  0  0
 12 14  1  0  0  0  0
 14 15  1  0  0  0  0
 15 16  1  0  0  0  0
 15 36  1  0  0  0  0
 15 37  1  0  0  0  0
 16 27  1  0  0  0  0
 16 17  2  0  0  0  0
 17 18  1  0  0  0  0
 18 19  2  0  0  0  0
 19 20  1  0  0  0  0
 19 27  1  0  0  0  0
 20 25  1  0  0  0  0
 20 21  2  0  0  0  0
 21 22  1  0  0  0  0
 21 38  1  0  0  0  0
 22 23  2  0  0  0  0
 22 39  1  0  0  0  0
 23 24  1  0  0  0  0
 23 40  1  0  0  0  0
 24 25  2  0  0  0  0
 24 41  1  0  0  0  0
 25 26  1  0  0  0  0
M  END
> <s_m_source_file>
AV-unprocessed.smi

> <i_m_source_file_index>
28

> <i_lp_mmshare_version>
43012

> <i_f3d_flags>
0

> <s_epik_input>
TzFbQ0gyXVtDSDJdW0NIMl1bQ0BIXTFuKFtjSF1jKEYpYzI9TyljKD1PKW4yW0NIMl1jM25uYyhvMyktYzRbY0hdW2NIXVtjSF1bY0hdYzRCcg==

> <s_epik_cmdline>
J2VwaWtfcHl0aG9uJywgJy1waCcsICc3LjAnLCAnLXRuJywgJzgnLCAnLW1hJywgJzIwMCcsICctbWV0YWxfYmluZGluZycsICctaW1hZScsICc8aW5maWxlLm1hZT4nLCAnLW9tYWUnLCAnPG91dGZpbGUubWFlPic=

> <r_lp_tautomer_probability>
1

> <r_epik_Ionization_Penalty>
2.5628e-09

> <r_epik_Ionization_Penalty_Charging>
2.54231e-09

> <r_epik_Ionization_Penalty_Neutral>
2.0492e-11

> <r_epik_State_Penalty>
-0

> <r_epik_Charging_Adjusted_Penalty>
2.54231e-09

> <i_epik_Tot_Q>
0

> <i_epik_Tot_abs_Q>
0

> <r_epik_Metal_State_Penalty>
-0

> <b_epik_Metal_Only>
0

> <s_epik_Chemistry_Notes>
This compound contains an acetal/aminal-like group ( X-CH(R)-Y where X, Y are N, S, or O) that may be acid/base labile, releasing an aldehyde.

> <s_lp_Force_Field>
OPLS_2005

> <r_lp_Energy>
34.3922

> <b_lp_Chiralities_Consistent>
1

> <s_lp_Variant>
AV-unprocessed.smi:28-1

> <Gold.Version>
5.8.1

> <Gold.Id.Protein>
6NUR|6NUR_protein|mol2

> <Gold.PLP.Fitness>
50.5518

> <Gold.PLP.PLP>
-45.8829

> <Gold.PLP.part.hbond>
-2.1436

> <Gold.PLP.part.metal>
0.0000

> <Gold.PLP.part.buried>
-6.0816

> <Gold.PLP.part.nonpolar>
-38.6860

> <Gold.PLP.part.repulsive>
0.5518

> <Gold.PLP.ligand.clash>
0.0000

> <Gold.PLP.ligand.torsion>
0.6658

> <Gold.PLP.Chemscore.Hbond>
1.9913

> <Gold.PLP.Chemscore.CHOScore>
0.0000

> <Gold.PLP.Chemscore.Metal>
0.0000

> <Gold.Chemscore.Hbonds>
donor molecule, donor type, donor heavy atom, donor atom, acceptor molecule, acceptor atom, score
      P1  H  7997  8010       L1    27  1.00
      P1  H 10752 10763       L1     1  0.99

> <Gold.PLP.Chemscore.Internal.Correction>
0.0268

> <Gold.Rescore>
     Score         DG    S(hbond)    S(metal)    S(lipo)     H(rot)  DE(clash)    DE(int)     intcor
     13.22     -18.21       1.67        0.00      98.36       1.70       0.05       4.93       ----

> <Gold.Chemscore.Fitness>
13.2215

> <Gold.Chemscore.DG>
-18.2051

> <Gold.Chemscore.ZeroCoef>
-5.4800

> <Gold.Chemscore.Hbond>
1.6658

> <Gold.Chemscore.Metal>
0.0000

> <Gold.Chemscore.Lipo>
98.3605

> <Gold.Chemscore.Internal_Hbond>
0.0000

> <Gold.Chemscore.DEClash>
0.0547

> <Gold.Chemscore.DEInternal>
4.9289

> <Gold.Chemscore.Rot>
1.6980

> <Gold.Chemscore.Internal.Correction>
   9.000000E+99

> <Gold.Chemscore.Hbonds>
donor molecule, donor type, donor heavy atom, donor atom, acceptor molecule, acceptor atom, score
      P1  H  7997  8010       L1    27  0.46
      P1  H 10752 10763       L1     1  0.92

> <Gold.Chemscore.Hbond.Weighted>
-5.5638

> <Gold.Chemscore.Metal.Weighted>
-0.0000

> <Gold.Chemscore.Lipo.Weighted>
-11.5082

> <Gold.Chemscore.Internal_Hbond.Weighted>
0.0000

> <Gold.Chemscore.DEClash.Weighted>
0.0547

> <Gold.Chemscore.DEInternal.Weighted>
4.9289

> <Gold.Chemscore.Rot.Weighted>
4.3469

> <Gold.Chemscore.Internal.Correction.Weighted>
   9.000000E+99

> <Gold.Protein.RotatedTorsions>
[ 6907 6896 6895 6894 ] final  137.20 input  -60.11 | X-H torsion
[ 7974 7965 7964 7962 ] final    0.80 input  175.53 | X-H torsion
[ 8008 7997 7996 7995 ] final   57.39 input   59.86 | X-H torsion
[ 10167 10162 10161 10158 ] final  -44.13 input  -65.29 | X-H torsion
[ 10718 10713 10712 10709 ] final -141.14 input   66.30 | X-H torsion
[ 10763 10752 10751 10750 ] final   66.98 input  -60.55 | X-H torsion
[ 11005 11000 10999 10996 ] final -157.69 input  -57.11 | X-H torsion

> <Gold.Protein.ActiveResidues>
 VAL166  LYS551  ARG553  GLY616  TRP617  ASP618  TYR619  PRO620  LYS621  CYS622 
 ASP623  PHE694  ASN695  SER759  ASP760  ASP761  ALA762  ILE779  LEU786  VAL792 
 PHE793  MET794  SER795  GLU796  ALA797  LYS798  CYS799  TRP800  GLU811  SER814 

> <Gold.Protein.RotatedAtoms>
  152.2807  133.5468  159.5495 H   0  0  0  0  0  0  0  0  0  0  0  0  # atno 6907 bound_to 6896
  150.7195  134.0568  159.3826 H   0  0  0  0  0  0  0  0  0  0  0  0  # atno 6908 bound_to 6896
  151.8479  135.0568  160.0506 H   0  0  0  0  0  0  0  0  0  0  0  0  # atno 6909 bound_to 6896
  146.2437  140.1083  142.8345 H   0  0  0  0  0  0  0  0  0  0  0  0  # atno 7974 bound_to 7965
  155.5330  140.3482  155.4430 H   0  0  0  0  0  0  0  0  0  0  0  0  # atno 8008 bound_to 7997
  156.0705  140.1362  156.9861 H   0  0  0  0  0  0  0  0  0  0  0  0  # atno 8009 bound_to 7997
  154.4525  140.0967  156.6636 H   0  0  0  0  0  0  0  0  0  0  0  0  # atno 8010 bound_to 7997
  140.6908  143.2946  151.3451 H   0  0  0  0  0  0  0  0  0  0  0  0  # atno 10167 bound_to 10162
  156.3305  130.7583  151.1700 H   0  0  0  0  0  0  0  0  0  0  0  0  # atno 10718 bound_to 10713
  153.0165  135.5300  154.6909 H   0  0  0  0  0  0  0  0  0  0  0  0  # atno 10763 bound_to 10752
  154.6044  135.2871  155.0503 H   0  0  0  0  0  0  0  0  0  0  0  0  # atno 10764 bound_to 10752
  154.1548  135.6557  153.5024 H   0  0  0  0  0  0  0  0  0  0  0  0  # atno 10765 bound_to 10752
  140.6618  134.4341  157.5234 H   0  0  0  0  0  0  0  0  0  0  0  0  # atno 11005 bound_to 11000
  145.0509  140.9017  143.4996 LP  0  0  0  0  0  0  0  0  0  0  0  0  # atno 17320 bound_to 7965
  145.1180  139.2712  143.5603 LP  0  0  0  0  0  0  0  0  0  0  0  0  # atno 17321 bound_to 7965
  139.6310  144.0721  152.2476 LP  0  0  0  0  0  0  0  0  0  0  0  0  # atno 17342 bound_to 10162
  140.0196  144.6163  150.7578 LP  0  0  0  0  0  0  0  0  0  0  0  0  # atno 17343 bound_to 10162
  157.7429  131.0482  150.4985 LP  0  0  0  0  0  0  0  0  0  0  0  0  # atno 17370 bound_to 10713
  156.5151  130.4148  149.6280 LP  0  0  0  0  0  0  0  0  0  0  0  0  # atno 17371 bound_to 10713
  139.9010  134.8556  156.1896 LP  0  0  0  0  0  0  0  0  0  0  0  0  # atno 17394 bound_to 11000
  141.0459  133.6913  156.1682 LP  0  0  0  0  0  0  0  0  0  0  0  0  # atno 17395 bound_to 11000

$$$$
