AV-unprocessed.smi:1443|AV-procd|sdf|5880|dock6
  -GOLD-   22720 5553D 1   1.00000     0.00000
 Structure written by MMmdl.
 27 28  0  0  0  0  0  0  0  0  1 V2000
  150.8881  136.6959  155.5811 C   0  0  0  0  0  0  0  0  0  0  0  0
  150.9960  137.7342  154.0975 S   0  0  0  0  0  0  0  0  0  0  0  0
  150.1188  139.2159  154.4796 C   0  0  0  0  0  0  0  0  0  0  0  0
  148.8514  139.3901  154.0628 N   0  0  0  0  0  0  0  0  0  0  0  0
  148.3138  140.9033  154.5926 S   0  0  0  0  0  0  0  0  0  0  0  0
  149.8455  141.2146  155.3555 C   0  0  0  0  0  0  0  0  0  0  0  0
  150.1213  142.4251  156.0557 N   0  0  0  0  0  0  0  0  0  0  0  0
  150.9280  142.6776  157.1093 C   0  0  0  0  0  0  0  0  0  0  0  0
  151.5849  141.7800  157.6341 O   0  0  0  0  0  0  0  0  0  0  0  0
  150.9611  143.9504  157.5345 N   0  0  0  0  0  0  0  0  0  0  0  0
  151.7232  144.4515  158.6297 C   0  0  1  0  0  0  0  0  0  0  0  0
  150.9966  145.3385  159.6172 C   0  0  0  0  0  0  0  0  0  0  0  0
  151.3843  143.9398  160.0152 C   0  0  2  0  0  0  0  0  0  0  0  0
  152.4656  143.7211  161.0509 C   0  0  0  0  0  0  0  0  0  0  0  0
  150.6945  140.2001  155.1919 N   0  0  0  0  0  0  0  0  0  0  0  0
  151.4135  135.7546  155.4205 H   0  0  0  0  0  0  0  0  0  0  0  0
  149.8468  136.4749  155.8168 H   0  0  0  0  0  0  0  0  0  0  0  0
  151.3384  137.2021  156.4352 H   0  0  0  0  0  0  0  0  0  0  0  0
  149.6426  143.2363  155.6917 H   0  0  0  0  0  0  0  0  0  0  0  0
  150.3889  144.6198  157.0397 H   0  0  0  0  0  0  0  0  0  0  0  0
  152.7677  144.6979  158.4434 H   0  0  0  0  0  0  0  0  0  0  0  0
  151.5561  146.1645  160.0521 H   0  0  0  0  0  0  0  0  0  0  0  0
  149.9394  145.5341  159.4462 H   0  0  0  0  0  0  0  0  0  0  0  0
  150.5694  143.2202  160.0773 H   0  0  0  0  0  0  0  0  0  0  0  0
  153.2605  144.4598  160.9442 H   0  0  0  0  0  0  0  0  0  0  0  0
  152.8978  142.7271  160.9346 H   0  0  0  0  0  0  0  0  0  0  0  0
  152.0456  143.8030  162.0535 H   0  0  0  0  0  0  0  0  0  0  0  0
  1  2  1  0  0  0  0
  1 16  1  0  0  0  0
  1 17  1  0  0  0  0
  1 18  1  0  0  0  0
  2  3  1  0  0  0  0
  3 15  1  0  0  0  0
  3  4  2  0  0  0  0
  4  5  1  0  0  0  0
  5  6  1  0  0  0  0
  6  7  1  0  0  0  0
  6 15  2  0  0  0  0
  7  8  1  0  0  0  0
  7 19  1  0  0  0  0
  8  9  2  0  0  0  0
  8 10  1  0  0  0  0
 10 11  1  0  0  0  0
 10 20  1  0  0  0  0
 11 13  1  0  0  0  0
 11 12  1  0  0  0  0
 11 21  1  0  0  0  0
 12 13  1  0  0  0  0
 12 22  1  0  0  0  0
 12 23  1  0  0  0  0
 13 14  1  0  0  0  0
 13 24  1  0  0  0  0
 14 25  1  0  0  0  0
 14 26  1  0  0  0  0
 14 27  1  0  0  0  0
M  END
> <s_m_source_file>
AV-unprocessed.smi

> <i_m_source_file_index>
1443

> <i_lp_mmshare_version>
43012

> <i_f3d_flags>
0

> <s_epik_input>
W0NIM11TYzFuc2MobjEpW05IXUMoPU8pW05IXVtDQEBIXTJbQ0gyXVtDQEhdMltDSDNd

> <s_epik_cmdline>
J2VwaWtfcHl0aG9uJywgJy1waCcsICc3LjAnLCAnLXRuJywgJzgnLCAnLW1hJywgJzIwMCcsICctbWV0YWxfYmluZGluZycsICctaW1hZScsICc8aW5maWxlLm1hZT4nLCAnLW9tYWUnLCAnPG91dGZpbGUubWFlPic=

> <r_lp_tautomer_probability>
1

> <r_epik_Ionization_Penalty>
2.74658e-05

> <r_epik_Ionization_Penalty_Charging>
0

> <r_epik_Ionization_Penalty_Neutral>
2.74658e-05

> <r_epik_State_Penalty>
-0

> <r_epik_Charging_Adjusted_Penalty>
0

> <i_epik_Tot_Q>
0

> <i_epik_Tot_abs_Q>
0

> <r_epik_Metal_State_Penalty>
-0

> <b_epik_Metal_Only>
0

> <s_lp_Force_Field>
OPLS_2005

> <r_lp_Energy>
20.7485

> <b_lp_Chiralities_Consistent>
1

> <s_lp_Variant>
AV-unprocessed.smi:1443-4

> <Gold.Version>
5.8.1

> <Gold.Id.Protein>
6NUR|6NUR_protein|mol2

> <Gold.PLP.Fitness>
39.4588

> <Gold.PLP.PLP>
-33.7033

> <Gold.PLP.part.hbond>
-3.0000

> <Gold.PLP.part.metal>
0.0000

> <Gold.PLP.part.buried>
-5.0541

> <Gold.PLP.part.nonpolar>
-27.1006

> <Gold.PLP.part.repulsive>
0.8752

> <Gold.PLP.ligand.clash>
0.0000

> <Gold.PLP.ligand.torsion>
0.5661

> <Gold.PLP.Chemscore.Hbond>
2.2850

> <Gold.PLP.Chemscore.CHOScore>
0.0000

> <Gold.PLP.Chemscore.Metal>
0.0000

> <Gold.Chemscore.Hbonds>
donor molecule, donor type, donor heavy atom, donor atom, acceptor molecule, acceptor atom, score
      L1  H     7    19       P1  8028  1.00
      L1  H    10    20       P1  8028  0.86
      P1  H  7989  7998       L1    15  0.43

> <Gold.PLP.Chemscore.Internal.Correction>
0.0326

> <Gold.Rescore>
     Score         DG    S(hbond)    S(metal)    S(lipo)     H(rot)  DE(clash)    DE(int)     intcor
     15.50     -16.26       1.83        0.00      67.74       1.27       0.10       0.66       ----

> <Gold.Chemscore.Fitness>
15.4958

> <Gold.Chemscore.DG>
-16.2562

> <Gold.Chemscore.ZeroCoef>
-5.4800

> <Gold.Chemscore.Hbond>
1.8267

> <Gold.Chemscore.Metal>
0.0000

> <Gold.Chemscore.Lipo>
67.7428

> <Gold.Chemscore.Internal_Hbond>
0.0000

> <Gold.Chemscore.DEClash>
0.1043

> <Gold.Chemscore.DEInternal>
0.6560

> <Gold.Chemscore.Rot>
1.2699

> <Gold.Chemscore.Internal.Correction>
   9.000000E+99

> <Gold.Chemscore.Hbonds>
donor molecule, donor type, donor heavy atom, donor atom, acceptor molecule, acceptor atom, score
      L1  H     7    19       P1  8028  0.99
      L1  H    10    20       P1  8028  0.57

> <Gold.Chemscore.Hbond.Weighted>
-6.1012

> <Gold.Chemscore.Metal.Weighted>
-0.0000

> <Gold.Chemscore.Lipo.Weighted>
-7.9259

> <Gold.Chemscore.Internal_Hbond.Weighted>
0.0000

> <Gold.Chemscore.DEClash.Weighted>
0.1043

> <Gold.Chemscore.DEInternal.Weighted>
0.6560

> <Gold.Chemscore.Rot.Weighted>
3.2509

> <Gold.Chemscore.Internal.Correction.Weighted>
   9.000000E+99

> <Gold.Protein.RotatedTorsions>
[ 6907 6896 6895 6894 ] final  156.48 input  -60.11 | X-H torsion
[ 7974 7965 7964 7962 ] final   51.63 input  175.53 | X-H torsion
[ 8008 7997 7996 7995 ] final -136.58 input   59.86 | X-H torsion
[ 10167 10162 10161 10158 ] final  136.99 input  -65.29 | X-H torsion
[ 10718 10713 10712 10709 ] final  152.87 input   66.30 | X-H torsion
[ 10763 10752 10751 10750 ] final  -78.55 input  -60.55 | X-H torsion
[ 11005 11000 10999 10996 ] final   11.99 input  -57.11 | X-H torsion

> <Gold.Protein.ActiveResidues>
 VAL166  LYS551  ARG553  GLY616  TRP617  ASP618  TYR619  PRO620  LYS621  CYS622 
 ASP623  PHE694  ASN695  SER759  ASP760  ASP761  ALA762  ILE779  LEU786  VAL792 
 PHE793  MET794  SER795  GLU796  ALA797  LYS798  CYS799  TRP800  GLU811  SER814 

> <Gold.Protein.RotatedAtoms>
  152.0291  133.3930  159.4289 H   0  0  0  0  0  0  0  0  0  0  0  0  # atno 6907 bound_to 6896
  150.6883  134.3541  159.4931 H   0  0  0  0  0  0  0  0  0  0  0  0  # atno 6908 bound_to 6896
  152.1325  134.9124  160.0608 H   0  0  0  0  0  0  0  0  0  0  0  0  # atno 6909 bound_to 6896
  145.9894  139.4323  143.0083 H   0  0  0  0  0  0  0  0  0  0  0  0  # atno 7974 bound_to 7965
  155.3976  140.0504  157.3038 H   0  0  0  0  0  0  0  0  0  0  0  0  # atno 8008 bound_to 7997
  154.5006  140.2155  155.9315 H   0  0  0  0  0  0  0  0  0  0  0  0  # atno 8009 bound_to 7997
  156.1462  140.3145  155.8580 H   0  0  0  0  0  0  0  0  0  0  0  0  # atno 8010 bound_to 7997
  139.5160  144.6434  151.5505 H   0  0  0  0  0  0  0  0  0  0  0  0  # atno 10167 bound_to 10162
  157.2522  131.0781  151.1722 H   0  0  0  0  0  0  0  0  0  0  0  0  # atno 10718 bound_to 10713
  154.5274  135.5726  153.6730 H   0  0  0  0  0  0  0  0  0  0  0  0  # atno 10763 bound_to 10752
  152.9931  135.6196  154.2675 H   0  0  0  0  0  0  0  0  0  0  0  0  # atno 10764 bound_to 10752
  154.2599  135.2856  155.2762 H   0  0  0  0  0  0  0  0  0  0  0  0  # atno 10765 bound_to 10752
  140.4970  134.0783  155.7784 H   0  0  0  0  0  0  0  0  0  0  0  0  # atno 11005 bound_to 11000
  145.7653  140.9919  143.1178 LP  0  0  0  0  0  0  0  0  0  0  0  0  # atno 17320 bound_to 7965
  144.6884  139.9380  143.7474 LP  0  0  0  0  0  0  0  0  0  0  0  0  # atno 17321 bound_to 7965
  140.6210  143.9258  150.6526 LP  0  0  0  0  0  0  0  0  0  0  0  0  # atno 17342 bound_to 10162
  140.2532  143.3578  152.1388 LP  0  0  0  0  0  0  0  0  0  0  0  0  # atno 17343 bound_to 10162
  157.3265  130.6963  149.6299 LP  0  0  0  0  0  0  0  0  0  0  0  0  # atno 17370 bound_to 10713
  155.9666  130.4320  150.4944 LP  0  0  0  0  0  0  0  0  0  0  0  0  # atno 17371 bound_to 10713
  141.1455  133.9063  157.2226 LP  0  0  0  0  0  0  0  0  0  0  0  0  # atno 17394 bound_to 11000
  139.9735  135.0121  156.9573 LP  0  0  0  0  0  0  0  0  0  0  0  0  # atno 17395 bound_to 11000

$$$$
