#       Name:                AV-unprocessed.smi:3127
#       Creating user name   scv26
#       Creation time:       Fri Mar 27 17:29:44 2020


#       File generated by GOLD software.
#

@<TRIPOS>MOLECULE
AV-unprocessed.smi:3127
    37    38     1
SMALL
NO_CHARGES


@<TRIPOS>ATOM
      1 ****        -2.7984   1.6652  -0.5119 C.3            1 S1                 0.0000
      2 ****        -2.5153   0.4915  -1.4701 C.3            1 S1                 0.0000
      3 ****        -3.2200  -0.7820  -0.9625 C.3            1 S1                 0.0000
      4 ****        -3.1112   0.8473  -2.8493 C.3            1 S1                 0.0000
      5 ****        -1.0214   0.2516  -1.5647 C.2            1 S1                 0.0000
      6 ****        -0.2166   0.3315  -2.6784 C.2            1 S1                 0.0000
      7 ****         1.4510  -0.0192  -2.3172 S.3            1 S1                 0.0000
      8 ****         0.9998  -0.2871  -0.6403 C.2            1 S1                 0.0000
      9 ****         1.9914  -0.6293   0.4248 C.3            1 S1                 0.0000
     10 ****         2.5096   0.6174   1.1664 C.3            1 S1                 0.0000
     11 ****         3.4121   0.2136   2.2622 N.4            1 S1                 1.0000
     12 ****         2.7616  -0.7518   3.1707 C.3            1 S1                 0.0000
     13 ****         2.2265  -1.9539   2.3724 C.3            1 S1                 0.0000
     14 ****         1.3444  -1.4992   1.3515 O.3            1 S1                 0.0000
     15 ****        -0.3019  -0.0924  -0.4126 N.2            1 S1                 0.0000
     16 ****        -3.8669   1.8716  -0.4412 H              1 S1                 0.0000
     17 ****        -2.3084   2.5790  -0.8504 H              1 S1                 0.0000
     18 ****        -2.4425   1.4558   0.4975 H              1 S1                 0.0000
     19 ****        -2.8761  -1.0629   0.0337 H              1 S1                 0.0000
     20 ****        -3.0336  -1.6283  -1.6248 H              1 S1                 0.0000
     21 ****        -4.3001  -0.6423  -0.9038 H              1 S1                 0.0000
     22 ****        -4.1865   1.0180  -2.7848 H              1 S1                 0.0000
     23 ****        -2.9548   0.0451  -3.5718 H              1 S1                 0.0000
     24 ****        -2.6647   1.7549  -3.2580 H              1 S1                 0.0000
     25 ****        -0.4982   0.5785  -3.6914 H              1 S1                 0.0000
     26 ****         2.8223  -1.1589  -0.0451 H              1 S1                 0.0000
     27 ****         3.0433   1.2793   0.4837 H              1 S1                 0.0000
     28 ****         1.6773   1.1868   1.5833 H              1 S1                 0.0000
     29 ****         4.2326  -0.2195   1.8628 H              1 S1                 0.0000
     30 ****         3.4781  -1.0787   3.9245 H              1 S1                 0.0000
     31 ****         1.9446  -0.2556   3.6962 H              1 S1                 0.0000
     32 ****         3.0454  -2.5249   1.9318 H              1 S1                 0.0000
     33 ****         1.6842  -2.6322   3.0314 H              1 S1                 0.0000
     34 ****         3.6925   1.0311   2.7854 H              1 S1                 0.0000
     35 ****         0.9910  -2.2922   0.8552 LP             1 S1                 0.0000
     36 ****         0.5853  -1.0074   1.7780 LP             1 S1                 0.0000
     37 ****        -0.7214  -0.1832   0.4906 LP             1 S1                 0.0000
@<TRIPOS>BOND
    1    1    2 1     
    2    1   16 1     
    3    1   17 1     
    4    1   18 1     
    5    2    3 1     
    6    2    4 1     
    7    2    5 1     
    8    3   19 1     
    9    3   20 1     
   10    3   21 1     
   11    4   22 1     
   12    4   23 1     
   13    4   24 1     
   14    5   15 1     
   15    5    6 2     
   16    6    7 1     
   17    6   25 1     
   18    7    8 1     
   19    8    9 1     
   20    8   15 2     
   21    9   14 1     
   22    9   10 1     
   23    9   26 1     
   24   10   11 1     
   25   10   27 1     
   26   10   28 1     
   27   11   12 1     
   28   11   29 1     
   29   11   34 1     
   30   12   13 1     
   31   12   30 1     
   32   12   31 1     
   33   13   14 1     
   34   13   32 1     
   35   13   33 1     
   36   14   35 1     
   37   14   36 1     
   38   15   37 1     
@<TRIPOS>SUBSTRUCTURE
      1 S1             1
@<TRIPOS>SET
LONE_PAIRS      STATIC     ATOMS    <user>   **** ""
3 35 36 37
DONOR_HYDROGENS      STATIC     ATOMS    <user>   **** ""
2 29 34
ATOM$BLUE        STATIC     ATOMS    COLORGROUP SYSTEM
3 35 36 37
ATOM$RED        STATIC     ATOMS    COLORGROUP SYSTEM
2 29 34
