AV-unprocessed.smi:366|AV-procd|sdf|2430|dock3
  -GOLD-   2262022373D 1   1.00000     0.00000
 Structure written by MMmdl.
 50 51  0  0  0  0  0  0  0  0  1 V2000
  149.2363  140.5167  154.4709 C   0  0  0  0  0  0  0  0  0  0  0  0
  150.2548  139.6179  155.1643 C   0  0  0  0  0  0  0  0  0  0  0  0
  151.4367  139.6541  154.8242 O   0  0  0  0  0  0  0  0  0  0  0  0
  149.7868  138.8190  156.1368 N   0  0  0  0  0  0  0  0  0  0  0  0
  150.5924  137.8953  156.9385 C   0  0  1  0  0  0  0  0  0  0  0  0
  150.9776  136.6902  156.0591 C   0  0  0  0  0  0  0  0  0  0  0  0
  151.7647  136.8252  155.1206 O   0  0  0  0  0  0  0  0  0  0  0  0
  150.4263  135.5137  156.3893 N   0  0  0  0  0  0  0  0  0  0  0  0
  150.6719  134.2631  155.6873 C   0  0  0  0  0  0  0  0  0  0  0  0
  149.5593  133.9453  154.7095 C   0  0  0  0  0  0  0  0  0  0  0  0
  149.6264  132.8091  153.8805 C   0  0  0  0  0  0  0  0  0  0  0  0
  148.5734  132.5604  152.9797 C   0  0  0  0  0  0  0  0  0  0  0  0
  147.4811  133.4598  152.9272 C   0  0  0  0  0  0  0  0  0  0  0  0
  146.4148  133.2317  152.0299 N   0  0  0  0  0  0  0  0  0  0  0  0
  145.7499  131.9304  152.0717 C   0  0  0  0  0  0  0  0  0  0  0  0
  144.8298  131.7575  150.8516 C   0  0  0  0  0  0  0  0  0  0  0  0
  143.9109  132.8426  150.7873 O   0  0  0  0  0  0  0  0  0  0  0  0
  144.5772  134.0910  150.6324 C   0  0  0  0  0  0  0  0  0  0  0  0
  145.4910  134.3483  151.8430 C   0  0  0  0  0  0  0  0  0  0  0  0
  147.4224  134.5509  153.7314 N   0  0  0  0  0  0  0  0  0  0  0  0
  148.4341  134.7851  154.5934 C   0  0  0  0  0  0  0  0  0  0  0  0
  151.8755  138.6332  157.4226 C   0  0  0  0  0  0  0  0  0  0  0  0
  152.8265  137.7242  158.2294 C   0  0  0  0  0  0  0  0  0  0  0  0
  151.5388  139.8805  158.2637 C   0  0  0  0  0  0  0  0  0  0  0  0
  148.2146  140.1923  154.6728 H   0  0  0  0  0  0  0  0  0  0  0  0
  149.3906  140.5021  153.3917 H   0  0  0  0  0  0  0  0  0  0  0  0
  149.3455  141.5437  154.8191 H   0  0  0  0  0  0  0  0  0  0  0  0
  148.8018  138.8641  156.3529 H   0  0  0  0  0  0  0  0  0  0  0  0
  150.0177  137.5596  157.8045 H   0  0  0  0  0  0  0  0  0  0  0  0
  149.7912  135.4852  157.1738 H   0  0  0  0  0  0  0  0  0  0  0  0
  151.6199  134.3190  155.1496 H   0  0  0  0  0  0  0  0  0  0  0  0
  150.7628  133.4508  156.4103 H   0  0  0  0  0  0  0  0  0  0  0  0
  150.4692  132.1357  153.9332 H   0  0  0  0  0  0  0  0  0  0  0  0
  148.6099  131.6810  152.3546 H   0  0  0  0  0  0  0  0  0  0  0  0
  146.4888  131.1281  152.0819 H   0  0  0  0  0  0  0  0  0  0  0  0
  145.1686  131.8516  152.9914 H   0  0  0  0  0  0  0  0  0  0  0  0
  145.4112  131.7031  149.9297 H   0  0  0  0  0  0  0  0  0  0  0  0
  144.2724  130.8244  150.9314 H   0  0  0  0  0  0  0  0  0  0  0  0
  145.1510  134.0968  149.7043 H   0  0  0  0  0  0  0  0  0  0  0  0
  143.8324  134.8824  150.5498 H   0  0  0  0  0  0  0  0  0  0  0  0
  144.8903  134.4612  152.7463 H   0  0  0  0  0  0  0  0  0  0  0  0
  146.0170  135.2900  151.6937 H   0  0  0  0  0  0  0  0  0  0  0  0
  148.3426  135.6697  155.2063 H   0  0  0  0  0  0  0  0  0  0  0  0
  152.4274  138.9800  156.5470 H   0  0  0  0  0  0  0  0  0  0  0  0
  152.3227  137.2977  159.0972 H   0  0  0  0  0  0  0  0  0  0  0  0
  153.6900  138.2834  158.5907 H   0  0  0  0  0  0  0  0  0  0  0  0
  153.2157  136.9000  157.6315 H   0  0  0  0  0  0  0  0  0  0  0  0
  150.9510  139.6164  159.1431 H   0  0  0  0  0  0  0  0  0  0  0  0
  150.9722  140.6173  157.6943 H   0  0  0  0  0  0  0  0  0  0  0  0
  152.4456  140.3777  158.6090 H   0  0  0  0  0  0  0  0  0  0  0  0
  1  2  1  0  0  0  0
  1 25  1  0  0  0  0
  1 26  1  0  0  0  0
  1 27  1  0  0  0  0
  2  3  2  0  0  0  0
  2  4  1  0  0  0  0
  4  5  1  0  0  0  0
  4 28  1  0  0  0  0
  5  6  1  0  0  0  0
  5 22  1  0  0  0  0
  5 29  1  0  0  0  0
  6  7  2  0  0  0  0
  6  8  1  0  0  0  0
  8  9  1  0  0  0  0
  8 30  1  0  0  0  0
  9 10  1  0  0  0  0
  9 31  1  0  0  0  0
  9 32  1  0  0  0  0
 10 21  1  0  0  0  0
 10 11  2  0  0  0  0
 11 12  1  0  0  0  0
 11 33  1  0  0  0  0
 12 13  2  0  0  0  0
 12 34  1  0  0  0  0
 13 14  1  0  0  0  0
 13 20  1  0  0  0  0
 14 19  1  0  0  0  0
 14 15  1  0  0  0  0
 15 16  1  0  0  0  0
 15 35  1  0  0  0  0
 15 36  1  0  0  0  0
 16 17  1  0  0  0  0
 16 37  1  0  0  0  0
 16 38  1  0  0  0  0
 17 18  1  0  0  0  0
 18 19  1  0  0  0  0
 18 39  1  0  0  0  0
 18 40  1  0  0  0  0
 19 41  1  0  0  0  0
 19 42  1  0  0  0  0
 20 21  2  0  0  0  0
 21 43  1  0  0  0  0
 22 23  1  0  0  0  0
 22 24  1  0  0  0  0
 22 44  1  0  0  0  0
 23 45  1  0  0  0  0
 23 46  1  0  0  0  0
 23 47  1  0  0  0  0
 24 48  1  0  0  0  0
 24 49  1  0  0  0  0
 24 50  1  0  0  0  0
M  END
> <s_m_source_file>
AV-unprocessed.smi

> <i_m_source_file_index>
366

> <i_lp_mmshare_version>
43012

> <i_f3d_flags>
0

> <s_epik_input>
W0NIM11DKD1PKVtOSF1bQ0BASF0oW0NIXShbQ0gzXSlbQ0gzXSlDKD1PKVtOSF1bQ0gyXWMxW2NIXVtjSF1jKG5bY0hdMSlOMltDSDJdW0NIMl1PW0NIMl1bQ0gyXTI=

> <s_epik_cmdline>
J2VwaWtfcHl0aG9uJywgJy1waCcsICc3LjAnLCAnLXRuJywgJzgnLCAnLW1hJywgJzIwMCcsICctbWV0YWxfYmluZGluZycsICctaW1hZScsICc8aW5maWxlLm1hZT4nLCAnLW9tYWUnLCAnPG91dGZpbGUubWFlPic=

> <r_lp_tautomer_probability>
1

> <r_epik_Ionization_Penalty>
0.00485188

> <r_epik_Ionization_Penalty_Charging>
0

> <r_epik_Ionization_Penalty_Neutral>
0.00485188

> <r_epik_State_Penalty>
0.00351951

> <r_epik_Charging_Adjusted_Penalty>
0.00351951

> <i_epik_Tot_Q>
0

> <i_epik_Tot_abs_Q>
0

> <r_epik_Metal_State_Penalty>
-0

> <b_epik_Metal_Only>
0

> <s_lp_Force_Field>
OPLS_2005

> <r_lp_Energy>
20.5125

> <b_lp_Chiralities_Consistent>
1

> <s_lp_Variant>
AV-unprocessed.smi:366-2

> <Gold.Version>
5.8.1

> <Gold.Id.Protein>
6NUR|6NUR_protein|mol2

> <Gold.PLP.Fitness>
40.1628

> <Gold.PLP.PLP>
-34.9949

> <Gold.PLP.part.hbond>
-2.0000

> <Gold.PLP.part.metal>
0.0000

> <Gold.PLP.part.buried>
-5.8871

> <Gold.PLP.part.nonpolar>
-27.7268

> <Gold.PLP.part.repulsive>
1.7385

> <Gold.PLP.ligand.clash>
0.0000

> <Gold.PLP.ligand.torsion>
0.6499

> <Gold.PLP.Chemscore.Hbond>
2.0000

> <Gold.PLP.Chemscore.CHOScore>
0.0000

> <Gold.PLP.Chemscore.Metal>
0.0000

> <Gold.Chemscore.Hbonds>
donor molecule, donor type, donor heavy atom, donor atom, acceptor molecule, acceptor atom, score
      P1  H  7989  7998       L1     3  1.00
      P1  H 10752 10763       L1     7  1.00

> <Gold.PLP.Chemscore.Internal.Correction>
0.4677

> <Gold.Rescore>
     Score         DG    S(hbond)    S(metal)    S(lipo)     H(rot)  DE(clash)    DE(int)     intcor
     12.26     -15.86       1.99        0.00      79.54       2.18       0.14       3.47       ----

> <Gold.Chemscore.Fitness>
12.2578

> <Gold.Chemscore.DG>
-15.8629

> <Gold.Chemscore.ZeroCoef>
-5.4800

> <Gold.Chemscore.Hbond>
1.9942

> <Gold.Chemscore.Metal>
0.0000

> <Gold.Chemscore.Lipo>
79.5428

> <Gold.Chemscore.Internal_Hbond>
0.0000

> <Gold.Chemscore.DEClash>
0.1350

> <Gold.Chemscore.DEInternal>
3.4701

> <Gold.Chemscore.Rot>
2.1813

> <Gold.Chemscore.Internal.Correction>
   9.000000E+99

> <Gold.Chemscore.Hbonds>
donor molecule, donor type, donor heavy atom, donor atom, acceptor molecule, acceptor atom, score
      P1  H  7989  7998       L1     3  0.74
      P1  H 10752 10763       L1     7  0.99

> <Gold.Chemscore.Hbond.Weighted>
-6.6606

> <Gold.Chemscore.Metal.Weighted>
-0.0000

> <Gold.Chemscore.Lipo.Weighted>
-9.3065

> <Gold.Chemscore.Internal_Hbond.Weighted>
0.0000

> <Gold.Chemscore.DEClash.Weighted>
0.1350

> <Gold.Chemscore.DEInternal.Weighted>
3.4701

> <Gold.Chemscore.Rot.Weighted>
5.5842

> <Gold.Chemscore.Internal.Correction.Weighted>
   9.000000E+99

> <Gold.Protein.RotatedTorsions>
[ 6907 6896 6895 6894 ] final  -58.30 input  -60.11 | X-H torsion
[ 7974 7965 7964 7962 ] final   67.23 input  175.53 | X-H torsion
[ 8008 7997 7996 7995 ] final  135.26 input   59.86 | X-H torsion
[ 10167 10162 10161 10158 ] final   25.72 input  -65.29 | X-H torsion
[ 10718 10713 10712 10709 ] final   31.21 input   66.30 | X-H torsion
[ 10763 10752 10751 10750 ] final   61.68 input  -60.55 | X-H torsion
[ 11005 11000 10999 10996 ] final   86.13 input  -57.11 | X-H torsion

> <Gold.Protein.ActiveResidues>
 VAL166  LYS551  ARG553  GLY616  TRP617  ASP618  TYR619  PRO620  LYS621  CYS622 
 ASP623  PHE694  ASN695  SER759  ASP760  ASP761  ALA762  ILE779  LEU786  VAL792 
 PHE793  MET794  SER795  GLU796  ALA797  LYS798  CYS799  TRP800  GLU811  SER814 

> <Gold.Protein.RotatedAtoms>
  150.8018  134.7117  159.6606 H   0  0  0  0  0  0  0  0  0  0  0  0  # atno 6907 bound_to 6896
  152.4135  134.6079  160.0027 H   0  0  0  0  0  0  0  0  0  0  0  0  # atno 6908 bound_to 6896
  151.6315  133.3295  159.3146 H   0  0  0  0  0  0  0  0  0  0  0  0  # atno 6909 bound_to 6896
  145.8171  139.3064  143.1065 H   0  0  0  0  0  0  0  0  0  0  0  0  # atno 7974 bound_to 7965
  156.3002  140.2475  156.3552 H   0  0  0  0  0  0  0  0  0  0  0  0  # atno 8008 bound_to 7997
  154.8928  140.0408  157.1868 H   0  0  0  0  0  0  0  0  0  0  0  0  # atno 8009 bound_to 7997
  154.8580  140.2916  155.5561 H   0  0  0  0  0  0  0  0  0  0  0  0  # atno 8010 bound_to 7997
  140.5082  144.0203  150.6361 H   0  0  0  0  0  0  0  0  0  0  0  0  # atno 10167 bound_to 10162
  157.2695  130.7201  149.6496 H   0  0  0  0  0  0  0  0  0  0  0  0  # atno 10718 bound_to 10713
  152.9958  135.5492  154.6073 H   0  0  0  0  0  0  0  0  0  0  0  0  # atno 10763 bound_to 10752
  154.5401  135.2819  155.1105 H   0  0  0  0  0  0  0  0  0  0  0  0  # atno 10764 bound_to 10752
  154.2386  135.6420  153.5252 H   0  0  0  0  0  0  0  0  0  0  0  0  # atno 10765 bound_to 10752
  139.8953  134.8334  156.2677 H   0  0  0  0  0  0  0  0  0  0  0  0  # atno 11005 bound_to 11000
  145.9715  140.8756  143.0160 LP  0  0  0  0  0  0  0  0  0  0  0  0  # atno 17320 bound_to 7965
  144.6751  140.1952  143.7392 LP  0  0  0  0  0  0  0  0  0  0  0  0  # atno 17321 bound_to 7965
  140.3519  143.2958  152.0478 LP  0  0  0  0  0  0  0  0  0  0  0  0  # atno 17342 bound_to 10162
  139.4889  144.6368  151.6960 LP  0  0  0  0  0  0  0  0  0  0  0  0  # atno 17343 bound_to 10162
  155.9663  130.4372  150.5166 LP  0  0  0  0  0  0  0  0  0  0  0  0  # atno 17370 bound_to 10713
  157.3087  131.0659  151.2016 LP  0  0  0  0  0  0  0  0  0  0  0  0  # atno 17371 bound_to 10713
  141.0121  133.7090  156.1128 LP  0  0  0  0  0  0  0  0  0  0  0  0  # atno 17394 bound_to 11000
  140.7353  134.4210  157.5561 LP  0  0  0  0  0  0  0  0  0  0  0  0  # atno 17395 bound_to 11000

$$$$
