#       Name:                AV-unprocessed.smi:227
#       Creating user name   scv26
#       Creation time:       Thu Mar 26 20:23:31 2020


#       File generated by GOLD software.
#

@<TRIPOS>MOLECULE
AV-unprocessed.smi:227
    64    68     1
SMALL
NO_CHARGES


@<TRIPOS>ATOM
      1 ****        -2.0271  -0.7600  -0.7212 O.3            1 S1                 0.0000
      2 ****        -1.8805  -1.6542  -1.8055 C.3            1 S1                 0.0000
      3 ****        -1.2396  -0.9656  -3.0387 C.3            1 S1                 0.0000
      4 ****         0.3018  -0.8401  -2.9112 C.3            1 S1                 0.0000
      5 ****         0.7352  -0.1441  -1.7128 N.pl3          1 S1                 0.0000
      6 ****         0.7348   1.2155  -1.5108 C.2            1 S1                 0.0000
      7 ****         1.1671   1.6010  -0.3421 N.2            1 S1                 0.0000
      8 ****         1.4865   0.4197   0.3199 C.ar           1 S1                 0.0000
      9 ****         1.9902   0.0970   1.6163 C.ar           1 S1                 0.0000
     10 ****         2.2998   1.0011   2.5877 N.3            1 S1                 0.0000
     11 ****         1.6600   2.3068   2.6605 C.3            1 S1                 0.0000
     12 ****         2.4602   3.0034   3.7747 C.3            1 S1                 0.0000
     13 ****         2.7639   1.8247   4.7101 C.3            1 S1                 0.0000
     14 ****         2.0468   0.6707   3.9844 C.3            1 S1                 0.0000
     15 ****         0.5052   0.7938   4.1002 C.3            1 S1                 0.0000
     16 ****        -0.0653   0.9081   5.5258 C.3            1 S1                 0.0000
     17 ****        -1.4725   0.8027   5.4898 O.3            1 S1                 0.0000
     18 ****         0.2407   2.0046   3.1843 C.3            1 S1                 0.0000
     19 ****         2.1924  -1.2189   1.8916 N.ar           1 S1                 0.0000
     20 ****         1.9101  -2.1570   0.9845 C.ar           1 S1                 0.0000
     21 ****         1.4274  -2.0047  -0.2486 N.ar           1 S1                 0.0000
     22 ****         1.2309  -0.6878  -0.5409 C.ar           1 S1                 0.0000
     23 ****        -1.6181  -1.7071  -4.3471 C.3            1 S1                 0.0000
     24 ****        -3.1164  -1.7483  -4.6508 C.3            1 S1                 0.0000
     25 ****        -3.2164  -1.6062  -6.1727 C.3            1 S1                 0.0000
     26 ****        -1.8782  -1.6413  -6.6426 O.3            1 S1                 0.0000
     27 ****        -1.0614  -1.0831  -5.6296 C.3            1 S1                 0.0000
     28 ****        -2.4000  -1.2312   0.0083 H              1 S1                 0.0000
     29 ****        -1.2909  -2.5169  -1.4937 H              1 S1                 0.0000
     30 ****        -2.8786  -2.0275  -2.0307 H              1 S1                 0.0000
     31 ****        -1.6529   0.0417  -3.1128 H              1 S1                 0.0000
     32 ****         0.7616  -1.8292  -2.9246 H              1 S1                 0.0000
     33 ****         0.7155  -0.2997  -3.7624 H              1 S1                 0.0000
     34 ****         0.3970   1.9157  -2.2609 H              1 S1                 0.0000
     35 ****         1.6722   2.8912   1.7425 H              1 S1                 0.0000
     36 ****         3.3851   3.4299   3.3845 H              1 S1                 0.0000
     37 ****         1.8985   3.8005   4.2631 H              1 S1                 0.0000
     38 ****         3.8385   1.6408   4.7446 H              1 S1                 0.0000
     39 ****         2.4279   1.9853   5.7335 H              1 S1                 0.0000
     40 ****         2.4215  -0.3042   4.2979 H              1 S1                 0.0000
     41 ****         0.0680  -0.0932   3.6376 H              1 S1                 0.0000
     42 ****         0.3263   0.1098   6.1565 H              1 S1                 0.0000
     43 ****         0.1997   1.8562   5.9931 H              1 S1                 0.0000
     44 ****        -1.8124   1.5077   4.9602 H              1 S1                 0.0000
     45 ****        -0.1979   2.8563   3.7057 H              1 S1                 0.0000
     46 ****        -0.4307   1.7294   2.3700 H              1 S1                 0.0000
     47 ****         2.0968  -3.1754   1.2915 H              1 S1                 0.0000
     48 ****        -1.2543  -2.7346  -4.2937 H              1 S1                 0.0000
     49 ****        -3.5609  -2.6823  -4.3053 H              1 S1                 0.0000
     50 ****        -3.6505  -0.9287  -4.1680 H              1 S1                 0.0000
     51 ****        -3.8087  -2.3995  -6.6292 H              1 S1                 0.0000
     52 ****        -3.6664  -0.6489  -6.4397 H              1 S1                 0.0000
     53 ****        -1.1711   0.0030  -5.6265 H              1 S1                 0.0000
     54 ****        -0.0120  -1.3249  -5.7988 H              1 S1                 0.0000
     55 ****        -2.6334  -0.0091  -0.9829 LP             1 S1                 0.0000
     56 ****        -1.1333  -0.3926  -0.4639 LP             1 S1                 0.0000
     57 ****         1.2504   2.5364   0.0014 LP             1 S1                 0.0000
     58 ****         3.2432   0.9936   2.2560 LP             1 S1                 0.0000
     59 ****        -1.8397   0.8703   6.4175 LP             1 S1                 0.0000
     60 ****        -1.7349  -0.0759   5.0907 LP             1 S1                 0.0000
     61 ****         2.5566  -1.4872   2.7835 LP             1 S1                 0.0000
     62 ****         1.2346  -2.7582  -0.8772 LP             1 S1                 0.0000
     63 ****        -1.7963  -1.1049  -7.4825 LP             1 S1                 0.0000
     64 ****        -1.6032  -2.5859  -6.8221 LP             1 S1                 0.0000
@<TRIPOS>BOND
    1    1    2 1     
    2    1   28 1     
    3    2    3 1     
    4    2   29 1     
    5    2   30 1     
    6    3    4 1     
    7    3   23 1     
    8    3   31 1     
    9    4    5 1     
   10    4   32 1     
   11    4   33 1     
   12    5   22 1     
   13    5    6 1     
   14    6    7 2     
   15    6   34 1     
   16    7    8 1     
   17    8   22 ar    
   18    8    9 ar    
   19    9   10 1     
   20    9   19 ar    
   21   10   14 1     
   22   10   11 1     
   23   11   18 1     
   24   11   12 1     
   25   11   35 1     
   26   12   13 1     
   27   12   36 1     
   28   12   37 1     
   29   13   14 1     
   30   13   38 1     
   31   13   39 1     
   32   14   15 1     
   33   14   40 1     
   34   15   16 1     
   35   15   18 1     
   36   15   41 1     
   37   16   17 1     
   38   16   42 1     
   39   16   43 1     
   40   17   44 1     
   41   18   45 1     
   42   18   46 1     
   43   19   20 ar    
   44   20   21 ar    
   45   20   47 1     
   46   21   22 ar    
   47   23   27 1     
   48   23   24 1     
   49   23   48 1     
   50   24   25 1     
   51   24   49 1     
   52   24   50 1     
   53   25   26 1     
   54   25   51 1     
   55   25   52 1     
   56   26   27 1     
   57   27   53 1     
   58   27   54 1     
   59    1   55 1     
   60    1   56 1     
   61    7   57 1     
   62   10   58 1     
   63   17   59 1     
   64   17   60 1     
   65   19   61 1     
   66   21   62 1     
   67   26   63 1     
   68   26   64 1     
@<TRIPOS>SUBSTRUCTURE
      1 S1             1
@<TRIPOS>SET
LONE_PAIRS      STATIC     ATOMS    <user>   **** ""
10 55 56 57 58 59 60 61 62 63 64
DONOR_HYDROGENS      STATIC     ATOMS    <user>   **** ""
2 28 44
ATOM$BLUE        STATIC     ATOMS    COLORGROUP SYSTEM
10 55 56 57 58 59 60 61 62 63 64
ATOM$RED        STATIC     ATOMS    COLORGROUP SYSTEM
2 28 44
