#       Name:                AV-unprocessed.smi:160
#       Creating user name   scv26
#       Creation time:       Thu Mar 26 19:06:03 2020


#       File generated by GOLD software.
#

@<TRIPOS>MOLECULE
AV-unprocessed.smi:160
    41    42     1
SMALL
NO_CHARGES


@<TRIPOS>ATOM
      1 ****        -3.5702   1.6884   0.3772 N.am           1 S1                 0.0000
      2 ****        -3.8908   0.5487  -0.2440 C.2            1 S1                 0.0000
      3 ****        -5.0466   0.2757  -0.5638 O.2            1 S1                 0.0000
      4 ****        -2.7537  -0.3907  -0.5366 C.2            1 S1                 0.0000
      5 ****        -2.9637  -1.5716  -1.1896 N.2            1 S1                 0.0000
      6 ****        -1.7159  -2.0218  -1.2100 C.2            1 S1                 0.0000
      7 ****        -0.8299  -1.2121  -0.6210 N.pl3          1 S1                 0.0000
      8 ****         0.6507  -1.3671  -0.4762 C.3            1 S1                 0.0000
      9 ****         1.2646  -0.3592  -1.2242 O.3            1 S1                 0.0000
     10 ****         2.0969   0.4733  -0.4171 C.3            1 S1                 0.0000
     11 ****         1.3744   1.8143  -0.1594 C.3            1 S1                 0.0000
     12 ****         1.4075   2.6072  -1.3269 O.3            1 S1                 0.0000
     13 ****         2.3703  -0.3882   0.8275 C.3            1 S1                 0.0000
     14 ****         2.6351   0.3736   1.9897 O.3            1 S1                 0.0000
     15 ****         1.1083  -1.2242   0.9836 C.3            1 S1                 0.0000
     16 ****         1.4461  -2.4752   1.5493 O.3            1 S1                 0.0000
     17 ****        -1.4980  -0.1185  -0.1780 N.2            1 S1                 0.0000
     18 ****         0.8784  -2.3393  -0.9165 H              1 S1                 0.0000
     19 ****         3.0368   0.6691  -0.9353 H              1 S1                 0.0000
     20 ****         3.2260  -1.0334   0.6204 H              1 S1                 0.0000
     21 ****         0.3578  -0.7059   1.5819 H              1 S1                 0.0000
     22 ****        -4.2901   2.3598   0.6007 H              1 S1                 0.0000
     23 ****        -2.6067   1.8696   0.6188 H              1 S1                 0.0000
     24 ****        -1.4417  -2.9628  -1.6642 H              1 S1                 0.0000
     25 ****         0.3499   1.6781   0.1788 H              1 S1                 0.0000
     26 ****         1.8868   2.3881   0.6122 H              1 S1                 0.0000
     27 ****         0.9704   3.4255  -1.1470 H              1 S1                 0.0000
     28 ****         3.4267   0.8704   1.8494 H              1 S1                 0.0000
     29 ****         2.1208  -2.8724   1.0203 H              1 S1                 0.0000
     30 ****        -5.7865   0.9169  -0.3601 LP             1 S1                 0.0000
     31 ****        -5.2465  -0.5874  -1.0275 LP             1 S1                 0.0000
     32 ****        -3.8061  -1.9760  -1.5458 LP             1 S1                 0.0000
     33 ****         0.5563   0.2057  -1.6476 LP             1 S1                 0.0000
     34 ****         1.8245  -0.7815  -1.9370 LP             1 S1                 0.0000
     35 ****         0.9389   2.1312  -2.0711 LP             1 S1                 0.0000
     36 ****         2.3566   2.7824  -1.5887 LP             1 S1                 0.0000
     37 ****         2.7543  -0.2366   2.7729 LP             1 S1                 0.0000
     38 ****         1.8728   0.9965   2.1655 LP             1 S1                 0.0000
     39 ****         0.6396  -3.0661   1.5664 LP             1 S1                 0.0000
     40 ****         1.7827  -2.3436   2.4817 LP             1 S1                 0.0000
     41 ****        -1.1408   0.6862   0.2962 LP             1 S1                 0.0000
@<TRIPOS>BOND
    1    1    2 am    
    2    1   22 1     
    3    1   23 1     
    4    2    3 2     
    5    2    4 1     
    6    4   17 2     
    7    4    5 1     
    8    5    6 2     
    9    6    7 1     
   10    6   24 1     
   11    7    8 1     
   12    7   17 1     
   13    8   18 1     
   14    8   15 1     
   15    8    9 1     
   16    9   10 1     
   17   10   19 1     
   18   10   11 1     
   19   10   13 1     
   20   11   12 1     
   21   11   25 1     
   22   11   26 1     
   23   12   27 1     
   24   13   20 1     
   25   13   14 1     
   26   13   15 1     
   27   14   28 1     
   28   15   21 1     
   29   15   16 1     
   30   16   29 1     
   31    3   30 1     
   32    3   31 1     
   33    5   32 1     
   34    9   33 1     
   35    9   34 1     
   36   12   35 1     
   37   12   36 1     
   38   14   37 1     
   39   14   38 1     
   40   16   39 1     
   41   16   40 1     
   42   17   41 1     
@<TRIPOS>SUBSTRUCTURE
      1 S1             1
@<TRIPOS>SET
LONE_PAIRS      STATIC     ATOMS    <user>   **** ""
12 30 31 32 33 34 35 36 37 38 39 40 41
DONOR_HYDROGENS      STATIC     ATOMS    <user>   **** ""
5 22 23 27 28 29
ATOM$BLUE        STATIC     ATOMS    COLORGROUP SYSTEM
12 30 31 32 33 34 35 36 37 38 39 40 41
ATOM$RED        STATIC     ATOMS    COLORGROUP SYSTEM
5 22 23 27 28 29
