AV-unprocessed.smi:1381|AV-procd|sdf|5609|dock2
  -GOLD-   22720 5213D 1   1.00000     0.00000
 Structure written by MMmdl.
 41 42  0  0  0  0  0  0  0  0  2 V2000
  145.7246  134.2037  162.0252 C   0  0  0  0  0  0  0  0  0  0  0  0
  146.6851  135.1301  161.3621 C   0  0  0  0  0  0  0  0  0  0  0  0
  147.5790  134.9653  160.3424 C   0  0  0  0  0  0  0  0  0  0  0  0
  148.1602  136.2558  160.2078 C   0  0  0  0  0  0  0  0  0  0  0  0
  149.1168  136.6046  159.3336 N   0  5  0  0  0  0  0  0  0  0  0  0
  149.0499  137.7913  158.6866 C   0  0  0  0  0  0  0  0  0  0  0  0
  148.0954  138.5722  158.6863 O   0  0  0  0  0  0  0  0  0  0  0  0
  150.1577  138.0922  157.9957 N   0  0  0  0  0  0  0  0  0  0  0  0
  150.3611  139.3053  157.2153 C   0  0  0  0  0  0  0  0  0  0  0  0
  150.2195  140.5430  158.1154 C   0  0  0  0  0  0  0  0  0  0  0  0
  151.4662  141.2568  158.3873 N   0  0  0  0  0  0  0  0  0  0  0  0
  152.2286  140.6563  159.4791 C   0  0  0  0  0  0  0  0  0  0  0  0
  153.5261  141.4340  159.7739 C   0  0  2  0  0  0  0  0  0  0  0  0
  154.2827  140.8631  160.9781 C   0  0  0  0  0  0  0  0  0  0  0  0
  153.2056  142.7946  160.0516 O   0  0  0  0  0  0  0  0  0  0  0  0
  152.5035  143.4352  158.9903 C   0  0  2  0  0  0  0  0  0  0  0  0
  152.2308  144.8868  159.3990 C   0  0  0  0  0  0  0  0  0  0  0  0
  151.2056  142.6555  158.7070 C   0  0  0  0  0  0  0  0  0  0  0  0
  147.6755  137.1218  161.0819 N   0  0  0  0  0  0  0  0  0  0  0  0
  146.7230  136.4100  161.8209 O   0  0  0  0  0  0  0  0  0  0  0  0
  146.1749  133.2221  162.1733 H   0  0  0  0  0  0  0  0  0  0  0  0
  144.8300  134.0774  161.4156 H   0  0  0  0  0  0  0  0  0  0  0  0
  145.4196  134.5853  162.9997 H   0  0  0  0  0  0  0  0  0  0  0  0
  147.7815  134.0678  159.7776 H   0  0  0  0  0  0  0  0  0  0  0  0
  150.9165  137.4269  158.0179 H   0  0  0  0  0  0  0  0  0  0  0  0
  151.3500  139.2589  156.7591 H   0  0  0  0  0  0  0  0  0  0  0  0
  149.6297  139.3504  156.4066 H   0  0  0  0  0  0  0  0  0  0  0  0
  149.5253  141.2270  157.6245 H   0  0  0  0  0  0  0  0  0  0  0  0
  149.7450  140.2590  159.0560 H   0  0  0  0  0  0  0  0  0  0  0  0
  151.6142  140.6190  160.3802 H   0  0  0  0  0  0  0  0  0  0  0  0
  152.4881  139.6266  159.2353 H   0  0  0  0  0  0  0  0  0  0  0  0
  154.1791  141.3966  158.9003 H   0  0  0  0  0  0  0  0  0  0  0  0
  154.5611  139.8228  160.8087 H   0  0  0  0  0  0  0  0  0  0  0  0
  153.6746  140.9047  161.8820 H   0  0  0  0  0  0  0  0  0  0  0  0
  155.1974  141.4256  161.1659 H   0  0  0  0  0  0  0  0  0  0  0  0
  153.1328  143.4350  158.0985 H   0  0  0  0  0  0  0  0  0  0  0  0
  151.7095  145.4260  158.6077 H   0  0  0  0  0  0  0  0  0  0  0  0
  153.1622  145.4151  159.6034 H   0  0  0  0  0  0  0  0  0  0  0  0
  151.6161  144.9350  160.2983 H   0  0  0  0  0  0  0  0  0  0  0  0
  150.6753  143.1289  157.8798 H   0  0  0  0  0  0  0  0  0  0  0  0
  150.5475  142.7185  159.5752 H   0  0  0  0  0  0  0  0  0  0  0  0
  1  2  1  0  0  0  0
  1 21  1  0  0  0  0
  1 22  1  0  0  0  0
  1 23  1  0  0  0  0
  2 20  1  0  0  0  0
  2  3  2  0  0  0  0
  3  4  1  0  0  0  0
  3 24  1  0  0  0  0
  4  5  1  0  0  0  0
  4 19  2  0  0  0  0
  5  6  1  0  0  0  0
  6  7  2  0  0  0  0
  6  8  1  0  0  0  0
  8  9  1  0  0  0  0
  8 25  1  0  0  0  0
  9 10  1  0  0  0  0
  9 26  1  0  0  0  0
  9 27  1  0  0  0  0
 10 11  1  0  0  0  0
 10 28  1  0  0  0  0
 10 29  1  0  0  0  0
 11 18  1  0  0  0  0
 11 12  1  0  0  0  0
 12 13  1  0  0  0  0
 12 30  1  0  0  0  0
 12 31  1  0  0  0  0
 13 14  1  0  0  0  0
 13 15  1  0  0  0  0
 13 32  1  0  0  0  0
 14 33  1  0  0  0  0
 14 34  1  0  0  0  0
 14 35  1  0  0  0  0
 15 16  1  0  0  0  0
 16 17  1  0  0  0  0
 16 18  1  0  0  0  0
 16 36  1  0  0  0  0
 17 37  1  0  0  0  0
 17 38  1  0  0  0  0
 17 39  1  0  0  0  0
 18 40  1  0  0  0  0
 18 41  1  0  0  0  0
 19 20  1  0  0  0  0
M  CHG  1   5  -1
M  END
> <s_m_source_file>
AV-unprocessed.smi

> <i_m_source_file_index>
1381

> <i_lp_mmshare_version>
43012

> <i_f3d_flags>
0

> <s_epik_input>
W0NIM11jMVtjSF1jKG5vMSlbTkhdQyg9TylbTkhdW0NIMl1bQ0gyXU4yW0NIMl1bQ0BASF0oW0NIM10pT1tDQEBIXShbQ0gzXSlbQ0gyXTI=

> <s_epik_cmdline>
J2VwaWtfcHl0aG9uJywgJy1waCcsICc3LjAnLCAnLXRuJywgJzgnLCAnLW1hJywgJzIwMCcsICctbWV0YWxfYmluZGluZycsICctaW1hZScsICc8aW5maWxlLm1hZT4nLCAnLW9tYWUnLCAnPG91dGZpbGUubWFlPic=

> <r_epik_Ionization_Penalty>
6.88366

> <r_epik_Ionization_Penalty_Charging>
6.57198

> <r_epik_Ionization_Penalty_Neutral>
0.311678

> <r_epik_State_Penalty>
6.77619

> <r_epik_Charging_Adjusted_Penalty>
13.3482

> <i_epik_Tot_Q>
-1

> <i_epik_Tot_abs_Q>
1

> <r_epik_Metal_State_Penalty>
2.70524

> <b_epik_Metal_Only>
1

> <s_lp_Force_Field>
OPLS_2005

> <r_lp_Energy>
13.5181

> <b_lp_Chiralities_Consistent>
1

> <s_lp_Variant>
AV-unprocessed.smi:1381-8

> <Gold.Version>
5.8.1

> <Gold.Id.Protein>
6NUR|6NUR_protein|mol2

> <Gold.PLP.Fitness>
47.6541

> <Gold.PLP.PLP>
-38.0978

> <Gold.PLP.part.hbond>
-3.6217

> <Gold.PLP.part.metal>
0.0000

> <Gold.PLP.part.buried>
-6.0697

> <Gold.PLP.part.nonpolar>
-29.3790

> <Gold.PLP.part.repulsive>
0.1093

> <Gold.PLP.ligand.clash>
0.0000

> <Gold.PLP.ligand.torsion>
0.9633

> <Gold.PLP.Chemscore.Hbond>
3.7985

> <Gold.PLP.Chemscore.CHOScore>
0.0000

> <Gold.PLP.Chemscore.Metal>
0.0000

> <Gold.Chemscore.Hbonds>
donor molecule, donor type, donor heavy atom, donor atom, acceptor molecule, acceptor atom, score
      P1  H  6931  6943       L1    19  0.94
      P1  H  6934  6947       L1    19  0.90

> <Gold.PLP.Chemscore.Internal.Correction>
0.0875

> <Gold.Rescore>
     Score         DG    S(hbond)    S(metal)    S(lipo)     H(rot)  DE(clash)    DE(int)     intcor
     15.70     -18.86       2.00        0.00      91.04       1.54       0.02       3.14       ----

> <Gold.Chemscore.Fitness>
15.6952

> <Gold.Chemscore.DG>
-18.8554

> <Gold.Chemscore.ZeroCoef>
-5.4800

> <Gold.Chemscore.Hbond>
1.9966

> <Gold.Chemscore.Metal>
0.0000

> <Gold.Chemscore.Lipo>
91.0369

> <Gold.Chemscore.Internal_Hbond>
0.0000

> <Gold.Chemscore.DEClash>
0.0234

> <Gold.Chemscore.DEInternal>
3.1367

> <Gold.Chemscore.Rot>
1.5409

> <Gold.Chemscore.Internal.Correction>
   9.000000E+99

> <Gold.Chemscore.Hbonds>
donor molecule, donor type, donor heavy atom, donor atom, acceptor molecule, acceptor atom, score
      P1  H  6896  6908       L1     5  0.01
      P1  H  6931  6943       L1    19  0.79
      P1  H  6934  6947       L1    19  0.68

> <Gold.Chemscore.Hbond.Weighted>
-6.6687

> <Gold.Chemscore.Metal.Weighted>
-0.0000

> <Gold.Chemscore.Lipo.Weighted>
-10.6513

> <Gold.Chemscore.Internal_Hbond.Weighted>
0.0000

> <Gold.Chemscore.DEClash.Weighted>
0.0234

> <Gold.Chemscore.DEInternal.Weighted>
3.1367

> <Gold.Chemscore.Rot.Weighted>
3.9446

> <Gold.Chemscore.Internal.Correction.Weighted>
   9.000000E+99

> <Gold.Protein.RotatedTorsions>
[ 6907 6896 6895 6894 ] final -164.60 input  -60.11 | X-H torsion
[ 7974 7965 7964 7962 ] final  -52.30 input  175.53 | X-H torsion
[ 8008 7997 7996 7995 ] final    4.80 input   59.86 | X-H torsion
[ 10167 10162 10161 10158 ] final   -9.81 input  -65.29 | X-H torsion
[ 10718 10713 10712 10709 ] final  128.22 input   66.30 | X-H torsion
[ 10763 10752 10751 10750 ] final  -49.44 input  -60.55 | X-H torsion
[ 11005 11000 10999 10996 ] final  -51.25 input  -57.11 | X-H torsion

> <Gold.Protein.ActiveResidues>
 VAL166  LYS551  ARG553  GLY616  TRP617  ASP618  TYR619  PRO620  LYS621  CYS622 
 ASP623  PHE694  ASN695  SER759  ASP760  ASP761  ALA762  ILE779  LEU786  VAL792 
 PHE793  MET794  SER795  GLU796  ALA797  LYS798  CYS799  TRP800  GLU811  SER814 

> <Gold.Protein.RotatedAtoms>
  151.4144  133.3717  159.2747 H   0  0  0  0  0  0  0  0  0  0  0  0  # atno 6907 bound_to 6896
  150.9339  134.8754  159.7579 H   0  0  0  0  0  0  0  0  0  0  0  0  # atno 6908 bound_to 6896
  152.5041  134.4091  159.9494 H   0  0  0  0  0  0  0  0  0  0  0  0  # atno 6909 bound_to 6896
  145.9094  140.7928  142.9703 H   0  0  0  0  0  0  0  0  0  0  0  0  # atno 7974 bound_to 7965
  154.7204  140.2710  155.6547 H   0  0  0  0  0  0  0  0  0  0  0  0  # atno 8008 bound_to 7997
  156.2822  140.2735  156.1798 H   0  0  0  0  0  0  0  0  0  0  0  0  # atno 8009 bound_to 7997
  155.0515  140.0371  157.2535 H   0  0  0  0  0  0  0  0  0  0  0  0  # atno 8010 bound_to 7997
  140.7097  143.5817  150.8985 H   0  0  0  0  0  0  0  0  0  0  0  0  # atno 10167 bound_to 10162
  157.5263  131.1098  150.9077 H   0  0  0  0  0  0  0  0  0  0  0  0  # atno 10718 bound_to 10713
  154.0941  135.6573  153.4857 H   0  0  0  0  0  0  0  0  0  0  0  0  # atno 10763 bound_to 10752
  153.0311  135.5209  154.7352 H   0  0  0  0  0  0  0  0  0  0  0  0  # atno 10764 bound_to 10752
  154.6484  135.2998  154.9986 H   0  0  0  0  0  0  0  0  0  0  0  0  # atno 10765 bound_to 10752
  141.0860  133.6642  156.3849 H   0  0  0  0  0  0  0  0  0  0  0  0  # atno 11005 bound_to 11000
  144.6742  140.1802  143.7406 LP  0  0  0  0  0  0  0  0  0  0  0  0  # atno 17320 bound_to 7965
  145.8690  139.2262  143.1672 LP  0  0  0  0  0  0  0  0  0  0  0  0  # atno 17321 bound_to 7965
  139.9543  143.6236  152.3020 LP  0  0  0  0  0  0  0  0  0  0  0  0  # atno 17342 bound_to 10162
  139.6766  144.7658  151.1685 LP  0  0  0  0  0  0  0  0  0  0  0  0  # atno 17343 bound_to 10162
  156.9672  130.5477  149.5288 LP  0  0  0  0  0  0  0  0  0  0  0  0  # atno 17370 bound_to 10713
  156.0390  130.5474  150.8724 LP  0  0  0  0  0  0  0  0  0  0  0  0  # atno 17371 bound_to 10713
  140.5361  134.6166  157.5365 LP  0  0  0  0  0  0  0  0  0  0  0  0  # atno 17394 bound_to 11000
  139.9679  134.7342  156.0101 LP  0  0  0  0  0  0  0  0  0  0  0  0  # atno 17395 bound_to 11000

$$$$
