AV-unprocessed.smi:363|AV-procd|sdf|2424|dock4
  -GOLD-   2262022363D 1   1.00000     0.00000
 Structure written by MMmdl.
 39 40  0  0  0  0  0  0  0  0  1 V2000
  154.0613  140.9973  161.2901 C   0  0  0  0  0  0  0  0  0  0  0  0
  153.1764  141.2127  160.0686 C   0  0  0  0  0  0  0  0  0  0  0  0
  152.9260  142.5712  159.6467 C   0  0  0  0  0  0  0  0  0  0  0  0
  152.1209  142.8382  158.6061 C   0  0  0  0  0  0  0  0  0  0  0  0
  151.8577  144.2776  158.1759 C   0  0  0  0  0  0  0  0  0  0  0  0
  151.5063  141.7811  157.8797 N   0  0  0  0  0  0  0  0  0  0  0  0
  150.6160  142.0991  156.7390 C   0  0  0  0  0  0  0  0  0  0  0  0
  149.1541  141.6509  156.9809 C   0  0  1  0  0  0  0  0  0  0  0  0
  148.3944  142.7588  157.4203 O   0  0  0  0  0  0  0  0  0  0  0  0
  148.5524  141.0543  155.7170 C   0  0  0  0  0  0  0  0  0  0  0  0
  147.5340  141.7387  155.0173 C   0  0  0  0  0  0  0  0  0  0  0  0
  146.9866  141.1891  153.8419 C   0  0  0  0  0  0  0  0  0  0  0  0
  147.4556  139.9528  153.3574 C   0  0  0  0  0  0  0  0  0  0  0  0
  146.7854  139.2801  151.9168 Cl  0  0  0  0  0  0  0  0  0  0  0  0
  148.4724  139.2670  154.0496 C   0  0  0  0  0  0  0  0  0  0  0  0
  149.0193  139.8159  155.2260 C   0  0  0  0  0  0  0  0  0  0  0  0
  151.7181  140.4623  158.1922 C   0  0  0  0  0  0  0  0  0  0  0  0
  151.2185  139.5703  157.4990 O   0  0  0  0  0  0  0  0  0  0  0  0
  152.5828  140.2032  159.3766 C   0  0  0  0  0  0  0  0  0  0  0  0
  152.7882  138.7893  159.7487 C   0  0  0  0  0  0  0  0  0  0  0  0
  154.0675  138.3931  159.7998 N   0  0  0  0  0  0  0  0  0  0  0  0
  151.8866  137.9721  159.9286 O   0  0  0  0  0  0  0  0  0  0  0  0
  154.2781  141.9414  161.7906 H   0  0  0  0  0  0  0  0  0  0  0  0
  155.0127  140.5509  160.9999 H   0  0  0  0  0  0  0  0  0  0  0  0
  153.5750  140.3468  162.0178 H   0  0  0  0  0  0  0  0  0  0  0  0
  153.3886  143.3866  160.1839 H   0  0  0  0  0  0  0  0  0  0  0  0
  152.5519  144.9595  158.6680 H   0  0  0  0  0  0  0  0  0  0  0  0
  150.8494  144.5825  158.4570 H   0  0  0  0  0  0  0  0  0  0  0  0
  151.9858  144.4221  157.1049 H   0  0  0  0  0  0  0  0  0  0  0  0
  150.6492  143.1545  156.4609 H   0  0  0  0  0  0  0  0  0  0  0  0
  151.0035  141.6150  155.8437 H   0  0  0  0  0  0  0  0  0  0  0  0
  149.1160  140.9006  157.7714 H   0  0  0  0  0  0  0  0  0  0  0  0
  148.4177  143.4237  156.7491 H   0  0  0  0  0  0  0  0  0  0  0  0
  147.1717  142.6894  155.3801 H   0  0  0  0  0  0  0  0  0  0  0  0
  146.2082  141.7186  153.3122 H   0  0  0  0  0  0  0  0  0  0  0  0
  148.8356  138.3196  153.6790 H   0  0  0  0  0  0  0  0  0  0  0  0
  149.8002  139.2818  155.7475 H   0  0  0  0  0  0  0  0  0  0  0  0
  154.2906  137.4355  160.0301 H   0  0  0  0  0  0  0  0  0  0  0  0
  154.8044  139.0508  159.5905 H   0  0  0  0  0  0  0  0  0  0  0  0
  1  2  1  0  0  0  0
  1 23  1  0  0  0  0
  1 24  1  0  0  0  0
  1 25  1  0  0  0  0
  2 19  2  0  0  0  0
  2  3  1  0  0  0  0
  3  4  2  0  0  0  0
  3 26  1  0  0  0  0
  4  5  1  0  0  0  0
  4  6  1  0  0  0  0
  5 27  1  0  0  0  0
  5 28  1  0  0  0  0
  5 29  1  0  0  0  0
  6  7  1  0  0  0  0
  6 17  1  0  0  0  0
  7  8  1  0  0  0  0
  7 30  1  0  0  0  0
  7 31  1  0  0  0  0
  8  9  1  0  0  0  0
  8 10  1  0  0  0  0
  8 32  1  0  0  0  0
  9 33  1  0  0  0  0
 10 16  1  0  0  0  0
 10 11  2  0  0  0  0
 11 12  1  0  0  0  0
 11 34  1  0  0  0  0
 12 13  2  0  0  0  0
 12 35  1  0  0  0  0
 13 14  1  0  0  0  0
 13 15  1  0  0  0  0
 15 16  2  0  0  0  0
 15 36  1  0  0  0  0
 16 37  1  0  0  0  0
 17 18  2  0  0  0  0
 17 19  1  0  0  0  0
 19 20  1  0  0  0  0
 20 21  1  0  0  0  0
 20 22  2  0  0  0  0
 21 38  1  0  0  0  0
 21 39  1  0  0  0  0
M  END
> <s_m_source_file>
AV-unprocessed.smi

> <i_m_source_file_index>
363

> <i_lp_mmshare_version>
43012

> <i_f3d_flags>
0

> <s_epik_input>
W0NIM11jMVtjSF1jKFtDSDNdKW4oYyg9TyljMUMoPU8pW05IMl0pW0NIMl1bQ0BIXShbT0hdKWMyW2NIXVtjSF1jKENsKVtjSF1bY0hdMg==

> <s_epik_cmdline>
J2VwaWtfcHl0aG9uJywgJy1waCcsICc3LjAnLCAnLXRuJywgJzgnLCAnLW1hJywgJzIwMCcsICctbWV0YWxfYmluZGluZycsICctaW1hZScsICc8aW5maWxlLm1hZT4nLCAnLW9tYWUnLCAnPG91dGZpbGUubWFlPic=

> <r_lp_tautomer_probability>
1

> <r_epik_Ionization_Penalty>
3.91973e-07

> <r_epik_Ionization_Penalty_Charging>
1.35363e-07

> <r_epik_Ionization_Penalty_Neutral>
2.5661e-07

> <r_epik_State_Penalty>
-0

> <r_epik_Charging_Adjusted_Penalty>
1.35363e-07

> <i_epik_Tot_Q>
0

> <i_epik_Tot_abs_Q>
0

> <r_epik_Metal_State_Penalty>
-0

> <b_epik_Metal_Only>
0

> <s_lp_Force_Field>
OPLS_2005

> <r_lp_Energy>
39.726

> <b_lp_Chiralities_Consistent>
1

> <s_lp_Variant>
AV-unprocessed.smi:363-2

> <Gold.Version>
5.8.1

> <Gold.Id.Protein>
6NUR|6NUR_protein|mol2

> <Gold.PLP.Fitness>
42.6781

> <Gold.PLP.PLP>
-42.8896

> <Gold.PLP.part.hbond>
-1.1805

> <Gold.PLP.part.metal>
0.0000

> <Gold.PLP.part.buried>
-2.0384

> <Gold.PLP.part.nonpolar>
-40.4674

> <Gold.PLP.part.repulsive>
0.0614

> <Gold.PLP.ligand.clash>
0.0484

> <Gold.PLP.ligand.torsion>
1.7258

> <Gold.PLP.Chemscore.Hbond>
1.0000

> <Gold.PLP.Chemscore.CHOScore>
0.0000

> <Gold.PLP.Chemscore.Metal>
0.0000

> <Gold.Chemscore.Hbonds>
donor molecule, donor type, donor heavy atom, donor atom, acceptor molecule, acceptor atom, score
      L1  H     9    33       P1  8028  1.00

> <Gold.PLP.Chemscore.Internal.Correction>
0.2885

> <Gold.Rescore>
     Score         DG    S(hbond)    S(metal)    S(lipo)     H(rot)  DE(clash)    DE(int)     intcor
     13.62     -16.96       0.78        0.00     118.49       1.95       0.33       3.01       ----

> <Gold.Chemscore.Fitness>
13.6167

> <Gold.Chemscore.DG>
-16.9578

> <Gold.Chemscore.ZeroCoef>
-5.4800

> <Gold.Chemscore.Hbond>
0.7801

> <Gold.Chemscore.Metal>
0.0000

> <Gold.Chemscore.Lipo>
118.4872

> <Gold.Chemscore.Internal_Hbond>
0.0000

> <Gold.Chemscore.DEClash>
0.3306

> <Gold.Chemscore.DEInternal>
3.0106

> <Gold.Chemscore.Rot>
1.9495

> <Gold.Chemscore.Internal.Correction>
   9.000000E+99

> <Gold.Chemscore.Hbonds>
donor molecule, donor type, donor heavy atom, donor atom, acceptor molecule, acceptor atom, score
      L1  H     9    33       P1  8028  0.26

> <Gold.Chemscore.Hbond.Weighted>
-2.6056

> <Gold.Chemscore.Metal.Weighted>
-0.0000

> <Gold.Chemscore.Lipo.Weighted>
-13.8630

> <Gold.Chemscore.Internal_Hbond.Weighted>
0.0000

> <Gold.Chemscore.DEClash.Weighted>
0.3306

> <Gold.Chemscore.DEInternal.Weighted>
3.0106

> <Gold.Chemscore.Rot.Weighted>
4.9908

> <Gold.Chemscore.Internal.Correction.Weighted>
   9.000000E+99

> <Gold.Protein.RotatedTorsions>
[ 6907 6896 6895 6894 ] final  119.51 input  -60.11 | X-H torsion
[ 7974 7965 7964 7962 ] final  -40.98 input  175.53 | X-H torsion
[ 8008 7997 7996 7995 ] final -135.71 input   59.86 | X-H torsion
[ 10167 10162 10161 10158 ] final   64.31 input  -65.29 | X-H torsion
[ 10718 10713 10712 10709 ] final -119.34 input   66.30 | X-H torsion
[ 10763 10752 10751 10750 ] final   -2.67 input  -60.55 | X-H torsion
[ 11005 11000 10999 10996 ] final   36.84 input  -57.11 | X-H torsion

> <Gold.Protein.ActiveResidues>
 VAL166  LYS551  ARG553  GLY616  TRP617  ASP618  TYR619  PRO620  LYS621  CYS622 
 ASP623  PHE694  ASN695  SER759  ASP760  ASP761  ALA762  ILE779  LEU786  VAL792 
 PHE793  MET794  SER795  GLU796  ALA797  LYS798  CYS799  TRP800  GLU811  SER814 

> <Gold.Protein.RotatedAtoms>
  152.4466  133.7549  159.6714 H   0  0  0  0  0  0  0  0  0  0  0  0  # atno 6907 bound_to 6896
  150.8368  133.7990  159.3082 H   0  0  0  0  0  0  0  0  0  0  0  0  # atno 6908 bound_to 6896
  151.5628  135.1067  160.0028 H   0  0  0  0  0  0  0  0  0  0  0  0  # atno 6909 bound_to 6896
  146.0254  140.6798  142.9158 H   0  0  0  0  0  0  0  0  0  0  0  0  # atno 7974 bound_to 7965
  155.3832  140.0495  157.3043 H   0  0  0  0  0  0  0  0  0  0  0  0  # atno 8008 bound_to 7997
  154.5072  140.2178  155.9189 H   0  0  0  0  0  0  0  0  0  0  0  0  # atno 8009 bound_to 7997
  156.1540  140.3130  155.8700 H   0  0  0  0  0  0  0  0  0  0  0  0  # atno 8010 bound_to 7997
  140.1236  144.4708  150.6906 H   0  0  0  0  0  0  0  0  0  0  0  0  # atno 10167 bound_to 10162
  156.1173  130.6296  150.9404 H   0  0  0  0  0  0  0  0  0  0  0  0  # atno 10718 bound_to 10713
  153.3611  135.6990  153.6711 H   0  0  0  0  0  0  0  0  0  0  0  0  # atno 10763 bound_to 10752
  153.5400  135.3575  155.2714 H   0  0  0  0  0  0  0  0  0  0  0  0  # atno 10764 bound_to 10752
  154.8668  135.4201  154.2868 H   0  0  0  0  0  0  0  0  0  0  0  0  # atno 10765 bound_to 10752
  140.2285  134.3555  155.7974 H   0  0  0  0  0  0  0  0  0  0  0  0  # atno 11005 bound_to 11000
  144.7007  140.3640  143.7158 LP  0  0  0  0  0  0  0  0  0  0  0  0  # atno 17320 bound_to 7965
  145.7126  139.1689  143.2530 LP  0  0  0  0  0  0  0  0  0  0  0  0  # atno 17321 bound_to 7965
  140.6858  143.2349  151.5265 LP  0  0  0  0  0  0  0  0  0  0  0  0  # atno 17342 bound_to 10162
  139.5556  144.2285  152.1606 LP  0  0  0  0  0  0  0  0  0  0  0  0  # atno 17343 bound_to 10162
  157.6357  131.0916  150.8353 LP  0  0  0  0  0  0  0  0  0  0  0  0  # atno 17370 bound_to 10713
  156.8455  130.5062  149.5317 LP  0  0  0  0  0  0  0  0  0  0  0  0  # atno 17371 bound_to 10713
  141.2219  133.7232  156.8693 LP  0  0  0  0  0  0  0  0  0  0  0  0  # atno 17394 bound_to 11000
  140.1775  134.9057  157.2908 LP  0  0  0  0  0  0  0  0  0  0  0  0  # atno 17395 bound_to 11000

$$$$
