AV-unprocessed.smi:2139|AV-procd|sdf|8712|dock5
  -GOLD-   2272011473D 1   1.00000     0.00000
 Structure written by MMmdl.
 40 41  0  0  0  0  0  0  0  0  1 V2000
  152.7765  142.8978  160.0995 C   0  0  0  0  0  0  0  0  0  0  0  0
  151.7034  142.4883  159.0802 C   0  0  0  0  0  0  0  0  0  0  0  0
  151.6831  143.3678  157.8158 C   0  0  2  0  0  0  0  0  0  0  0  0
  151.3291  144.8267  158.1457 C   0  0  0  0  0  0  0  0  0  0  0  0
  150.7325  142.8339  156.8436 N   0  0  0  0  0  0  0  0  0  0  0  0
  150.6689  141.5546  156.4403 C   0  0  0  0  0  0  0  0  0  0  0  0
  151.4212  140.6720  156.8543 O   0  0  0  0  0  0  0  0  0  0  0  0
  149.6285  141.2691  155.3890 C   0  0  0  0  0  0  0  0  0  0  0  0
  148.7808  142.3134  154.9522 C   0  0  0  0  0  0  0  0  0  0  0  0
  147.7767  142.0438  154.0057 C   0  0  0  0  0  0  0  0  0  0  0  0
  147.6477  140.7279  153.5305 C   0  0  0  0  0  0  0  0  0  0  0  0
  148.4434  139.7177  153.9348 N   0  0  0  0  0  0  0  0  0  0  0  0
  149.4187  139.9669  154.8442 C   0  0  0  0  0  0  0  0  0  0  0  0
  150.2467  138.8800  155.1916 N   0  0  0  0  0  0  0  0  0  0  0  0
  151.6098  138.9873  154.6863 C   0  0  0  0  0  0  0  0  0  0  0  0
  152.4994  137.9282  155.3586 C   0  0  0  0  0  0  0  0  0  0  0  0
  151.9414  136.6332  155.1513 O   0  0  0  0  0  0  0  0  0  0  0  0
  150.6366  136.5145  155.7125 C   0  0  0  0  0  0  0  0  0  0  0  0
  149.6942  137.5364  155.0533 C   0  0  0  0  0  0  0  0  0  0  0  0
  152.7144  142.2788  160.9947 H   0  0  0  0  0  0  0  0  0  0  0  0
  152.6519  143.9369  160.4056 H   0  0  0  0  0  0  0  0  0  0  0  0
  153.7815  142.7859  159.6920 H   0  0  0  0  0  0  0  0  0  0  0  0
  151.8501  141.4436  158.8027 H   0  0  0  0  0  0  0  0  0  0  0  0
  150.7276  142.5381  159.5648 H   0  0  0  0  0  0  0  0  0  0  0  0
  152.6855  143.3507  157.3835 H   0  0  0  0  0  0  0  0  0  0  0  0
  152.0409  145.2518  158.8538 H   0  0  0  0  0  0  0  0  0  0  0  0
  150.3347  144.9040  158.5864 H   0  0  0  0  0  0  0  0  0  0  0  0
  151.3461  145.4502  157.2510 H   0  0  0  0  0  0  0  0  0  0  0  0
  150.0826  143.4906  156.4364 H   0  0  0  0  0  0  0  0  0  0  0  0
  148.8856  143.3155  155.3431 H   0  0  0  0  0  0  0  0  0  0  0  0
  147.1168  142.8250  153.6585 H   0  0  0  0  0  0  0  0  0  0  0  0
  146.8866  140.4794  152.8057 H   0  0  0  0  0  0  0  0  0  0  0  0
  151.6024  138.8384  153.6058 H   0  0  0  0  0  0  0  0  0  0  0  0
  152.0165  139.9824  154.8673 H   0  0  0  0  0  0  0  0  0  0  0  0
  153.5029  137.9561  154.9345 H   0  0  0  0  0  0  0  0  0  0  0  0
  152.5985  138.1276  156.4271 H   0  0  0  0  0  0  0  0  0  0  0  0
  150.2687  135.5020  155.5462 H   0  0  0  0  0  0  0  0  0  0  0  0
  150.6793  136.6654  156.7924 H   0  0  0  0  0  0  0  0  0  0  0  0
  148.7082  137.4904  155.5171 H   0  0  0  0  0  0  0  0  0  0  0  0
  149.5707  137.2954  153.9965 H   0  0  0  0  0  0  0  0  0  0  0  0
  1  2  1  0  0  0  0
  1 20  1  0  0  0  0
  1 21  1  0  0  0  0
  1 22  1  0  0  0  0
  2  3  1  0  0  0  0
  2 23  1  0  0  0  0
  2 24  1  0  0  0  0
  3  4  1  0  0  0  0
  3  5  1  0  0  0  0
  3 25  1  0  0  0  0
  4 26  1  0  0  0  0
  4 27  1  0  0  0  0
  4 28  1  0  0  0  0
  5  6  1  0  0  0  0
  5 29  1  0  0  0  0
  6  7  2  0  0  0  0
  6  8  1  0  0  0  0
  8 13  1  0  0  0  0
  8  9  2  0  0  0  0
  9 10  1  0  0  0  0
  9 30  1  0  0  0  0
 10 11  2  0  0  0  0
 10 31  1  0  0  0  0
 11 12  1  0  0  0  0
 11 32  1  0  0  0  0
 12 13  2  0  0  0  0
 13 14  1  0  0  0  0
 14 19  1  0  0  0  0
 14 15  1  0  0  0  0
 15 16  1  0  0  0  0
 15 33  1  0  0  0  0
 15 34  1  0  0  0  0
 16 17  1  0  0  0  0
 16 35  1  0  0  0  0
 16 36  1  0  0  0  0
 17 18  1  0  0  0  0
 18 19  1  0  0  0  0
 18 37  1  0  0  0  0
 18 38  1  0  0  0  0
 19 39  1  0  0  0  0
 19 40  1  0  0  0  0
M  END
> <s_m_source_file>
AV-unprocessed.smi

> <i_m_source_file_index>
2139

> <i_lp_mmshare_version>
43012

> <i_f3d_flags>
0

> <s_epik_input>
W0NIM11bQ0gyXVtDQEhdKFtDSDNdKVtOSF1DKD1PKWMxW2NIXVtjSF1bY0hdbmMxTjJbQ0gyXVtDSDJdT1tDSDJdW0NIMl0y

> <s_epik_cmdline>
J2VwaWtfcHl0aG9uJywgJy1waCcsICc3LjAnLCAnLXRuJywgJzgnLCAnLW1hJywgJzIwMCcsICctbWV0YWxfYmluZGluZycsICctaW1hZScsICc8aW5maWxlLm1hZT4nLCAnLW9tYWUnLCAnPG91dGZpbGUubWFlPic=

> <r_lp_tautomer_probability>
1

> <r_epik_Ionization_Penalty>
1.73125e-05

> <r_epik_Ionization_Penalty_Charging>
0

> <r_epik_Ionization_Penalty_Neutral>
1.73125e-05

> <r_epik_State_Penalty>
-0

> <r_epik_Charging_Adjusted_Penalty>
0

> <i_epik_Tot_Q>
0

> <i_epik_Tot_abs_Q>
0

> <r_epik_Metal_State_Penalty>
-0

> <b_epik_Metal_Only>
0

> <s_lp_Force_Field>
OPLS_2005

> <r_lp_Energy>
24.9987

> <b_lp_Chiralities_Consistent>
1

> <s_lp_Variant>
AV-unprocessed.smi:2139-1

> <Gold.Version>
5.8.1

> <Gold.Id.Protein>
6NUR|6NUR_protein|mol2

> <Gold.PLP.Fitness>
40.1159

> <Gold.PLP.PLP>
-34.9063

> <Gold.PLP.part.hbond>
-1.8414

> <Gold.PLP.part.metal>
0.0000

> <Gold.PLP.part.buried>
-0.5609

> <Gold.PLP.part.nonpolar>
-33.5532

> <Gold.PLP.part.repulsive>
0.5949

> <Gold.PLP.ligand.clash>
0.0000

> <Gold.PLP.ligand.torsion>
0.5264

> <Gold.PLP.Chemscore.Hbond>
2.0000

> <Gold.PLP.Chemscore.CHOScore>
0.0000

> <Gold.PLP.Chemscore.Metal>
0.0000

> <Gold.Chemscore.Hbonds>
donor molecule, donor type, donor heavy atom, donor atom, acceptor molecule, acceptor atom, score
      L1  H     5    29       P1  8028  1.00
      P1  H 10752 10764       L1    17  1.00

> <Gold.PLP.Chemscore.Internal.Correction>
0.2625

> <Gold.Rescore>
     Score         DG    S(hbond)    S(metal)    S(lipo)     H(rot)  DE(clash)    DE(int)     intcor
     14.22     -20.32       1.91        0.00     100.91       1.30       2.32       3.78       ----

> <Gold.Chemscore.Fitness>
14.2169

> <Gold.Chemscore.DG>
-20.3240

> <Gold.Chemscore.ZeroCoef>
-5.4800

> <Gold.Chemscore.Hbond>
1.9089

> <Gold.Chemscore.Metal>
0.0000

> <Gold.Chemscore.Lipo>
100.9115

> <Gold.Chemscore.Internal_Hbond>
0.0000

> <Gold.Chemscore.DEClash>
2.3231

> <Gold.Chemscore.DEInternal>
3.7840

> <Gold.Chemscore.Rot>
1.3041

> <Gold.Chemscore.Internal.Correction>
   9.000000E+99

> <Gold.Chemscore.Hbonds>
donor molecule, donor type, donor heavy atom, donor atom, acceptor molecule, acceptor atom, score
      L1  H     5    29       P1  8028  1.00
      P1  H 10752 10764       L1    17  0.83

> <Gold.Chemscore.Hbond.Weighted>
-6.3759

> <Gold.Chemscore.Metal.Weighted>
-0.0000

> <Gold.Chemscore.Lipo.Weighted>
-11.8066

> <Gold.Chemscore.Internal_Hbond.Weighted>
0.0000

> <Gold.Chemscore.DEClash.Weighted>
2.3231

> <Gold.Chemscore.DEInternal.Weighted>
3.7840

> <Gold.Chemscore.Rot.Weighted>
3.3385

> <Gold.Chemscore.Internal.Correction.Weighted>
   9.000000E+99

> <Gold.Protein.RotatedTorsions>
[ 6907 6896 6895 6894 ] final -105.44 input  -60.11 | X-H torsion
[ 7974 7965 7964 7962 ] final   -0.07 input  175.53 | X-H torsion
[ 8008 7997 7996 7995 ] final -121.91 input   59.86 | X-H torsion
[ 10167 10162 10161 10158 ] final  135.88 input  -65.29 | X-H torsion
[ 10718 10713 10712 10709 ] final  -44.70 input   66.30 | X-H torsion
[ 10763 10752 10751 10750 ] final  -65.64 input  -60.55 | X-H torsion
[ 11005 11000 10999 10996 ] final  -30.79 input  -57.11 | X-H torsion

> <Gold.Protein.ActiveResidues>
 VAL166  LYS551  ARG553  GLY616  TRP617  ASP618  TYR619  PRO620  LYS621  CYS622 
 ASP623  PHE694  ASN695  SER759  ASP760  ASP761  ALA762  ILE779  LEU786  VAL792 
 PHE793  MET794  SER795  GLU796  ALA797  LYS798  CYS799  TRP800  GLU811  SER814 

> <Gold.Protein.RotatedAtoms>
  150.7337  134.0126  159.3674 H   0  0  0  0  0  0  0  0  0  0  0  0  # atno 6907 bound_to 6896
  151.8087  135.0685  160.0419 H   0  0  0  0  0  0  0  0  0  0  0  0  # atno 6908 bound_to 6896
  152.3088  133.5695  159.5703 H   0  0  0  0  0  0  0  0  0  0  0  0  # atno 6909 bound_to 6896
  146.2430  140.1214  142.8340 H   0  0  0  0  0  0  0  0  0  0  0  0  # atno 7974 bound_to 7965
  155.1556  140.0405  157.2831 H   0  0  0  0  0  0  0  0  0  0  0  0  # atno 8008 bound_to 7997
  154.6372  140.2538  155.7337 H   0  0  0  0  0  0  0  0  0  0  0  0  # atno 8009 bound_to 7997
  156.2515  140.2863  156.0750 H   0  0  0  0  0  0  0  0  0  0  0  0  # atno 8010 bound_to 7997
  139.5200  144.6494  151.5347 H   0  0  0  0  0  0  0  0  0  0  0  0  # atno 10167 bound_to 10162
  156.2359  130.4176  149.8819 H   0  0  0  0  0  0  0  0  0  0  0  0  # atno 10718 bound_to 10713
  154.3480  135.6142  153.5628 H   0  0  0  0  0  0  0  0  0  0  0  0  # atno 10763 bound_to 10752
  152.9800  135.5785  154.4777 H   0  0  0  0  0  0  0  0  0  0  0  0  # atno 10764 bound_to 10752
  154.4493  135.2852  155.1770 H   0  0  0  0  0  0  0  0  0  0  0  0  # atno 10765 bound_to 10752
  140.9413  133.7277  156.1080 H   0  0  0  0  0  0  0  0  0  0  0  0  # atno 11005 bound_to 11000
  145.0403  140.8940  143.5056 LP  0  0  0  0  0  0  0  0  0  0  0  0  # atno 17320 bound_to 7965
  145.1293  139.2642  143.5547 LP  0  0  0  0  0  0  0  0  0  0  0  0  # atno 17321 bound_to 7965
  140.6292  143.9109  150.6591 LP  0  0  0  0  0  0  0  0  0  0  0  0  # atno 17342 bound_to 10162
  140.2408  143.3665  152.1488 LP  0  0  0  0  0  0  0  0  0  0  0  0  # atno 17343 bound_to 10162
  156.6417  130.8707  151.3515 LP  0  0  0  0  0  0  0  0  0  0  0  0  # atno 17370 bound_to 10713
  157.7154  130.9490  150.1236 LP  0  0  0  0  0  0  0  0  0  0  0  0  # atno 17371 bound_to 10713
  140.7730  134.3811  157.5503 LP  0  0  0  0  0  0  0  0  0  0  0  0  # atno 17394 bound_to 11000
  139.8821  134.9034  156.2854 LP  0  0  0  0  0  0  0  0  0  0  0  0  # atno 17395 bound_to 11000

$$$$
