#       Name:                AV-unprocessed.smi:2106
#       Creating user name   scv26
#       Creation time:       Fri Mar 27 11:33:20 2020


#       File generated by GOLD software.
#

@<TRIPOS>MOLECULE
AV-unprocessed.smi:2106
    53    54     1
SMALL
NO_CHARGES


@<TRIPOS>ATOM
      1 ****        -4.7040  -1.8825   4.2651 C.3            1 S1                 0.0000
      2 ****        -4.5774  -0.8214   3.2122 C.2            1 S1                 0.0000
      3 ****        -4.8883   0.5632   3.3149 C.2            1 S1                 0.0000
      4 ****        -4.5878   1.0697   2.0819 C.2            1 S1                 0.0000
      5 ****        -4.6959   2.4664   1.5637 C.3            1 S1                 0.0000
      6 ****        -4.1280   0.0129   1.3156 N.pl3          1 S1                 0.0000
      7 ****        -3.6654   0.0098  -0.0632 C.3            1 S1                 0.0000
      8 ****        -2.1676   0.3087  -0.1400 C.2            1 S1                 0.0000
      9 ****        -1.7762   1.4652  -0.2964 O.2            1 S1                 0.0000
     10 ****        -1.3395  -0.7411  -0.0242 N.am           1 S1                 0.0000
     11 ****         0.1163  -0.6629  -0.0289 C.3            1 S1                 0.0000
     12 ****         0.6717  -0.4094  -1.4445 C.3            1 S1                 0.0000
     13 ****         2.1552  -0.3796  -1.4783 N.4            1 S1                 1.0000
     14 ****         2.6890  -0.5947  -2.8444 C.3            1 S1                 0.0000
     15 ****         4.2300  -0.6229  -2.8456 C.3            1 S1                 0.0000
     16 ****         4.8223  -1.9149  -2.2551 C.3            1 S1                 0.0000
     17 ****         4.7450   0.5479  -2.2116 O.3            1 S1                 0.0000
     18 ****         4.2766   0.7643  -0.8833 C.3            1 S1                 0.0000
     19 ****         4.9229   2.0506  -0.3571 C.3            1 S1                 0.0000
     20 ****         2.7396   0.8495  -0.8889 C.3            1 S1                 0.0000
     21 ****        -4.1233  -1.1448   2.0126 N.2            1 S1                 0.0000
     22 ****        -5.1267  -1.4767   5.1845 H              1 S1                 0.0000
     23 ****        -3.7318  -2.3114   4.5088 H              1 S1                 0.0000
     24 ****        -5.3532  -2.6926   3.9316 H              1 S1                 0.0000
     25 ****        -5.2727   1.1037   4.1671 H              1 S1                 0.0000
     26 ****        -5.0472   3.1441   2.3420 H              1 S1                 0.0000
     27 ****        -5.3986   2.5192   0.7320 H              1 S1                 0.0000
     28 ****        -3.7290   2.8303   1.2166 H              1 S1                 0.0000
     29 ****        -3.8817  -0.9594  -0.5161 H              1 S1                 0.0000
     30 ****        -4.2238   0.7543  -0.6316 H              1 S1                 0.0000
     31 ****        -1.7505  -1.6542   0.1094 H              1 S1                 0.0000
     32 ****         0.4261   0.1139   0.6704 H              1 S1                 0.0000
     33 ****         0.5062  -1.6040   0.3595 H              1 S1                 0.0000
     34 ****         0.3178  -1.2116  -2.0940 H              1 S1                 0.0000
     35 ****         0.2816   0.5196  -1.8629 H              1 S1                 0.0000
     36 ****         2.3007  -1.5255  -3.2601 H              1 S1                 0.0000
     37 ****         2.3372   0.2102  -3.4920 H              1 S1                 0.0000
     38 ****         4.5605  -0.5727  -3.8835 H              1 S1                 0.0000
     39 ****         4.5186  -2.7823  -2.8415 H              1 S1                 0.0000
     40 ****         4.4984  -2.0894  -1.2295 H              1 S1                 0.0000
     41 ****         5.9121  -1.8803  -2.2614 H              1 S1                 0.0000
     42 ****         4.5952  -0.0575  -0.2418 H              1 S1                 0.0000
     43 ****         4.6050   2.2615   0.6645 H              1 S1                 0.0000
     44 ****         4.6566   2.9089  -0.9744 H              1 S1                 0.0000
     45 ****         6.0100   1.9672  -0.3545 H              1 S1                 0.0000
     46 ****         2.4100   1.7200  -1.4588 H              1 S1                 0.0000
     47 ****         2.3883   0.9878   0.1328 H              1 S1                 0.0000
     48 ****         2.4739  -1.1592  -0.9208 H              1 S1                 0.0000
     49 ****        -2.4379   2.2110  -0.3735 LP             1 S1                 0.0000
     50 ****        -0.7964   1.6591  -0.3464 LP             1 S1                 0.0000
     51 ****         4.4875   1.3400  -2.7650 LP             1 S1                 0.0000
     52 ****         5.7417   0.4723  -2.1814 LP             1 S1                 0.0000
     53 ****        -3.8388  -2.0482   1.6918 LP             1 S1                 0.0000
@<TRIPOS>BOND
    1    1    2 1     
    2    1   22 1     
    3    1   23 1     
    4    1   24 1     
    5    2   21 2     
    6    2    3 1     
    7    3    4 2     
    8    3   25 1     
    9    4    5 1     
   10    4    6 1     
   11    5   26 1     
   12    5   27 1     
   13    5   28 1     
   14    6    7 1     
   15    6   21 1     
   16    7    8 1     
   17    7   29 1     
   18    7   30 1     
   19    8    9 2     
   20    8   10 am    
   21   10   11 1     
   22   10   31 1     
   23   11   12 1     
   24   11   32 1     
   25   11   33 1     
   26   12   13 1     
   27   12   34 1     
   28   12   35 1     
   29   13   20 1     
   30   13   14 1     
   31   13   48 1     
   32   14   15 1     
   33   14   36 1     
   34   14   37 1     
   35   15   16 1     
   36   15   17 1     
   37   15   38 1     
   38   16   39 1     
   39   16   40 1     
   40   16   41 1     
   41   17   18 1     
   42   18   19 1     
   43   18   20 1     
   44   18   42 1     
   45   19   43 1     
   46   19   44 1     
   47   19   45 1     
   48   20   46 1     
   49   20   47 1     
   50    9   49 1     
   51    9   50 1     
   52   17   51 1     
   53   17   52 1     
   54   21   53 1     
@<TRIPOS>SUBSTRUCTURE
      1 S1             1
@<TRIPOS>SET
LONE_PAIRS      STATIC     ATOMS    <user>   **** ""
5 49 50 51 52 53
DONOR_HYDROGENS      STATIC     ATOMS    <user>   **** ""
2 31 48
ATOM$BLUE        STATIC     ATOMS    COLORGROUP SYSTEM
5 49 50 51 52 53
ATOM$RED        STATIC     ATOMS    COLORGROUP SYSTEM
2 31 48
