#       Name:                AV-unprocessed.smi:1806
#       Creating user name   scv26
#       Creation time:       Fri Mar 27 08:55:42 2020


#       File generated by GOLD software.
#

@<TRIPOS>MOLECULE
AV-unprocessed.smi:1806
    35    36     1
SMALL
NO_CHARGES


@<TRIPOS>ATOM
      1 ****        -4.1984   1.7030  -1.1070 C.3            1 S1                 0.0000
      2 ****        -3.4513   0.5786  -0.4213 C.ar           1 S1                 0.0000
      3 ****        -4.1374  -0.3693   0.3628 C.ar           1 S1                 0.0000
      4 ****        -3.3860  -1.3890   0.9735 C.ar           1 S1                 0.0000
      5 ****        -1.9918  -1.4149   0.7790 C.ar           1 S1                 0.0000
      6 ****        -1.3780  -0.4190  -0.0162 C.ar           1 S1                 0.0000
      7 ****        -0.0519  -0.4415  -0.2189 N.pl3          1 S1                -1.0000
      8 ****         0.7939   0.1932   0.6336 C.2            1 S1                 0.0000
      9 ****         0.4283   0.8237   1.6302 O.2            1 S1                 0.0000
     10 ****         2.2134   0.0885   0.3049 C.2            1 S1                 0.0000
     11 ****         3.1407   0.6648   1.1065 C.2            1 S1                 0.0000
     12 ****         4.4897   0.6432   0.8531 O.3            1 S1                 0.0000
     13 ****         4.8425   0.1836  -0.4460 C.3            1 S1                 0.0000
     14 ****         3.9639  -1.0089  -0.8490 C.3            1 S1                 0.0000
     15 ****         2.5898  -0.6440  -0.7999 O.3            1 S1                 0.0000
     16 ****        -2.1134   0.5534  -0.6069 N.ar           1 S1                 0.0000
     17 ****        -5.2430   1.4353  -1.2684 H              1 S1                 0.0000
     18 ****        -3.7541   1.9295  -2.0771 H              1 S1                 0.0000
     19 ****        -4.1652   2.6040  -0.4943 H              1 S1                 0.0000
     20 ****        -5.2083  -0.3189   0.4926 H              1 S1                 0.0000
     21 ****        -3.8693  -2.1400   1.5806 H              1 S1                 0.0000
     22 ****        -1.3981  -2.1911   1.2395 H              1 S1                 0.0000
     23 ****         2.9180   1.2303   2.0000 H              1 S1                 0.0000
     24 ****         4.7261   1.0000  -1.1600 H              1 S1                 0.0000
     25 ****         5.8952  -0.0995  -0.4506 H              1 S1                 0.0000
     26 ****         4.2092  -1.3407  -1.8580 H              1 S1                 0.0000
     27 ****         4.1359  -1.8544  -0.1814 H              1 S1                 0.0000
     28 ****         0.3185  -0.9319  -1.0078 LP             1 S1                 0.0000
     29 ****        -0.5448   0.8898   1.8508 LP             1 S1                 0.0000
     30 ****         1.1053   1.2682   2.2167 LP             1 S1                 0.0000
     31 ****         4.9233   0.0424   1.5246 LP             1 S1                 0.0000
     32 ****         4.8420   1.5729   0.9610 LP             1 S1                 0.0000
     33 ****         2.3851  -0.1014  -1.6146 LP             1 S1                 0.0000
     34 ****         2.0467  -1.4835  -0.8135 LP             1 S1                 0.0000
     35 ****        -1.6698   1.2464  -1.1753 LP             1 S1                 0.0000
@<TRIPOS>BOND
    1    1    2 1     
    2    1   17 1     
    3    1   18 1     
    4    1   19 1     
    5    2   16 ar    
    6    2    3 ar    
    7    3    4 ar    
    8    3   20 1     
    9    4    5 ar    
   10    4   21 1     
   11    5    6 ar    
   12    5   22 1     
   13    6    7 1     
   14    6   16 ar    
   15    7    8 1     
   16    8    9 2     
   17    8   10 1     
   18   10   15 1     
   19   10   11 2     
   20   11   12 1     
   21   11   23 1     
   22   12   13 1     
   23   13   14 1     
   24   13   24 1     
   25   13   25 1     
   26   14   15 1     
   27   14   26 1     
   28   14   27 1     
   29    7   28 1     
   30    9   29 1     
   31    9   30 1     
   32   12   31 1     
   33   12   32 1     
   34   15   33 1     
   35   15   34 1     
   36   16   35 1     
@<TRIPOS>SUBSTRUCTURE
      1 S1             1
@<TRIPOS>SET
LONE_PAIRS      STATIC     ATOMS    <user>   **** ""
8 28 29 30 31 32 33 34 35
ATOM$BLUE        STATIC     ATOMS    COLORGROUP SYSTEM
8 28 29 30 31 32 33 34 35
