AV-unprocessed.smi:3268|AV-procd|sdf|12508|dock8
  -GOLD-   2272018413D 1   1.00000     0.00000
 Structure written by MMmdl.
 40 41  0  0  0  0  0  0  0  0  2 V2000
  148.1744  141.5104  155.3166 C   0  0  0  0  0  0  0  0  0  0  0  0
  148.5834  140.5894  154.1496 C   0  0  2  0  0  0  0  0  0  0  0  0
  147.3750  139.8499  153.5567 C   0  0  0  0  0  0  0  0  0  0  0  0
  146.3037  139.8180  154.1633 O   0  0  0  0  0  0  0  0  0  0  0  0
  147.5579  139.2567  152.3660 N   0  0  0  0  0  0  0  0  0  0  0  0
  146.5382  138.5087  151.6391 C   0  0  0  0  0  0  0  0  0  0  0  0
  145.7984  137.5160  152.5579 C   0  0  0  0  0  0  0  0  0  0  0  0
  146.1902  136.1073  152.3008 N   0  3  0  0  0  0  0  0  0  0  0  0
  146.0536  135.2566  153.5126 C   0  0  0  0  0  0  0  0  0  0  0  0
  146.5856  133.8354  153.2618 C   0  0  0  0  0  0  0  0  0  0  0  0
  145.8827  133.1889  152.0616 C   0  0  0  0  0  0  0  0  0  0  0  0
  146.0119  134.0952  150.8310 C   0  0  0  0  0  0  0  0  0  0  0  0
  145.4901  135.5106  151.1312 C   0  0  0  0  0  0  0  0  0  0  0  0
  149.6201  139.6369  154.5297 N   0  0  0  0  0  0  0  0  0  0  0  0
  149.6460  138.3074  154.4125 C   0  0  0  0  0  0  0  0  0  0  0  0
  150.7382  137.7431  154.9085 N   0  0  0  0  0  0  0  0  0  0  0  0
  151.3856  138.8579  155.3602 C   0  0  0  0  0  0  0  0  0  0  0  0
  150.7549  140.0164  155.1696 N   0  0  0  0  0  0  0  0  0  0  0  0
  147.4399  142.2490  154.9938 H   0  0  0  0  0  0  0  0  0  0  0  0
  149.0368  142.0556  155.7013 H   0  0  0  0  0  0  0  0  0  0  0  0
  147.7377  140.9548  156.1477 H   0  0  0  0  0  0  0  0  0  0  0  0
  149.0083  141.2252  153.3708 H   0  0  0  0  0  0  0  0  0  0  0  0
  148.4687  139.3275  151.9352 H   0  0  0  0  0  0  0  0  0  0  0  0
  145.8464  139.2351  151.2140 H   0  0  0  0  0  0  0  0  0  0  0  0
  146.9938  137.9840  150.7976 H   0  0  0  0  0  0  0  0  0  0  0  0
  146.0365  137.7642  153.5930 H   0  0  0  0  0  0  0  0  0  0  0  0
  144.7173  137.6256  152.4592 H   0  0  0  0  0  0  0  0  0  0  0  0
  146.6082  135.7008  154.3403 H   0  0  0  0  0  0  0  0  0  0  0  0
  145.0060  135.2191  153.8164 H   0  0  0  0  0  0  0  0  0  0  0  0
  147.6607  133.8730  153.0805 H   0  0  0  0  0  0  0  0  0  0  0  0
  146.4437  133.2215  154.1518 H   0  0  0  0  0  0  0  0  0  0  0  0
  146.3117  132.2079  151.8551 H   0  0  0  0  0  0  0  0  0  0  0  0
  144.8291  133.0276  152.2933 H   0  0  0  0  0  0  0  0  0  0  0  0
  147.0566  134.1472  150.5211 H   0  0  0  0  0  0  0  0  0  0  0  0
  145.4615  133.6650  149.9934 H   0  0  0  0  0  0  0  0  0  0  0  0
  144.4170  135.4786  151.3262 H   0  0  0  0  0  0  0  0  0  0  0  0
  145.6305  136.1317  150.2475 H   0  0  0  0  0  0  0  0  0  0  0  0
  148.8482  137.7398  153.9565 H   0  0  0  0  0  0  0  0  0  0  0  0
  152.3477  138.8140  155.8493 H   0  0  0  0  0  0  0  0  0  0  0  0
  147.1761  136.1213  152.0809 H   0  0  0  0  0  0  0  0  0  0  0  0
  1  2  1  0  0  0  0
  1 19  1  0  0  0  0
  1 20  1  0  0  0  0
  1 21  1  0  0  0  0
  2  3  1  0  0  0  0
  2 14  1  0  0  0  0
  2 22  1  0  0  0  0
  3  4  2  0  0  0  0
  3  5  1  0  0  0  0
  5  6  1  0  0  0  0
  5 23  1  0  0  0  0
  6  7  1  0  0  0  0
  6 24  1  0  0  0  0
  6 25  1  0  0  0  0
  7  8  1  0  0  0  0
  7 26  1  0  0  0  0
  7 27  1  0  0  0  0
  8 13  1  0  0  0  0
  8  9  1  0  0  0  0
  8 40  1  0  0  0  0
  9 10  1  0  0  0  0
  9 28  1  0  0  0  0
  9 29  1  0  0  0  0
 10 11  1  0  0  0  0
 10 30  1  0  0  0  0
 10 31  1  0  0  0  0
 11 12  1  0  0  0  0
 11 32  1  0  0  0  0
 11 33  1  0  0  0  0
 12 13  1  0  0  0  0
 12 34  1  0  0  0  0
 12 35  1  0  0  0  0
 13 36  1  0  0  0  0
 13 37  1  0  0  0  0
 14 18  1  0  0  0  0
 14 15  1  0  0  0  0
 15 16  2  0  0  0  0
 15 38  1  0  0  0  0
 16 17  1  0  0  0  0
 17 18  2  0  0  0  0
 17 39  1  0  0  0  0
M  CHG  1   8   1
M  END
> <s_m_source_file>
AV-unprocessed.smi

> <i_m_source_file_index>
3268

> <i_lp_mmshare_version>
43012

> <i_f3d_flags>
0

> <s_epik_input>
bjFbY0hdbltjSF1uMVtDQEhdKFtDSDNdKUMoPU8pW05IXVtDSDJdW0NIMl1OMltDSDJdW0NIMl1bQ0gyXVtDSDJdW0NIMl0y

> <s_epik_cmdline>
J2VwaWtfcHl0aG9uJywgJy1waCcsICc3LjAnLCAnLXRuJywgJzgnLCAnLW1hJywgJzIwMCcsICctbWV0YWxfYmluZGluZycsICctaW1hZScsICc8aW5maWxlLm1hZT4nLCAnLW9tYWUnLCAnPG91dGZpbGUubWFlPic=

> <r_lp_tautomer_probability>
1

> <r_epik_Ionization_Penalty>
0.00266407

> <r_epik_Ionization_Penalty_Charging>
0.00265606

> <r_epik_Ionization_Penalty_Neutral>
8.01095e-06

> <r_epik_State_Penalty>
0.00184955

> <r_epik_Charging_Adjusted_Penalty>
0.00450561

> <i_epik_Tot_Q>
1

> <i_epik_Tot_abs_Q>
1

> <r_epik_Metal_State_Penalty>
-0

> <b_epik_Metal_Only>
0

> <s_lp_Force_Field>
OPLS_2005

> <r_lp_Energy>
22.0187

> <b_lp_Chiralities_Consistent>
1

> <s_lp_Variant>
AV-unprocessed.smi:3268-1

> <Gold.Version>
5.8.1

> <Gold.Id.Protein>
6NUR|6NUR_protein|mol2

> <Gold.PLP.Fitness>
46.6396

> <Gold.PLP.PLP>
-33.5597

> <Gold.PLP.part.hbond>
-2.9294

> <Gold.PLP.part.metal>
0.0000

> <Gold.PLP.part.buried>
-2.8283

> <Gold.PLP.part.nonpolar>
-28.2389

> <Gold.PLP.part.repulsive>
0.4474

> <Gold.PLP.ligand.clash>
0.0000

> <Gold.PLP.ligand.torsion>
1.0003

> <Gold.PLP.Chemscore.Hbond>
3.9913

> <Gold.PLP.Chemscore.CHOScore>
1.0000

> <Gold.PLP.Chemscore.Metal>
0.0000

> <Gold.Chemscore.Hbonds>
donor molecule, donor type, donor heavy atom, donor atom, acceptor molecule, acceptor atom, score
      L1  H     5    23       P1  7957  0.99
      L1  H     8    40       P1  7948  2.00
      P1  H  7989  7998       L1    18  0.67
      L1  C    15    38       P1  7948  0.86

> <Gold.PLP.Chemscore.Internal.Correction>
0.1067

> <Gold.Rescore>
     Score         DG    S(hbond)    S(metal)    S(lipo)     H(rot)  DE(clash)    DE(int)     intcor
     10.01     -12.75       2.28        0.00      53.27       2.57       0.39       2.34       ----

> <Gold.Chemscore.Fitness>
10.0146

> <Gold.Chemscore.DG>
-12.7461

> <Gold.Chemscore.ZeroCoef>
-5.4800

> <Gold.Chemscore.Hbond>
2.2785

> <Gold.Chemscore.Metal>
0.0000

> <Gold.Chemscore.Lipo>
53.2692

> <Gold.Chemscore.Internal_Hbond>
0.0000

> <Gold.Chemscore.DEClash>
0.3940

> <Gold.Chemscore.DEInternal>
2.3375

> <Gold.Chemscore.Rot>
2.5690

> <Gold.Chemscore.Internal.Correction>
   9.000000E+99

> <Gold.Chemscore.Hbonds>
donor molecule, donor type, donor heavy atom, donor atom, acceptor molecule, acceptor atom, score
      L1  H     5    23       P1  7957  0.90
      L1  H     8    40       P1  7948  1.00
      P1  H  7989  7998       L1    18  0.05

> <Gold.Chemscore.Hbond.Weighted>
-7.6101

> <Gold.Chemscore.Metal.Weighted>
-0.0000

> <Gold.Chemscore.Lipo.Weighted>
-6.2325

> <Gold.Chemscore.Internal_Hbond.Weighted>
0.0000

> <Gold.Chemscore.DEClash.Weighted>
0.3940

> <Gold.Chemscore.DEInternal.Weighted>
2.3375

> <Gold.Chemscore.Rot.Weighted>
6.5766

> <Gold.Chemscore.Internal.Correction.Weighted>
   9.000000E+99

> <Gold.Protein.RotatedTorsions>
[ 6907 6896 6895 6894 ] final   80.59 input  -60.11 | X-H torsion
[ 7974 7965 7964 7962 ] final  -25.01 input  175.53 | X-H torsion
[ 8008 7997 7996 7995 ] final  -62.11 input   59.86 | X-H torsion
[ 10167 10162 10161 10158 ] final  163.12 input  -65.29 | X-H torsion
[ 10718 10713 10712 10709 ] final  110.36 input   66.30 | X-H torsion
[ 10763 10752 10751 10750 ] final   29.20 input  -60.55 | X-H torsion
[ 11005 11000 10999 10996 ] final -103.70 input  -57.11 | X-H torsion

> <Gold.Protein.ActiveResidues>
 VAL166  LYS551  ARG553  GLY616  TRP617  ASP618  TYR619  PRO620  LYS621  CYS622 
 ASP623  PHE694  ASN695  SER759  ASP760  ASP761  ALA762  ILE779  LEU786  VAL792 
 PHE793  MET794  SER795  GLU796  ALA797  LYS798  CYS799  TRP800  GLU811  SER814 

> <Gold.Protein.RotatedAtoms>
  152.5240  134.3333  159.9190 H   0  0  0  0  0  0  0  0  0  0  0  0  # atno 6907 bound_to 6896
  151.3283  133.4005  159.2668 H   0  0  0  0  0  0  0  0  0  0  0  0  # atno 6908 bound_to 6896
  150.9902  134.9256  159.7952 H   0  0  0  0  0  0  0  0  0  0  0  0  # atno 6909 bound_to 6896
  146.1518  140.4828  142.8608 H   0  0  0  0  0  0  0  0  0  0  0  0  # atno 7974 bound_to 7965
  154.4482  140.1003  156.6535 H   0  0  0  0  0  0  0  0  0  0  0  0  # atno 8008 bound_to 7997
  155.5371  140.3482  155.4420 H   0  0  0  0  0  0  0  0  0  0  0  0  # atno 8009 bound_to 7997
  156.0623  140.1329  156.9915 H   0  0  0  0  0  0  0  0  0  0  0  0  # atno 8010 bound_to 7997
  139.4869  144.4369  151.9001 H   0  0  0  0  0  0  0  0  0  0  0  0  # atno 10167 bound_to 10162
  157.6498  131.0931  150.6591 H   0  0  0  0  0  0  0  0  0  0  0  0  # atno 10718 bound_to 10713
  153.0444  135.6494  154.0855 H   0  0  0  0  0  0  0  0  0  0  0  0  # atno 10763 bound_to 10752
  154.0555  135.2892  155.3335 H   0  0  0  0  0  0  0  0  0  0  0  0  # atno 10764 bound_to 10752
  154.6692  135.5362  153.8181 H   0  0  0  0  0  0  0  0  0  0  0  0  # atno 10765 bound_to 10752
  141.1134  133.8662  157.1519 H   0  0  0  0  0  0  0  0  0  0  0  0  # atno 11005 bound_to 11000
  144.7914  140.6039  143.6539 LP  0  0  0  0  0  0  0  0  0  0  0  0  # atno 17320 bound_to 7965
  145.4804  139.1496  143.3765 LP  0  0  0  0  0  0  0  0  0  0  0  0  # atno 17321 bound_to 7965
  140.3819  144.2726  150.5908 LP  0  0  0  0  0  0  0  0  0  0  0  0  # atno 17342 bound_to 10162
  140.5226  143.2262  151.8365 LP  0  0  0  0  0  0  0  0  0  0  0  0  # atno 17343 bound_to 10162
  156.6903  130.4593  149.5601 LP  0  0  0  0  0  0  0  0  0  0  0  0  # atno 17370 bound_to 10713
  156.1866  130.6533  151.1013 LP  0  0  0  0  0  0  0  0  0  0  0  0  # atno 17371 bound_to 10713
  140.0041  135.0016  157.0253 LP  0  0  0  0  0  0  0  0  0  0  0  0  # atno 17394 bound_to 11000
  140.4714  134.1383  155.7203 LP  0  0  0  0  0  0  0  0  0  0  0  0  # atno 17395 bound_to 11000

$$$$
