AV-unprocessed.smi:2986|AV-procd|sdf|11382|dock4
  -GOLD-   2272016303D 1   1.00000     0.00000
 Structure written by MMmdl.
 43 45  0  0  0  0  0  0  0  0  2 V2000
  153.8684  137.4993  156.8104 C   0  0  0  0  0  0  0  0  0  0  0  0
  152.9597  137.6167  155.7298 O   0  0  0  0  0  0  0  0  0  0  0  0
  152.4714  138.9370  155.5721 C   0  0  0  0  0  0  0  0  0  0  0  0
  151.8346  139.3841  156.8928 C   0  0  0  0  0  0  0  0  0  0  0  0
  151.3841  140.7808  156.8424 N   0  0  0  0  0  0  0  0  0  0  0  0
  150.5360  141.4072  155.9810 C   0  0  0  0  0  0  0  0  0  0  0  0
  149.6961  140.6702  154.6180 S   0  0  0  0  0  0  0  0  0  0  0  0
  148.1924  141.6694  154.4232 C   0  0  0  0  0  0  0  0  0  0  0  0
  147.2266  141.5169  155.5981 C   0  0  0  0  0  0  0  0  0  0  0  0
  146.3614  140.6435  155.5569 O   0  0  0  0  0  0  0  0  0  0  0  0
  147.3961  142.3865  156.6103 N   0  0  0  0  0  0  0  0  0  0  0  0
  146.6211  142.5326  157.7883 C   0  0  0  0  0  0  0  0  0  0  0  0
  147.0061  143.2276  158.9714 C   0  0  0  0  0  0  0  0  0  0  0  0
  145.9186  143.0730  159.7839 C   0  0  0  0  0  0  0  0  0  0  0  0
  145.6113  143.5359  161.1665 C   0  0  0  0  0  0  0  0  0  0  0  0
  144.9559  142.3470  159.1544 O   0  0  0  0  0  0  0  0  0  0  0  0
  145.4136  142.0069  157.8762 N   0  0  0  0  0  0  0  0  0  0  0  0
  150.4200  142.7033  156.3792 N   0  3  0  0  0  0  0  0  0  0  0  0
  151.2173  142.9152  157.5054 C   0  0  0  0  0  0  0  0  0  0  0  0
  151.4335  144.0600  158.2665 C   0  0  0  0  0  0  0  0  0  0  0  0
  152.3160  143.9356  159.3597 C   0  0  0  0  0  0  0  0  0  0  0  0
  152.9439  142.7095  159.6616 C   0  0  0  0  0  0  0  0  0  0  0  0
  152.7154  141.5545  158.8847 C   0  0  0  0  0  0  0  0  0  0  0  0
  151.8416  141.6857  157.8060 C   0  0  0  0  0  0  0  0  0  0  0  0
  154.2059  136.4665  156.8948 H   0  0  0  0  0  0  0  0  0  0  0  0
  153.3978  137.7774  157.7543 H   0  0  0  0  0  0  0  0  0  0  0  0
  154.7459  138.1291  156.6575 H   0  0  0  0  0  0  0  0  0  0  0  0
  153.2891  139.6060  155.2988 H   0  0  0  0  0  0  0  0  0  0  0  0
  151.7330  138.9708  154.7693 H   0  0  0  0  0  0  0  0  0  0  0  0
  150.9713  138.7599  157.1240 H   0  0  0  0  0  0  0  0  0  0  0  0
  152.5296  139.2681  157.7251 H   0  0  0  0  0  0  0  0  0  0  0  0
  148.4799  142.7164  154.3191 H   0  0  0  0  0  0  0  0  0  0  0  0
  147.6901  141.3831  153.4989 H   0  0  0  0  0  0  0  0  0  0  0  0
  148.1449  143.0553  156.5017 H   0  0  0  0  0  0  0  0  0  0  0  0
  147.9174  143.7582  159.2021 H   0  0  0  0  0  0  0  0  0  0  0  0
  146.4292  144.1343  161.5681 H   0  0  0  0  0  0  0  0  0  0  0  0
  145.4541  142.6869  161.8318 H   0  0  0  0  0  0  0  0  0  0  0  0
  144.7087  144.1470  161.1775 H   0  0  0  0  0  0  0  0  0  0  0  0
  150.9539  145.0005  158.0376 H   0  0  0  0  0  0  0  0  0  0  0  0
  152.5157  144.7980  159.9791 H   0  0  0  0  0  0  0  0  0  0  0  0
  153.6147  142.6530  160.5067 H   0  0  0  0  0  0  0  0  0  0  0  0
  153.2015  140.6200  159.1235 H   0  0  0  0  0  0  0  0  0  0  0  0
  149.8385  143.3886  155.9146 H   0  0  0  0  0  0  0  0  0  0  0  0
  1  2  1  0  0  0  0
  1 25  1  0  0  0  0
  1 26  1  0  0  0  0
  1 27  1  0  0  0  0
  2  3  1  0  0  0  0
  3  4  1  0  0  0  0
  3 28  1  0  0  0  0
  3 29  1  0  0  0  0
  4  5  1  0  0  0  0
  4 30  1  0  0  0  0
  4 31  1  0  0  0  0
  5 24  1  0  0  0  0
  5  6  1  0  0  0  0
  6  7  1  0  0  0  0
  6 18  2  0  0  0  0
  7  8  1  0  0  0  0
  8  9  1  0  0  0  0
  8 32  1  0  0  0  0
  8 33  1  0  0  0  0
  9 10  2  0  0  0  0
  9 11  1  0  0  0  0
 11 12  1  0  0  0  0
 11 34  1  0  0  0  0
 12 17  2  0  0  0  0
 12 13  1  0  0  0  0
 13 14  2  0  0  0  0
 13 35  1  0  0  0  0
 14 15  1  0  0  0  0
 14 16  1  0  0  0  0
 15 36  1  0  0  0  0
 15 37  1  0  0  0  0
 15 38  1  0  0  0  0
 16 17  1  0  0  0  0
 18 19  1  0  0  0  0
 18 43  1  0  0  0  0
 19 24  2  0  0  0  0
 19 20  1  0  0  0  0
 20 21  2  0  0  0  0
 20 39  1  0  0  0  0
 21 22  1  0  0  0  0
 21 40  1  0  0  0  0
 22 23  2  0  0  0  0
 22 41  1  0  0  0  0
 23 24  1  0  0  0  0
 23 42  1  0  0  0  0
M  CHG  1  18   1
M  END
> <s_m_source_file>
AV-unprocessed.smi

> <i_m_source_file_index>
2986

> <i_lp_mmshare_version>
43012

> <i_f3d_flags>
0

> <s_epik_input>
W2NIXTFbY0hdW2NIXVtjSF1jKGMxMiluKFtDSDJdW0NIMl1PW0NIM10pYyhuMilTW0NIMl1DKD1PKVtOSF1jM1tjSF1jKFtDSDNdKW9uMw==

> <s_epik_cmdline>
J2VwaWtfcHl0aG9uJywgJy1waCcsICc3LjAnLCAnLXRuJywgJzgnLCAnLW1hJywgJzIwMCcsICctbWV0YWxfYmluZGluZycsICctaW1hZScsICc8aW5maWxlLm1hZT4nLCAnLW9tYWUnLCAnPG91dGZpbGUubWFlPic=

> <r_epik_Ionization_Penalty>
1.88527

> <r_epik_Ionization_Penalty_Charging>
1.88465

> <r_epik_Ionization_Penalty_Neutral>
0.000624705

> <r_epik_State_Penalty>
2.00469

> <r_epik_Charging_Adjusted_Penalty>
3.88934

> <i_epik_Tot_Q>
1

> <i_epik_Tot_abs_Q>
1

> <r_epik_Metal_State_Penalty>
2.24687

> <b_epik_Metal_Only>
0

> <s_lp_Force_Field>
OPLS_2005

> <r_lp_Energy>
12.3116

> <b_lp_Chiralities_Consistent>
1

> <s_lp_Variant>
AV-unprocessed.smi:2986-2

> <Gold.Version>
5.8.1

> <Gold.Id.Protein>
6NUR|6NUR_protein|mol2

> <Gold.PLP.Fitness>
52.3453

> <Gold.PLP.PLP>
-44.2232

> <Gold.PLP.part.hbond>
-3.0000

> <Gold.PLP.part.metal>
0.0000

> <Gold.PLP.part.buried>
-5.0712

> <Gold.PLP.part.nonpolar>
-36.8309

> <Gold.PLP.part.repulsive>
0.1677

> <Gold.PLP.ligand.clash>
0.0000

> <Gold.PLP.ligand.torsion>
0.8409

> <Gold.PLP.Chemscore.Hbond>
3.2333

> <Gold.PLP.Chemscore.CHOScore>
0.0000

> <Gold.PLP.Chemscore.Metal>
0.0000

> <Gold.Chemscore.Hbonds>
donor molecule, donor type, donor heavy atom, donor atom, acceptor molecule, acceptor atom, score
      L1  H    11    34       P1  8028  0.99
      L1  H    18    43       P1  8028  2.00
      P1  H 10752 10765       L1     2  0.24

> <Gold.PLP.Chemscore.Internal.Correction>
0.1042

> <Gold.Rescore>
     Score         DG    S(hbond)    S(metal)    S(lipo)     H(rot)  DE(clash)    DE(int)     intcor
     15.26     -17.46       1.69        0.00     105.55       2.35       0.02       2.18       ----

> <Gold.Chemscore.Fitness>
15.2642

> <Gold.Chemscore.DG>
-17.4611

> <Gold.Chemscore.ZeroCoef>
-5.4800

> <Gold.Chemscore.Hbond>
1.6875

> <Gold.Chemscore.Metal>
0.0000

> <Gold.Chemscore.Lipo>
105.5454

> <Gold.Chemscore.Internal_Hbond>
0.0000

> <Gold.Chemscore.DEClash>
0.0211

> <Gold.Chemscore.DEInternal>
2.1757

> <Gold.Chemscore.Rot>
2.3453

> <Gold.Chemscore.Internal.Correction>
   9.000000E+99

> <Gold.Chemscore.Hbonds>
donor molecule, donor type, donor heavy atom, donor atom, acceptor molecule, acceptor atom, score
      L1  H    11    34       P1  8028  0.40
      L1  H    18    43       P1  8028  0.99
      P1  H 10752 10765       L1     2  0.06

> <Gold.Chemscore.Hbond.Weighted>
-5.6363

> <Gold.Chemscore.Metal.Weighted>
-0.0000

> <Gold.Chemscore.Lipo.Weighted>
-12.3488

> <Gold.Chemscore.Internal_Hbond.Weighted>
0.0000

> <Gold.Chemscore.DEClash.Weighted>
0.0211

> <Gold.Chemscore.DEInternal.Weighted>
2.1757

> <Gold.Chemscore.Rot.Weighted>
6.0040

> <Gold.Chemscore.Internal.Correction.Weighted>
   9.000000E+99

> <Gold.Protein.RotatedTorsions>
[ 6907 6896 6895 6894 ] final   73.41 input  -60.11 | X-H torsion
[ 7974 7965 7964 7962 ] final -104.10 input  175.53 | X-H torsion
[ 8008 7997 7996 7995 ] final  101.97 input   59.86 | X-H torsion
[ 10167 10162 10161 10158 ] final   87.26 input  -65.29 | X-H torsion
[ 10718 10713 10712 10709 ] final   16.39 input   66.30 | X-H torsion
[ 10763 10752 10751 10750 ] final -160.84 input  -60.55 | X-H torsion
[ 11005 11000 10999 10996 ] final  163.41 input  -57.11 | X-H torsion

> <Gold.Protein.ActiveResidues>
 VAL166  LYS551  ARG553  GLY616  TRP617  ASP618  TYR619  PRO620  LYS621  CYS622 
 ASP623  PHE694  ASN695  SER759  ASP760  ASP761  ALA762  ILE779  LEU786  VAL792 
 PHE793  MET794  SER795  GLU796  ALA797  LYS798  CYS799  TRP800  GLU811  SER814 

> <Gold.Protein.RotatedAtoms>
  152.4922  134.4426  159.9548 H   0  0  0  0  0  0  0  0  0  0  0  0  # atno 6907 bound_to 6896
  151.4411  133.3637  159.2789 H   0  0  0  0  0  0  0  0  0  0  0  0  # atno 6908 bound_to 6896
  150.9087  134.8527  159.7470 H   0  0  0  0  0  0  0  0  0  0  0  0  # atno 6909 bound_to 6896
  145.2474  140.9226  143.3115 H   0  0  0  0  0  0  0  0  0  0  0  0  # atno 7974 bound_to 7965
  156.1349  140.3189  155.8406 H   0  0  0  0  0  0  0  0  0  0  0  0  # atno 8008 bound_to 7997
  155.4263  140.0515  157.3039 H   0  0  0  0  0  0  0  0  0  0  0  0  # atno 8009 bound_to 7997
  154.4929  140.2099  155.9522 H   0  0  0  0  0  0  0  0  0  0  0  0  # atno 8010 bound_to 7997
  139.8792  144.6450  150.8862 H   0  0  0  0  0  0  0  0  0  0  0  0  # atno 10167 bound_to 10162
  157.0672  130.6333  149.5798 H   0  0  0  0  0  0  0  0  0  0  0  0  # atno 10718 bound_to 10713
  154.7356  135.3056  154.8817 H   0  0  0  0  0  0  0  0  0  0  0  0  # atno 10763 bound_to 10752
  153.9647  135.6749  153.4750 H   0  0  0  0  0  0  0  0  0  0  0  0  # atno 10764 bound_to 10752
  153.0959  135.4936  154.8700 H   0  0  0  0  0  0  0  0  0  0  0  0  # atno 10765 bound_to 10752
  140.2355  134.8091  157.3359 H   0  0  0  0  0  0  0  0  0  0  0  0  # atno 11005 bound_to 11000
  144.9533  139.4058  143.6391 LP  0  0  0  0  0  0  0  0  0  0  0  0  # atno 17320 bound_to 7965
  146.3312  139.8552  142.8866 LP  0  0  0  0  0  0  0  0  0  0  0  0  # atno 17321 bound_to 7965
  140.7747  143.3600  151.1847 LP  0  0  0  0  0  0  0  0  0  0  0  0  # atno 17342 bound_to 10162
  139.7212  143.9220  152.2986 LP  0  0  0  0  0  0  0  0  0  0  0  0  # atno 17343 bound_to 10162
  155.9961  130.5029  150.7484 LP  0  0  0  0  0  0  0  0  0  0  0  0  # atno 17370 bound_to 10713
  157.4907  131.0910  151.0430 LP  0  0  0  0  0  0  0  0  0  0  0  0  # atno 17371 bound_to 10713
  140.1707  134.4612  155.7834 LP  0  0  0  0  0  0  0  0  0  0  0  0  # atno 17394 bound_to 11000
  141.2215  133.6940  156.7702 LP  0  0  0  0  0  0  0  0  0  0  0  0  # atno 17395 bound_to 11000

$$$$
