#       Name:                AV-unprocessed.smi:1432
#       Creating user name   scv26
#       Creation time:       Fri Mar 27 05:49:26 2020


#       File generated by GOLD software.
#

@<TRIPOS>MOLECULE
AV-unprocessed.smi:1432
    51    52     1
SMALL
NO_CHARGES


@<TRIPOS>ATOM
      1 ****        -2.1378   3.5980  -0.0082 C.3            1 S1                 0.0000
      2 ****        -2.6665   2.3219  -0.6988 C.3            1 S1                 0.0000
      3 ****        -4.0700   2.5228  -1.3083 C.3            1 S1                 0.0000
      4 ****        -5.1633   2.5886  -0.2317 C.3            1 S1                 0.0000
      5 ****        -5.0897   1.3495   0.6686 C.3            1 S1                 0.0000
      6 ****        -3.6814   1.1735   1.2602 C.3            1 S1                 0.0000
      7 ****        -2.6521   1.1180   0.1860 N.4            1 S1                 1.0000
      8 ****        -1.2973   0.7532   0.6749 C.3            1 S1                 0.0000
      9 ****        -1.1713  -0.7526   0.9747 C.3            1 S1                 0.0000
     10 ****         0.1778  -1.1045   1.4016 N.am           1 S1                 0.0000
     11 ****         1.2221  -1.2794   0.5777 C.2            1 S1                 0.0000
     12 ****         1.1463  -1.1301  -0.6427 O.2            1 S1                 0.0000
     13 ****         2.5519  -1.6598   1.2441 C.3            1 S1                 0.0000
     14 ****         3.4921  -2.3252   0.3263 N.am           1 S1                 0.0000
     15 ****         4.4934  -1.5256  -0.2594 C.2            1 S1                 0.0000
     16 ****         5.4015  -2.0084  -1.1289 C.2            1 S1                 0.0000
     17 ****         6.5006  -1.1308  -1.7074 C.3            1 S1                 0.0000
     18 ****         7.5845  -1.8495  -2.0012 F              1 S1                 0.0000
     19 ****         6.0728  -0.5480  -2.8265 F              1 S1                 0.0000
     20 ****         6.8530  -0.1727  -0.8493 F              1 S1                 0.0000
     21 ****         5.3276  -3.4273  -1.4175 C.2            1 S1                 0.0000
     22 ****         4.3802  -4.2073  -0.8615 C.2            1 S1                 0.0000
     23 ****         3.3821  -3.6615   0.0609 C.2            1 S1                 0.0000
     24 ****         2.5020  -4.3605   0.5637 O.2            1 S1                 0.0000
     25 ****        -2.1493   4.4409  -0.6994 H              1 S1                 0.0000
     26 ****        -1.1075   3.4795   0.3274 H              1 S1                 0.0000
     27 ****        -2.7371   3.8822   0.8562 H              1 S1                 0.0000
     28 ****        -1.9941   2.1122  -1.5323 H              1 S1                 0.0000
     29 ****        -4.0927   3.4253  -1.9202 H              1 S1                 0.0000
     30 ****        -4.2880   1.6950  -1.9849 H              1 S1                 0.0000
     31 ****        -5.0471   3.4915   0.3686 H              1 S1                 0.0000
     32 ****        -6.1462   2.6541  -0.6993 H              1 S1                 0.0000
     33 ****        -5.8241   1.4277   1.4710 H              1 S1                 0.0000
     34 ****        -5.3561   0.4628   0.0919 H              1 S1                 0.0000
     35 ****        -3.4572   1.9832   1.9553 H              1 S1                 0.0000
     36 ****        -3.6655   0.2550   1.8454 H              1 S1                 0.0000
     37 ****        -0.5641   1.0141  -0.0897 H              1 S1                 0.0000
     38 ****        -1.0477   1.3439   1.5576 H              1 S1                 0.0000
     39 ****        -1.8491  -1.0476   1.7746 H              1 S1                 0.0000
     40 ****        -1.4500  -1.3418   0.0994 H              1 S1                 0.0000
     41 ****         0.3248  -1.2439   2.3913 H              1 S1                 0.0000
     42 ****         2.9959  -0.7534   1.6576 H              1 S1                 0.0000
     43 ****         2.3562  -2.2993   2.1070 H              1 S1                 0.0000
     44 ****         4.4728  -0.4877   0.0401 H              1 S1                 0.0000
     45 ****         6.0410  -3.8725  -2.0952 H              1 S1                 0.0000
     46 ****         4.3532  -5.2602  -1.1016 H              1 S1                 0.0000
     47 ****        -2.9282   0.3557  -0.4166 H              1 S1                 0.0000
     48 ****         0.2771  -0.8667  -1.0612 LP             1 S1                 0.0000
     49 ****         1.9540  -1.2723  -1.2150 LP             1 S1                 0.0000
     50 ****         1.8368  -3.9534   1.1896 LP             1 S1                 0.0000
     51 ****         2.4525  -5.3353   0.3461 LP             1 S1                 0.0000
@<TRIPOS>BOND
    1    1    2 1     
    2    1   25 1     
    3    1   26 1     
    4    1   27 1     
    5    2    7 1     
    6    2    3 1     
    7    2   28 1     
    8    3    4 1     
    9    3   29 1     
   10    3   30 1     
   11    4    5 1     
   12    4   31 1     
   13    4   32 1     
   14    5    6 1     
   15    5   33 1     
   16    5   34 1     
   17    6    7 1     
   18    6   35 1     
   19    6   36 1     
   20    7    8 1     
   21    7   47 1     
   22    8    9 1     
   23    8   37 1     
   24    8   38 1     
   25    9   10 1     
   26    9   39 1     
   27    9   40 1     
   28   10   11 am    
   29   10   41 1     
   30   11   12 2     
   31   11   13 1     
   32   13   14 1     
   33   13   42 1     
   34   13   43 1     
   35   14   23 am    
   36   14   15 1     
   37   15   16 2     
   38   15   44 1     
   39   16   17 1     
   40   16   21 1     
   41   17   18 1     
   42   17   19 1     
   43   17   20 1     
   44   21   22 2     
   45   21   45 1     
   46   22   23 1     
   47   22   46 1     
   48   23   24 2     
   49   12   48 1     
   50   12   49 1     
   51   24   50 1     
   52   24   51 1     
@<TRIPOS>SUBSTRUCTURE
      1 S1             1
@<TRIPOS>SET
LONE_PAIRS      STATIC     ATOMS    <user>   **** ""
4 48 49 50 51
DONOR_HYDROGENS      STATIC     ATOMS    <user>   **** ""
2 47 41
ATOM$BLUE        STATIC     ATOMS    COLORGROUP SYSTEM
4 48 49 50 51
ATOM$RED        STATIC     ATOMS    COLORGROUP SYSTEM
2 47 41
