AV-unprocessed.smi:67|AV-procd|sdf|632|dock8
  -GOLD-   2262016523D 1   1.00000     0.00000
 Structure written by MMmdl.
 49 51  0  0  0  0  0  0  0  0  3 V2000
  146.4963  135.0895  150.5925 O   0  0  0  0  0  0  0  0  0  0  0  0
  145.4317  134.5545  151.3588 C   0  0  2  0  0  0  0  0  0  0  0  0
  145.7015  134.8120  152.8590 C   0  0  0  0  0  0  0  0  0  0  0  0
  147.1284  134.5976  153.2222 N   0  3  2  0  0  0  0  0  0  0  0  0
  147.6584  133.2925  152.7508 C   0  0  0  0  0  0  0  0  0  0  0  0
  149.1698  133.1764  153.0158 C   0  0  0  0  0  0  0  0  0  0  0  0
  149.5088  133.3924  154.4991 C   0  0  2  0  0  0  0  0  0  0  0  0
  148.9645  132.2949  155.2299 O   0  0  0  0  0  0  0  0  0  0  0  0
  149.3787  131.0074  154.9548 C   0  0  0  0  0  0  0  0  0  0  0  0
  148.4333  130.1577  154.3458 C   0  0  0  0  0  0  0  0  0  0  0  0
  148.7615  128.8278  154.0231 C   0  0  0  0  0  0  0  0  0  0  0  0
  150.0458  128.3299  154.3083 C   0  0  0  0  0  0  0  0  0  0  0  0
  151.0078  129.1628  154.9185 C   0  0  0  0  0  0  0  0  0  0  0  0
  152.4046  128.6501  155.2358 C   0  0  0  0  0  0  0  0  0  0  0  0
  152.6623  128.8231  156.5323 F   0  0  0  0  0  0  0  0  0  0  0  0
  152.5379  127.3546  154.9496 F   0  0  0  0  0  0  0  0  0  0  0  0
  153.2985  129.3373  154.5253 F   0  0  0  0  0  0  0  0  0  0  0  0
  150.6715  130.4967  155.2345 C   0  0  0  0  0  0  0  0  0  0  0  0
  148.9065  134.7329  154.9679 C   0  0  0  0  0  0  0  0  0  0  0  0
  147.4000  134.8104  154.6679 C   0  0  0  0  0  0  0  0  0  0  0  0
  145.2264  133.0789  151.0003 C   0  0  0  0  0  0  0  0  0  0  0  0
  144.4219  133.1205  149.6993 C   0  0  0  0  0  0  0  0  0  0  0  0
  143.6390  134.3706  149.7392 N   0  3  0  0  0  0  0  0  0  0  0  0
  144.1264  135.1992  150.8611 C   0  0  0  0  0  0  0  0  0  0  0  0
  147.1312  135.4765  151.1769 H   0  0  0  0  0  0  0  0  0  0  0  0
  145.3811  135.8163  153.1415 H   0  0  0  0  0  0  0  0  0  0  0  0
  145.0721  134.1363  153.4403 H   0  0  0  0  0  0  0  0  0  0  0  0
  147.1224  132.4799  153.2441 H   0  0  0  0  0  0  0  0  0  0  0  0
  147.4770  133.1898  151.6802 H   0  0  0  0  0  0  0  0  0  0  0  0
  149.5324  132.2010  152.6888 H   0  0  0  0  0  0  0  0  0  0  0  0
  149.6983  133.9161  152.4128 H   0  0  0  0  0  0  0  0  0  0  0  0
  150.5956  133.4044  154.5849 H   0  0  0  0  0  0  0  0  0  0  0  0
  147.4441  130.5297  154.1220 H   0  0  0  0  0  0  0  0  0  0  0  0
  148.0271  128.1889  153.5554 H   0  0  0  0  0  0  0  0  0  0  0  0
  150.2833  127.3079  154.0534 H   0  0  0  0  0  0  0  0  0  0  0  0
  151.4309  131.1079  155.6966 H   0  0  0  0  0  0  0  0  0  0  0  0
  149.0759  134.8886  156.0328 H   0  0  0  0  0  0  0  0  0  0  0  0
  149.4159  135.5528  154.4599 H   0  0  0  0  0  0  0  0  0  0  0  0
  147.0231  135.7847  154.9784 H   0  0  0  0  0  0  0  0  0  0  0  0
  146.8626  134.0642  155.2556 H   0  0  0  0  0  0  0  0  0  0  0  0
  146.1595  132.5222  150.9025 H   0  0  0  0  0  0  0  0  0  0  0  0
  144.6317  132.5894  151.7731 H   0  0  0  0  0  0  0  0  0  0  0  0
  145.0952  133.1649  148.8422 H   0  0  0  0  0  0  0  0  0  0  0  0
  143.7788  132.2486  149.5770 H   0  0  0  0  0  0  0  0  0  0  0  0
  143.7617  134.8651  148.8667 H   0  0  0  0  0  0  0  0  0  0  0  0
  143.3649  135.1640  151.6410 H   0  0  0  0  0  0  0  0  0  0  0  0
  144.2437  136.2437  150.5692 H   0  0  0  0  0  0  0  0  0  0  0  0
  142.6595  134.1636  149.8747 H   0  0  0  0  0  0  0  0  0  0  0  0
  147.6515  135.3044  152.7249 H   0  0  0  0  0  0  0  0  0  0  0  0
  1  2  1  0  0  0  0
  1 25  1  0  0  0  0
  2 24  1  0  0  0  0
  2  3  1  0  0  0  0
  2 21  1  0  0  0  0
  3  4  1  0  0  0  0
  3 26  1  0  0  0  0
  3 27  1  0  0  0  0
  4 20  1  0  0  0  0
  4  5  1  0  0  0  0
  4 49  1  0  0  0  0
  5  6  1  0  0  0  0
  5 28  1  0  0  0  0
  5 29  1  0  0  0  0
  6  7  1  0  0  0  0
  6 30  1  0  0  0  0
  6 31  1  0  0  0  0
  7  8  1  0  0  0  0
  7 19  1  0  0  0  0
  7 32  1  0  0  0  0
  8  9  1  0  0  0  0
  9 18  1  0  0  0  0
  9 10  2  0  0  0  0
 10 11  1  0  0  0  0
 10 33  1  0  0  0  0
 11 12  2  0  0  0  0
 11 34  1  0  0  0  0
 12 13  1  0  0  0  0
 12 35  1  0  0  0  0
 13 14  1  0  0  0  0
 13 18  2  0  0  0  0
 14 15  1  0  0  0  0
 14 16  1  0  0  0  0
 14 17  1  0  0  0  0
 18 36  1  0  0  0  0
 19 20  1  0  0  0  0
 19 37  1  0  0  0  0
 19 38  1  0  0  0  0
 20 39  1  0  0  0  0
 20 40  1  0  0  0  0
 21 22  1  0  0  0  0
 21 41  1  0  0  0  0
 21 42  1  0  0  0  0
 22 23  1  0  0  0  0
 22 43  1  0  0  0  0
 22 44  1  0  0  0  0
 23 24  1  0  0  0  0
 23 45  1  0  0  0  0
 23 48  1  0  0  0  0
 24 46  1  0  0  0  0
 24 47  1  0  0  0  0
M  CHG  1   4   1
M  CHG  1  23   1
M  END
> <s_m_source_file>
AV-unprocessed.smi

> <i_m_source_file_index>
67

> <i_lp_mmshare_version>
43012

> <i_f3d_flags>
0

> <s_epik_input>
W0NIMl0xW05IXVtDSDJdW0NIMl1bQ0BAXTEoW09IXSlbQ0gyXU4yW0NIMl1bQ0gyXVtDSF0oW0NIMl1bQ0gyXTIpT2MzW2NIXVtjSF1bY0hdYyhDKEYpKEYpRilbY0hdMw==

> <s_epik_cmdline>
J2VwaWtfcHl0aG9uJywgJy1waCcsICc3LjAnLCAnLXRuJywgJzgnLCAnLW1hJywgJzIwMCcsICctbWV0YWxfYmluZGluZycsICctaW1hZScsICc8aW5maWxlLm1hZT4nLCAnLW9tYWUnLCAnPG91dGZpbGUubWFlPic=

> <r_lp_tautomer_probability>
1

> <r_epik_Ionization_Penalty>
0.0989853

> <r_epik_Ionization_Penalty_Charging>
0.0989662

> <r_epik_Ionization_Penalty_Neutral>
1.91014e-05

> <r_epik_State_Penalty>
0.0852826

> <r_epik_Charging_Adjusted_Penalty>
0.184249

> <i_epik_Tot_Q>
2

> <i_epik_Tot_abs_Q>
2

> <r_epik_Metal_State_Penalty>
0.0849414

> <b_epik_Metal_Only>
0

> <s_lp_Force_Field>
OPLS_2005

> <r_lp_Energy>
57.0803

> <b_lp_Chiralities_Consistent>
1

> <s_lp_Variant>
AV-unprocessed.smi:67-4

> <Gold.Version>
5.8.1

> <Gold.Id.Protein>
6NUR|6NUR_protein|mol2

> <Gold.PLP.Fitness>
50.8448

> <Gold.PLP.PLP>
-36.4702

> <Gold.PLP.part.hbond>
-4.3016

> <Gold.PLP.part.metal>
0.0000

> <Gold.PLP.part.buried>
0.9480

> <Gold.PLP.part.nonpolar>
-32.7489

> <Gold.PLP.part.repulsive>
0.0646

> <Gold.PLP.ligand.clash>
0.0000

> <Gold.PLP.ligand.torsion>
0.4366

> <Gold.PLP.Chemscore.Hbond>
4.9753

> <Gold.PLP.Chemscore.CHOScore>
0.0000

> <Gold.PLP.Chemscore.Metal>
0.0000

> <Gold.Chemscore.Hbonds>
donor molecule, donor type, donor heavy atom, donor atom, acceptor molecule, acceptor atom, score
      L1  H     1    25       P1  7948  0.99
      L1  H     4    49       P1  7948  2.00
      L1  H    23    48       P1 10186  2.00

> <Gold.PLP.Chemscore.Internal.Correction>
0.3219

> <Gold.Rescore>
     Score         DG    S(hbond)    S(metal)    S(lipo)     H(rot)  DE(clash)    DE(int)     intcor
     16.79     -18.59       2.82        0.00      80.50       2.24       1.45       0.36       ----

> <Gold.Chemscore.Fitness>
16.7857

> <Gold.Chemscore.DG>
-18.5882

> <Gold.Chemscore.ZeroCoef>
-5.4800

> <Gold.Chemscore.Hbond>
2.8178

> <Gold.Chemscore.Metal>
0.0000

> <Gold.Chemscore.Lipo>
80.5041

> <Gold.Chemscore.Internal_Hbond>
0.0000

> <Gold.Chemscore.DEClash>
1.4455

> <Gold.Chemscore.DEInternal>
0.3570

> <Gold.Chemscore.Rot>
2.2352

> <Gold.Chemscore.Internal.Correction>
   9.000000E+99

> <Gold.Chemscore.Hbonds>
donor molecule, donor type, donor heavy atom, donor atom, acceptor molecule, acceptor atom, score
      L1  H     1    25       P1  7948  0.81
      L1  H     4    49       P1  7948  1.00
      L1  H    23    48       P1 10186  0.95

> <Gold.Chemscore.Hbond.Weighted>
-9.4114

> <Gold.Chemscore.Metal.Weighted>
-0.0000

> <Gold.Chemscore.Lipo.Weighted>
-9.4190

> <Gold.Chemscore.Internal_Hbond.Weighted>
0.0000

> <Gold.Chemscore.DEClash.Weighted>
1.4455

> <Gold.Chemscore.DEInternal.Weighted>
0.3570

> <Gold.Chemscore.Rot.Weighted>
5.7221

> <Gold.Chemscore.Internal.Correction.Weighted>
   9.000000E+99

> <Gold.Protein.RotatedTorsions>
[ 6907 6896 6895 6894 ] final  128.82 input  -60.11 | X-H torsion
[ 7974 7965 7964 7962 ] final  167.98 input  175.53 | X-H torsion
[ 8008 7997 7996 7995 ] final   25.49 input   59.86 | X-H torsion
[ 10167 10162 10161 10158 ] final  120.54 input  -65.29 | X-H torsion
[ 10718 10713 10712 10709 ] final  -52.31 input   66.30 | X-H torsion
[ 10763 10752 10751 10750 ] final -179.21 input  -60.55 | X-H torsion
[ 11005 11000 10999 10996 ] final -127.10 input  -57.11 | X-H torsion

> <Gold.Protein.ActiveResidues>
 VAL166  LYS551  ARG553  GLY616  TRP617  ASP618  TYR619  PRO620  LYS621  CYS622 
 ASP623  PHE694  ASN695  SER759  ASP760  ASP761  ALA762  ILE779  LEU786  VAL792 
 PHE793  MET794  SER795  GLU796  ALA797  LYS798  CYS799  TRP800  GLU811  SER814 

> <Gold.Protein.RotatedAtoms>
  152.3683  133.6385  159.6067 H   0  0  0  0  0  0  0  0  0  0  0  0  # atno 6907 bound_to 6896
  150.7650  133.9312  159.3436 H   0  0  0  0  0  0  0  0  0  0  0  0  # atno 6908 bound_to 6896
  151.7139  135.0908  160.0323 H   0  0  0  0  0  0  0  0  0  0  0  0  # atno 6909 bound_to 6896
  144.7405  139.8840  143.6398 H   0  0  0  0  0  0  0  0  0  0  0  0  # atno 7974 bound_to 7965
  155.0125  140.3138  155.4824 H   0  0  0  0  0  0  0  0  0  0  0  0  # atno 8008 bound_to 7997
  156.2906  140.2212  156.5182 H   0  0  0  0  0  0  0  0  0  0  0  0  # atno 8009 bound_to 7997
  154.7522  140.0465  157.0891 H   0  0  0  0  0  0  0  0  0  0  0  0  # atno 8010 bound_to 7997
  139.5975  144.7046  151.3140 H   0  0  0  0  0  0  0  0  0  0  0  0  # atno 10167 bound_to 10162
  156.1633  130.4149  149.9759 H   0  0  0  0  0  0  0  0  0  0  0  0  # atno 10718 bound_to 10713
  154.5379  135.2804  155.1122 H   0  0  0  0  0  0  0  0  0  0  0  0  # atno 10763 bound_to 10752
  154.2616  135.6320  153.5280 H   0  0  0  0  0  0  0  0  0  0  0  0  # atno 10764 bound_to 10752
  152.9972  135.5607  154.5910 H   0  0  0  0  0  0  0  0  0  0  0  0  # atno 10765 bound_to 10752
  140.9627  134.0914  157.3952 H   0  0  0  0  0  0  0  0  0  0  0  0  # atno 11005 bound_to 11000
  146.1191  139.4206  143.0240 LP  0  0  0  0  0  0  0  0  0  0  0  0  # atno 17320 bound_to 7965
  145.7331  141.0035  143.1341 LP  0  0  0  0  0  0  0  0  0  0  0  0  # atno 17321 bound_to 7965
  140.7224  143.7099  150.7777 LP  0  0  0  0  0  0  0  0  0  0  0  0  # atno 17342 bound_to 10162
  140.0669  143.5100  152.2600 LP  0  0  0  0  0  0  0  0  0  0  0  0  # atno 17343 bound_to 10162
  156.7582  130.9141  151.3640 LP  0  0  0  0  0  0  0  0  0  0  0  0  # atno 17370 bound_to 10713
  157.6749  130.9085  150.0126 LP  0  0  0  0  0  0  0  0  0  0  0  0  # atno 17371 bound_to 10713
  139.8883  135.0097  156.6615 LP  0  0  0  0  0  0  0  0  0  0  0  0  # atno 17394 bound_to 11000
  140.7444  133.8950  155.8301 LP  0  0  0  0  0  0  0  0  0  0  0  0  # atno 17395 bound_to 11000

$$$$
