#       Name:                AV-unprocessed.smi:517
#       Creating user name   scv26
#       Creation time:       Thu Mar 26 23:26:46 2020


#       File generated by GOLD software.
#

@<TRIPOS>MOLECULE
AV-unprocessed.smi:517
    40    41     1
SMALL
NO_CHARGES


@<TRIPOS>ATOM
      1 ****        -3.3561   2.1753  -0.1303 C.3            1 S1                 0.0000
      2 ****        -2.8248   1.2560  -1.2320 C.3            1 S1                 0.0000
      3 ****        -1.4190   1.1422  -1.0961 O.3            1 S1                 0.0000
      4 ****        -0.8378   0.2992  -2.0782 C.3            1 S1                 0.0000
      5 ****         0.6728   0.1907  -1.8286 C.3            1 S1                 0.0000
      6 ****         0.9745  -0.2703  -0.4647 N.pl3          1 S1                 0.0000
      7 ****         1.2277   0.4331   0.6788 C.2            1 S1                 0.0000
      8 ****         1.2791   1.9217   0.8405 C.3            1 S1                 0.0000
      9 ****         0.2941   2.3995   1.9162 C.3            1 S1                 0.0000
     10 ****         2.5744   2.3636   1.1857 O.3            1 S1                 0.0000
     11 ****         1.4459  -0.4794   1.6690 N.pl3          1 S1                 1.0000
     12 ****         1.3082  -1.7720   1.1637 C.ar           1 S1                 0.0000
     13 ****         1.4230  -3.0112   1.7861 C.ar           1 S1                 0.0000
     14 ****         1.2133  -4.1472   0.9771 C.ar           1 S1                 0.0000
     15 ****         0.9039  -4.0255  -0.3933 C.ar           1 S1                 0.0000
     16 ****         0.7920  -2.7634  -1.0131 C.ar           1 S1                 0.0000
     17 ****         1.0019  -1.6454  -0.2062 C.ar           1 S1                 0.0000
     18 ****        -4.4381   2.2870  -0.2049 H              1 S1                 0.0000
     19 ****        -2.9113   3.1682  -0.2004 H              1 S1                 0.0000
     20 ****        -3.1292   1.7743   0.8578 H              1 S1                 0.0000
     21 ****        -3.2917   0.2733  -1.1514 H              1 S1                 0.0000
     22 ****        -3.0771   1.6633  -2.2122 H              1 S1                 0.0000
     23 ****        -1.2930  -0.6915  -2.0354 H              1 S1                 0.0000
     24 ****        -1.0222   0.7008  -3.0756 H              1 S1                 0.0000
     25 ****         1.1408  -0.4841  -2.5457 H              1 S1                 0.0000
     26 ****         1.1500   1.1597  -1.9722 H              1 S1                 0.0000
     27 ****         1.0116   2.3980  -0.1018 H              1 S1                 0.0000
     28 ****        -0.7258   2.1049   1.6686 H              1 S1                 0.0000
     29 ****         0.3086   3.4863   2.0059 H              1 S1                 0.0000
     30 ****         0.5331   1.9834   2.8955 H              1 S1                 0.0000
     31 ****         3.1570   2.1765   0.4655 H              1 S1                 0.0000
     32 ****         1.6577  -3.1065   2.8362 H              1 S1                 0.0000
     33 ****         1.2895  -5.1312   1.4165 H              1 S1                 0.0000
     34 ****         0.7483  -4.9184  -0.9815 H              1 S1                 0.0000
     35 ****         0.5519  -2.6819  -2.0628 H              1 S1                 0.0000
     36 ****         1.6668  -0.2278   2.6239 H              1 S1                 0.0000
     37 ****        -1.2148   0.7671  -0.1919 LP             1 S1                 0.0000
     38 ****        -1.0154   2.0534  -1.1779 LP             1 S1                 0.0000
     39 ****         2.8870   1.8841   2.0057 LP             1 S1                 0.0000
     40 ****         2.5595   3.3481   1.3605 LP             1 S1                 0.0000
@<TRIPOS>BOND
    1    1    2 1     
    2    1   18 1     
    3    1   19 1     
    4    1   20 1     
    5    2    3 1     
    6    2   21 1     
    7    2   22 1     
    8    3    4 1     
    9    4    5 1     
   10    4   23 1     
   11    4   24 1     
   12    5    6 1     
   13    5   25 1     
   14    5   26 1     
   15    6   17 1     
   16    6    7 1     
   17    7    8 1     
   18    7   11 2     
   19    8    9 1     
   20    8   10 1     
   21    8   27 1     
   22    9   28 1     
   23    9   29 1     
   24    9   30 1     
   25   10   31 1     
   26   11   12 1     
   27   11   36 1     
   28   12   17 ar    
   29   12   13 ar    
   30   13   14 ar    
   31   13   32 1     
   32   14   15 ar    
   33   14   33 1     
   34   15   16 ar    
   35   15   34 1     
   36   16   17 ar    
   37   16   35 1     
   38    3   37 1     
   39    3   38 1     
   40   10   39 1     
   41   10   40 1     
@<TRIPOS>SUBSTRUCTURE
      1 S1             1
@<TRIPOS>SET
LONE_PAIRS      STATIC     ATOMS    <user>   **** ""
4 37 38 39 40
DONOR_HYDROGENS      STATIC     ATOMS    <user>   **** ""
2 31 36
ATOM$BLUE        STATIC     ATOMS    COLORGROUP SYSTEM
4 37 38 39 40
ATOM$RED        STATIC     ATOMS    COLORGROUP SYSTEM
2 31 36
