#       Name:                AV-unprocessed.smi:2044
#       Creating user name   scv26
#       Creation time:       Fri Mar 27 10:57:22 2020


#       File generated by GOLD software.
#

@<TRIPOS>MOLECULE
AV-unprocessed.smi:2044
    47    48     1
SMALL
NO_CHARGES


@<TRIPOS>ATOM
      1 ****        -6.8357   4.0423   0.0055 C.3            1 S1                 0.0000
      2 ****        -5.4518   3.5128   0.1627 C.2            1 S1                 0.0000
      3 ****        -4.9375   2.2472   0.1925 C.2            1 S1                 0.0000
      4 ****        -3.5460   2.4695   0.3707 C.2            1 S1                 0.0000
      5 ****        -2.6431   1.3764   0.4485 N.am           1 S1                 0.0000
      6 ****        -1.3100   1.3954   0.6300 C.2            1 S1                 0.0000
      7 ****        -0.7151   2.4695   0.7768 O.2            1 S1                 0.0000
      8 ****        -0.7733   0.1444   0.6262 N.pl3          1 S1                -1.0000
      9 ****         0.6473  -0.1602   0.8025 C.3            1 S1                 0.0000
     10 ****         1.0910  -1.2714  -0.1860 C.3            1 S1                 0.0000
     11 ****         0.4348  -2.6516   0.0712 C.3            1 S1                 0.0000
     12 ****         2.5838  -1.3427  -0.2614 N.4            1 S1                 1.0000
     13 ****         3.2642  -2.1970   0.7521 C.3            1 S1                 0.0000
     14 ****         4.7881  -2.0310   0.6433 C.3            1 S1                 0.0000
     15 ****         5.2086  -2.3720  -0.6721 O.3            1 S1                 0.0000
     16 ****         4.6272  -1.5234  -1.6547 C.3            1 S1                 0.0000
     17 ****         3.0951  -1.6551  -1.6192 C.3            1 S1                 0.0000
     18 ****        -3.2399   3.7565   0.4428 N.2            1 S1                 0.0000
     19 ****        -4.4593   4.4313   0.3103 O.3            1 S1                 0.0000
     20 ****        -7.5535   3.2297  -0.1084 H              1 S1                 0.0000
     21 ****        -6.9069   4.6815  -0.8744 H              1 S1                 0.0000
     22 ****        -7.1253   4.6305   0.8762 H              1 S1                 0.0000
     23 ****        -5.4717   1.3133   0.1013 H              1 S1                 0.0000
     24 ****        -3.0577   0.4618   0.3496 H              1 S1                 0.0000
     25 ****         1.2777   0.7144   0.6335 H              1 S1                 0.0000
     26 ****         0.8652  -0.4795   1.8220 H              1 S1                 0.0000
     27 ****         0.7486  -0.9415  -1.1686 H              1 S1                 0.0000
     28 ****        -0.6507  -2.6111  -0.0344 H              1 S1                 0.0000
     29 ****         0.6481  -3.0413   1.0681 H              1 S1                 0.0000
     30 ****         0.7867  -3.3889  -0.6503 H              1 S1                 0.0000
     31 ****         2.9417  -1.9331   1.7595 H              1 S1                 0.0000
     32 ****         3.0075  -3.2455   0.5965 H              1 S1                 0.0000
     33 ****         5.0886  -1.0099   0.8840 H              1 S1                 0.0000
     34 ****         5.2892  -2.6873   1.3549 H              1 S1                 0.0000
     35 ****         4.9321  -0.4895  -1.4844 H              1 S1                 0.0000
     36 ****         5.0059  -1.8089  -2.6362 H              1 S1                 0.0000
     37 ****         2.7970  -2.6654  -1.9023 H              1 S1                 0.0000
     38 ****         2.6602  -0.9734  -2.3512 H              1 S1                 0.0000
     39 ****         2.8886  -0.3971  -0.0779 H              1 S1                 0.0000
     40 ****        -1.2249   3.3297   0.7610 LP             1 S1                 0.0000
     41 ****         0.2758   2.4780   0.9114 LP             1 S1                 0.0000
     42 ****        -1.3975  -0.6254   0.4928 LP             1 S1                 0.0000
     43 ****         4.9406  -3.3165  -0.8619 LP             1 S1                 0.0000
     44 ****         6.2040  -2.2911  -0.7239 LP             1 S1                 0.0000
     45 ****        -2.3329   4.1593   0.5655 LP             1 S1                 0.0000
     46 ****        -4.6295   4.9824   1.1272 LP             1 S1                 0.0000
     47 ****        -4.4292   5.0263  -0.4928 LP             1 S1                 0.0000
@<TRIPOS>BOND
    1    1    2 1     
    2    1   20 1     
    3    1   21 1     
    4    1   22 1     
    5    2   19 1     
    6    2    3 2     
    7    3    4 1     
    8    3   23 1     
    9    4    5 1     
   10    4   18 2     
   11    5    6 am    
   12    5   24 1     
   13    6    7 2     
   14    6    8 1     
   15    8    9 1     
   16    9   10 1     
   17    9   25 1     
   18    9   26 1     
   19   10   11 1     
   20   10   12 1     
   21   10   27 1     
   22   11   28 1     
   23   11   29 1     
   24   11   30 1     
   25   12   17 1     
   26   12   13 1     
   27   12   39 1     
   28   13   14 1     
   29   13   31 1     
   30   13   32 1     
   31   14   15 1     
   32   14   33 1     
   33   14   34 1     
   34   15   16 1     
   35   16   17 1     
   36   16   35 1     
   37   16   36 1     
   38   17   37 1     
   39   17   38 1     
   40   18   19 1     
   41    7   40 1     
   42    7   41 1     
   43    8   42 1     
   44   15   43 1     
   45   15   44 1     
   46   18   45 1     
   47   19   46 1     
   48   19   47 1     
@<TRIPOS>SUBSTRUCTURE
      1 S1             1
@<TRIPOS>SET
LONE_PAIRS      STATIC     ATOMS    <user>   **** ""
8 40 41 42 43 44 45 46 47
DONOR_HYDROGENS      STATIC     ATOMS    <user>   **** ""
2 24 39
ATOM$BLUE        STATIC     ATOMS    COLORGROUP SYSTEM
8 40 41 42 43 44 45 46 47
ATOM$RED        STATIC     ATOMS    COLORGROUP SYSTEM
2 24 39
