AV-unprocessed.smi:2665|AV-procd|sdf|10330|dock3
  -GOLD-   2272014343D 1   1.00000     0.00000
 Structure written by MMmdl.
 29 30  0  0  0  0  0  0  0  0  2 V2000
  153.5868  142.3097  160.4644 C   0  0  0  0  0  0  0  0  0  0  0  0
  152.3454  142.3109  159.5660 C   0  0  2  0  0  0  0  0  0  0  0  0
  152.3772  141.1687  158.5321 C   0  0  0  0  0  0  0  0  0  0  0  0
  151.2243  141.2640  157.6456 N   0  0  0  0  0  0  0  0  0  0  0  0
  151.1145  140.1890  156.7521 C   0  0  0  0  0  0  0  0  0  0  0  0
  151.1983  138.8736  157.2532 C   0  0  0  0  0  0  0  0  0  0  0  0
  151.0892  137.7868  156.3557 C   0  0  0  0  0  0  0  0  0  0  0  0
  151.1725  136.3666  156.8436 C   0  0  0  0  0  0  0  0  0  0  0  0
  151.4511  135.4626  156.0243 O   0  0  0  0  0  0  0  0  0  0  0  0
  150.9610  136.1305  158.0542 O   0  5  0  0  0  0  0  0  0  0  0  0
  150.8995  138.0762  154.9857 C   0  0  0  0  0  0  0  0  0  0  0  0
  150.8283  139.4231  154.5824 C   0  0  0  0  0  0  0  0  0  0  0  0
  150.9322  140.4611  155.4381 N   0  0  0  0  0  0  0  0  0  0  0  0
  151.1215  142.5674  157.0025 C   0  0  0  0  0  0  0  0  0  0  0  0
  151.1241  143.6784  158.0659 C   0  0  0  0  0  0  0  0  0  0  0  0
  152.2886  143.5597  158.8791 O   0  0  0  0  0  0  0  0  0  0  0  0
  153.6671  141.3753  161.0205 H   0  0  0  0  0  0  0  0  0  0  0  0
  153.5454  143.1247  161.1874 H   0  0  0  0  0  0  0  0  0  0  0  0
  154.4982  142.4297  159.8780 H   0  0  0  0  0  0  0  0  0  0  0  0
  151.4601  142.2103  160.1966 H   0  0  0  0  0  0  0  0  0  0  0  0
  153.2968  141.2205  157.9470 H   0  0  0  0  0  0  0  0  0  0  0  0
  152.3702  140.2026  159.0383 H   0  0  0  0  0  0  0  0  0  0  0  0
  151.3447  138.7072  158.3109 H   0  0  0  0  0  0  0  0  0  0  0  0
  150.8087  137.2884  154.2519 H   0  0  0  0  0  0  0  0  0  0  0  0
  150.6829  139.6743  153.5423 H   0  0  0  0  0  0  0  0  0  0  0  0
  151.9587  142.7090  156.3173 H   0  0  0  0  0  0  0  0  0  0  0  0
  150.2066  142.6164  156.4107 H   0  0  0  0  0  0  0  0  0  0  0  0
  151.1231  144.6575  157.5870 H   0  0  0  0  0  0  0  0  0  0  0  0
  150.2280  143.6256  158.6863 H   0  0  0  0  0  0  0  0  0  0  0  0
  1  2  1  0  0  0  0
  1 17  1  0  0  0  0
  1 18  1  0  0  0  0
  1 19  1  0  0  0  0
  2 16  1  0  0  0  0
  2  3  1  0  0  0  0
  2 20  1  0  0  0  0
  3  4  1  0  0  0  0
  3 21  1  0  0  0  0
  3 22  1  0  0  0  0
  4  5  1  0  0  0  0
  4 14  1  0  0  0  0
  5 13  1  0  0  0  0
  5  6  2  0  0  0  0
  6  7  1  0  0  0  0
  6 23  1  0  0  0  0
  7  8  1  0  0  0  0
  7 11  2  0  0  0  0
  8  9  2  0  0  0  0
  8 10  1  0  0  0  0
 11 12  1  0  0  0  0
 11 24  1  0  0  0  0
 12 13  2  0  0  0  0
 12 25  1  0  0  0  0
 14 15  1  0  0  0  0
 14 26  1  0  0  0  0
 14 27  1  0  0  0  0
 15 16  1  0  0  0  0
 15 28  1  0  0  0  0
 15 29  1  0  0  0  0
M  CHG  1  10  -1
M  END
> <s_m_source_file>
AV-unprocessed.smi

> <i_m_source_file_index>
2665

> <i_lp_mmshare_version>
43012

> <i_f3d_flags>
0

> <s_epik_input>
W0NIM11bQ0BASF0xW0NIMl1OKFtDSDJdW0NIMl1PMSljMltjSF1jKEMoPU8pW09IXSlbY0hdW2NIXW4y

> <s_epik_cmdline>
J2VwaWtfcHl0aG9uJywgJy1waCcsICc3LjAnLCAnLXRuJywgJzgnLCAnLW1hJywgJzIwMCcsICctbWV0YWxfYmluZGluZycsICctaW1hZScsICc8aW5maWxlLm1hZT4nLCAnLW9tYWUnLCAnPG91dGZpbGUubWFlPic=

> <r_epik_Ionization_Penalty>
0.00511367

> <r_epik_Ionization_Penalty_Charging>
0.00135522

> <r_epik_Ionization_Penalty_Neutral>
0.00375844

> <r_epik_State_Penalty>
0.00357724

> <r_epik_Charging_Adjusted_Penalty>
0.00493246

> <i_epik_Tot_Q>
-1

> <i_epik_Tot_abs_Q>
1

> <r_epik_Metal_State_Penalty>
-0

> <b_epik_Metal_Only>
0

> <s_lp_Force_Field>
OPLS_2005

> <r_lp_Energy>
17.7567

> <b_lp_Chiralities_Consistent>
1

> <s_lp_Variant>
AV-unprocessed.smi:2665-1

> <Gold.Version>
5.8.1

> <Gold.Id.Protein>
6NUR|6NUR_protein|mol2

> <Gold.PLP.Fitness>
37.4137

> <Gold.PLP.PLP>
-26.2167

> <Gold.PLP.part.hbond>
-3.0000

> <Gold.PLP.part.metal>
0.0000

> <Gold.PLP.part.buried>
-3.8348

> <Gold.PLP.part.nonpolar>
-20.2146

> <Gold.PLP.part.repulsive>
0.0804

> <Gold.PLP.ligand.clash>
0.0000

> <Gold.PLP.ligand.torsion>
0.2712

> <Gold.PLP.Chemscore.Hbond>
3.1520

> <Gold.PLP.Chemscore.CHOScore>
0.7266

> <Gold.PLP.Chemscore.Metal>
0.0000

> <Gold.Chemscore.Hbonds>
donor molecule, donor type, donor heavy atom, donor atom, acceptor molecule, acceptor atom, score
      P1  H  6896  6908       L1    10  1.07
      P1  H 10752 10765       L1     9  2.00
      L1  C    12    25       P1  7957  0.76

> <Gold.PLP.Chemscore.Internal.Correction>
0.1037

> <Gold.Rescore>
     Score         DG    S(hbond)    S(metal)    S(lipo)     H(rot)  DE(clash)    DE(int)     intcor
     16.68     -17.07       1.66        0.00      73.53       1.00       0.06       0.34       ----

> <Gold.Chemscore.Fitness>
16.6753

> <Gold.Chemscore.DG>
-17.0710

> <Gold.Chemscore.ZeroCoef>
-5.4800

> <Gold.Chemscore.Hbond>
1.6611

> <Gold.Chemscore.Metal>
0.0000

> <Gold.Chemscore.Lipo>
73.5296

> <Gold.Chemscore.Internal_Hbond>
0.0000

> <Gold.Chemscore.DEClash>
0.0589

> <Gold.Chemscore.DEInternal>
0.3368

> <Gold.Chemscore.Rot>
1.0000

> <Gold.Chemscore.Internal.Correction>
   9.000000E+99

> <Gold.Chemscore.Hbonds>
donor molecule, donor type, donor heavy atom, donor atom, acceptor molecule, acceptor atom, score
      P1  H  6896  6908       L1    10  0.51
      P1  H 10752 10765       L1     9  0.98

> <Gold.Chemscore.Hbond.Weighted>
-5.5481

> <Gold.Chemscore.Metal.Weighted>
-0.0000

> <Gold.Chemscore.Lipo.Weighted>
-8.6030

> <Gold.Chemscore.Internal_Hbond.Weighted>
0.0000

> <Gold.Chemscore.DEClash.Weighted>
0.0589

> <Gold.Chemscore.DEInternal.Weighted>
0.3368

> <Gold.Chemscore.Rot.Weighted>
2.5600

> <Gold.Chemscore.Internal.Correction.Weighted>
   9.000000E+99

> <Gold.Protein.RotatedTorsions>
[ 6907 6896 6895 6894 ] final -157.61 input  -60.11 | X-H torsion
[ 7974 7965 7964 7962 ] final  -80.85 input  175.53 | X-H torsion
[ 8008 7997 7996 7995 ] final  -70.45 input   59.86 | X-H torsion
[ 10167 10162 10161 10158 ] final   24.08 input  -65.29 | X-H torsion
[ 10718 10713 10712 10709 ] final  166.94 input   66.30 | X-H torsion
[ 10763 10752 10751 10750 ] final -151.40 input  -60.55 | X-H torsion
[ 11005 11000 10999 10996 ] final  -64.91 input  -57.11 | X-H torsion

> <Gold.Protein.ActiveResidues>
 VAL166  LYS551  ARG553  GLY616  TRP617  ASP618  TYR619  PRO620  LYS621  CYS622 
 ASP623  PHE694  ASN695  SER759  ASP760  ASP761  ALA762  ILE779  LEU786  VAL792 
 PHE793  MET794  SER795  GLU796  ALA797  LYS798  CYS799  TRP800  GLU811  SER814 

> <Gold.Protein.RotatedAtoms>
  151.3055  133.4103  159.2642 H   0  0  0  0  0  0  0  0  0  0  0  0  # atno 6907 bound_to 6896
  151.0159  134.9433  159.8043 H   0  0  0  0  0  0  0  0  0  0  0  0  # atno 6908 bound_to 6896
  152.5312  134.3019  159.9134 H   0  0  0  0  0  0  0  0  0  0  0  0  # atno 6909 bound_to 6896
  145.5545  140.9491  143.1481 H   0  0  0  0  0  0  0  0  0  0  0  0  # atno 7974 bound_to 7965
  154.5013  140.0834  156.7803 H   0  0  0  0  0  0  0  0  0  0  0  0  # atno 8008 bound_to 7997
  155.3996  140.3436  155.4238 H   0  0  0  0  0  0  0  0  0  0  0  0  # atno 8009 bound_to 7997
  156.1460  140.1544  156.8834 H   0  0  0  0  0  0  0  0  0  0  0  0  # atno 8010 bound_to 7997
  140.5217  143.9992  150.6420 H   0  0  0  0  0  0  0  0  0  0  0  0  # atno 10167 bound_to 10162
  157.0586  131.0333  151.2655 H   0  0  0  0  0  0  0  0  0  0  0  0  # atno 10718 bound_to 10713
  154.8060  135.3261  154.7430 H   0  0  0  0  0  0  0  0  0  0  0  0  # atno 10763 bound_to 10752
  153.8089  135.6897  153.4848 H   0  0  0  0  0  0  0  0  0  0  0  0  # atno 10764 bound_to 10752
  153.1805  135.4588  154.9967 H   0  0  0  0  0  0  0  0  0  0  0  0  # atno 10765 bound_to 10752
  141.1439  133.6673  156.5905 H   0  0  0  0  0  0  0  0  0  0  0  0  # atno 11005 bound_to 11000
  144.7513  139.7187  143.7272 LP  0  0  0  0  0  0  0  0  0  0  0  0  # atno 17320 bound_to 7965
  146.1894  139.5126  142.9815 LP  0  0  0  0  0  0  0  0  0  0  0  0  # atno 17321 bound_to 7965
  140.3342  143.3059  152.0655 LP  0  0  0  0  0  0  0  0  0  0  0  0  # atno 17342 bound_to 10162
  139.4925  144.6488  151.6721 LP  0  0  0  0  0  0  0  0  0  0  0  0  # atno 17343 bound_to 10162
  157.4973  130.7858  149.7568 LP  0  0  0  0  0  0  0  0  0  0  0  0  # atno 17370 bound_to 10713
  155.9985  130.3894  150.2698 LP  0  0  0  0  0  0  0  0  0  0  0  0  # atno 17371 bound_to 10713
  140.3767  134.7559  157.4634 LP  0  0  0  0  0  0  0  0  0  0  0  0  # atno 17394 bound_to 11000
  140.0669  134.5917  155.8685 LP  0  0  0  0  0  0  0  0  0  0  0  0  # atno 17395 bound_to 11000

$$$$
