#       Name:                AV-unprocessed.smi:1
#       Creating user name   scv26
#       Creation time:       Thu Mar 26 15:12:04 2020


#       File generated by GOLD software.
#

@<TRIPOS>MOLECULE
AV-unprocessed.smi:1
    66    71     1
SMALL
NO_CHARGES


@<TRIPOS>ATOM
      1 ****        -5.3786   1.8691  -2.6991 O.2            1 S1                 0.0000
      2 ****        -5.7709   1.8074  -1.5319 C.2            1 S1                 0.0000
      3 ****        -5.0767   2.0986  -0.4027 N.pl3          1 S1                -1.0000
      4 ****        -3.7908   2.4720  -0.4859 C.ar           1 S1                 0.0000
      5 ****        -3.4593   3.7887  -0.5078 N.ar           1 S1                 0.0000
      6 ****        -2.1767   4.1632  -0.5867 C.ar           1 S1                 0.0000
      7 ****        -1.0804   3.4006  -0.6481 N.ar           1 S1                 0.0000
      8 ****        -1.4031   2.0751  -0.6169 C.ar           1 S1                 0.0000
      9 ****        -2.7197   1.5380  -0.5331 C.ar           1 S1                 0.0000
     10 ****        -2.6827   0.1510  -0.5159 N.2            1 S1                 0.0000
     11 ****        -1.3738  -0.0852  -0.5897 C.2            1 S1                 0.0000
     12 ****        -0.5545   0.9848  -0.6503 N.pl3          1 S1                 0.0000
     13 ****         0.9350   1.0315  -0.7320 C.3            1 S1                 0.0000
     14 ****         1.4019  -0.2223  -1.1186 O.3            1 S1                 0.0000
     15 ****         2.7262  -0.3565  -0.6277 C.3            1 S1                 0.0000
     16 ****         3.2024  -1.8137  -0.6920 C.3            1 S1                 0.0000
     17 ****         4.5353  -1.8799  -0.2106 O.3            1 S1                 0.0000
     18 ****         5.0578  -3.0548   0.1900 C.2            1 S1                 0.0000
     19 ****         4.4510  -4.1264   0.1381 O.2            1 S1                 0.0000
     20 ****         6.4471  -2.9193   0.7152 C.ar           1 S1                 0.0000
     21 ****         7.0986  -4.0536   1.2533 C.ar           1 S1                 0.0000
     22 ****         8.4069  -3.9536   1.7655 C.ar           1 S1                 0.0000
     23 ****         9.0808  -2.7187   1.7433 C.ar           1 S1                 0.0000
     24 ****         8.4450  -1.5837   1.2077 C.ar           1 S1                 0.0000
     25 ****         7.1359  -1.6811   0.6967 C.ar           1 S1                 0.0000
     26 ****         2.6323   0.2403   0.7795 C.3            1 S1                 0.0000
     27 ****         2.1497  -0.7301   1.6941 O.3            1 S1                 0.0000
     28 ****         0.8794  -0.0861   2.5640 S.o2           1 S1                 0.0000
     29 ****        -0.3004  -0.9381   2.3521 O.2            1 S1                 0.0000
     30 ****         1.3729   0.2614   3.9054 O.2            1 S1                 0.0000
     31 ****         0.6705   1.3298   1.7044 O.3            1 S1                 0.0000
     32 ****         1.5907   1.3612   0.6241 C.3            1 S1                 0.0000
     33 ****        -7.2048   1.4340  -1.2673 C.ar           1 S1                 0.0000
     34 ****        -8.2158   1.8588  -2.1596 C.ar           1 S1                 0.0000
     35 ****        -9.5606   1.5009  -1.9413 C.ar           1 S1                 0.0000
     36 ****        -9.9076   0.7053  -0.8334 C.ar           1 S1                 0.0000
     37 ****        -8.9080   0.2640   0.0537 C.ar           1 S1                 0.0000
     38 ****        -7.5630   0.6218  -0.1636 C.ar           1 S1                 0.0000
     39 ****        -2.0043   5.2290  -0.6018 H              1 S1                 0.0000
     40 ****        -0.9904  -1.0950  -0.5930 H              1 S1                 0.0000
     41 ****         1.1544   1.7714  -1.5034 H              1 S1                 0.0000
     42 ****         3.3759   0.2681  -1.2441 H              1 S1                 0.0000
     43 ****         2.5411  -2.4503  -0.1022 H              1 S1                 0.0000
     44 ****         3.1725  -2.1777  -1.7194 H              1 S1                 0.0000
     45 ****         6.6001  -5.0119   1.2838 H              1 S1                 0.0000
     46 ****         8.8930  -4.8259   2.1771 H              1 S1                 0.0000
     47 ****        10.0835  -2.6419   2.1370 H              1 S1                 0.0000
     48 ****         8.9615  -0.6353   1.1893 H              1 S1                 0.0000
     49 ****         6.6772  -0.7902   0.2936 H              1 S1                 0.0000
     50 ****         3.5934   0.6132   1.1344 H              1 S1                 0.0000
     51 ****         2.0602   2.3430   0.5570 H              1 S1                 0.0000
     52 ****        -7.9658   2.4692  -3.0155 H              1 S1                 0.0000
     53 ****       -10.3256   1.8365  -2.6257 H              1 S1                 0.0000
     54 ****       -10.9383   0.4304  -0.6663 H              1 S1                 0.0000
     55 ****        -9.1716  -0.3513   0.9011 H              1 S1                 0.0000
     56 ****        -6.8095   0.2648   0.5237 H              1 S1                 0.0000
     57 ****        -4.4437   2.1633  -2.8974 LP             1 S1                 0.0000
     58 ****        -5.9953   1.6249  -3.4474 LP             1 S1                 0.0000
     59 ****        -5.5229   2.0349   0.4900 LP             1 S1                 0.0000
     60 ****        -4.1779   4.4828  -0.4647 LP             1 S1                 0.0000
     61 ****        -0.1472   3.7547  -0.7088 LP             1 S1                 0.0000
     62 ****        -3.4397  -0.5002  -0.4622 LP             1 S1                 0.0000
     63 ****         1.3989  -0.2947  -2.1159 LP             1 S1                 0.0000
     64 ****         0.8203  -0.9373  -0.7307 LP             1 S1                 0.0000
     65 ****         3.5166  -4.1552  -0.2169 LP             1 S1                 0.0000
     66 ****         4.8931  -4.9670   0.4510 LP             1 S1                 0.0000
@<TRIPOS>BOND
    1    1    2 2     
    2    2    3 1     
    3    2   33 1     
    4    3    4 1     
    5    4    9 ar    
    6    4    5 ar    
    7    5    6 ar    
    8    6    7 ar    
    9    6   39 1     
   10    7    8 ar    
   11    8   12 1     
   12    8    9 ar    
   13    9   10 1     
   14   10   11 2     
   15   11   12 1     
   16   11   40 1     
   17   12   13 1     
   18   13   32 1     
   19   13   14 1     
   20   13   41 1     
   21   14   15 1     
   22   15   16 1     
   23   15   26 1     
   24   15   42 1     
   25   16   17 1     
   26   16   43 1     
   27   16   44 1     
   28   17   18 1     
   29   18   19 2     
   30   18   20 1     
   31   20   25 ar    
   32   20   21 ar    
   33   21   22 ar    
   34   21   45 1     
   35   22   23 ar    
   36   22   46 1     
   37   23   24 ar    
   38   23   47 1     
   39   24   25 ar    
   40   24   48 1     
   41   25   49 1     
   42   26   32 1     
   43   26   27 1     
   44   26   50 1     
   45   27   28 1     
   46   28   29 2     
   47   28   30 2     
   48   28   31 1     
   49   31   32 1     
   50   32   51 1     
   51   33   38 ar    
   52   33   34 ar    
   53   34   35 ar    
   54   34   52 1     
   55   35   36 ar    
   56   35   53 1     
   57   36   37 ar    
   58   36   54 1     
   59   37   38 ar    
   60   37   55 1     
   61   38   56 1     
   62    1   57 1     
   63    1   58 1     
   64    3   59 1     
   65    5   60 1     
   66    7   61 1     
   67   10   62 1     
   68   14   63 1     
   69   14   64 1     
   70   19   65 1     
   71   19   66 1     
@<TRIPOS>SUBSTRUCTURE
      1 S1             1
@<TRIPOS>SET
LONE_PAIRS      STATIC     ATOMS    <user>   **** ""
12 57 58 59 60 61 62 63 64 65 66 29 30
ATOM$BLUE        STATIC     ATOMS    COLORGROUP SYSTEM
12 57 58 59 60 61 62 63 64 65 66 29 30
