AV-unprocessed.smi:570|AV-procd|sdf|2961|dock9
  -GOLD-   2262023463D 1   1.00000     0.00000
 Structure written by MMmdl.
 40 41  0  0  0  0  0  0  0  0  1 V2000
  154.2981  136.9355  164.2889 C   0  0  0  0  0  0  0  0  0  0  0  0
  154.7512  137.0054  162.9484 O   0  0  0  0  0  0  0  0  0  0  0  0
  155.0770  138.3271  162.5534 C   0  0  0  0  0  0  0  0  0  0  0  0
  155.5271  138.3087  161.0885 C   0  0  0  0  0  0  0  0  0  0  0  0
  155.9636  139.6950  160.5882 C   0  0  0  0  0  0  0  0  0  0  0  0
  154.8358  140.4445  160.0489 N   0  0  0  0  0  0  0  0  0  0  0  0
  154.1798  141.4222  160.6940 C   0  0  0  0  0  0  0  0  0  0  0  0
  154.4581  141.7919  161.8354 O   0  0  0  0  0  0  0  0  0  0  0  0
  152.9979  141.9984  159.9690 C   0  0  0  0  0  0  0  0  0  0  0  0
  152.6203  141.3594  158.8379 N   0  0  0  0  0  0  0  0  0  0  0  0
  151.5726  141.8323  158.1521 C   0  0  0  0  0  0  0  0  0  0  0  0
  151.2087  141.1588  156.9789 N   0  0  0  0  0  0  0  0  0  0  0  0
  149.8902  141.3318  156.3637 C   0  0  0  0  0  0  0  0  0  0  0  0
  149.9686  141.1542  154.8377 C   0  0  0  0  0  0  0  0  0  0  0  0
  150.5536  139.8959  154.5274 O   0  0  0  0  0  0  0  0  0  0  0  0
  151.8835  139.8033  155.0225 C   0  0  0  0  0  0  0  0  0  0  0  0
  151.8778  139.9255  156.5556 C   0  0  0  0  0  0  0  0  0  0  0  0
  150.8502  142.9025  158.5052 N   0  0  0  0  0  0  0  0  0  0  0  0
  151.1966  143.5487  159.6376 C   0  0  0  0  0  0  0  0  0  0  0  0
  152.2828  143.1336  160.4319 C   0  0  0  0  0  0  0  0  0  0  0  0
  152.6513  143.9807  161.8957 Cl  0  0  0  0  0  0  0  0  0  0  0  0
  154.0609  135.9024  164.5423 H   0  0  0  0  0  0  0  0  0  0  0  0
  153.3965  137.5326  164.4317 H   0  0  0  0  0  0  0  0  0  0  0  0
  155.0635  137.2846  164.9831 H   0  0  0  0  0  0  0  0  0  0  0  0
  154.2082  138.9771  162.6699 H   0  0  0  0  0  0  0  0  0  0  0  0
  155.8733  138.7212  163.1869 H   0  0  0  0  0  0  0  0  0  0  0  0
  156.3511  137.6032  160.9736 H   0  0  0  0  0  0  0  0  0  0  0  0
  154.7105  137.9326  160.4704 H   0  0  0  0  0  0  0  0  0  0  0  0
  156.4421  140.2600  161.3904 H   0  0  0  0  0  0  0  0  0  0  0  0
  156.7073  139.5880  159.7981 H   0  0  0  0  0  0  0  0  0  0  0  0
  154.5209  140.1959  159.1222 H   0  0  0  0  0  0  0  0  0  0  0  0
  149.2064  140.5981  156.7919 H   0  0  0  0  0  0  0  0  0  0  0  0
  149.4681  142.3151  156.5692 H   0  0  0  0  0  0  0  0  0  0  0  0
  148.9692  141.1962  154.4045 H   0  0  0  0  0  0  0  0  0  0  0  0
  150.5464  141.9600  154.3817 H   0  0  0  0  0  0  0  0  0  0  0  0
  152.3059  138.8434  154.7249 H   0  0  0  0  0  0  0  0  0  0  0  0
  152.5068  140.5781  154.5730 H   0  0  0  0  0  0  0  0  0  0  0  0
  152.9089  139.8754  156.9041 H   0  0  0  0  0  0  0  0  0  0  0  0
  151.3542  139.0766  156.9966 H   0  0  0  0  0  0  0  0  0  0  0  0
  150.5948  144.4013  159.9160 H   0  0  0  0  0  0  0  0  0  0  0  0
  1  2  1  0  0  0  0
  1 22  1  0  0  0  0
  1 23  1  0  0  0  0
  1 24  1  0  0  0  0
  2  3  1  0  0  0  0
  3  4  1  0  0  0  0
  3 25  1  0  0  0  0
  3 26  1  0  0  0  0
  4  5  1  0  0  0  0
  4 27  1  0  0  0  0
  4 28  1  0  0  0  0
  5  6  1  0  0  0  0
  5 29  1  0  0  0  0
  5 30  1  0  0  0  0
  6  7  1  0  0  0  0
  6 31  1  0  0  0  0
  7  8  2  0  0  0  0
  7  9  1  0  0  0  0
  9 20  1  0  0  0  0
  9 10  2  0  0  0  0
 10 11  1  0  0  0  0
 11 12  1  0  0  0  0
 11 18  2  0  0  0  0
 12 17  1  0  0  0  0
 12 13  1  0  0  0  0
 13 14  1  0  0  0  0
 13 32  1  0  0  0  0
 13 33  1  0  0  0  0
 14 15  1  0  0  0  0
 14 34  1  0  0  0  0
 14 35  1  0  0  0  0
 15 16  1  0  0  0  0
 16 17  1  0  0  0  0
 16 36  1  0  0  0  0
 16 37  1  0  0  0  0
 17 38  1  0  0  0  0
 17 39  1  0  0  0  0
 18 19  1  0  0  0  0
 19 20  2  0  0  0  0
 19 40  1  0  0  0  0
 20 21  1  0  0  0  0
M  END
> <s_m_source_file>
AV-unprocessed.smi

> <i_m_source_file_index>
570

> <i_lp_mmshare_version>
43012

> <i_f3d_flags>
0

> <s_epik_input>
W0NIM11PW0NIMl1bQ0gyXVtDSDJdW05IXUMoPU8pYzFuYyhuW2NIXWMxQ2wpTjJbQ0gyXVtDSDJdT1tDSDJdW0NIMl0y

> <s_epik_cmdline>
J2VwaWtfcHl0aG9uJywgJy1waCcsICc3LjAnLCAnLXRuJywgJzgnLCAnLW1hJywgJzIwMCcsICctbWV0YWxfYmluZGluZycsICctaW1hZScsICc8aW5maWxlLm1hZT4nLCAnLW9tYWUnLCAnPG91dGZpbGUubWFlPic=

> <r_lp_tautomer_probability>
1

> <r_epik_Ionization_Penalty>
2.32145e-05

> <r_epik_Ionization_Penalty_Charging>
0

> <r_epik_Ionization_Penalty_Neutral>
2.32145e-05

> <r_epik_State_Penalty>
-0

> <r_epik_Charging_Adjusted_Penalty>
0

> <i_epik_Tot_Q>
0

> <i_epik_Tot_abs_Q>
0

> <r_epik_Metal_State_Penalty>
0.0219249

> <b_epik_Metal_Only>
0

> <s_lp_Force_Field>
OPLS_2005

> <r_lp_Energy>
13.2289

> <b_lp_Chiralities_Consistent>
1

> <s_lp_Variant>
AV-unprocessed.smi:570-1

> <Gold.Version>
5.8.1

> <Gold.Id.Protein>
6NUR|6NUR_protein|mol2

> <Gold.PLP.Fitness>
40.2285

> <Gold.PLP.PLP>
-40.8986

> <Gold.PLP.part.hbond>
-2.0000

> <Gold.PLP.part.metal>
0.0000

> <Gold.PLP.part.buried>
-2.0260

> <Gold.PLP.part.nonpolar>
-35.3731

> <Gold.PLP.part.repulsive>
0.2726

> <Gold.PLP.ligand.clash>
0.0000

> <Gold.PLP.ligand.torsion>
0.4231

> <Gold.PLP.Chemscore.Hbond>
0.0000

> <Gold.PLP.Chemscore.CHOScore>
0.0000

> <Gold.PLP.Chemscore.Metal>
0.0000

> <Gold.PLP.Chemscore.Internal.Correction>
0.1761

> <Gold.Rescore>
     Score         DG    S(hbond)    S(metal)    S(lipo)     H(rot)  DE(clash)    DE(int)     intcor
      9.82     -12.09       0.00        0.00      92.20       1.63       0.48       1.78       ----

> <Gold.Chemscore.Fitness>
9.8234

> <Gold.Chemscore.DG>
-12.0919

> <Gold.Chemscore.ZeroCoef>
-5.4800

> <Gold.Chemscore.Hbond>
0.0000

> <Gold.Chemscore.Metal>
0.0000

> <Gold.Chemscore.Lipo>
92.1955

> <Gold.Chemscore.Internal_Hbond>
0.0000

> <Gold.Chemscore.DEClash>
0.4847

> <Gold.Chemscore.DEInternal>
1.7839

> <Gold.Chemscore.Rot>
1.6308

> <Gold.Chemscore.Internal.Correction>
   9.000000E+99

> <Gold.Chemscore.Hbond.Weighted>
-0.0000

> <Gold.Chemscore.Metal.Weighted>
-0.0000

> <Gold.Chemscore.Lipo.Weighted>
-10.7869

> <Gold.Chemscore.Internal_Hbond.Weighted>
0.0000

> <Gold.Chemscore.DEClash.Weighted>
0.4847

> <Gold.Chemscore.DEInternal.Weighted>
1.7839

> <Gold.Chemscore.Rot.Weighted>
4.1749

> <Gold.Chemscore.Internal.Correction.Weighted>
   9.000000E+99

> <Gold.Protein.RotatedTorsions>
[ 6907 6896 6895 6894 ] final -107.73 input  -60.11 | X-H torsion
[ 7974 7965 7964 7962 ] final  100.17 input  175.53 | X-H torsion
[ 8008 7997 7996 7995 ] final -126.60 input   59.86 | X-H torsion
[ 10167 10162 10161 10158 ] final  147.98 input  -65.29 | X-H torsion
[ 10718 10713 10712 10709 ] final  141.86 input   66.30 | X-H torsion
[ 10763 10752 10751 10750 ] final  111.26 input  -60.55 | X-H torsion
[ 11005 11000 10999 10996 ] final -139.60 input  -57.11 | X-H torsion

> <Gold.Protein.ActiveResidues>
 VAL166  LYS551  ARG553  GLY616  TRP617  ASP618  TYR619  PRO620  LYS621  CYS622 
 ASP623  PHE694  ASN695  SER759  ASP760  ASP761  ALA762  ILE779  LEU786  VAL792 
 PHE793  MET794  SER795  GLU796  ALA797  LYS798  CYS799  TRP800  GLU811  SER814 

> <Gold.Protein.RotatedAtoms>
  150.7461  133.9783  159.3567 H   0  0  0  0  0  0  0  0  0  0  0  0  # atno 6907 bound_to 6896
  151.7722  135.0781  160.0371 H   0  0  0  0  0  0  0  0  0  0  0  0  # atno 6908 bound_to 6896
  152.3331  133.5944  159.5860 H   0  0  0  0  0  0  0  0  0  0  0  0  # atno 6909 bound_to 6896
  145.3891  139.2366  143.3362 H   0  0  0  0  0  0  0  0  0  0  0  0  # atno 7974 bound_to 7965
  155.2324  140.0425  157.2964 H   0  0  0  0  0  0  0  0  0  0  0  0  # atno 8008 bound_to 7997
  154.5880  140.2419  155.7931 H   0  0  0  0  0  0  0  0  0  0  0  0  # atno 8009 bound_to 7997
  156.2239  140.2961  156.0029 H   0  0  0  0  0  0  0  0  0  0  0  0  # atno 8010 bound_to 7997
  139.4882  144.5715  151.7047 H   0  0  0  0  0  0  0  0  0  0  0  0  # atno 10167 bound_to 10162
  157.3871  131.1000  151.0682 H   0  0  0  0  0  0  0  0  0  0  0  0  # atno 10718 bound_to 10713
  153.4608  135.3722  155.2337 H   0  0  0  0  0  0  0  0  0  0  0  0  # atno 10763 bound_to 10752
  154.8757  135.3908  154.3927 H   0  0  0  0  0  0  0  0  0  0  0  0  # atno 10764 bound_to 10752
  153.4501  135.7085  153.6179 H   0  0  0  0  0  0  0  0  0  0  0  0  # atno 10765 bound_to 10752
  140.8504  134.2293  157.4763 H   0  0  0  0  0  0  0  0  0  0  0  0  # atno 11005 bound_to 11000
  146.2806  140.4571  142.8778 LP  0  0  0  0  0  0  0  0  0  0  0  0  # atno 17320 bound_to 7965
  144.8453  140.6919  143.6203 LP  0  0  0  0  0  0  0  0  0  0  0  0  # atno 17321 bound_to 7965
  140.5303  144.0741  150.6051 LP  0  0  0  0  0  0  0  0  0  0  0  0  # atno 17342 bound_to 10162
  140.3729  143.2844  152.0258 LP  0  0  0  0  0  0  0  0  0  0  0  0  # atno 17343 bound_to 10162
  157.1730  130.6275  149.5646 LP  0  0  0  0  0  0  0  0  0  0  0  0  # atno 17370 bound_to 10713
  155.9789  130.4779  150.6685 LP  0  0  0  0  0  0  0  0  0  0  0  0  # atno 17371 bound_to 10713
  139.8704  134.9680  156.4617 LP  0  0  0  0  0  0  0  0  0  0  0  0  # atno 17394 bound_to 11000
  140.8796  133.7927  155.9452 LP  0  0  0  0  0  0  0  0  0  0  0  0  # atno 17395 bound_to 11000

$$$$
