AV-unprocessed.smi:1725|AV-procd|sdf|6956|dock7
  -GOLD-   22720 8173D 1   1.00000     0.00000
 Structure written by MMmdl.
 35 36  0  0  0  0  0  0  0  0  2 V2000
  156.5288  141.8681  165.0057 C   0  0  0  0  0  0  0  0  0  0  0  0
  155.0110  141.7896  165.2221 C   0  0  1  0  0  0  0  0  0  0  0  0
  154.7010  142.5797  166.3666 O   0  0  0  0  0  0  0  0  0  0  0  0
  155.2331  143.9009  166.3592 C   0  0  0  0  0  0  0  0  0  0  0  0
  154.8815  144.6394  167.6377 C   0  0  0  0  0  0  0  0  0  0  0  0
  155.9542  144.9878  168.6488 C   0  0  0  0  0  0  0  0  0  0  0  0
  154.9218  143.9455  168.9842 C   0  0  0  0  0  0  0  0  0  0  0  0
  154.2464  142.3094  163.9942 C   0  0  0  0  0  0  0  0  0  0  0  0
  153.5206  143.2974  164.1077 O   0  0  0  0  0  0  0  0  0  0  0  0
  154.4419  141.6161  162.8557 N   0  0  0  0  0  0  0  0  0  0  0  0
  153.8507  141.7940  161.5937 C   0  0  0  0  0  0  0  0  0  0  0  0
  153.1283  142.8883  161.2257 C   0  0  0  0  0  0  0  0  0  0  0  0
  152.5187  143.0110  159.9071 C   0  0  0  0  0  0  0  0  0  0  0  0
  151.7044  144.2065  159.4476 C   0  0  0  0  0  0  0  0  0  0  0  0
  152.2595  144.7543  158.3670 F   0  0  0  0  0  0  0  0  0  0  0  0
  150.4676  143.8264  159.1277 F   0  0  0  0  0  0  0  0  0  0  0  0
  151.6256  145.1377  160.3984 F   0  0  0  0  0  0  0  0  0  0  0  0
  152.7543  141.9057  159.1144 C   0  0  0  0  0  0  0  0  0  0  0  0
  153.4480  140.7828  159.4040 N   0  5  0  0  0  0  0  0  0  0  0  0
  154.0127  140.6770  160.6401 C   0  0  0  0  0  0  0  0  0  0  0  0
  154.6497  139.6773  160.9745 O   0  0  0  0  0  0  0  0  0  0  0  0
  156.8342  141.2842  164.1367 H   0  0  0  0  0  0  0  0  0  0  0  0
  157.0625  141.4741  165.8705 H   0  0  0  0  0  0  0  0  0  0  0  0
  156.8612  142.8956  164.8535 H   0  0  0  0  0  0  0  0  0  0  0  0
  154.7444  140.7489  165.4180 H   0  0  0  0  0  0  0  0  0  0  0  0
  156.3190  143.8893  166.2619 H   0  0  0  0  0  0  0  0  0  0  0  0
  154.8319  144.4580  165.5118 H   0  0  0  0  0  0  0  0  0  0  0  0
  154.0943  145.3799  167.5086 H   0  0  0  0  0  0  0  0  0  0  0  0
  156.9693  144.6455  168.4562 H   0  0  0  0  0  0  0  0  0  0  0  0
  155.8770  145.9508  169.1492 H   0  0  0  0  0  0  0  0  0  0  0  0
  154.1572  144.2145  169.7100 H   0  0  0  0  0  0  0  0  0  0  0  0
  155.2488  142.9082  169.0187 H   0  0  0  0  0  0  0  0  0  0  0  0
  155.1345  140.8820  162.8910 H   0  0  0  0  0  0  0  0  0  0  0  0
  152.9662  143.6972  161.9191 H   0  0  0  0  0  0  0  0  0  0  0  0
  152.3153  141.9281  158.0941 H   0  0  0  0  0  0  0  0  0  0  0  0
  1  2  1  0  0  0  0
  1 22  1  0  0  0  0
  1 23  1  0  0  0  0
  1 24  1  0  0  0  0
  2  3  1  0  0  0  0
  2  8  1  0  0  0  0
  2 25  1  0  0  0  0
  3  4  1  0  0  0  0
  4  5  1  0  0  0  0
  4 26  1  0  0  0  0
  4 27  1  0  0  0  0
  5  7  1  0  0  0  0
  5  6  1  0  0  0  0
  5 28  1  0  0  0  0
  6  7  1  0  0  0  0
  6 29  1  0  0  0  0
  6 30  1  0  0  0  0
  7 31  1  0  0  0  0
  7 32  1  0  0  0  0
  8  9  2  0  0  0  0
  8 10  1  0  0  0  0
 10 11  1  0  0  0  0
 10 33  1  0  0  0  0
 11 20  1  0  0  0  0
 11 12  2  0  0  0  0
 12 13  1  0  0  0  0
 12 34  1  0  0  0  0
 13 14  1  0  0  0  0
 13 18  2  0  0  0  0
 14 15  1  0  0  0  0
 14 16  1  0  0  0  0
 14 17  1  0  0  0  0
 18 19  1  0  0  0  0
 18 35  1  0  0  0  0
 19 20  1  0  0  0  0
 20 21  2  0  0  0  0
M  CHG  1  19  -1
M  END
> <s_m_source_file>
AV-unprocessed.smi

> <i_m_source_file_index>
1725

> <i_lp_mmshare_version>
43012

> <i_f3d_flags>
0

> <s_epik_input>
W0NIMl0xW0NIMl1bQ0hdMVtDSDJdT1tDQEBIXShbQ0gzXSlDKD1PKVtOSF1jMltjSF1jKEMoRikoRilGKVtjSF1bbkhdYzI9Tw==

> <s_epik_cmdline>
J2VwaWtfcHl0aG9uJywgJy1waCcsICc3LjAnLCAnLXRuJywgJzgnLCAnLW1hJywgJzIwMCcsICctbWV0YWxfYmluZGluZycsICctaW1hZScsICc8aW5maWxlLm1hZT4nLCAnLW9tYWUnLCAnPG91dGZpbGUubWFlPic=

> <r_lp_tautomer_probability>
0.999

> <r_epik_Ionization_Penalty>
2.64397

> <r_epik_Ionization_Penalty_Charging>
0.0618254

> <r_epik_Ionization_Penalty_Neutral>
2.58215

> <r_epik_State_Penalty>
2.58023

> <r_epik_Charging_Adjusted_Penalty>
2.64205

> <i_epik_Tot_Q>
-1

> <i_epik_Tot_abs_Q>
1

> <r_epik_Metal_State_Penalty>
0.429101

> <b_epik_Metal_Only>
1

> <s_lp_Force_Field>
OPLS_2005

> <r_lp_Energy>
29.0368

> <b_lp_Chiralities_Consistent>
1

> <s_lp_Variant>
AV-unprocessed.smi:1725-4

> <Gold.Version>
5.8.1

> <Gold.Id.Protein>
6NUR|6NUR_protein|mol2

> <Gold.PLP.Fitness>
53.7255

> <Gold.PLP.PLP>
-54.1934

> <Gold.PLP.part.hbond>
-1.8506

> <Gold.PLP.part.metal>
0.0000

> <Gold.PLP.part.buried>
-4.9485

> <Gold.PLP.part.nonpolar>
-46.2081

> <Gold.PLP.part.repulsive>
0.1471

> <Gold.PLP.ligand.clash>
0.0000

> <Gold.PLP.ligand.torsion>
0.5489

> <Gold.PLP.Chemscore.Hbond>
0.0000

> <Gold.PLP.Chemscore.CHOScore>
0.0000

> <Gold.PLP.Chemscore.Metal>
0.0000

> <Gold.PLP.Chemscore.Internal.Correction>
0.6299

> <Gold.Rescore>
     Score         DG    S(hbond)    S(metal)    S(lipo)     H(rot)  DE(clash)    DE(int)     intcor
      9.00     -12.28       0.00        0.00      96.63       1.76       0.17       3.11       ----

> <Gold.Chemscore.Fitness>
9.0032

> <Gold.Chemscore.DG>
-12.2793

> <Gold.Chemscore.ZeroCoef>
-5.4800

> <Gold.Chemscore.Hbond>
0.0000

> <Gold.Chemscore.Metal>
0.0000

> <Gold.Chemscore.Lipo>
96.6310

> <Gold.Chemscore.Internal_Hbond>
0.0000

> <Gold.Chemscore.DEClash>
0.1656

> <Gold.Chemscore.DEInternal>
3.1104

> <Gold.Chemscore.Rot>
1.7604

> <Gold.Chemscore.Internal.Correction>
   9.000000E+99

> <Gold.Chemscore.Hbond.Weighted>
-0.0000

> <Gold.Chemscore.Metal.Weighted>
-0.0000

> <Gold.Chemscore.Lipo.Weighted>
-11.3058

> <Gold.Chemscore.Internal_Hbond.Weighted>
0.0000

> <Gold.Chemscore.DEClash.Weighted>
0.1656

> <Gold.Chemscore.DEInternal.Weighted>
3.1104

> <Gold.Chemscore.Rot.Weighted>
4.5065

> <Gold.Chemscore.Internal.Correction.Weighted>
   9.000000E+99

> <Gold.Protein.RotatedTorsions>
[ 6907 6896 6895 6894 ] final  -22.99 input  -60.11 | X-H torsion
[ 7974 7965 7964 7962 ] final -155.58 input  175.53 | X-H torsion
[ 8008 7997 7996 7995 ] final -103.18 input   59.86 | X-H torsion
[ 10167 10162 10161 10158 ] final   81.43 input  -65.29 | X-H torsion
[ 10718 10713 10712 10709 ] final  -37.65 input   66.30 | X-H torsion
[ 10763 10752 10751 10750 ] final   17.26 input  -60.55 | X-H torsion
[ 11005 11000 10999 10996 ] final  -31.33 input  -57.11 | X-H torsion

> <Gold.Protein.ActiveResidues>
 VAL166  LYS551  ARG553  GLY616  TRP617  ASP618  TYR619  PRO620  LYS621  CYS622 
 ASP623  PHE694  ASN695  SER759  ASP760  ASP761  ALA762  ILE779  LEU786  VAL792 
 PHE793  MET794  SER795  GLU796  ALA797  LYS798  CYS799  TRP800  GLU811  SER814 

> <Gold.Protein.RotatedAtoms>
  151.2105  135.0479  159.8908 H   0  0  0  0  0  0  0  0  0  0  0  0  # atno 6907 bound_to 6896
  152.5425  134.0750  159.8221 H   0  0  0  0  0  0  0  0  0  0  0  0  # atno 6908 bound_to 6896
  151.0903  133.5273  159.2647 H   0  0  0  0  0  0  0  0  0  0  0  0  # atno 6909 bound_to 6896
  144.7633  140.4229  143.5960 H   0  0  0  0  0  0  0  0  0  0  0  0  # atno 7974 bound_to 7965
  154.8672  140.0424  157.1702 H   0  0  0  0  0  0  0  0  0  0  0  0  # atno 8008 bound_to 7997
  154.8777  140.2968  155.5423 H   0  0  0  0  0  0  0  0  0  0  0  0  # atno 8009 bound_to 7997
  156.2999  140.2417  156.3775 H   0  0  0  0  0  0  0  0  0  0  0  0  # atno 8010 bound_to 7997
  139.9394  144.6100  150.8267 H   0  0  0  0  0  0  0  0  0  0  0  0  # atno 10167 bound_to 10162
  156.3128  130.4255  149.8034 H   0  0  0  0  0  0  0  0  0  0  0  0  # atno 10718 bound_to 10713
  153.1355  135.6749  153.9110 H   0  0  0  0  0  0  0  0  0  0  0  0  # atno 10763 bound_to 10752
  153.8583  135.3084  155.3437 H   0  0  0  0  0  0  0  0  0  0  0  0  # atno 10764 bound_to 10752
  154.7744  135.4922  153.9796 H   0  0  0  0  0  0  0  0  0  0  0  0  # atno 10765 bound_to 10752
  140.9459  133.7250  156.1146 H   0  0  0  0  0  0  0  0  0  0  0  0  # atno 11005 bound_to 11000
  145.6549  139.1571  143.2841 LP  0  0  0  0  0  0  0  0  0  0  0  0  # atno 17320 bound_to 7965
  146.1717  140.6634  142.9230 LP  0  0  0  0  0  0  0  0  0  0  0  0  # atno 17321 bound_to 7965
  140.7615  143.3176  151.2696 LP  0  0  0  0  0  0  0  0  0  0  0  0  # atno 17342 bound_to 10162
  139.6717  144.0008  152.2757 LP  0  0  0  0  0  0  0  0  0  0  0  0  # atno 17343 bound_to 10162
  156.5371  130.8283  151.3256 LP  0  0  0  0  0  0  0  0  0  0  0  0  # atno 17370 bound_to 10713
  157.7395  130.9832  150.2316 LP  0  0  0  0  0  0  0  0  0  0  0  0  # atno 17371 bound_to 10713
  140.7670  134.3875  157.5515 LP  0  0  0  0  0  0  0  0  0  0  0  0  # atno 17394 bound_to 11000
  139.8833  134.8998  156.2774 LP  0  0  0  0  0  0  0  0  0  0  0  0  # atno 17395 bound_to 11000

$$$$
