AV-unprocessed.smi:176|AV-procd|sdf|1433|dock6
  -GOLD-   2262019213D 1   1.00000     0.00000
 Structure written by MMmdl.
 57 61  0  0  0  0  0  0  0  0  1 V2000
  150.2736  132.7252  157.9681 O   0  0  0  0  0  0  0  0  0  0  0  0
  149.9759  132.1496  156.7128 C   0  0  0  0  0  0  0  0  0  0  0  0
  149.7800  133.2185  155.6233 C   0  0  0  0  0  0  0  0  0  0  0  0
  149.3170  132.5364  154.3182 C   0  0  0  0  0  0  0  0  0  0  0  0
  148.1267  131.7958  154.4936 O   0  0  0  0  0  0  0  0  0  0  0  0
  148.8980  134.4141  156.0498 C   0  0  0  0  0  0  0  0  0  0  0  0
  149.8457  135.3644  155.3142 C   0  0  0  0  0  0  0  0  0  0  0  0
  150.0573  136.7012  155.7860 N   0  0  0  0  0  0  0  0  0  0  0  0
  149.3765  137.3439  156.7960 C   0  0  0  0  0  0  0  0  0  0  0  0
  149.7899  138.5524  157.0639 N   0  0  0  0  0  0  0  0  0  0  0  0
  150.8557  138.7478  156.1933 C   0  0  0  0  0  0  0  0  0  0  0  0
  151.7632  139.8199  155.9627 C   0  0  0  0  0  0  0  0  0  0  0  0
  151.6937  140.9954  156.6374 N   0  0  0  0  0  0  0  0  0  0  0  0
  150.6181  141.9222  156.2805 C   0  0  0  0  0  0  0  0  0  0  0  0
  150.8825  143.3279  156.8538 C   0  0  0  0  0  0  0  0  0  0  0  0
  151.1551  143.2904  158.3727 C   0  0  2  0  0  0  0  0  0  0  0  0
  149.9553  142.8845  159.0115 O   0  0  0  0  0  0  0  0  0  0  0  0
  151.5271  144.6855  158.9224 C   0  0  0  0  0  0  0  0  0  0  0  0
  151.9050  144.6443  160.4158 C   0  0  0  0  0  0  0  0  0  0  0  0
  153.0152  143.6176  160.6927 C   0  0  0  0  0  0  0  0  0  0  0  0
  152.6412  142.2233  160.1627 C   0  0  0  0  0  0  0  0  0  0  0  0
  152.2942  142.2778  158.6623 C   0  0  1  0  0  0  0  0  0  0  0  0
  151.9808  140.8916  158.0678 C   0  0  0  0  0  0  0  0  0  0  0  0
  152.7288  139.6307  155.0236 N   0  0  0  0  0  0  0  0  0  0  0  0
  152.7980  138.4793  154.3490 C   0  0  0  0  0  0  0  0  0  0  0  0
  152.0158  137.4031  154.4520 N   0  0  0  0  0  0  0  0  0  0  0  0
  151.0483  137.5844  155.3959 C   0  0  0  0  0  0  0  0  0  0  0  0
  150.9032  134.2730  155.4920 C   0  0  0  0  0  0  0  0  0  0  0  0
  149.5665  132.5310  158.5640 H   0  0  0  0  0  0  0  0  0  0  0  0
  150.7689  131.4502  156.4462 H   0  0  0  0  0  0  0  0  0  0  0  0
  149.0718  131.5528  156.8365 H   0  0  0  0  0  0  0  0  0  0  0  0
  149.1575  133.2693  153.5269 H   0  0  0  0  0  0  0  0  0  0  0  0
  150.0759  131.8499  153.9423 H   0  0  0  0  0  0  0  0  0  0  0  0
  147.5671  131.9443  153.7469 H   0  0  0  0  0  0  0  0  0  0  0  0
  147.8803  134.3999  155.6578 H   0  0  0  0  0  0  0  0  0  0  0  0
  148.8952  134.5868  157.1277 H   0  0  0  0  0  0  0  0  0  0  0  0
  149.5626  135.4579  154.2644 H   0  0  0  0  0  0  0  0  0  0  0  0
  148.5548  136.8898  157.3305 H   0  0  0  0  0  0  0  0  0  0  0  0
  150.5277  141.9878  155.1954 H   0  0  0  0  0  0  0  0  0  0  0  0
  149.6700  141.5362  156.6577 H   0  0  0  0  0  0  0  0  0  0  0  0
  151.7446  143.7581  156.3418 H   0  0  0  0  0  0  0  0  0  0  0  0
  150.0393  143.9832  156.6322 H   0  0  0  0  0  0  0  0  0  0  0  0
  150.1266  142.7910  159.9361 H   0  0  0  0  0  0  0  0  0  0  0  0
  152.3720  145.0828  158.3583 H   0  0  0  0  0  0  0  0  0  0  0  0
  150.7050  145.3860  158.7681 H   0  0  0  0  0  0  0  0  0  0  0  0
  152.2278  145.6335  160.7414 H   0  0  0  0  0  0  0  0  0  0  0  0
  151.0257  144.3999  161.0127 H   0  0  0  0  0  0  0  0  0  0  0  0
  153.9411  143.9485  160.2206 H   0  0  0  0  0  0  0  0  0  0  0  0
  153.2163  143.5673  161.7631 H   0  0  0  0  0  0  0  0  0  0  0  0
  153.4727  141.5372  160.3268 H   0  0  0  0  0  0  0  0  0  0  0  0
  151.7994  141.8246  160.7302 H   0  0  0  0  0  0  0  0  0  0  0  0
  153.1882  142.6378  158.1494 H   0  0  0  0  0  0  0  0  0  0  0  0
  151.1191  140.4487  158.5691 H   0  0  0  0  0  0  0  0  0  0  0  0
  152.8216  140.2237  158.2516 H   0  0  0  0  0  0  0  0  0  0  0  0
  153.5939  138.4112  153.6223 H   0  0  0  0  0  0  0  0  0  0  0  0
  151.4784  134.3900  156.4126 H   0  0  0  0  0  0  0  0  0  0  0  0
  151.5640  134.1424  154.6345 H   0  0  0  0  0  0  0  0  0  0  0  0
  1  2  1  0  0  0  0
  1 29  1  0  0  0  0
  2  3  1  0  0  0  0
  2 30  1  0  0  0  0
  2 31  1  0  0  0  0
  3 28  1  0  0  0  0
  3  4  1  0  0  0  0
  3  6  1  0  0  0  0
  4  5  1  0  0  0  0
  4 32  1  0  0  0  0
  4 33  1  0  0  0  0
  5 34  1  0  0  0  0
  6  7  1  0  0  0  0
  6 35  1  0  0  0  0
  6 36  1  0  0  0  0
  7  8  1  0  0  0  0
  7 28  1  0  0  0  0
  7 37  1  0  0  0  0
  8 27  1  0  0  0  0
  8  9  1  0  0  0  0
  9 10  2  0  0  0  0
  9 38  1  0  0  0  0
 10 11  1  0  0  0  0
 11 27  2  0  0  0  0
 11 12  1  0  0  0  0
 12 13  1  0  0  0  0
 12 24  2  0  0  0  0
 13 23  1  0  0  0  0
 13 14  1  0  0  0  0
 14 15  1  0  0  0  0
 14 39  1  0  0  0  0
 14 40  1  0  0  0  0
 15 16  1  0  0  0  0
 15 41  1  0  0  0  0
 15 42  1  0  0  0  0
 16 22  1  0  0  0  0
 16 17  1  0  0  0  0
 16 18  1  0  0  0  0
 17 43  1  0  0  0  0
 18 19  1  0  0  0  0
 18 44  1  0  0  0  0
 18 45  1  0  0  0  0
 19 20  1  0  0  0  0
 19 46  1  0  0  0  0
 19 47  1  0  0  0  0
 20 21  1  0  0  0  0
 20 48  1  0  0  0  0
 20 49  1  0  0  0  0
 21 22  1  0  0  0  0
 21 50  1  0  0  0  0
 21 51  1  0  0  0  0
 22 23  1  0  0  0  0
 22 52  1  0  0  0  0
 23 53  1  0  0  0  0
 23 54  1  0  0  0  0
 24 25  1  0  0  0  0
 25 26  2  0  0  0  0
 25 55  1  0  0  0  0
 26 27  1  0  0  0  0
 28 56  1  0  0  0  0
 28 57  1  0  0  0  0
M  END
> <s_m_source_file>
AV-unprocessed.smi

> <i_m_source_file_index>
176

> <i_lp_mmshare_version>
43012

> <i_f3d_flags>
0

> <s_epik_input>
W09IXVtDSDJdQzEoW0NIMl1bT0hdKVtDSDJdW0NIXShbQ0gyXTEpbihbY0hdbjIpYyhjMjMpbltjSF1uYzNOKFtDSDJdW0NIMl00KVtDSDJdW0NAQEhdKFtDQF00NVtPSF0pW0NIMl1bQ0gyXVtDSDJdW0NIMl01

> <s_epik_cmdline>
J2VwaWtfcHl0aG9uJywgJy1waCcsICc3LjAnLCAnLXRuJywgJzgnLCAnLW1hJywgJzIwMCcsICctbWV0YWxfYmluZGluZycsICctaW1hZScsICc8aW5maWxlLm1hZT4nLCAnLW9tYWUnLCAnPG91dGZpbGUubWFlPic=

> <r_lp_tautomer_probability>
1

> <r_epik_Ionization_Penalty>
0.00642876

> <r_epik_Ionization_Penalty_Charging>
0

> <r_epik_Ionization_Penalty_Neutral>
0.00642876

> <r_epik_State_Penalty>
0.00467813

> <r_epik_Charging_Adjusted_Penalty>
0.00467813

> <i_epik_Tot_Q>
0

> <i_epik_Tot_abs_Q>
0

> <r_epik_Metal_State_Penalty>
-0

> <b_epik_Metal_Only>
0

> <s_lp_Force_Field>
OPLS_2005

> <r_lp_Energy>
51.6301

> <b_lp_Chiralities_Consistent>
1

> <s_lp_Variant>
AV-unprocessed.smi:176-1

> <Gold.Version>
5.8.1

> <Gold.Id.Protein>
6NUR|6NUR_protein|mol2

> <Gold.PLP.Fitness>
56.5458

> <Gold.PLP.PLP>
-47.7991

> <Gold.PLP.part.hbond>
-4.1982

> <Gold.PLP.part.metal>
0.0000

> <Gold.PLP.part.buried>
-4.2689

> <Gold.PLP.part.nonpolar>
-39.2788

> <Gold.PLP.part.repulsive>
0.1517

> <Gold.PLP.ligand.clash>
0.0000

> <Gold.PLP.ligand.torsion>
0.4887

> <Gold.PLP.Chemscore.Hbond>
2.9442

> <Gold.PLP.Chemscore.CHOScore>
0.0000

> <Gold.PLP.Chemscore.Metal>
0.0000

> <Gold.Chemscore.Hbonds>
donor molecule, donor type, donor heavy atom, donor atom, acceptor molecule, acceptor atom, score
      P1  H  6896  6908       L1     1  0.50
      P1  H  7989  7998       L1    24  0.19
      P1  H  7997  8009       L1    24  0.93
      P1  H 10752 10764       L1    26  0.88

> <Gold.PLP.Chemscore.Internal.Correction>
0.8913

> <Gold.Rescore>
     Score         DG    S(hbond)    S(metal)    S(lipo)     H(rot)  DE(clash)    DE(int)     intcor
     16.84     -17.97       2.38        0.00     119.91       3.71       0.61       0.52       ----

> <Gold.Chemscore.Fitness>
16.8411

> <Gold.Chemscore.DG>
-17.9686

> <Gold.Chemscore.ZeroCoef>
-5.4800

> <Gold.Chemscore.Hbond>
2.3830

> <Gold.Chemscore.Metal>
0.0000

> <Gold.Chemscore.Lipo>
119.9080

> <Gold.Chemscore.Internal_Hbond>
0.0000

> <Gold.Chemscore.DEClash>
0.6106

> <Gold.Chemscore.DEInternal>
0.5168

> <Gold.Chemscore.Rot>
3.7109

> <Gold.Chemscore.Internal.Correction>
   9.000000E+99

> <Gold.Chemscore.Hbonds>
donor molecule, donor type, donor heavy atom, donor atom, acceptor molecule, acceptor atom, score
      P1  H  6896  6908       L1     1  0.02
      P1  H  7997  8009       L1    24  0.18
      P1  H 10752 10764       L1    26  0.76

> <Gold.Chemscore.Hbond.Weighted>
-7.9593

> <Gold.Chemscore.Metal.Weighted>
-0.0000

> <Gold.Chemscore.Lipo.Weighted>
-14.0292

> <Gold.Chemscore.Internal_Hbond.Weighted>
0.0000

> <Gold.Chemscore.DEClash.Weighted>
0.6106

> <Gold.Chemscore.DEInternal.Weighted>
0.5168

> <Gold.Chemscore.Rot.Weighted>
9.5000

> <Gold.Chemscore.Internal.Correction.Weighted>
   9.000000E+99

> <Gold.Protein.RotatedTorsions>
[ 6907 6896 6895 6894 ] final   93.93 input  -60.11 | X-H torsion
[ 7974 7965 7964 7962 ] final  111.92 input  175.53 | X-H torsion
[ 8008 7997 7996 7995 ] final -152.29 input   59.86 | X-H torsion
[ 10167 10162 10161 10158 ] final -130.11 input  -65.29 | X-H torsion
[ 10718 10713 10712 10709 ] final -109.03 input   66.30 | X-H torsion
[ 10763 10752 10751 10750 ] final  -79.35 input  -60.55 | X-H torsion
[ 11005 11000 10999 10996 ] final   72.76 input  -57.11 | X-H torsion

> <Gold.Protein.ActiveResidues>
 VAL166  LYS551  ARG553  GLY616  TRP617  ASP618  TYR619  PRO620  LYS621  CYS622 
 ASP623  PHE694  ASN695  SER759  ASP760  ASP761  ALA762  ILE779  LEU786  VAL792 
 PHE793  MET794  SER795  GLU796  ALA797  LYS798  CYS799  TRP800  GLU811  SER814 

> <Gold.Protein.RotatedAtoms>
  152.5451  134.1272  159.8423 H   0  0  0  0  0  0  0  0  0  0  0  0  # atno 6907 bound_to 6896
  151.1322  133.5022  159.2606 H   0  0  0  0  0  0  0  0  0  0  0  0  # atno 6908 bound_to 6896
  151.1663  135.0307  159.8787 H   0  0  0  0  0  0  0  0  0  0  0  0  # atno 6909 bound_to 6896
  145.2360  139.2799  143.4143 H   0  0  0  0  0  0  0  0  0  0  0  0  # atno 7974 bound_to 7965
  155.6528  140.0714  157.2581 H   0  0  0  0  0  0  0  0  0  0  0  0  # atno 8008 bound_to 7997
  154.4159  140.1730  156.1743 H   0  0  0  0  0  0  0  0  0  0  0  0  # atno 8009 bound_to 7997
  155.9763  140.3357  155.6624 H   0  0  0  0  0  0  0  0  0  0  0  0  # atno 8010 bound_to 7997
  139.9328  143.6252  152.2525 H   0  0  0  0  0  0  0  0  0  0  0  0  # atno 10167 bound_to 10162
  156.0516  130.5743  150.8043 H   0  0  0  0  0  0  0  0  0  0  0  0  # atno 10718 bound_to 10713
  154.5376  135.5698  153.6811 H   0  0  0  0  0  0  0  0  0  0  0  0  # atno 10763 bound_to 10752
  152.9955  135.6220  154.2546 H   0  0  0  0  0  0  0  0  0  0  0  0  # atno 10764 bound_to 10752
  154.2475  135.2860  155.2809 H   0  0  0  0  0  0  0  0  0  0  0  0  # atno 10765 bound_to 10752
  139.9474  134.7288  156.0945 H   0  0  0  0  0  0  0  0  0  0  0  0  # atno 11005 bound_to 11000
  146.3341  140.2710  142.8606 LP  0  0  0  0  0  0  0  0  0  0  0  0  # atno 17320 bound_to 7965
  144.9632  140.8296  143.5500 LP  0  0  0  0  0  0  0  0  0  0  0  0  # atno 17321 bound_to 7965
  139.6768  144.7658  151.1681 LP  0  0  0  0  0  0  0  0  0  0  0  0  # atno 17342 bound_to 10162
  140.7633  143.5783  150.8922 LP  0  0  0  0  0  0  0  0  0  0  0  0  # atno 17343 bound_to 10162
  157.5447  131.0942  150.9779 LP  0  0  0  0  0  0  0  0  0  0  0  0  # atno 17370 bound_to 10713
  157.0053  130.5616  149.5315 LP  0  0  0  0  0  0  0  0  0  0  0  0  # atno 17371 bound_to 10713
  141.1128  133.6637  156.3021 LP  0  0  0  0  0  0  0  0  0  0  0  0  # atno 17394 bound_to 11000
  140.5801  134.5754  157.5477 LP  0  0  0  0  0  0  0  0  0  0  0  0  # atno 17395 bound_to 11000

$$$$
