AV-unprocessed.smi:689|AV-procd|sdf|3359|dock7
  -GOLD-   22720 0333D 1   1.00000     0.00000
 Structure written by MMmdl.
 34 35  0  0  0  0  0  0  0  0  1 V2000
  150.6990  138.5311  154.1658 C   0  0  0  0  0  0  0  0  0  0  0  0
  151.2973  139.2358  155.3494 C   0  0  0  0  0  0  0  0  0  0  0  0
  152.4215  138.7849  155.8797 N   0  0  0  0  0  0  0  0  0  0  0  0
  152.7185  139.6477  156.9388 O   0  0  0  0  0  0  0  0  0  0  0  0
  151.7507  140.5966  157.0048 C   0  0  0  0  0  0  0  0  0  0  0  0
  151.9024  141.6240  158.0750 C   0  0  0  0  0  0  0  0  0  0  0  0
  150.8157  140.3928  156.0264 C   0  0  0  0  0  0  0  0  0  0  0  0
  149.5802  141.1975  155.7150 C   0  0  0  0  0  0  0  0  0  0  0  0
  148.6721  141.2077  156.9424 C   0  0  0  0  0  0  0  0  0  0  0  0
  148.3762  140.1690  157.5311 O   0  0  0  0  0  0  0  0  0  0  0  0
  148.1716  142.4622  157.3021 N   0  0  0  0  0  0  0  0  0  0  0  0
  146.8267  142.7421  158.3511 S   0  0  0  0  0  0  0  0  0  0  0  0
  146.3328  141.4398  158.8254 O   0  0  0  0  0  0  0  0  0  0  0  0
  147.2592  143.7636  159.3166 O   0  0  0  0  0  0  0  0  0  0  0  0
  145.5835  143.5221  157.2234 C   0  0  0  0  0  0  0  0  0  0  0  0
  145.2850  142.6880  155.9912 C   0  0  0  0  0  0  0  0  0  0  0  0
  146.2192  142.7006  154.8025 C   0  0  0  0  0  0  0  0  0  0  0  0
  144.8573  143.3376  154.6941 C   0  0  0  0  0  0  0  0  0  0  0  0
  150.7893  139.1393  153.2655 H   0  0  0  0  0  0  0  0  0  0  0  0
  149.6397  138.3307  154.3257 H   0  0  0  0  0  0  0  0  0  0  0  0
  151.1886  137.5757  153.9732 H   0  0  0  0  0  0  0  0  0  0  0  0
  151.1147  142.3747  158.0161 H   0  0  0  0  0  0  0  0  0  0  0  0
  152.8610  142.1352  157.9845 H   0  0  0  0  0  0  0  0  0  0  0  0
  151.8557  141.1629  159.0614 H   0  0  0  0  0  0  0  0  0  0  0  0
  149.8267  142.2274  155.4553 H   0  0  0  0  0  0  0  0  0  0  0  0
  149.0432  140.7894  154.8576 H   0  0  0  0  0  0  0  0  0  0  0  0
  148.4438  143.2989  156.7873 H   0  0  0  0  0  0  0  0  0  0  0  0
  144.6650  143.6474  157.7972 H   0  0  0  0  0  0  0  0  0  0  0  0
  145.9297  144.5149  156.9370 H   0  0  0  0  0  0  0  0  0  0  0  0
  144.8189  141.7307  156.2143 H   0  0  0  0  0  0  0  0  0  0  0  0
  147.0809  143.3641  154.8371 H   0  0  0  0  0  0  0  0  0  0  0  0
  146.3768  141.7599  154.2789 H   0  0  0  0  0  0  0  0  0  0  0  0
  144.1031  142.8224  154.1025 H   0  0  0  0  0  0  0  0  0  0  0  0
  144.8147  144.4246  154.6590 H   0  0  0  0  0  0  0  0  0  0  0  0
  1  2  1  0  0  0  0
  1 19  1  0  0  0  0
  1 20  1  0  0  0  0
  1 21  1  0  0  0  0
  2  7  1  0  0  0  0
  2  3  2  0  0  0  0
  3  4  1  0  0  0  0
  4  5  1  0  0  0  0
  5  6  1  0  0  0  0
  5  7  2  0  0  0  0
  6 22  1  0  0  0  0
  6 23  1  0  0  0  0
  6 24  1  0  0  0  0
  7  8  1  0  0  0  0
  8  9  1  0  0  0  0
  8 25  1  0  0  0  0
  8 26  1  0  0  0  0
  9 10  2  0  0  0  0
  9 11  1  0  0  0  0
 11 12  1  0  0  0  0
 11 27  1  0  0  0  0
 12 13  2  0  0  0  0
 12 14  2  0  0  0  0
 12 15  1  0  0  0  0
 15 16  1  0  0  0  0
 15 28  1  0  0  0  0
 15 29  1  0  0  0  0
 16 18  1  0  0  0  0
 16 17  1  0  0  0  0
 16 30  1  0  0  0  0
 17 18  1  0  0  0  0
 17 31  1  0  0  0  0
 17 32  1  0  0  0  0
 18 33  1  0  0  0  0
 18 34  1  0  0  0  0
M  END
> <s_m_source_file>
AV-unprocessed.smi

> <i_m_source_file_index>
689

> <i_lp_mmshare_version>
43012

> <i_f3d_flags>
0

> <s_epik_input>
W0NIM11jMW5vYyhbQ0gzXSljMVtDSDJdQyg9TylbTkhdUyg9TykoPU8pW0NIMl1bQ0hdMltDSDJdW0NIMl0y

> <s_epik_cmdline>
J2VwaWtfcHl0aG9uJywgJy1waCcsICc3LjAnLCAnLXRuJywgJzgnLCAnLW1hJywgJzIwMCcsICctbWV0YWxfYmluZGluZycsICctaW1hZScsICc8aW5maWxlLm1hZT4nLCAnLW9tYWUnLCAnPG91dGZpbGUubWFlPic=

> <r_epik_Ionization_Penalty>
2.32728

> <r_epik_Ionization_Penalty_Charging>
0

> <r_epik_Ionization_Penalty_Neutral>
2.32728

> <r_epik_State_Penalty>
2.47991

> <r_epik_Charging_Adjusted_Penalty>
2.47991

> <i_epik_Tot_Q>
0

> <i_epik_Tot_abs_Q>
0

> <r_epik_Metal_State_Penalty>
2.4915

> <b_epik_Metal_Only>
0

> <s_lp_Force_Field>
OPLS_2005

> <r_lp_Energy>
-0.069028

> <b_lp_Chiralities_Consistent>
1

> <s_lp_Variant>
AV-unprocessed.smi:689-2

> <Gold.Version>
5.8.1

> <Gold.Id.Protein>
6NUR|6NUR_protein|mol2

> <Gold.PLP.Fitness>
35.1644

> <Gold.PLP.PLP>
-27.5539

> <Gold.PLP.part.hbond>
-3.0000

> <Gold.PLP.part.metal>
0.0000

> <Gold.PLP.part.buried>
-5.6060

> <Gold.PLP.part.nonpolar>
-19.7318

> <Gold.PLP.part.repulsive>
0.6606

> <Gold.PLP.ligand.clash>
0.0000

> <Gold.PLP.ligand.torsion>
1.0002

> <Gold.PLP.Chemscore.Hbond>
2.6560

> <Gold.PLP.Chemscore.CHOScore>
0.0000

> <Gold.PLP.Chemscore.Metal>
0.0000

> <Gold.Chemscore.Hbonds>
donor molecule, donor type, donor heavy atom, donor atom, acceptor molecule, acceptor atom, score
      L1  H    11    27       P1  8028  1.00
      P1  H  6934  6946       L1    13  0.64
      P1  H  7997  8010       L1     4  0.90

> <Gold.PLP.Chemscore.Internal.Correction>
1.6429

> <Gold.Rescore>
     Score         DG    S(hbond)    S(metal)    S(lipo)     H(rot)  DE(clash)    DE(int)     intcor
     11.97     -14.55       2.02        0.00      55.98       1.65       0.15       2.43       ----

> <Gold.Chemscore.Fitness>
11.9705

> <Gold.Chemscore.DG>
-14.5515

> <Gold.Chemscore.ZeroCoef>
-5.4800

> <Gold.Chemscore.Hbond>
2.0212

> <Gold.Chemscore.Metal>
0.0000

> <Gold.Chemscore.Lipo>
55.9791

> <Gold.Chemscore.Internal_Hbond>
0.0000

> <Gold.Chemscore.DEClash>
0.1477

> <Gold.Chemscore.DEInternal>
2.4333

> <Gold.Chemscore.Rot>
1.6519

> <Gold.Chemscore.Internal.Correction>
   9.000000E+99

> <Gold.Chemscore.Hbonds>
donor molecule, donor type, donor heavy atom, donor atom, acceptor molecule, acceptor atom, score
      L1  H    11    27       P1  8028  0.40
      P1  H  6934  6946       L1    13  0.58
      P1  H  7997  8010       L1     4  0.17

> <Gold.Chemscore.Hbond.Weighted>
-6.7509

> <Gold.Chemscore.Metal.Weighted>
-0.0000

> <Gold.Chemscore.Lipo.Weighted>
-6.5496

> <Gold.Chemscore.Internal_Hbond.Weighted>
0.0000

> <Gold.Chemscore.DEClash.Weighted>
0.1477

> <Gold.Chemscore.DEInternal.Weighted>
2.4333

> <Gold.Chemscore.Rot.Weighted>
4.2290

> <Gold.Chemscore.Internal.Correction.Weighted>
   9.000000E+99

> <Gold.Protein.RotatedTorsions>
[ 6907 6896 6895 6894 ] final  102.44 input  -60.11 | X-H torsion
[ 7974 7965 7964 7962 ] final  -35.91 input  175.53 | X-H torsion
[ 8008 7997 7996 7995 ] final   72.77 input   59.86 | X-H torsion
[ 10167 10162 10161 10158 ] final -153.23 input  -65.29 | X-H torsion
[ 10718 10713 10712 10709 ] final  140.39 input   66.30 | X-H torsion
[ 10763 10752 10751 10750 ] final   24.59 input  -60.55 | X-H torsion
[ 11005 11000 10999 10996 ] final -175.02 input  -57.11 | X-H torsion

> <Gold.Protein.ActiveResidues>
 VAL166  LYS551  ARG553  GLY616  TRP617  ASP618  TYR619  PRO620  LYS621  CYS622 
 ASP623  PHE694  ASN695  SER759  ASP760  ASP761  ALA762  ILE779  LEU786  VAL792 
 PHE793  MET794  SER795  GLU796  ALA797  LYS798  CYS799  TRP800  GLU811  SER814 

> <Gold.Protein.RotatedAtoms>
  152.5323  133.9975  159.7879 H   0  0  0  0  0  0  0  0  0  0  0  0  # atno 6907 bound_to 6896
  151.0200  133.5878  159.2679 H   0  0  0  0  0  0  0  0  0  0  0  0  # atno 6908 bound_to 6896
  151.2921  135.0751  159.9261 H   0  0  0  0  0  0  0  0  0  0  0  0  # atno 6909 bound_to 6896
  146.0707  140.6215  142.8954 H   0  0  0  0  0  0  0  0  0  0  0  0  # atno 7974 bound_to 7965
  155.7737  140.3483  155.5260 H   0  0  0  0  0  0  0  0  0  0  0  0  # atno 8008 bound_to 7997
  155.8796  140.1000  157.1515 H   0  0  0  0  0  0  0  0  0  0  0  0  # atno 8009 bound_to 7997
  154.4023  140.1325  156.4167 H   0  0  0  0  0  0  0  0  0  0  0  0  # atno 8010 bound_to 7997
  139.7114  143.9102  152.2469 H   0  0  0  0  0  0  0  0  0  0  0  0  # atno 10167 bound_to 10162
  157.4038  131.1020  151.0525 H   0  0  0  0  0  0  0  0  0  0  0  0  # atno 10718 bound_to 10713
  153.0753  135.6602  154.0160 H   0  0  0  0  0  0  0  0  0  0  0  0  # atno 10763 bound_to 10752
  153.9795  135.2956  155.3422 H   0  0  0  0  0  0  0  0  0  0  0  0  # atno 10764 bound_to 10752
  154.7139  135.5193  153.8778 H   0  0  0  0  0  0  0  0  0  0  0  0  # atno 10765 bound_to 10752
  140.4680  134.6192  157.4870 H   0  0  0  0  0  0  0  0  0  0  0  0  # atno 11005 bound_to 11000
  144.7230  140.4434  143.6994 LP  0  0  0  0  0  0  0  0  0  0  0  0  # atno 17320 bound_to 7965
  145.6397  139.1548  143.2922 LP  0  0  0  0  0  0  0  0  0  0  0  0  # atno 17321 bound_to 7965
  139.8972  144.6932  150.8704 LP  0  0  0  0  0  0  0  0  0  0  0  0  # atno 17342 bound_to 10162
  140.7734  143.3541  151.1956 LP  0  0  0  0  0  0  0  0  0  0  0  0  # atno 17343 bound_to 10162
  157.1514  130.6186  149.5583 LP  0  0  0  0  0  0  0  0  0  0  0  0  # atno 17370 bound_to 10713
  155.9831  130.4848  150.6913 LP  0  0  0  0  0  0  0  0  0  0  0  0  # atno 17371 bound_to 10713
  139.9903  134.6995  155.9701 LP  0  0  0  0  0  0  0  0  0  0  0  0  # atno 17394 bound_to 11000
  141.1590  133.6540  156.4257 LP  0  0  0  0  0  0  0  0  0  0  0  0  # atno 17395 bound_to 11000

$$$$
