AV-unprocessed.smi:3328|AV-procd|sdf|12794|dock8
  -GOLD-   2272019143D 1   1.00000     0.00000
 Structure written by MMmdl.
 40 41  0  0  0  0  0  0  0  0  1 V2000
  146.0451  143.4603  153.9624 C   0  0  0  0  0  0  0  0  0  0  0  0
  146.7270  142.1450  154.2056 C   0  0  0  0  0  0  0  0  0  0  0  0
  147.8799  141.8938  155.0020 C   0  0  0  0  0  0  0  0  0  0  0  0
  148.2297  140.6188  155.0115 N   0  0  0  0  0  0  0  0  0  0  0  0
  147.3210  140.0111  154.2191 N   0  0  0  0  0  0  0  0  0  0  0  0
  147.3980  138.5748  153.9989 C   0  0  0  0  0  0  0  0  0  0  0  0
  146.3233  138.0263  153.0249 C   0  0  1  0  0  0  0  0  0  0  0  0
  146.4224  138.6433  151.6205 C   0  0  0  0  0  0  0  0  0  0  0  0
  146.4059  136.5779  152.8745 N   0  0  0  0  0  0  0  0  0  0  0  0
  145.2048  136.0048  152.2830 C   0  0  0  0  0  0  0  0  0  0  0  0
  145.5352  135.4206  150.8990 C   0  0  0  0  0  0  0  0  0  0  0  0
  145.4304  133.9618  150.8813 N   0  0  0  0  0  0  0  0  0  0  0  0
  144.3583  133.3063  150.1510 C   0  0  0  0  0  0  0  0  0  0  0  0
  144.6543  131.8029  150.2549 C   0  0  0  0  0  0  0  0  0  0  0  0
  145.8111  131.6642  151.2513 C   0  0  0  0  0  0  0  0  0  0  0  0
  146.2359  133.0991  151.5112 C   0  0  0  0  0  0  0  0  0  0  0  0
  147.2019  133.3903  152.2152 O   0  0  0  0  0  0  0  0  0  0  0  0
  146.3968  140.9085  153.7269 C   0  0  0  0  0  0  0  0  0  0  0  0
  146.7603  144.2821  153.9165 H   0  0  0  0  0  0  0  0  0  0  0  0
  145.3342  143.6961  154.7543 H   0  0  0  0  0  0  0  0  0  0  0  0
  145.4931  143.4630  153.0221 H   0  0  0  0  0  0  0  0  0  0  0  0
  148.4687  142.5970  155.5720 H   0  0  0  0  0  0  0  0  0  0  0  0
  148.4049  138.3252  153.6643 H   0  0  0  0  0  0  0  0  0  0  0  0
  147.2861  138.0850  154.9669 H   0  0  0  0  0  0  0  0  0  0  0  0
  145.3373  138.2733  153.4212 H   0  0  0  0  0  0  0  0  0  0  0  0
  146.3765  139.7314  151.6688 H   0  0  0  0  0  0  0  0  0  0  0  0
  145.5995  138.3100  150.9872 H   0  0  0  0  0  0  0  0  0  0  0  0
  147.3525  138.3711  151.1204 H   0  0  0  0  0  0  0  0  0  0  0  0
  147.2005  136.3410  152.2981 H   0  0  0  0  0  0  0  0  0  0  0  0
  144.7775  135.2315  152.9197 H   0  0  0  0  0  0  0  0  0  0  0  0
  144.4534  136.7888  152.1839 H   0  0  0  0  0  0  0  0  0  0  0  0
  144.8440  135.8270  150.1593 H   0  0  0  0  0  0  0  0  0  0  0  0
  146.5326  135.7289  150.5818 H   0  0  0  0  0  0  0  0  0  0  0  0
  143.3996  133.5514  150.6097 H   0  0  0  0  0  0  0  0  0  0  0  0
  144.3358  133.6376  149.1120 H   0  0  0  0  0  0  0  0  0  0  0  0
  143.7752  131.2471  150.5827 H   0  0  0  0  0  0  0  0  0  0  0  0
  144.9456  131.4073  149.2815 H   0  0  0  0  0  0  0  0  0  0  0  0
  145.4851  131.2013  152.1832 H   0  0  0  0  0  0  0  0  0  0  0  0
  146.6365  131.0822  150.8399 H   0  0  0  0  0  0  0  0  0  0  0  0
  145.5912  140.5959  153.0789 H   0  0  0  0  0  0  0  0  0  0  0  0
  1  2  1  0  0  0  0
  1 19  1  0  0  0  0
  1 20  1  0  0  0  0
  1 21  1  0  0  0  0
  2 18  2  0  0  0  0
  2  3  1  0  0  0  0
  3  4  2  0  0  0  0
  3 22  1  0  0  0  0
  4  5  1  0  0  0  0
  5  6  1  0  0  0  0
  5 18  1  0  0  0  0
  6  7  1  0  0  0  0
  6 23  1  0  0  0  0
  6 24  1  0  0  0  0
  7  8  1  0  0  0  0
  7  9  1  0  0  0  0
  7 25  1  0  0  0  0
  8 26  1  0  0  0  0
  8 27  1  0  0  0  0
  8 28  1  0  0  0  0
  9 10  1  0  0  0  0
  9 29  1  0  0  0  0
 10 11  1  0  0  0  0
 10 30  1  0  0  0  0
 10 31  1  0  0  0  0
 11 12  1  0  0  0  0
 11 32  1  0  0  0  0
 11 33  1  0  0  0  0
 12 16  1  0  0  0  0
 12 13  1  0  0  0  0
 13 14  1  0  0  0  0
 13 34  1  0  0  0  0
 13 35  1  0  0  0  0
 14 15  1  0  0  0  0
 14 36  1  0  0  0  0
 14 37  1  0  0  0  0
 15 16  1  0  0  0  0
 15 38  1  0  0  0  0
 15 39  1  0  0  0  0
 16 17  2  0  0  0  0
 18 40  1  0  0  0  0
M  END
> <s_m_source_file>
AV-unprocessed.smi

> <i_m_source_file_index>
3328

> <i_lp_mmshare_version>
43012

> <i_f3d_flags>
0

> <s_epik_input>
W0NIM11jMVtjSF1ubihbY0hdMSlbQ0gyXVtDQEhdKFtDSDNdKVtOSF1bQ0gyXVtDSDJdTjJbQ0gyXVtDSDJdW0NIMl1DMj1P

> <s_epik_cmdline>
J2VwaWtfcHl0aG9uJywgJy1waCcsICc3LjAnLCAnLXRuJywgJzgnLCAnLW1hJywgJzIwMCcsICctbWV0YWxfYmluZGluZycsICctaW1hZScsICc8aW5maWxlLm1hZT4nLCAnLW9tYWUnLCAnPG91dGZpbGUubWFlPic=

> <r_lp_tautomer_probability>
1

> <r_epik_Ionization_Penalty>
2.53591

> <r_epik_Ionization_Penalty_Charging>
0

> <r_epik_Ionization_Penalty_Neutral>
2.53591

> <r_epik_State_Penalty>
2.70334

> <r_epik_Charging_Adjusted_Penalty>
2.70334

> <i_epik_Tot_Q>
0

> <i_epik_Tot_abs_Q>
0

> <r_epik_Metal_State_Penalty>
2.70327

> <b_epik_Metal_Only>
0

> <s_lp_Force_Field>
OPLS_2005

> <r_lp_Energy>
23.1303

> <b_lp_Chiralities_Consistent>
1

> <s_lp_Variant>
AV-unprocessed.smi:3328-4

> <Gold.Version>
5.8.1

> <Gold.Id.Protein>
6NUR|6NUR_protein|mol2

> <Gold.PLP.Fitness>
42.4668

> <Gold.PLP.PLP>
-35.2136

> <Gold.PLP.part.hbond>
-1.0000

> <Gold.PLP.part.metal>
0.0000

> <Gold.PLP.part.buried>
-1.2991

> <Gold.PLP.part.nonpolar>
-33.3627

> <Gold.PLP.part.repulsive>
0.2976

> <Gold.PLP.ligand.clash>
0.0000

> <Gold.PLP.ligand.torsion>
0.9133

> <Gold.PLP.Chemscore.Hbond>
1.0000

> <Gold.PLP.Chemscore.CHOScore>
2.0000

> <Gold.PLP.Chemscore.Metal>
0.0000

> <Gold.Chemscore.Hbonds>
donor molecule, donor type, donor heavy atom, donor atom, acceptor molecule, acceptor atom, score
      L1  H     9    29       P1  7948  1.00
      L1  C     3    22       P1  8028  1.00
      L1  C    18    40       P1 10175  0.92

> <Gold.PLP.Chemscore.Internal.Correction>
0.0798

> <Gold.Rescore>
     Score         DG    S(hbond)    S(metal)    S(lipo)     H(rot)  DE(clash)    DE(int)     intcor
     11.89     -13.18       0.99        0.00      78.92       1.89       0.13       1.16       ----

> <Gold.Chemscore.Fitness>
11.8900

> <Gold.Chemscore.DG>
-13.1816

> <Gold.Chemscore.ZeroCoef>
-5.4800

> <Gold.Chemscore.Hbond>
0.9915

> <Gold.Chemscore.Metal>
0.0000

> <Gold.Chemscore.Lipo>
78.9190

> <Gold.Chemscore.Internal_Hbond>
0.0000

> <Gold.Chemscore.DEClash>
0.1283

> <Gold.Chemscore.DEInternal>
1.1633

> <Gold.Chemscore.Rot>
1.8920

> <Gold.Chemscore.Internal.Correction>
   9.000000E+99

> <Gold.Chemscore.Hbonds>
donor molecule, donor type, donor heavy atom, donor atom, acceptor molecule, acceptor atom, score
      L1  H     9    29       P1  7948  0.99

> <Gold.Chemscore.Hbond.Weighted>
-3.3115

> <Gold.Chemscore.Metal.Weighted>
-0.0000

> <Gold.Chemscore.Lipo.Weighted>
-9.2335

> <Gold.Chemscore.Internal_Hbond.Weighted>
0.0000

> <Gold.Chemscore.DEClash.Weighted>
0.1283

> <Gold.Chemscore.DEInternal.Weighted>
1.1633

> <Gold.Chemscore.Rot.Weighted>
4.8435

> <Gold.Chemscore.Internal.Correction.Weighted>
   9.000000E+99

> <Gold.Protein.RotatedTorsions>
[ 6907 6896 6895 6894 ] final   96.39 input  -60.11 | X-H torsion
[ 7974 7965 7964 7962 ] final   69.10 input  175.53 | X-H torsion
[ 8008 7997 7996 7995 ] final  -70.25 input   59.86 | X-H torsion
[ 10167 10162 10161 10158 ] final  160.44 input  -65.29 | X-H torsion
[ 10718 10713 10712 10709 ] final -108.13 input   66.30 | X-H torsion
[ 10763 10752 10751 10750 ] final  -69.90 input  -60.55 | X-H torsion
[ 11005 11000 10999 10996 ] final   66.76 input  -57.11 | X-H torsion

> <Gold.Protein.ActiveResidues>
 VAL166  LYS551  ARG553  GLY616  TRP617  ASP618  TYR619  PRO620  LYS621  CYS622 
 ASP623  PHE694  ASN695  SER759  ASP760  ASP761  ALA762  ILE779  LEU786  VAL792 
 PHE793  MET794  SER795  GLU796  ALA797  LYS798  CYS799  TRP800  GLU811  SER814 

> <Gold.Protein.RotatedAtoms>
  152.5435  134.0893  159.8269 H   0  0  0  0  0  0  0  0  0  0  0  0  # atno 6907 bound_to 6896
  151.0985  133.5254  159.2618 H   0  0  0  0  0  0  0  0  0  0  0  0  # atno 6908 bound_to 6896
  151.2019  135.0455  159.8930 H   0  0  0  0  0  0  0  0  0  0  0  0  # atno 6909 bound_to 6896
  145.7945  139.2950  143.1191 H   0  0  0  0  0  0  0  0  0  0  0  0  # atno 7974 bound_to 7965
  154.4998  140.0838  156.7773 H   0  0  0  0  0  0  0  0  0  0  0  0  # atno 8008 bound_to 7997
  155.4030  140.3438  155.4240 H   0  0  0  0  0  0  0  0  0  0  0  0  # atno 8009 bound_to 7997
  156.1441  140.1538  156.8862 H   0  0  0  0  0  0  0  0  0  0  0  0  # atno 8010 bound_to 7997
  139.4840  144.4634  151.8674 H   0  0  0  0  0  0  0  0  0  0  0  0  # atno 10167 bound_to 10162
  156.0470  130.5697  150.7918 H   0  0  0  0  0  0  0  0  0  0  0  0  # atno 10718 bound_to 10713
  154.4099  135.6011  153.5947 H   0  0  0  0  0  0  0  0  0  0  0  0  # atno 10763 bound_to 10752
  152.9790  135.5927  154.4082 H   0  0  0  0  0  0  0  0  0  0  0  0  # atno 10764 bound_to 10752
  154.3893  135.2842  155.2143 H   0  0  0  0  0  0  0  0  0  0  0  0  # atno 10765 bound_to 10752
  139.9812  134.6741  156.0259 H   0  0  0  0  0  0  0  0  0  0  0  0  # atno 11005 bound_to 11000
  145.9942  140.8576  143.0051 LP  0  0  0  0  0  0  0  0  0  0  0  0  # atno 17320 bound_to 7965
  144.6777  140.2260  143.7361 LP  0  0  0  0  0  0  0  0  0  0  0  0  # atno 17321 bound_to 7965
  140.4098  144.2384  150.5889 LP  0  0  0  0  0  0  0  0  0  0  0  0  # atno 17342 bound_to 10162
  140.4977  143.2327  151.8725 LP  0  0  0  0  0  0  0  0  0  0  0  0  # atno 17343 bound_to 10162
  157.5356  131.0938  150.9896 LP  0  0  0  0  0  0  0  0  0  0  0  0  # atno 17370 bound_to 10713
  157.0192  130.5667  149.5329 LP  0  0  0  0  0  0  0  0  0  0  0  0  # atno 17371 bound_to 10713
  141.1484  133.6552  156.3937 LP  0  0  0  0  0  0  0  0  0  0  0  0  # atno 17394 bound_to 11000
  140.5092  134.6411  157.5278 LP  0  0  0  0  0  0  0  0  0  0  0  0  # atno 17395 bound_to 11000

$$$$
