AV-unprocessed.smi:2741|AV-procd|sdf|10559|dock6
  -GOLD-   2272015 13D 1   1.00000     0.00000
 Structure written by MMmdl.
 39 40  0  0  0  0  0  0  0  0  1 V2000
  150.5506  140.7753  156.8117 O   0  0  0  0  0  0  0  0  0  0  0  0
  150.7888  139.6095  157.1295 C   0  0  0  0  0  0  0  0  0  0  0  0
  151.2113  139.2619  158.5631 C   0  0  0  0  0  0  0  0  0  0  0  0
  151.9949  140.3328  159.2015 N   0  0  0  0  0  0  0  0  0  0  0  0
  151.3945  141.6041  159.2946 C   0  0  0  0  0  0  0  0  0  0  0  0
  152.0005  142.6603  159.8701 C   0  0  0  0  0  0  0  0  0  0  0  0
  151.3439  144.0315  159.9091 C   0  0  0  0  0  0  0  0  0  0  0  0
  151.8858  144.8522  159.0089 F   0  0  0  0  0  0  0  0  0  0  0  0
  150.0365  143.9429  159.6613 F   0  0  0  0  0  0  0  0  0  0  0  0
  151.5003  144.5751  161.1152 F   0  0  0  0  0  0  0  0  0  0  0  0
  153.3419  142.4391  160.3744 C   0  0  0  0  0  0  0  0  0  0  0  0
  153.9332  141.2316  160.2870 C   0  0  0  0  0  0  0  0  0  0  0  0
  153.2524  140.0866  159.6783 C   0  0  0  0  0  0  0  0  0  0  0  0
  153.7791  138.9760  159.6008 O   0  0  0  0  0  0  0  0  0  0  0  0
  150.7128  138.5824  156.2704 N   0  0  0  0  0  0  0  0  0  0  0  0
  150.2949  138.6831  154.8765 C   0  0  0  0  0  0  0  0  0  0  0  0
  148.8659  139.2452  154.7394 C   0  0  1  0  0  0  0  0  0  0  0  0
  148.8084  140.7831  154.6792 C   0  0  0  0  0  0  0  0  0  0  0  0
  147.7269  141.1441  153.6483 C   0  0  0  0  0  0  0  0  0  0  0  0
  147.0257  139.8264  153.3092 C   0  0  1  0  0  0  0  0  0  0  0  0
  146.4886  139.8253  152.0032 O   0  0  0  0  0  0  0  0  0  0  0  0
  148.1139  138.7710  153.4894 C   0  0  0  0  0  0  0  0  0  0  0  0
  150.3285  139.0391  159.1659 H   0  0  0  0  0  0  0  0  0  0  0  0
  151.7782  138.3307  158.5320 H   0  0  0  0  0  0  0  0  0  0  0  0
  150.4030  141.6667  158.8703 H   0  0  0  0  0  0  0  0  0  0  0  0
  153.8817  143.2536  160.8348 H   0  0  0  0  0  0  0  0  0  0  0  0
  154.9326  141.1022  160.6761 H   0  0  0  0  0  0  0  0  0  0  0  0
  150.9339  137.6590  156.6142 H   0  0  0  0  0  0  0  0  0  0  0  0
  151.0012  139.3016  154.3203 H   0  0  0  0  0  0  0  0  0  0  0  0
  150.3467  137.6855  154.4388 H   0  0  0  0  0  0  0  0  0  0  0  0
  148.2815  138.9344  155.6072 H   0  0  0  0  0  0  0  0  0  0  0  0
  148.5712  141.1938  155.6612 H   0  0  0  0  0  0  0  0  0  0  0  0
  149.7657  141.2085  154.3762 H   0  0  0  0  0  0  0  0  0  0  0  0
  147.0303  141.8964  154.0197 H   0  0  0  0  0  0  0  0  0  0  0  0
  148.2076  141.5551  152.7591 H   0  0  0  0  0  0  0  0  0  0  0  0
  146.2229  139.6451  154.0254 H   0  0  0  0  0  0  0  0  0  0  0  0
  145.6497  140.2598  152.0222 H   0  0  0  0  0  0  0  0  0  0  0  0
  148.7843  138.7690  152.6282 H   0  0  0  0  0  0  0  0  0  0  0  0
  147.7064  137.7653  153.6000 H   0  0  0  0  0  0  0  0  0  0  0  0
  1  2  2  0  0  0  0
  2  3  1  0  0  0  0
  2 15  1  0  0  0  0
  3  4  1  0  0  0  0
  3 23  1  0  0  0  0
  3 24  1  0  0  0  0
  4 13  1  0  0  0  0
  4  5  1  0  0  0  0
  5  6  2  0  0  0  0
  5 25  1  0  0  0  0
  6  7  1  0  0  0  0
  6 11  1  0  0  0  0
  7  8  1  0  0  0  0
  7  9  1  0  0  0  0
  7 10  1  0  0  0  0
 11 12  2  0  0  0  0
 11 26  1  0  0  0  0
 12 13  1  0  0  0  0
 12 27  1  0  0  0  0
 13 14  2  0  0  0  0
 15 16  1  0  0  0  0
 15 28  1  0  0  0  0
 16 17  1  0  0  0  0
 16 29  1  0  0  0  0
 16 30  1  0  0  0  0
 17 22  1  0  0  0  0
 17 18  1  0  0  0  0
 17 31  1  0  0  0  0
 18 19  1  0  0  0  0
 18 32  1  0  0  0  0
 18 33  1  0  0  0  0
 19 20  1  0  0  0  0
 19 34  1  0  0  0  0
 19 35  1  0  0  0  0
 20 21  1  0  0  0  0
 20 22  1  0  0  0  0
 20 36  1  0  0  0  0
 21 37  1  0  0  0  0
 22 38  1  0  0  0  0
 22 39  1  0  0  0  0
M  END
> <s_m_source_file>
AV-unprocessed.smi

> <i_m_source_file_index>
2741

> <i_lp_mmshare_version>
43012

> <i_f3d_flags>
0

> <s_epik_input>
W09IXVtDQEBIXShbQ0gyXTEpW0NIMl1bQ0gyXVtDQEhdMVtDSDJdW05IXUMoPU8pW0NIMl1uMltjSF1jKEMoRikoRilGKVtjSF1bY0hdYzI9Tw==

> <s_epik_cmdline>
J2VwaWtfcHl0aG9uJywgJy1waCcsICc3LjAnLCAnLXRuJywgJzgnLCAnLW1hJywgJzIwMCcsICctbWV0YWxfYmluZGluZycsICctaW1hZScsICc8aW5maWxlLm1hZT4nLCAnLW9tYWUnLCAnPG91dGZpbGUubWFlPic=

> <r_lp_tautomer_probability>
1

> <r_epik_Ionization_Penalty>
1.17551e-06

> <r_epik_Ionization_Penalty_Charging>
1.78841e-08

> <r_epik_Ionization_Penalty_Neutral>
1.15762e-06

> <r_epik_State_Penalty>
-0

> <r_epik_Charging_Adjusted_Penalty>
1.78841e-08

> <i_epik_Tot_Q>
0

> <i_epik_Tot_abs_Q>
0

> <r_epik_Metal_State_Penalty>
-0

> <b_epik_Metal_Only>
0

> <s_lp_Force_Field>
OPLS_2005

> <r_lp_Energy>
32.8711

> <b_lp_Chiralities_Consistent>
1

> <s_lp_Variant>
AV-unprocessed.smi:2741-2

> <Gold.Version>
5.8.1

> <Gold.Id.Protein>
6NUR|6NUR_protein|mol2

> <Gold.PLP.Fitness>
47.2394

> <Gold.PLP.PLP>
-47.4737

> <Gold.PLP.part.hbond>
-1.4654

> <Gold.PLP.part.metal>
0.0000

> <Gold.PLP.part.buried>
-5.0128

> <Gold.PLP.part.nonpolar>
-41.6993

> <Gold.PLP.part.repulsive>
0.0522

> <Gold.PLP.ligand.clash>
0.7528

> <Gold.PLP.ligand.torsion>
1.2506

> <Gold.PLP.Chemscore.Hbond>
0.9913

> <Gold.PLP.Chemscore.CHOScore>
0.0000

> <Gold.PLP.Chemscore.Metal>
0.0000

> <Gold.Chemscore.Hbonds>
donor molecule, donor type, donor heavy atom, donor atom, acceptor molecule, acceptor atom, score
      L1  H    21    37       P1 10175  1.00

> <Gold.PLP.Chemscore.Internal.Correction>
0.0460

> <Gold.Rescore>
     Score         DG    S(hbond)    S(metal)    S(lipo)     H(rot)  DE(clash)    DE(int)     intcor
     11.01     -15.73       1.72        0.00      92.87       2.48       0.52       4.20       ----

> <Gold.Chemscore.Fitness>
11.0057

> <Gold.Chemscore.DG>
-15.7295

> <Gold.Chemscore.ZeroCoef>
-5.4800

> <Gold.Chemscore.Hbond>
1.7170

> <Gold.Chemscore.Metal>
0.0000

> <Gold.Chemscore.Lipo>
92.8664

> <Gold.Chemscore.Internal_Hbond>
0.0000

> <Gold.Chemscore.DEClash>
0.5247

> <Gold.Chemscore.DEInternal>
4.1991

> <Gold.Chemscore.Rot>
2.4807

> <Gold.Chemscore.Internal.Correction>
   9.000000E+99

> <Gold.Chemscore.Hbonds>
donor molecule, donor type, donor heavy atom, donor atom, acceptor molecule, acceptor atom, score
      L1  H    21    37       P1 10175  0.33

> <Gold.Chemscore.Hbond.Weighted>
-5.7348

> <Gold.Chemscore.Metal.Weighted>
-0.0000

> <Gold.Chemscore.Lipo.Weighted>
-10.8654

> <Gold.Chemscore.Internal_Hbond.Weighted>
0.0000

> <Gold.Chemscore.DEClash.Weighted>
0.5247

> <Gold.Chemscore.DEInternal.Weighted>
4.1991

> <Gold.Chemscore.Rot.Weighted>
6.3507

> <Gold.Chemscore.Internal.Correction.Weighted>
   9.000000E+99

> <Gold.Protein.RotatedTorsions>
[ 6907 6896 6895 6894 ] final  -77.45 input  -60.11 | X-H torsion
[ 7974 7965 7964 7962 ] final  -83.74 input  175.53 | X-H torsion
[ 8008 7997 7996 7995 ] final  120.55 input   59.86 | X-H torsion
[ 10167 10162 10161 10158 ] final    8.03 input  -65.29 | X-H torsion
[ 10718 10713 10712 10709 ] final   53.86 input   66.30 | X-H torsion
[ 10763 10752 10751 10750 ] final  -67.34 input  -60.55 | X-H torsion
[ 11005 11000 10999 10996 ] final   53.88 input  -57.11 | X-H torsion

> <Gold.Protein.ActiveResidues>
 VAL166  LYS551  ARG553  GLY616  TRP617  ASP618  TYR619  PRO620  LYS621  CYS622 
 ASP623  PHE694  ASN695  SER759  ASP760  ASP761  ALA762  ILE779  LEU786  VAL792 
 PHE793  MET794  SER795  GLU796  ALA797  LYS798  CYS799  TRP800  GLU811  SER814 

> <Gold.Protein.RotatedAtoms>
  150.6998  134.4420  159.5296 H   0  0  0  0  0  0  0  0  0  0  0  0  # atno 6907 bound_to 6896
  152.2128  134.8483  160.0504 H   0  0  0  0  0  0  0  0  0  0  0  0  # atno 6908 bound_to 6896
  151.9362  133.3590  159.3985 H   0  0  0  0  0  0  0  0  0  0  0  0  # atno 6909 bound_to 6896
  145.5159  140.9536  143.1682 H   0  0  0  0  0  0  0  0  0  0  0  0  # atno 7974 bound_to 7965
  156.2647  140.2828  156.1167 H   0  0  0  0  0  0  0  0  0  0  0  0  # atno 8008 bound_to 7997
  155.1199  140.0392  157.2765 H   0  0  0  0  0  0  0  0  0  0  0  0  # atno 8009 bound_to 7997
  154.6678  140.2581  155.7045 H   0  0  0  0  0  0  0  0  0  0  0  0  # atno 8010 bound_to 7997
  140.6338  143.7933  150.7331 H   0  0  0  0  0  0  0  0  0  0  0  0  # atno 10167 bound_to 10162
  157.5205  130.8561  149.8552 H   0  0  0  0  0  0  0  0  0  0  0  0  # atno 10718 bound_to 10713
  154.3730  135.6091  153.5750 H   0  0  0  0  0  0  0  0  0  0  0  0  # atno 10763 bound_to 10752
  152.9790  135.5842  154.4499 H   0  0  0  0  0  0  0  0  0  0  0  0  # atno 10764 bound_to 10752
  154.4256  135.2847  155.1924 H   0  0  0  0  0  0  0  0  0  0  0  0  # atno 10765 bound_to 10752
  140.0731  134.5442  155.9025 H   0  0  0  0  0  0  0  0  0  0  0  0  # atno 11005 bound_to 11000
  144.7702  139.6752  143.7198 LP  0  0  0  0  0  0  0  0  0  0  0  0  # atno 17320 bound_to 7965
  146.2137  139.5511  142.9664 LP  0  0  0  0  0  0  0  0  0  0  0  0  # atno 17321 bound_to 7965
  140.1550  143.4324  152.2105 LP  0  0  0  0  0  0  0  0  0  0  0  0  # atno 17342 bound_to 10162
  139.5550  144.7366  151.4322 LP  0  0  0  0  0  0  0  0  0  0  0  0  # atno 17343 bound_to 10162
  156.0350  130.3754  150.1585 LP  0  0  0  0  0  0  0  0  0  0  0  0  # atno 17370 bound_to 10713
  156.9773  130.9853  151.3445 LP  0  0  0  0  0  0  0  0  0  0  0  0  # atno 17371 bound_to 10713
  141.2019  133.6622  156.5978 LP  0  0  0  0  0  0  0  0  0  0  0  0  # atno 17394 bound_to 11000
  140.3597  134.7698  157.4525 LP  0  0  0  0  0  0  0  0  0  0  0  0  # atno 17395 bound_to 11000

$$$$
