AV-unprocessed.smi:1484|AV-procd|sdf|5999|dock10
  -GOLD-   22720 6 93D 1   1.00000     0.00000
 Structure written by MMmdl.
 38 39  0  0  0  0  0  0  0  0  1 V2000
  152.7957  142.3501  161.4254 C   0  0  0  0  0  0  0  0  0  0  0  0
  152.6312  143.3232  160.2493 C   0  0  2  0  0  0  0  0  0  0  0  0
  152.0330  144.6666  160.7087 C   0  0  0  0  0  0  0  0  0  0  0  0
  151.8679  145.6405  159.5317 C   0  0  0  0  0  0  0  0  0  0  0  0
  151.0184  145.0226  158.4105 C   0  0  0  0  0  0  0  0  0  0  0  0
  151.6062  143.6774  157.9387 C   0  0  2  0  0  0  0  0  0  0  0  0
  150.7492  143.0669  156.9269 N   0  0  0  0  0  0  0  0  0  0  0  0
  150.8500  141.8048  156.4829 C   0  0  0  0  0  0  0  0  0  0  0  0
  151.7081  141.0156  156.8815 O   0  0  0  0  0  0  0  0  0  0  0  0
  149.8340  141.3883  155.4090 C   0  0  0  0  0  0  0  0  0  0  0  0
  149.8192  139.9418  155.1475 N   0  0  0  0  0  0  0  0  0  0  0  0
  151.0559  139.4142  154.8083 N   0  0  0  0  0  0  0  0  0  0  0  0
  151.1751  138.1522  154.5692 C   0  0  0  0  0  0  0  0  0  0  0  0
  152.4185  137.6709  154.2398 O   0  0  0  0  0  0  0  0  0  0  0  0
  150.0348  137.2654  154.6436 C   0  0  0  0  0  0  0  0  0  0  0  0
  148.8330  137.7894  154.9695 C   0  0  0  0  0  0  0  0  0  0  0  0
  148.6627  139.2168  155.2468 C   0  0  0  0  0  0  0  0  0  0  0  0
  147.5797  139.7210  155.5433 O   0  0  0  0  0  0  0  0  0  0  0  0
  151.7747  142.7087  159.1248 C   0  0  0  0  0  0  0  0  0  0  0  0
  152.7669  138.2829  153.6101 H   0  0  0  0  0  0  0  0  0  0  0  0
  151.8335  142.1085  161.8782 H   0  0  0  0  0  0  0  0  0  0  0  0
  153.4315  142.7766  162.2016 H   0  0  0  0  0  0  0  0  0  0  0  0
  153.2549  141.4160  161.1007 H   0  0  0  0  0  0  0  0  0  0  0  0
  153.6255  143.5188  159.8448 H   0  0  0  0  0  0  0  0  0  0  0  0
  151.0633  144.4979  161.1793 H   0  0  0  0  0  0  0  0  0  0  0  0
  152.6703  145.1189  161.4692 H   0  0  0  0  0  0  0  0  0  0  0  0
  151.4087  146.5671  159.8774 H   0  0  0  0  0  0  0  0  0  0  0  0
  152.8494  145.9098  159.1395 H   0  0  0  0  0  0  0  0  0  0  0  0
  149.9983  144.8760  158.7683 H   0  0  0  0  0  0  0  0  0  0  0  0
  150.9552  145.7212  157.5752 H   0  0  0  0  0  0  0  0  0  0  0  0
  152.5928  143.8555  157.5060 H   0  0  0  0  0  0  0  0  0  0  0  0
  150.0192  143.6472  156.5395 H   0  0  0  0  0  0  0  0  0  0  0  0
  148.8366  141.7229  155.7013 H   0  0  0  0  0  0  0  0  0  0  0  0
  150.0685  141.9345  154.4935 H   0  0  0  0  0  0  0  0  0  0  0  0
  150.1500  136.2105  154.4415 H   0  0  0  0  0  0  0  0  0  0  0  0
  147.9730  137.1388  155.0288 H   0  0  0  0  0  0  0  0  0  0  0  0
  152.2331  141.7814  158.7783 H   0  0  0  0  0  0  0  0  0  0  0  0
  150.7943  142.4383  159.5207 H   0  0  0  0  0  0  0  0  0  0  0  0
  1  2  1  0  0  0  0
  1 21  1  0  0  0  0
  1 22  1  0  0  0  0
  1 23  1  0  0  0  0
  2 19  1  0  0  0  0
  2  3  1  0  0  0  0
  2 24  1  0  0  0  0
  3  4  1  0  0  0  0
  3 25  1  0  0  0  0
  3 26  1  0  0  0  0
  4  5  1  0  0  0  0
  4 27  1  0  0  0  0
  4 28  1  0  0  0  0
  5  6  1  0  0  0  0
  5 29  1  0  0  0  0
  5 30  1  0  0  0  0
  6  7  1  0  0  0  0
  6 19  1  0  0  0  0
  6 31  1  0  0  0  0
  7  8  1  0  0  0  0
  7 32  1  0  0  0  0
  8  9  2  0  0  0  0
  8 10  1  0  0  0  0
 10 33  1  0  0  0  0
 10 34  1  0  0  0  0
 10 11  1  0  0  0  0
 11 12  1  0  0  0  0
 11 17  1  0  0  0  0
 12 13  2  0  0  0  0
 13 14  1  0  0  0  0
 13 15  1  0  0  0  0
 14 20  1  0  0  0  0
 15 35  1  0  0  0  0
 15 16  2  0  0  0  0
 16 36  1  0  0  0  0
 16 17  1  0  0  0  0
 17 18  2  0  0  0  0
 19 37  1  0  0  0  0
 19 38  1  0  0  0  0
M  END
> <s_m_source_file>
AV-unprocessed.smi

> <i_m_source_file_index>
1484

> <i_lp_mmshare_version>
43012

> <i_f3d_flags>
0

> <s_epik_input>
W0NIM11bQ0BASF0xW0NIMl1bQ0gyXVtDSDJdW0NASF0oW0NIMl0xKVtOSF1DKD1PKVtDSDJdbjJbbkhdYyg9TylbY0hdW2NIXWMyPU8=

> <s_epik_cmdline>
J2VwaWtfcHl0aG9uJywgJy1waCcsICc3LjAnLCAnLXRuJywgJzgnLCAnLW1hJywgJzIwMCcsICctbWV0YWxfYmluZGluZycsICctaW1hZScsICc8aW5maWxlLm1hZT4nLCAnLW9tYWUnLCAnPG91dGZpbGUubWFlPic=

> <r_lp_tautomer_probability>
0.9996

> <r_epik_Ionization_Penalty>
2.10343

> <r_epik_Ionization_Penalty_Charging>
3.97871e-08

> <r_epik_Ionization_Penalty_Neutral>
2.10343

> <r_epik_State_Penalty>
1.67966

> <r_epik_Charging_Adjusted_Penalty>
1.67966

> <i_epik_Tot_Q>
0

> <i_epik_Tot_abs_Q>
0

> <r_epik_Metal_State_Penalty>
1.67966

> <b_epik_Metal_Only>
0

> <s_lp_Force_Field>
OPLS_2005

> <r_lp_Energy>
18.4171

> <b_lp_Chiralities_Consistent>
1

> <s_lp_Variant>
AV-unprocessed.smi:1484-7

> <Gold.Version>
5.8.1

> <Gold.Id.Protein>
6NUR|6NUR_protein|mol2

> <Gold.PLP.Fitness>
49.0581

> <Gold.PLP.PLP>
-41.8056

> <Gold.PLP.part.hbond>
-3.0000

> <Gold.PLP.part.metal>
0.0000

> <Gold.PLP.part.buried>
-4.2588

> <Gold.PLP.part.nonpolar>
-35.0995

> <Gold.PLP.part.repulsive>
0.1166

> <Gold.PLP.ligand.clash>
0.0000

> <Gold.PLP.ligand.torsion>
0.2983

> <Gold.PLP.Chemscore.Hbond>
2.6149

> <Gold.PLP.Chemscore.CHOScore>
0.0000

> <Gold.PLP.Chemscore.Metal>
0.0000

> <Gold.Chemscore.Hbonds>
donor molecule, donor type, donor heavy atom, donor atom, acceptor molecule, acceptor atom, score
      L1  H     7    32       P1  8028  1.00
      P1  H  7989  7998       L1    12  0.88
      P1  H 10752 10765       L1    14  0.64

> <Gold.PLP.Chemscore.Internal.Correction>
0.0044

> <Gold.Rescore>
     Score         DG    S(hbond)    S(metal)    S(lipo)     H(rot)  DE(clash)    DE(int)     intcor
     14.66     -17.66       1.95        0.00      97.56       2.24       0.19       2.82       ----

> <Gold.Chemscore.Fitness>
14.6603

> <Gold.Chemscore.DG>
-17.6619

> <Gold.Chemscore.ZeroCoef>
-5.4800

> <Gold.Chemscore.Hbond>
1.9482

> <Gold.Chemscore.Metal>
0.0000

> <Gold.Chemscore.Lipo>
97.5611

> <Gold.Chemscore.Internal_Hbond>
0.0000

> <Gold.Chemscore.DEClash>
0.1852

> <Gold.Chemscore.DEInternal>
2.8164

> <Gold.Chemscore.Rot>
2.2421

> <Gold.Chemscore.Internal.Correction>
   9.000000E+99

> <Gold.Chemscore.Hbonds>
donor molecule, donor type, donor heavy atom, donor atom, acceptor molecule, acceptor atom, score
      L1  H     7    32       P1  8028  1.00
      P1  H  7989  7998       L1    12  0.16
      P1  H 10752 10765       L1    14  0.61

> <Gold.Chemscore.Hbond.Weighted>
-6.5070

> <Gold.Chemscore.Metal.Weighted>
-0.0000

> <Gold.Chemscore.Lipo.Weighted>
-11.4146

> <Gold.Chemscore.Internal_Hbond.Weighted>
0.0000

> <Gold.Chemscore.DEClash.Weighted>
0.1852

> <Gold.Chemscore.DEInternal.Weighted>
2.8164

> <Gold.Chemscore.Rot.Weighted>
5.7398

> <Gold.Chemscore.Internal.Correction.Weighted>
   9.000000E+99

> <Gold.Protein.RotatedTorsions>
[ 6907 6896 6895 6894 ] final -104.85 input  -60.11 | X-H torsion
[ 7974 7965 7964 7962 ] final  123.66 input  175.53 | X-H torsion
[ 8008 7997 7996 7995 ] final   92.42 input   59.86 | X-H torsion
[ 10167 10162 10161 10158 ] final   39.67 input  -65.29 | X-H torsion
[ 10718 10713 10712 10709 ] final -168.06 input   66.30 | X-H torsion
[ 10763 10752 10751 10750 ] final  155.63 input  -60.55 | X-H torsion
[ 11005 11000 10999 10996 ] final  130.40 input  -57.11 | X-H torsion

> <Gold.Protein.ActiveResidues>
 VAL166  LYS551  ARG553  GLY616  TRP617  ASP618  TYR619  PRO620  LYS621  CYS622 
 ASP623  PHE694  ASN695  SER759  ASP760  ASP761  ALA762  ILE779  LEU786  VAL792 
 PHE793  MET794  SER795  GLU796  ALA797  LYS798  CYS799  TRP800  GLU811  SER814 

> <Gold.Protein.RotatedAtoms>
  150.7307  134.0215  159.3702 H   0  0  0  0  0  0  0  0  0  0  0  0  # atno 6907 bound_to 6896
  151.8180  135.0658  160.0431 H   0  0  0  0  0  0  0  0  0  0  0  0  # atno 6908 bound_to 6896
  152.3024  133.5633  159.5663 H   0  0  0  0  0  0  0  0  0  0  0  0  # atno 6909 bound_to 6896
  145.0933  139.3571  143.4849 H   0  0  0  0  0  0  0  0  0  0  0  0  # atno 7974 bound_to 7965
  156.0352  140.3325  155.7183 H   0  0  0  0  0  0  0  0  0  0  0  0  # atno 8008 bound_to 7997
  155.5826  140.0638  157.2797 H   0  0  0  0  0  0  0  0  0  0  0  0  # atno 8009 bound_to 7997
  154.4369  140.1841  156.0980 H   0  0  0  0  0  0  0  0  0  0  0  0  # atno 8010 bound_to 7997
  140.3817  144.1971  150.6130 H   0  0  0  0  0  0  0  0  0  0  0  0  # atno 10167 bound_to 10162
  156.6914  130.9161  151.3069 H   0  0  0  0  0  0  0  0  0  0  0  0  # atno 10718 bound_to 10713
  154.1714  135.2804  155.3080 H   0  0  0  0  0  0  0  0  0  0  0  0  # atno 10763 bound_to 10752
  154.6072  135.5510  153.7438 H   0  0  0  0  0  0  0  0  0  0  0  0  # atno 10764 bound_to 10752
  153.0163  135.6406  154.1855 H   0  0  0  0  0  0  0  0  0  0  0  0  # atno 10765 bound_to 10752
  139.9670  134.9588  156.9288 H   0  0  0  0  0  0  0  0  0  0  0  0  # atno 11005 bound_to 11000
  146.3531  140.0777  142.8619 LP  0  0  0  0  0  0  0  0  0  0  0  0  # atno 17320 bound_to 7965
  145.1040  140.9364  143.4695 LP  0  0  0  0  0  0  0  0  0  0  0  0  # atno 17321 bound_to 7965
  140.4931  143.2341  151.8790 LP  0  0  0  0  0  0  0  0  0  0  0  0  # atno 17342 bound_to 10162
  139.4795  144.5144  151.8888 LP  0  0  0  0  0  0  0  0  0  0  0  0  # atno 17343 bound_to 10162
  157.7007  130.9330  150.0777 LP  0  0  0  0  0  0  0  0  0  0  0  0  # atno 17370 bound_to 10713
  156.1794  130.3649  149.9055 LP  0  0  0  0  0  0  0  0  0  0  0  0  # atno 17371 bound_to 10713
  140.5376  134.0752  155.7332 LP  0  0  0  0  0  0  0  0  0  0  0  0  # atno 17394 bound_to 11000
  141.1349  133.9238  157.2455 LP  0  0  0  0  0  0  0  0  0  0  0  0  # atno 17395 bound_to 11000

$$$$
