AV-unprocessed.smi:831|AV-procd|sdf|3874|dock2
  -GOLD-   22720 1323D 1   1.00000     0.00000
 Structure written by MMmdl.
 50 51  0  0  0  0  0  0  0  0  1 V2000
  148.2469  131.9418  153.5262 C   0  0  0  0  0  0  0  0  0  0  0  0
  149.2950  132.8005  154.2481 C   0  0  0  0  0  0  0  0  0  0  0  0
  150.2949  131.9162  155.0097 C   0  0  0  0  0  0  0  0  0  0  0  0
  148.6255  133.8214  155.1817 C   0  0  0  0  0  0  0  0  0  0  0  0
  148.1898  134.9374  154.4132 O   0  0  0  0  0  0  0  0  0  0  0  0
  147.9558  136.1309  155.1540 C   0  0  2  0  0  0  0  0  0  0  0  0
  146.9298  136.9585  154.3666 C   0  0  0  0  0  0  0  0  0  0  0  0
  149.2779  136.9103  155.3169 C   0  0  0  0  0  0  0  0  0  0  0  0
  149.6614  137.2116  156.4458 O   0  0  0  0  0  0  0  0  0  0  0  0
  149.9857  137.2761  154.2355 N   0  0  0  0  0  0  0  0  0  0  0  0
  151.2457  138.0108  154.2091 C   0  0  0  0  0  0  0  0  0  0  0  0
  151.3085  139.1742  155.1884 C   0  0  0  0  0  0  0  0  0  0  0  0
  150.4228  140.2719  155.1264 C   0  0  0  0  0  0  0  0  0  0  0  0
  150.5420  141.3021  156.0781 C   0  0  0  0  0  0  0  0  0  0  0  0
  151.5432  141.2120  157.0738 C   0  0  0  0  0  0  0  0  0  0  0  0
  151.6808  142.2366  158.0350 N   0  0  0  0  0  0  0  0  0  0  0  0
  152.6909  142.0701  159.0783 C   0  0  0  0  0  0  0  0  0  0  0  0
  152.4955  143.1213  160.1840 C   0  0  0  0  0  0  0  0  0  0  0  0
  152.5058  144.4252  159.6127 O   0  0  0  0  0  0  0  0  0  0  0  0
  151.4459  144.6023  158.6790 C   0  0  0  0  0  0  0  0  0  0  0  0
  151.5987  143.6014  157.5207 C   0  0  0  0  0  0  0  0  0  0  0  0
  152.3832  140.1497  157.1390 N   0  0  0  0  0  0  0  0  0  0  0  0
  152.2659  139.1656  156.2228 C   0  0  0  0  0  0  0  0  0  0  0  0
  147.6547  131.3605  154.2337 H   0  0  0  0  0  0  0  0  0  0  0  0
  148.7198  131.2438  152.8349 H   0  0  0  0  0  0  0  0  0  0  0  0
  147.5611  132.5613  152.9476 H   0  0  0  0  0  0  0  0  0  0  0  0
  149.8464  133.3533  153.4864 H   0  0  0  0  0  0  0  0  0  0  0  0
  149.7996  131.3434  155.7943 H   0  0  0  0  0  0  0  0  0  0  0  0
  151.0757  132.5144  155.4800 H   0  0  0  0  0  0  0  0  0  0  0  0
  150.7841  131.2087  154.3400 H   0  0  0  0  0  0  0  0  0  0  0  0
  147.7622  133.3712  155.6742 H   0  0  0  0  0  0  0  0  0  0  0  0
  149.3247  134.1194  155.9639 H   0  0  0  0  0  0  0  0  0  0  0  0
  147.5088  135.8649  156.1110 H   0  0  0  0  0  0  0  0  0  0  0  0
  146.6999  137.8937  154.8782 H   0  0  0  0  0  0  0  0  0  0  0  0
  145.9956  136.4079  154.2530 H   0  0  0  0  0  0  0  0  0  0  0  0
  147.2910  137.2023  153.3666 H   0  0  0  0  0  0  0  0  0  0  0  0
  149.5967  137.0335  153.3361 H   0  0  0  0  0  0  0  0  0  0  0  0
  152.0673  137.3335  154.4455 H   0  0  0  0  0  0  0  0  0  0  0  0
  151.4147  138.3916  153.2006 H   0  0  0  0  0  0  0  0  0  0  0  0
  149.6534  140.3342  154.3712 H   0  0  0  0  0  0  0  0  0  0  0  0
  149.8572  142.1363  156.0430 H   0  0  0  0  0  0  0  0  0  0  0  0
  152.6244  141.0719  159.5130 H   0  0  0  0  0  0  0  0  0  0  0  0
  153.6845  142.1705  158.6394 H   0  0  0  0  0  0  0  0  0  0  0  0
  151.5588  142.9537  160.7183 H   0  0  0  0  0  0  0  0  0  0  0  0
  153.2980  143.0486  160.9181 H   0  0  0  0  0  0  0  0  0  0  0  0
  150.4830  144.4768  159.1769 H   0  0  0  0  0  0  0  0  0  0  0  0
  151.4756  145.6236  158.2987 H   0  0  0  0  0  0  0  0  0  0  0  0
  152.5077  143.8193  156.9583 H   0  0  0  0  0  0  0  0  0  0  0  0
  150.7638  143.7255  156.8328 H   0  0  0  0  0  0  0  0  0  0  0  0
  152.9589  138.3430  156.3210 H   0  0  0  0  0  0  0  0  0  0  0  0
  1  2  1  0  0  0  0
  1 24  1  0  0  0  0
  1 25  1  0  0  0  0
  1 26  1  0  0  0  0
  2  3  1  0  0  0  0
  2  4  1  0  0  0  0
  2 27  1  0  0  0  0
  3 28  1  0  0  0  0
  3 29  1  0  0  0  0
  3 30  1  0  0  0  0
  4  5  1  0  0  0  0
  4 31  1  0  0  0  0
  4 32  1  0  0  0  0
  5  6  1  0  0  0  0
  6  7  1  0  0  0  0
  6  8  1  0  0  0  0
  6 33  1  0  0  0  0
  7 34  1  0  0  0  0
  7 35  1  0  0  0  0
  7 36  1  0  0  0  0
  8  9  2  0  0  0  0
  8 10  1  0  0  0  0
 10 11  1  0  0  0  0
 10 37  1  0  0  0  0
 11 12  1  0  0  0  0
 11 38  1  0  0  0  0
 11 39  1  0  0  0  0
 12 23  1  0  0  0  0
 12 13  2  0  0  0  0
 13 14  1  0  0  0  0
 13 40  1  0  0  0  0
 14 15  2  0  0  0  0
 14 41  1  0  0  0  0
 15 16  1  0  0  0  0
 15 22  1  0  0  0  0
 16 21  1  0  0  0  0
 16 17  1  0  0  0  0
 17 18  1  0  0  0  0
 17 42  1  0  0  0  0
 17 43  1  0  0  0  0
 18 19  1  0  0  0  0
 18 44  1  0  0  0  0
 18 45  1  0  0  0  0
 19 20  1  0  0  0  0
 20 21  1  0  0  0  0
 20 46  1  0  0  0  0
 20 47  1  0  0  0  0
 21 48  1  0  0  0  0
 21 49  1  0  0  0  0
 22 23  2  0  0  0  0
 23 50  1  0  0  0  0
M  END
> <s_m_source_file>
AV-unprocessed.smi

> <i_m_source_file_index>
831

> <i_lp_mmshare_version>
43012

> <i_f3d_flags>
0

> <s_epik_input>
W0NIM11bQ0hdKFtDSDNdKVtDSDJdT1tDQEhdKFtDSDNdKUMoPU8pW05IXVtDSDJdYzFbY0hdW2NIXWMobltjSF0xKU4yW0NIMl1bQ0gyXU9bQ0gyXVtDSDJdMg==

> <s_epik_cmdline>
J2VwaWtfcHl0aG9uJywgJy1waCcsICc3LjAnLCAnLXRuJywgJzgnLCAnLW1hJywgJzIwMCcsICctbWV0YWxfYmluZGluZycsICctaW1hZScsICc8aW5maWxlLm1hZT4nLCAnLW9tYWUnLCAnPG91dGZpbGUubWFlPic=

> <r_lp_tautomer_probability>
1

> <r_epik_Ionization_Penalty>
0.00456501

> <r_epik_Ionization_Penalty_Charging>
0

> <r_epik_Ionization_Penalty_Neutral>
0.00456501

> <r_epik_State_Penalty>
0.00329791

> <r_epik_Charging_Adjusted_Penalty>
0.00329791

> <i_epik_Tot_Q>
0

> <i_epik_Tot_abs_Q>
0

> <r_epik_Metal_State_Penalty>
-0

> <b_epik_Metal_Only>
0

> <s_lp_Force_Field>
OPLS_2005

> <r_lp_Energy>
23.9744

> <b_lp_Chiralities_Consistent>
1

> <s_lp_Variant>
AV-unprocessed.smi:831-1

> <Gold.Version>
5.8.1

> <Gold.Id.Protein>
6NUR|6NUR_protein|mol2

> <Gold.PLP.Fitness>
44.4150

> <Gold.PLP.PLP>
-41.8064

> <Gold.PLP.part.hbond>
-2.3344

> <Gold.PLP.part.metal>
0.0000

> <Gold.PLP.part.buried>
-3.9703

> <Gold.PLP.part.nonpolar>
-35.7449

> <Gold.PLP.part.repulsive>
1.4366

> <Gold.PLP.ligand.clash>
0.0000

> <Gold.PLP.ligand.torsion>
0.9861

> <Gold.PLP.Chemscore.Hbond>
1.3058

> <Gold.PLP.Chemscore.CHOScore>
0.0000

> <Gold.PLP.Chemscore.Metal>
0.0000

> <Gold.Chemscore.Hbonds>
donor molecule, donor type, donor heavy atom, donor atom, acceptor molecule, acceptor atom, score
      L1  H    10    37       P1  7948  1.00
      P1  H  7997  8009       L1    22  0.29

> <Gold.PLP.Chemscore.Internal.Correction>
0.6636

> <Gold.Rescore>
     Score         DG    S(hbond)    S(metal)    S(lipo)     H(rot)  DE(clash)    DE(int)     intcor
     14.35     -16.67       1.27        0.00     101.21       1.92       0.03       2.29       ----

> <Gold.Chemscore.Fitness>
14.3527

> <Gold.Chemscore.DG>
-16.6733

> <Gold.Chemscore.ZeroCoef>
-5.4800

> <Gold.Chemscore.Hbond>
1.2743

> <Gold.Chemscore.Metal>
0.0000

> <Gold.Chemscore.Lipo>
101.2123

> <Gold.Chemscore.Internal_Hbond>
0.0000

> <Gold.Chemscore.DEClash>
0.0308

> <Gold.Chemscore.DEInternal>
2.2898

> <Gold.Chemscore.Rot>
1.9159

> <Gold.Chemscore.Internal.Correction>
   9.000000E+99

> <Gold.Chemscore.Hbonds>
donor molecule, donor type, donor heavy atom, donor atom, acceptor molecule, acceptor atom, score
      L1  H    10    37       P1  7948  0.74
      P1  H  7997  8009       L1    22  0.01

> <Gold.Chemscore.Hbond.Weighted>
-4.2562

> <Gold.Chemscore.Metal.Weighted>
-0.0000

> <Gold.Chemscore.Lipo.Weighted>
-11.8418

> <Gold.Chemscore.Internal_Hbond.Weighted>
0.0000

> <Gold.Chemscore.DEClash.Weighted>
0.0308

> <Gold.Chemscore.DEInternal.Weighted>
2.2898

> <Gold.Chemscore.Rot.Weighted>
4.9047

> <Gold.Chemscore.Internal.Correction.Weighted>
   9.000000E+99

> <Gold.Protein.RotatedTorsions>
[ 6907 6896 6895 6894 ] final   10.69 input  -60.11 | X-H torsion
[ 7974 7965 7964 7962 ] final  171.89 input  175.53 | X-H torsion
[ 8008 7997 7996 7995 ] final  159.77 input   59.86 | X-H torsion
[ 10167 10162 10161 10158 ] final -178.56 input  -65.29 | X-H torsion
[ 10718 10713 10712 10709 ] final  -61.71 input   66.30 | X-H torsion
[ 10763 10752 10751 10750 ] final  138.21 input  -60.55 | X-H torsion
[ 11005 11000 10999 10996 ] final  173.18 input  -57.11 | X-H torsion

> <Gold.Protein.ActiveResidues>
 VAL166  LYS551  ARG553  GLY616  TRP617  ASP618  TYR619  PRO620  LYS621  CYS622 
 ASP623  PHE694  ASN695  SER759  ASP760  ASP761  ALA762  ILE779  LEU786  VAL792 
 PHE793  MET794  SER795  GLU796  ALA797  LYS798  CYS799  TRP800  GLU811  SER814 

> <Gold.Protein.RotatedAtoms>
  151.7423  135.0851  160.0317 H   0  0  0  0  0  0  0  0  0  0  0  0  # atno 6907 bound_to 6896
  152.3471  133.6131  159.5926 H   0  0  0  0  0  0  0  0  0  0  0  0  # atno 6908 bound_to 6896
  150.7516  133.9548  159.3538 H   0  0  0  0  0  0  0  0  0  0  0  0  # atno 6909 bound_to 6896
  144.7282  139.9417  143.6429 H   0  0  0  0  0  0  0  0  0  0  0  0  # atno 7974 bound_to 7965
  156.2216  140.1822  156.7462 H   0  0  0  0  0  0  0  0  0  0  0  0  # atno 8008 bound_to 7997
  154.5875  140.0656  156.9220 H   0  0  0  0  0  0  0  0  0  0  0  0  # atno 8009 bound_to 7997
  155.2394  140.3321  155.4296 H   0  0  0  0  0  0  0  0  0  0  0  0  # atno 8010 bound_to 7997
  139.5427  144.2320  152.0927 H   0  0  0  0  0  0  0  0  0  0  0  0  # atno 10167 bound_to 10162
  156.0903  130.4201  150.1032 H   0  0  0  0  0  0  0  0  0  0  0  0  # atno 10718 bound_to 10713
  153.8858  135.3039  155.3446 H   0  0  0  0  0  0  0  0  0  0  0  0  # atno 10763 bound_to 10752
  154.7740  135.4871  153.9709 H   0  0  0  0  0  0  0  0  0  0  0  0  # atno 10764 bound_to 10752
  153.1325  135.6807  153.9252 H   0  0  0  0  0  0  0  0  0  0  0  0  # atno 10765 bound_to 10752
  140.3377  134.7303  157.4180 H   0  0  0  0  0  0  0  0  0  0  0  0  # atno 11005 bound_to 11000
  146.0779  139.3767  143.0482 LP  0  0  0  0  0  0  0  0  0  0  0  0  # atno 17320 bound_to 7965
  145.7880  140.9827  143.1064 LP  0  0  0  0  0  0  0  0  0  0  0  0  # atno 17321 bound_to 7965
  140.1801  144.4853  150.6533 LP  0  0  0  0  0  0  0  0  0  0  0  0  # atno 17342 bound_to 10162
  140.6663  143.2269  151.5735 LP  0  0  0  0  0  0  0  0  0  0  0  0  # atno 17343 bound_to 10162
  156.9043  130.9631  151.3572 LP  0  0  0  0  0  0  0  0  0  0  0  0  # atno 17370 bound_to 10713
  157.6051  130.8541  149.8862 LP  0  0  0  0  0  0  0  0  0  0  0  0  # atno 17371 bound_to 10713
  140.0807  134.5735  155.8544 LP  0  0  0  0  0  0  0  0  0  0  0  0  # atno 17394 bound_to 11000
  141.2047  133.6641  156.6134 LP  0  0  0  0  0  0  0  0  0  0  0  0  # atno 17395 bound_to 11000

$$$$
