AV-unprocessed.smi:1033|AV-procd|sdf|4512|dock2
  -GOLD-   22720 2523D 1   1.00000     0.00000
 Structure written by MMmdl.
 57 59  0  0  0  0  0  0  0  0  3 V2000
  152.2882  143.4781  162.0885 C   0  0  0  0  0  0  0  0  0  0  0  0
  151.9431  142.9580  160.7042 C   0  0  0  0  0  0  0  0  0  0  0  0
  152.3117  141.6396  160.3546 C   0  0  0  0  0  0  0  0  0  0  0  0
  152.0073  141.1167  159.0793 C   0  0  0  0  0  0  0  0  0  0  0  0
  152.2694  139.8729  158.5323 N   0  0  0  0  0  0  0  0  0  0  0  0
  151.7408  139.9961  157.3187 C   0  0  0  0  0  0  0  0  0  0  0  0
  151.1810  141.1814  157.0076 N   0  0  0  0  0  0  0  0  0  0  0  0
  150.5593  141.5521  155.7492 C   0  0  0  0  0  0  0  0  0  0  0  0
  149.6295  140.4516  155.1983 C   0  0  2  0  0  0  0  0  0  0  0  0
  150.4385  139.4658  154.5896 O   0  0  0  0  0  0  0  0  0  0  0  0
  148.6096  140.9701  154.1591 C   0  0  0  0  0  0  0  0  0  0  0  0
  147.6583  141.9603  154.7271 N   0  3  2  0  0  0  0  0  0  0  0  0
  147.3855  141.7138  156.1650 C   0  0  0  0  0  0  0  0  0  0  0  0
  146.4810  142.8121  156.7550 C   0  0  0  0  0  0  0  0  0  0  0  0
  145.2085  142.9424  156.0021 N   0  3  2  0  0  0  0  0  0  0  0  0
  144.2261  141.8660  156.3032 C   0  0  0  0  0  0  0  0  0  0  0  0
  144.0924  141.5869  157.8139 C   0  0  1  0  0  0  0  0  0  0  0  0
  143.9440  142.8831  158.6210 C   0  0  0  0  0  0  0  0  0  0  0  0
  142.9418  140.7997  158.0472 O   0  0  0  0  0  0  0  0  0  0  0  0
  145.4665  143.1600  154.5539 C   0  0  0  0  0  0  0  0  0  0  0  0
  146.3950  142.0833  153.9532 C   0  0  0  0  0  0  0  0  0  0  0  0
  151.3222  141.9571  158.1534 C   0  0  0  0  0  0  0  0  0  0  0  0
  150.9478  143.2700  158.4903 C   0  0  0  0  0  0  0  0  0  0  0  0
  151.2579  143.7757  159.7700 C   0  0  0  0  0  0  0  0  0  0  0  0
  150.8475  145.1935  160.1264 C   0  0  0  0  0  0  0  0  0  0  0  0
  152.8162  142.7265  162.6761 H   0  0  0  0  0  0  0  0  0  0  0  0
  151.3828  143.7506  162.6312 H   0  0  0  0  0  0  0  0  0  0  0  0
  152.9285  144.3576  162.0182 H   0  0  0  0  0  0  0  0  0  0  0  0
  152.8319  141.0158  161.0670 H   0  0  0  0  0  0  0  0  0  0  0  0
  151.7725  139.1804  156.6110 H   0  0  0  0  0  0  0  0  0  0  0  0
  150.0018  142.4779  155.9002 H   0  0  0  0  0  0  0  0  0  0  0  0
  151.3502  141.7774  155.0322 H   0  0  0  0  0  0  0  0  0  0  0  0
  149.1134  139.9887  156.0379 H   0  0  0  0  0  0  0  0  0  0  0  0
  150.1102  139.3013  153.7179 H   0  0  0  0  0  0  0  0  0  0  0  0
  149.1136  141.4231  153.3043 H   0  0  0  0  0  0  0  0  0  0  0  0
  148.0575  140.1144  153.7667 H   0  0  0  0  0  0  0  0  0  0  0  0
  146.9242  140.7326  156.2879 H   0  0  0  0  0  0  0  0  0  0  0  0
  148.3252  141.6910  156.7179 H   0  0  0  0  0  0  0  0  0  0  0  0
  146.2824  142.6230  157.8108 H   0  0  0  0  0  0  0  0  0  0  0  0
  147.0023  143.7694  156.7137 H   0  0  0  0  0  0  0  0  0  0  0  0
  143.2551  142.1241  155.8803 H   0  0  0  0  0  0  0  0  0  0  0  0
  144.5273  140.9406  155.8095 H   0  0  0  0  0  0  0  0  0  0  0  0
  144.9608  141.0480  158.1910 H   0  0  0  0  0  0  0  0  0  0  0  0
  144.8182  143.5226  158.4980 H   0  0  0  0  0  0  0  0  0  0  0  0
  143.8384  142.6738  159.6861 H   0  0  0  0  0  0  0  0  0  0  0  0
  143.0683  143.4519  158.3063 H   0  0  0  0  0  0  0  0  0  0  0  0
  142.2346  141.1141  157.5054 H   0  0  0  0  0  0  0  0  0  0  0  0
  144.5335  143.2097  153.9938 H   0  0  0  0  0  0  0  0  0  0  0  0
  145.9358  144.1383  154.4401 H   0  0  0  0  0  0  0  0  0  0  0  0
  146.6099  142.3493  152.9190 H   0  0  0  0  0  0  0  0  0  0  0  0
  145.8903  141.1170  153.9224 H   0  0  0  0  0  0  0  0  0  0  0  0
  150.4227  143.8824  157.7725 H   0  0  0  0  0  0  0  0  0  0  0  0
  150.3271  145.6775  159.2994 H   0  0  0  0  0  0  0  0  0  0  0  0
  151.7235  145.7951  160.3690 H   0  0  0  0  0  0  0  0  0  0  0  0
  150.1785  145.1927  160.9871 H   0  0  0  0  0  0  0  0  0  0  0  0
  144.7767  143.7877  156.3485 H   0  0  0  0  0  0  0  0  0  0  0  0
  148.1263  142.8546  154.6778 H   0  0  0  0  0  0  0  0  0  0  0  0
  1  2  1  0  0  0  0
  1 26  1  0  0  0  0
  1 27  1  0  0  0  0
  1 28  1  0  0  0  0
  2 24  1  0  0  0  0
  2  3  2  0  0  0  0
  3  4  1  0  0  0  0
  3 29  1  0  0  0  0
  4 22  2  0  0  0  0
  4  5  1  0  0  0  0
  5  6  2  0  0  0  0
  6  7  1  0  0  0  0
  6 30  1  0  0  0  0
  7  8  1  0  0  0  0
  7 22  1  0  0  0  0
  8  9  1  0  0  0  0
  8 31  1  0  0  0  0
  8 32  1  0  0  0  0
  9 10  1  0  0  0  0
  9 11  1  0  0  0  0
  9 33  1  0  0  0  0
 10 34  1  0  0  0  0
 11 12  1  0  0  0  0
 11 35  1  0  0  0  0
 11 36  1  0  0  0  0
 12 21  1  0  0  0  0
 12 13  1  0  0  0  0
 12 57  1  0  0  0  0
 13 14  1  0  0  0  0
 13 37  1  0  0  0  0
 13 38  1  0  0  0  0
 14 15  1  0  0  0  0
 14 39  1  0  0  0  0
 14 40  1  0  0  0  0
 15 16  1  0  0  0  0
 15 20  1  0  0  0  0
 15 56  1  0  0  0  0
 16 17  1  0  0  0  0
 16 41  1  0  0  0  0
 16 42  1  0  0  0  0
 17 18  1  0  0  0  0
 17 19  1  0  0  0  0
 17 43  1  0  0  0  0
 18 44  1  0  0  0  0
 18 45  1  0  0  0  0
 18 46  1  0  0  0  0
 19 47  1  0  0  0  0
 20 21  1  0  0  0  0
 20 48  1  0  0  0  0
 20 49  1  0  0  0  0
 21 50  1  0  0  0  0
 21 51  1  0  0  0  0
 22 23  1  0  0  0  0
 23 24  2  0  0  0  0
 23 52  1  0  0  0  0
 24 25  1  0  0  0  0
 25 53  1  0  0  0  0
 25 54  1  0  0  0  0
 25 55  1  0  0  0  0
M  CHG  1  12   1
M  CHG  1  15   1
M  END
> <s_m_source_file>
AV-unprocessed.smi

> <i_m_source_file_index>
1033

> <i_lp_mmshare_version>
43012

> <i_f3d_flags>
0

> <s_epik_input>
W0NIM11jKFtjSF0xKWMoW0NIM10pW2NIXWMoYzEyKW4oW2NIXW4yKVtDSDJdW0NASF0oW09IXSlbQ0gyXU4zW0NIMl1bQ0gyXU4oW0NIMl1bQ0gyXTMpW0NIMl1bQ0BIXShbQ0gzXSlbT0hd

> <s_epik_cmdline>
J2VwaWtfcHl0aG9uJywgJy1waCcsICc3LjAnLCAnLXRuJywgJzgnLCAnLW1hJywgJzIwMCcsICctbWV0YWxfYmluZGluZycsICctaW1hZScsICc8aW5maWxlLm1hZT4nLCAnLW9tYWUnLCAnPG91dGZpbGUubWFlPic=

> <r_epik_Ionization_Penalty>
3.16016

> <r_epik_Ionization_Penalty_Charging>
3.07679

> <r_epik_Ionization_Penalty_Neutral>
0.083365

> <r_epik_State_Penalty>
2.09701

> <r_epik_Charging_Adjusted_Penalty>
5.1738

> <i_epik_Tot_Q>
2

> <i_epik_Tot_abs_Q>
2

> <r_epik_Metal_State_Penalty>
2.02534

> <b_epik_Metal_Only>
0

> <s_lp_Force_Field>
OPLS_2005

> <r_lp_Energy>
31.6916

> <b_lp_Chiralities_Consistent>
1

> <s_lp_Variant>
AV-unprocessed.smi:1033-23

> <Gold.Version>
5.8.1

> <Gold.Id.Protein>
6NUR|6NUR_protein|mol2

> <Gold.PLP.Fitness>
60.5668

> <Gold.PLP.PLP>
-47.2582

> <Gold.PLP.part.hbond>
-4.0000

> <Gold.PLP.part.metal>
0.0000

> <Gold.PLP.part.buried>
-7.0450

> <Gold.PLP.part.nonpolar>
-35.7141

> <Gold.PLP.part.repulsive>
0.0853

> <Gold.PLP.ligand.clash>
0.0000

> <Gold.PLP.ligand.torsion>
0.8116

> <Gold.PLP.Chemscore.Hbond>
4.8480

> <Gold.PLP.Chemscore.CHOScore>
0.0000

> <Gold.PLP.Chemscore.Metal>
0.0000

> <Gold.Chemscore.Hbonds>
donor molecule, donor type, donor heavy atom, donor atom, acceptor molecule, acceptor atom, score
      L1  H    12    57       P1  8028  1.11

> <Gold.PLP.Chemscore.Internal.Correction>
0.3878

> <Gold.Rescore>
     Score         DG    S(hbond)    S(metal)    S(lipo)     H(rot)  DE(clash)    DE(int)     intcor
     16.21     -18.29       2.16        0.00     116.57       3.14       1.18       0.90       ----

> <Gold.Chemscore.Fitness>
16.2127

> <Gold.Chemscore.DG>
-18.2947

> <Gold.Chemscore.ZeroCoef>
-5.4800

> <Gold.Chemscore.Hbond>
2.1584

> <Gold.Chemscore.Metal>
0.0000

> <Gold.Chemscore.Lipo>
116.5705

> <Gold.Chemscore.Internal_Hbond>
0.0000

> <Gold.Chemscore.DEClash>
1.1795

> <Gold.Chemscore.DEInternal>
0.9024

> <Gold.Chemscore.Rot>
3.1380

> <Gold.Chemscore.Internal.Correction>
   9.000000E+99

> <Gold.Chemscore.Hbonds>
donor molecule, donor type, donor heavy atom, donor atom, acceptor molecule, acceptor atom, score
      L1  H    12    57       P1  8028  0.51

> <Gold.Chemscore.Hbond.Weighted>
-7.2091

> <Gold.Chemscore.Metal.Weighted>
-0.0000

> <Gold.Chemscore.Lipo.Weighted>
-13.6388

> <Gold.Chemscore.Internal_Hbond.Weighted>
0.0000

> <Gold.Chemscore.DEClash.Weighted>
1.1795

> <Gold.Chemscore.DEInternal.Weighted>
0.9024

> <Gold.Chemscore.Rot.Weighted>
8.0332

> <Gold.Chemscore.Internal.Correction.Weighted>
   9.000000E+99

> <Gold.Protein.RotatedTorsions>
[ 6907 6896 6895 6894 ] final   11.96 input  -60.11 | X-H torsion
[ 7974 7965 7964 7962 ] final   94.37 input  175.53 | X-H torsion
[ 8008 7997 7996 7995 ] final  -68.86 input   59.86 | X-H torsion
[ 10167 10162 10161 10158 ] final  137.01 input  -65.29 | X-H torsion
[ 10718 10713 10712 10709 ] final   41.79 input   66.30 | X-H torsion
[ 10763 10752 10751 10750 ] final -160.77 input  -60.55 | X-H torsion
[ 11005 11000 10999 10996 ] final -164.27 input  -57.11 | X-H torsion

> <Gold.Protein.ActiveResidues>
 VAL166  LYS551  ARG553  GLY616  TRP617  ASP618  TYR619  PRO620  LYS621  CYS622 
 ASP623  PHE694  ASN695  SER759  ASP760  ASP761  ALA762  ILE779  LEU786  VAL792 
 PHE793  MET794  SER795  GLU796  ALA797  LYS798  CYS799  TRP800  GLU811  SER814 

> <Gold.Protein.RotatedAtoms>
  151.7627  135.0806  160.0347 H   0  0  0  0  0  0  0  0  0  0  0  0  # atno 6907 bound_to 6896
  152.3342  133.5988  159.5839 H   0  0  0  0  0  0  0  0  0  0  0  0  # atno 6908 bound_to 6896
  150.7440  133.9737  159.3596 H   0  0  0  0  0  0  0  0  0  0  0  0  # atno 6909 bound_to 6896
  145.4665  139.2284  143.2959 H   0  0  0  0  0  0  0  0  0  0  0  0  # atno 7974 bound_to 7965
  154.4897  140.0864  156.7567 H   0  0  0  0  0  0  0  0  0  0  0  0  # atno 8008 bound_to 7997
  155.4261  140.3448  155.4257 H   0  0  0  0  0  0  0  0  0  0  0  0  # atno 8009 bound_to 7997
  156.1313  140.1502  156.9050 H   0  0  0  0  0  0  0  0  0  0  0  0  # atno 8010 bound_to 7997
  139.5159  144.6433  151.5508 H   0  0  0  0  0  0  0  0  0  0  0  0  # atno 10167 bound_to 10162
  157.3975  130.7841  149.7321 H   0  0  0  0  0  0  0  0  0  0  0  0  # atno 10718 bound_to 10713
  154.7361  135.3057  154.8808 H   0  0  0  0  0  0  0  0  0  0  0  0  # atno 10763 bound_to 10752
  153.9636  135.6750  153.4749 H   0  0  0  0  0  0  0  0  0  0  0  0  # atno 10764 bound_to 10752
  153.0964  135.4933  154.8709 H   0  0  0  0  0  0  0  0  0  0  0  0  # atno 10765 bound_to 10752
  140.5888  134.5066  157.5190 H   0  0  0  0  0  0  0  0  0  0  0  0  # atno 11005 bound_to 11000
  146.2421  140.5439  142.8929 LP  0  0  0  0  0  0  0  0  0  0  0  0  # atno 17320 bound_to 7965
  144.7971  140.6143  143.6503 LP  0  0  0  0  0  0  0  0  0  0  0  0  # atno 17321 bound_to 7965
  140.6209  143.9261  150.6525 LP  0  0  0  0  0  0  0  0  0  0  0  0  # atno 17342 bound_to 10162
  140.2534  143.3577  152.1386 LP  0  0  0  0  0  0  0  0  0  0  0  0  # atno 17343 bound_to 10162
  155.9814  130.4019  150.3472 LP  0  0  0  0  0  0  0  0  0  0  0  0  # atno 17370 bound_to 10713
  157.1596  131.0341  151.2847 LP  0  0  0  0  0  0  0  0  0  0  0  0  # atno 17371 bound_to 10713
  139.9283  134.8012  156.1003 LP  0  0  0  0  0  0  0  0  0  0  0  0  # atno 17394 bound_to 11000
  141.0948  133.6700  156.2621 LP  0  0  0  0  0  0  0  0  0  0  0  0  # atno 17395 bound_to 11000

$$$$
