AV-unprocessed.smi:2016|AV-procd|sdf|8166|dock2
  -GOLD-   2272010413D 1   1.00000     0.00000
 Structure written by MMmdl.
 42 43  0  0  0  0  0  0  0  0  1 V2000
  149.6300  136.5770  155.8751 C   0  0  0  0  0  0  0  0  0  0  0  0
  148.5130  137.6179  155.7699 C   0  0  0  0  0  0  0  0  0  0  0  0
  147.4566  137.3940  156.3611 O   0  0  0  0  0  0  0  0  0  0  0  0
  148.7179  138.7376  155.0349 N   0  0  0  0  0  0  0  0  0  0  0  0
  147.7715  139.8520  154.9011 C   0  0  0  0  0  0  0  0  0  0  0  0
  148.3202  141.0642  155.6740 C   0  0  0  0  0  0  0  0  0  0  0  0
  149.7392  141.4451  155.1899 C   0  0  0  0  0  0  0  0  0  0  0  0
  150.3259  142.4574  156.0624 N   0  0  0  0  0  0  0  0  0  0  0  0
  150.6407  142.2812  157.3546 C   0  0  0  0  0  0  0  0  0  0  0  0
  150.4712  141.2167  157.9512 O   0  0  0  0  0  0  0  0  0  0  0  0
  151.2595  143.4943  158.0640 C   0  0  0  0  0  0  0  0  0  0  0  0
  151.9233  143.1547  159.3346 N   0  0  0  0  0  0  0  0  0  0  0  0
  151.6528  143.9868  160.4356 C   0  0  0  0  0  0  0  0  0  0  0  0
  152.2045  143.7687  161.6369 C   0  0  0  0  0  0  0  0  0  0  0  0
  153.0964  142.6445  161.7841 C   0  0  0  0  0  0  0  0  0  0  0  0
  153.3793  141.8290  160.7420 C   0  0  0  0  0  0  0  0  0  0  0  0
  154.3198  140.6338  160.8807 C   0  0  0  0  0  0  0  0  0  0  0  0
  155.3958  140.7923  160.1092 F   0  0  0  0  0  0  0  0  0  0  0  0
  154.7387  140.4764  162.1372 F   0  0  0  0  0  0  0  0  0  0  0  0
  153.7056  139.5088  160.5128 F   0  0  0  0  0  0  0  0  0  0  0  0
  152.7681  142.0805  159.4209 C   0  0  0  0  0  0  0  0  0  0  0  0
  152.9976  141.3687  158.4414 O   0  0  0  0  0  0  0  0  0  0  0  0
  150.6664  140.2114  155.1352 C   0  0  0  0  0  0  0  0  0  0  0  0
  150.0009  139.0401  154.3902 C   0  0  0  0  0  0  0  0  0  0  0  0
  149.9080  136.2054  154.8884 H   0  0  0  0  0  0  0  0  0  0  0  0
  149.3048  135.7237  156.4716 H   0  0  0  0  0  0  0  0  0  0  0  0
  150.5108  137.0028  156.3564 H   0  0  0  0  0  0  0  0  0  0  0  0
  147.6622  140.1039  153.8451 H   0  0  0  0  0  0  0  0  0  0  0  0
  146.7663  139.6157  155.2470 H   0  0  0  0  0  0  0  0  0  0  0  0
  147.6431  141.9114  155.5604 H   0  0  0  0  0  0  0  0  0  0  0  0
  148.3430  140.8277  156.7390 H   0  0  0  0  0  0  0  0  0  0  0  0
  149.6629  141.8461  154.1771 H   0  0  0  0  0  0  0  0  0  0  0  0
  150.5027  143.3629  155.6523 H   0  0  0  0  0  0  0  0  0  0  0  0
  151.9657  143.9636  157.3777 H   0  0  0  0  0  0  0  0  0  0  0  0
  150.4867  144.2467  158.2334 H   0  0  0  0  0  0  0  0  0  0  0  0
  150.9810  144.8099  160.2395 H   0  0  0  0  0  0  0  0  0  0  0  0
  151.9898  144.4197  162.4717 H   0  0  0  0  0  0  0  0  0  0  0  0
  153.5390  142.4648  162.7524 H   0  0  0  0  0  0  0  0  0  0  0  0
  151.6089  140.4720  154.6521 H   0  0  0  0  0  0  0  0  0  0  0  0
  150.9167  139.8910  156.1479 H   0  0  0  0  0  0  0  0  0  0  0  0
  150.6755  138.1833  154.3683 H   0  0  0  0  0  0  0  0  0  0  0  0
  149.8281  139.3077  153.3466 H   0  0  0  0  0  0  0  0  0  0  0  0
  1  2  1  0  0  0  0
  1 25  1  0  0  0  0
  1 26  1  0  0  0  0
  1 27  1  0  0  0  0
  2  3  2  0  0  0  0
  2  4  1  0  0  0  0
  4 24  1  0  0  0  0
  4  5  1  0  0  0  0
  5  6  1  0  0  0  0
  5 28  1  0  0  0  0
  5 29  1  0  0  0  0
  6  7  1  0  0  0  0
  6 30  1  0  0  0  0
  6 31  1  0  0  0  0
  7  8  1  0  0  0  0
  7 23  1  0  0  0  0
  7 32  1  0  0  0  0
  8  9  1  0  0  0  0
  8 33  1  0  0  0  0
  9 10  2  0  0  0  0
  9 11  1  0  0  0  0
 11 12  1  0  0  0  0
 11 34  1  0  0  0  0
 11 35  1  0  0  0  0
 12 21  1  0  0  0  0
 12 13  1  0  0  0  0
 13 14  2  0  0  0  0
 13 36  1  0  0  0  0
 14 15  1  0  0  0  0
 14 37  1  0  0  0  0
 15 16  2  0  0  0  0
 15 38  1  0  0  0  0
 16 17  1  0  0  0  0
 16 21  1  0  0  0  0
 17 18  1  0  0  0  0
 17 19  1  0  0  0  0
 17 20  1  0  0  0  0
 21 22  2  0  0  0  0
 23 24  1  0  0  0  0
 23 39  1  0  0  0  0
 23 40  1  0  0  0  0
 24 41  1  0  0  0  0
 24 42  1  0  0  0  0
M  END
> <s_m_source_file>
AV-unprocessed.smi

> <i_m_source_file_index>
2016

> <i_lp_mmshare_version>
43012

> <i_f3d_flags>
0

> <s_epik_input>
W0NIM11DKD1PKU4xW0NIMl1bQ0gyXVtDSF0oW0NIMl1bQ0gyXTEpW05IXUMoPU8pW0NIMl1uMltjSF1bY0hdW2NIXWMoQyhGKShGKUYpYzI9Tw==

> <s_epik_cmdline>
J2VwaWtfcHl0aG9uJywgJy1waCcsICc3LjAnLCAnLXRuJywgJzgnLCAnLW1hJywgJzIwMCcsICctbWV0YWxfYmluZGluZycsICctaW1hZScsICc8aW5maWxlLm1hZT4nLCAnLW9tYWUnLCAnPG91dGZpbGUubWFlPic=

> <r_lp_tautomer_probability>
1

> <r_epik_Ionization_Penalty>
1.12606e-06

> <r_epik_Ionization_Penalty_Charging>
2.00242e-09

> <r_epik_Ionization_Penalty_Neutral>
1.12405e-06

> <r_epik_State_Penalty>
-0

> <r_epik_Charging_Adjusted_Penalty>
2.00242e-09

> <i_epik_Tot_Q>
0

> <i_epik_Tot_abs_Q>
0

> <r_epik_Metal_State_Penalty>
-0

> <b_epik_Metal_Only>
0

> <s_lp_Force_Field>
OPLS_2005

> <r_lp_Energy>
31.7258

> <b_lp_Chiralities_Consistent>
1

> <s_lp_Variant>
AV-unprocessed.smi:2016-1

> <Gold.Version>
5.8.1

> <Gold.Id.Protein>
6NUR|6NUR_protein|mol2

> <Gold.PLP.Fitness>
46.3447

> <Gold.PLP.PLP>
-46.2653

> <Gold.PLP.part.hbond>
-1.6604

> <Gold.PLP.part.metal>
0.0000

> <Gold.PLP.part.buried>
-0.2911

> <Gold.PLP.part.nonpolar>
-44.6396

> <Gold.PLP.part.repulsive>
0.1545

> <Gold.PLP.ligand.clash>
0.2651

> <Gold.PLP.ligand.torsion>
0.4264

> <Gold.PLP.Chemscore.Hbond>
0.2917

> <Gold.PLP.Chemscore.CHOScore>
0.0000

> <Gold.PLP.Chemscore.Metal>
0.0000

> <Gold.Chemscore.Hbonds>
donor molecule, donor type, donor heavy atom, donor atom, acceptor molecule, acceptor atom, score
      L1  H     8    33       P1  8028  0.28

> <Gold.PLP.Chemscore.Internal.Correction>
0.3222

> <Gold.Rescore>
     Score         DG    S(hbond)    S(metal)    S(lipo)     H(rot)  DE(clash)    DE(int)     intcor
      6.02     -14.71       0.72        0.00      94.31       1.64       0.73       7.96       ----

> <Gold.Chemscore.Fitness>
6.0166

> <Gold.Chemscore.DG>
-14.7086

> <Gold.Chemscore.ZeroCoef>
-5.4800

> <Gold.Chemscore.Hbond>
0.7191

> <Gold.Chemscore.Metal>
0.0000

> <Gold.Chemscore.Lipo>
94.3100

> <Gold.Chemscore.Internal_Hbond>
0.0000

> <Gold.Chemscore.DEClash>
0.7323

> <Gold.Chemscore.DEInternal>
7.9597

> <Gold.Chemscore.Rot>
1.6435

> <Gold.Chemscore.Internal.Correction>
   9.000000E+99

> <Gold.Chemscore.Hbonds>
donor molecule, donor type, donor heavy atom, donor atom, acceptor molecule, acceptor atom, score
      L1  H     8    33       P1  8028  0.27

> <Gold.Chemscore.Hbond.Weighted>
-2.4017

> <Gold.Chemscore.Metal.Weighted>
-0.0000

> <Gold.Chemscore.Lipo.Weighted>
-11.0343

> <Gold.Chemscore.Internal_Hbond.Weighted>
0.0000

> <Gold.Chemscore.DEClash.Weighted>
0.7323

> <Gold.Chemscore.DEInternal.Weighted>
7.9597

> <Gold.Chemscore.Rot.Weighted>
4.2074

> <Gold.Chemscore.Internal.Correction.Weighted>
   9.000000E+99

> <Gold.Protein.RotatedTorsions>
[ 6907 6896 6895 6894 ] final  -57.05 input  -60.11 | X-H torsion
[ 7974 7965 7964 7962 ] final   34.46 input  175.53 | X-H torsion
[ 8008 7997 7996 7995 ] final -119.86 input   59.86 | X-H torsion
[ 10167 10162 10161 10158 ] final  -84.08 input  -65.29 | X-H torsion
[ 10718 10713 10712 10709 ] final  127.55 input   66.30 | X-H torsion
[ 10763 10752 10751 10750 ] final -179.90 input  -60.55 | X-H torsion
[ 11005 11000 10999 10996 ] final  114.97 input  -57.11 | X-H torsion

> <Gold.Protein.ActiveResidues>
 VAL166  LYS551  ARG553  GLY616  TRP617  ASP618  TYR619  PRO620  LYS621  CYS622 
 ASP623  PHE694  ASN695  SER759  ASP760  ASP761  ALA762  ILE779  LEU786  VAL792 
 PHE793  MET794  SER795  GLU796  ALA797  LYS798  CYS799  TRP800  GLU811  SER814 

> <Gold.Protein.RotatedAtoms>
  150.8118  134.7277  159.6694 H   0  0  0  0  0  0  0  0  0  0  0  0  # atno 6907 bound_to 6896
  152.4237  134.5904  159.9982 H   0  0  0  0  0  0  0  0  0  0  0  0  # atno 6908 bound_to 6896
  151.6112  133.3310  159.3104 H   0  0  0  0  0  0  0  0  0  0  0  0  # atno 6909 bound_to 6896
  146.1351  139.6266  142.9200 H   0  0  0  0  0  0  0  0  0  0  0  0  # atno 7974 bound_to 7965
  155.1226  140.0399  157.2754 H   0  0  0  0  0  0  0  0  0  0  0  0  # atno 8008 bound_to 7997
  154.6602  140.2589  155.7091 H   0  0  0  0  0  0  0  0  0  0  0  0  # atno 8009 bound_to 7997
  156.2616  140.2818  156.1072 H   0  0  0  0  0  0  0  0  0  0  0  0  # atno 8010 bound_to 7997
  140.4166  143.2601  151.8946 H   0  0  0  0  0  0  0  0  0  0  0  0  # atno 10167 bound_to 10162
  157.5323  131.1098  150.8990 H   0  0  0  0  0  0  0  0  0  0  0  0  # atno 10718 bound_to 10713
  154.5292  135.2798  155.1195 H   0  0  0  0  0  0  0  0  0  0  0  0  # atno 10763 bound_to 10752
  154.2722  135.6301  153.5318 H   0  0  0  0  0  0  0  0  0  0  0  0  # atno 10764 bound_to 10752
  152.9953  135.5631  154.5801 H   0  0  0  0  0  0  0  0  0  0  0  0  # atno 10765 bound_to 10752
  139.8996  134.9576  156.6974 H   0  0  0  0  0  0  0  0  0  0  0  0  # atno 11005 bound_to 11000
  145.5174  141.0433  143.2454 LP  0  0  0  0  0  0  0  0  0  0  0  0  # atno 17320 bound_to 7965
  144.7731  139.6690  143.7186 LP  0  0  0  0  0  0  0  0  0  0  0  0  # atno 17321 bound_to 7965
  139.4782  144.5481  151.8427 LP  0  0  0  0  0  0  0  0  0  0  0  0  # atno 17342 bound_to 10162
  140.4579  144.1763  150.5903 LP  0  0  0  0  0  0  0  0  0  0  0  0  # atno 17343 bound_to 10162
  156.9567  130.5440  149.5284 LP  0  0  0  0  0  0  0  0  0  0  0  0  # atno 17370 bound_to 10713
  156.0432  130.5512  150.8819 LP  0  0  0  0  0  0  0  0  0  0  0  0  # atno 17371 bound_to 10713
  140.7177  133.9168  155.8126 LP  0  0  0  0  0  0  0  0  0  0  0  0  # atno 17394 bound_to 11000
  141.0251  134.0834  157.4077 LP  0  0  0  0  0  0  0  0  0  0  0  0  # atno 17395 bound_to 11000

$$$$
