#       Name:                AV-unprocessed.smi:21
#       Creating user name   scv26
#       Creation time:       Thu Mar 26 15:33:14 2020


#       File generated by GOLD software.
#

@<TRIPOS>MOLECULE
AV-unprocessed.smi:21
    71    74     1
SMALL
NO_CHARGES


@<TRIPOS>ATOM
      1 ****        -0.0053  -0.4928  -3.4893 C.3            1 S1                 0.0000
      2 ****        -0.8786  -1.4151  -2.8568 O.3            1 S1                 0.0000
      3 ****        -2.1023  -0.8386  -2.4260 C.3            1 S1                 0.0000
      4 ****        -1.9430   0.0864  -1.2251 C.3            1 S1                 0.0000
      5 ****        -3.3369   0.1012  -0.5759 C.3            1 S1                 0.0000
      6 ****        -3.3222   0.4229   0.9429 C.3            1 S1                 0.0000
      7 ****        -2.8684   1.7806   1.2520 N.pl3          1 S1                 0.0000
      8 ****        -3.7845   2.8814   0.9659 C.3            1 S1                 0.0000
      9 ****        -1.5325   2.0347   1.2074 C.ar           1 S1                 0.0000
     10 ****        -1.0876   3.1003   0.4882 N.ar           1 S1                 0.0000
     11 ****         0.2202   3.3429   0.3705 C.ar           1 S1                 0.0000
     12 ****         1.2428   2.6539   0.8768 N.ar           1 S1                 0.0000
     13 ****         0.8088   1.5931   1.6148 C.ar           1 S1                 0.0000
     14 ****        -0.5476   1.2231   1.8436 C.ar           1 S1                 0.0000
     15 ****        -0.5933   0.1075   2.6721 N.2            1 S1                 0.0000
     16 ****         0.6587  -0.1737   2.9060 C.2            1 S1                 0.0000
     17 ****         1.5691   0.6441   2.2766 N.pl3          1 S1                 0.0000
     18 ****         3.0171   0.5452   2.3483 C.3            1 S1                 0.0000
     19 ****         3.7244   0.3426   0.9781 C.3            1 S1                 0.0000
     20 ****         5.2483   0.5449   1.1568 C.3            1 S1                 0.0000
     21 ****         5.5517   1.8774   1.5154 O.3            1 S1                 0.0000
     22 ****         3.4309  -1.0361   0.3154 C.3            1 S1                 0.0000
     23 ****         1.9845  -1.3258  -0.0589 C.3            1 S1                 0.0000
     24 ****         2.1347  -2.4521  -1.0706 C.3            1 S1                 0.0000
     25 ****         3.2864  -2.1034  -1.8208 O.3            1 S1                 0.0000
     26 ****         4.1126  -1.2358  -1.0498 C.3            1 S1                 0.0000
     27 ****        -3.9625  -1.2018  -0.9551 N.4            1 S1                 1.0000
     28 ****        -4.4829  -2.0661   0.1304 C.3            1 S1                 0.0000
     29 ****        -3.0345  -1.9087  -1.8667 C.3            1 S1                 0.0000
     30 ****        -2.5988  -0.3162  -3.2460 H              1 S1                 0.0000
     31 ****        -3.9361   0.8585  -1.0830 H              1 S1                 0.0000
     32 ****         0.8864  -1.0153  -3.8355 H              1 S1                 0.0000
     33 ****         0.3167   0.2904  -2.8023 H              1 S1                 0.0000
     34 ****        -0.4796  -0.0280  -4.3545 H              1 S1                 0.0000
     35 ****        -1.2117  -0.3399  -0.5365 H              1 S1                 0.0000
     36 ****        -1.5993   1.0817  -1.5076 H              1 S1                 0.0000
     37 ****        -4.3326   0.3420   1.3434 H              1 S1                 0.0000
     38 ****        -2.7376  -0.3206   1.4795 H              1 S1                 0.0000
     39 ****        -3.5271   3.7623   1.5555 H              1 S1                 0.0000
     40 ****        -4.8089   2.6044   1.2160 H              1 S1                 0.0000
     41 ****        -3.7546   3.1502  -0.0906 H              1 S1                 0.0000
     42 ****         0.4851   4.2063  -0.2221 H              1 S1                 0.0000
     43 ****         0.9540  -1.0064   3.5279 H              1 S1                 0.0000
     44 ****         3.3641   1.4610   2.8270 H              1 S1                 0.0000
     45 ****         3.2806  -0.2680   3.0257 H              1 S1                 0.0000
     46 ****         3.3806   1.1149   0.2895 H              1 S1                 0.0000
     47 ****         5.6429  -0.1323   1.9152 H              1 S1                 0.0000
     48 ****         5.7910   0.3391   0.2351 H              1 S1                 0.0000
     49 ****         6.4892   1.9598   1.6039 H              1 S1                 0.0000
     50 ****         3.7689  -1.8291   0.9846 H              1 S1                 0.0000
     51 ****         1.3705  -1.6383   0.7836 H              1 S1                 0.0000
     52 ****         1.5216  -0.4553  -0.5262 H              1 S1                 0.0000
     53 ****         2.3186  -3.3996  -0.5620 H              1 S1                 0.0000
     54 ****         1.2587  -2.5727  -1.7065 H              1 S1                 0.0000
     55 ****         4.1968  -0.2913  -1.5893 H              1 S1                 0.0000
     56 ****         5.1146  -1.6537  -0.9477 H              1 S1                 0.0000
     57 ****        -3.6919  -2.3637   0.8198 H              1 S1                 0.0000
     58 ****        -4.9169  -2.9732  -0.2916 H              1 S1                 0.0000
     59 ****        -5.2712  -1.5636   0.6908 H              1 S1                 0.0000
     60 ****        -3.5694  -2.4495  -2.6479 H              1 S1                 0.0000
     61 ****        -2.4502  -2.6351  -1.2983 H              1 S1                 0.0000
     62 ****        -4.7638  -0.9527  -1.5177 H              1 S1                 0.0000
     63 ****        -0.4112  -1.7965  -2.0592 LP             1 S1                 0.0000
     64 ****        -1.0857  -2.1486  -3.5041 LP             1 S1                 0.0000
     65 ****        -1.7460   3.7076   0.0436 LP             1 S1                 0.0000
     66 ****         2.2050   2.8855   0.7336 LP             1 S1                 0.0000
     67 ****        -1.4029  -0.3710   3.0119 LP             1 S1                 0.0000
     68 ****         5.1103   2.1013   2.3843 LP             1 S1                 0.0000
     69 ****         5.2243   2.5004   0.8050 LP             1 S1                 0.0000
     70 ****         3.0082  -1.6385  -2.6613 LP             1 S1                 0.0000
     71 ****         3.7971  -2.9317  -2.0514 LP             1 S1                 0.0000
@<TRIPOS>BOND
    1    1    2 1     
    2    1   32 1     
    3    1   33 1     
    4    1   34 1     
    5    2    3 1     
    6    3   30 1     
    7    3   29 1     
    8    3    4 1     
    9    4    5 1     
   10    4   35 1     
   11    4   36 1     
   12    5   31 1     
   13    5    6 1     
   14    5   27 1     
   15    6    7 1     
   16    6   37 1     
   17    6   38 1     
   18    7    8 1     
   19    7    9 1     
   20    8   39 1     
   21    8   40 1     
   22    8   41 1     
   23    9   14 ar    
   24    9   10 ar    
   25   10   11 ar    
   26   11   12 ar    
   27   11   42 1     
   28   12   13 ar    
   29   13   17 1     
   30   13   14 ar    
   31   14   15 1     
   32   15   16 2     
   33   16   17 1     
   34   16   43 1     
   35   17   18 1     
   36   18   19 1     
   37   18   44 1     
   38   18   45 1     
   39   19   20 1     
   40   19   22 1     
   41   19   46 1     
   42   20   21 1     
   43   20   47 1     
   44   20   48 1     
   45   21   49 1     
   46   22   26 1     
   47   22   23 1     
   48   22   50 1     
   49   23   24 1     
   50   23   51 1     
   51   23   52 1     
   52   24   25 1     
   53   24   53 1     
   54   24   54 1     
   55   25   26 1     
   56   26   55 1     
   57   26   56 1     
   58   27   28 1     
   59   27   29 1     
   60   27   62 1     
   61   28   57 1     
   62   28   58 1     
   63   28   59 1     
   64   29   60 1     
   65   29   61 1     
   66    2   63 1     
   67    2   64 1     
   68   10   65 1     
   69   12   66 1     
   70   15   67 1     
   71   21   68 1     
   72   21   69 1     
   73   25   70 1     
   74   25   71 1     
@<TRIPOS>SUBSTRUCTURE
      1 S1             1
@<TRIPOS>SET
LONE_PAIRS      STATIC     ATOMS    <user>   **** ""
9 63 64 65 66 67 68 69 70 71
DONOR_HYDROGENS      STATIC     ATOMS    <user>   **** ""
2 49 62
ATOM$BLUE        STATIC     ATOMS    COLORGROUP SYSTEM
9 63 64 65 66 67 68 69 70 71
ATOM$RED        STATIC     ATOMS    COLORGROUP SYSTEM
2 49 62
