AV-unprocessed.smi:249|AV-procd|sdf|1903|dock5
  -GOLD-   2262020583D 1   1.00000     0.00000
 Structure written by MMmdl.
 64 67  0  0  0  0  0  0  0  0  2 V2000
  146.6313  129.9658  152.2963 C   0  0  0  0  0  0  0  0  0  0  0  0
  147.1574  130.9434  153.3581 C   0  0  0  0  0  0  0  0  0  0  0  0
  148.5143  131.4795  153.0406 N   0  3  1  0  0  0  0  0  0  0  0  0
  148.5448  132.9452  152.7737 C   0  0  0  0  0  0  0  0  0  0  0  0
  148.3559  133.7669  154.0627 C   0  0  0  0  0  0  0  0  0  0  0  0
  149.4208  133.3953  155.1175 C   0  0  1  0  0  0  0  0  0  0  0  0
  149.3172  134.1699  156.3612 N   0  0  0  0  0  0  0  0  0  0  0  0
  148.0797  134.0541  157.1239 C   0  0  0  0  0  0  0  0  0  0  0  0
  149.8535  135.4136  156.3697 C   0  0  0  0  0  0  0  0  0  0  0  0
  150.3211  135.9008  155.1932 N   0  0  0  0  0  0  0  0  0  0  0  0
  150.8638  137.1209  155.1411 C   0  0  0  0  0  0  0  0  0  0  0  0
  151.0370  138.0004  156.1298 N   0  0  0  0  0  0  0  0  0  0  0  0
  150.5771  137.5098  157.3162 C   0  0  0  0  0  0  0  0  0  0  0  0
  149.9744  136.2375  157.5251 C   0  0  0  0  0  0  0  0  0  0  0  0
  149.6203  136.0964  158.8621 N   0  0  0  0  0  0  0  0  0  0  0  0
  149.9944  137.2190  159.4120 C   0  0  0  0  0  0  0  0  0  0  0  0
  150.5958  138.1170  158.5595 N   0  0  0  0  0  0  0  0  0  0  0  0
  151.1012  139.4340  158.9032 C   0  0  0  0  0  0  0  0  0  0  0  0
  151.2736  140.3955  157.6979 C   0  0  1  0  0  0  0  0  0  0  0  0
  149.9288  140.5095  156.9432 C   0  0  0  0  0  0  0  0  0  0  0  0
  150.0462  141.3138  155.7865 O   0  0  0  0  0  0  0  0  0  0  0  0
  151.8725  141.7857  158.0634 C   0  0  2  0  0  0  0  0  0  0  0  0
  153.0176  141.7414  159.0633 C   0  0  0  0  0  0  0  0  0  0  0  0
  153.0677  143.1792  159.5571 C   0  0  0  0  0  0  0  0  0  0  0  0
  151.7052  143.5630  159.6517 O   0  0  0  0  0  0  0  0  0  0  0  0
  150.9190  142.7617  158.7740 C   0  0  0  0  0  0  0  0  0  0  0  0
  149.4255  131.8670  155.3453 C   0  0  0  0  0  0  0  0  0  0  0  0
  149.5878  131.1078  154.0123 C   0  0  1  0  0  0  0  0  0  0  0  0
  149.7382  129.5892  154.2152 C   0  0  0  0  0  0  0  0  0  0  0  0
  145.7139  129.4883  152.6411 H   0  0  0  0  0  0  0  0  0  0  0  0
  147.3554  129.1765  152.0915 H   0  0  0  0  0  0  0  0  0  0  0  0
  146.3939  130.4645  151.3572 H   0  0  0  0  0  0  0  0  0  0  0  0
  146.4419  131.7509  153.5109 H   0  0  0  0  0  0  0  0  0  0  0  0
  147.1908  130.3888  154.2937 H   0  0  0  0  0  0  0  0  0  0  0  0
  149.5095  133.1936  152.3292 H   0  0  0  0  0  0  0  0  0  0  0  0
  147.8039  133.2291  152.0281 H   0  0  0  0  0  0  0  0  0  0  0  0
  148.4249  134.8301  153.8296 H   0  0  0  0  0  0  0  0  0  0  0  0
  147.3495  133.6046  154.4472 H   0  0  0  0  0  0  0  0  0  0  0  0
  150.3893  133.6583  154.6893 H   0  0  0  0  0  0  0  0  0  0  0  0
  148.1325  134.6328  158.0472 H   0  0  0  0  0  0  0  0  0  0  0  0
  147.9045  133.0132  157.3958 H   0  0  0  0  0  0  0  0  0  0  0  0
  147.2203  134.4018  156.5512 H   0  0  0  0  0  0  0  0  0  0  0  0
  151.2103  137.4372  154.1682 H   0  0  0  0  0  0  0  0  0  0  0  0
  149.8536  137.4180  160.4646 H   0  0  0  0  0  0  0  0  0  0  0  0
  150.4079  139.8655  159.6262 H   0  0  0  0  0  0  0  0  0  0  0  0
  152.0507  139.3131  159.4262 H   0  0  0  0  0  0  0  0  0  0  0  0
  151.9635  139.9223  156.9984 H   0  0  0  0  0  0  0  0  0  0  0  0
  149.5544  139.5278  156.6539 H   0  0  0  0  0  0  0  0  0  0  0  0
  149.1667  140.9435  157.5913 H   0  0  0  0  0  0  0  0  0  0  0  0
  150.0446  140.7509  155.0272 H   0  0  0  0  0  0  0  0  0  0  0  0
  152.2417  142.2663  157.1561 H   0  0  0  0  0  0  0  0  0  0  0  0
  152.7794  141.0714  159.8906 H   0  0  0  0  0  0  0  0  0  0  0  0
  153.9626  141.4225  158.6225 H   0  0  0  0  0  0  0  0  0  0  0  0
  153.5818  143.2818  160.5128 H   0  0  0  0  0  0  0  0  0  0  0  0
  153.5676  143.8179  158.8274 H   0  0  0  0  0  0  0  0  0  0  0  0
  150.3878  143.3995  158.0688 H   0  0  0  0  0  0  0  0  0  0  0  0
  150.1799  142.2313  159.3752 H   0  0  0  0  0  0  0  0  0  0  0  0
  150.2401  131.5934  156.0160 H   0  0  0  0  0  0  0  0  0  0  0  0
  148.5054  131.5494  155.8357 H   0  0  0  0  0  0  0  0  0  0  0  0
  150.5256  131.4385  153.5629 H   0  0  0  0  0  0  0  0  0  0  0  0
  150.6590  129.3657  154.7546 H   0  0  0  0  0  0  0  0  0  0  0  0
  149.7835  129.0633  153.2610 H   0  0  0  0  0  0  0  0  0  0  0  0
  148.9211  129.1672  154.8005 H   0  0  0  0  0  0  0  0  0  0  0  0
  148.7731  131.0354  152.1711 H   0  0  0  0  0  0  0  0  0  0  0  0
  1  2  1  0  0  0  0
  1 30  1  0  0  0  0
  1 31  1  0  0  0  0
  1 32  1  0  0  0  0
  2  3  1  0  0  0  0
  2 33  1  0  0  0  0
  2 34  1  0  0  0  0
  3 28  1  0  0  0  0
  3  4  1  0  0  0  0
  3 64  1  0  0  0  0
  4  5  1  0  0  0  0
  4 35  1  0  0  0  0
  4 36  1  0  0  0  0
  5  6  1  0  0  0  0
  5 37  1  0  0  0  0
  5 38  1  0  0  0  0
  6  7  1  0  0  0  0
  6 27  1  0  0  0  0
  6 39  1  0  0  0  0
  7  8  1  0  0  0  0
  7  9  1  0  0  0  0
  8 40  1  0  0  0  0
  8 41  1  0  0  0  0
  8 42  1  0  0  0  0
  9 14  1  0  0  0  0
  9 10  2  0  0  0  0
 10 11  1  0  0  0  0
 11 12  2  0  0  0  0
 11 43  1  0  0  0  0
 12 13  1  0  0  0  0
 13 17  1  0  0  0  0
 13 14  2  0  0  0  0
 14 15  1  0  0  0  0
 15 16  2  0  0  0  0
 16 17  1  0  0  0  0
 16 44  1  0  0  0  0
 17 18  1  0  0  0  0
 18 19  1  0  0  0  0
 18 45  1  0  0  0  0
 18 46  1  0  0  0  0
 19 20  1  0  0  0  0
 19 22  1  0  0  0  0
 19 47  1  0  0  0  0
 20 21  1  0  0  0  0
 20 48  1  0  0  0  0
 20 49  1  0  0  0  0
 21 50  1  0  0  0  0
 22 26  1  0  0  0  0
 22 23  1  0  0  0  0
 22 51  1  0  0  0  0
 23 24  1  0  0  0  0
 23 52  1  0  0  0  0
 23 53  1  0  0  0  0
 24 25  1  0  0  0  0
 24 54  1  0  0  0  0
 24 55  1  0  0  0  0
 25 26  1  0  0  0  0
 26 56  1  0  0  0  0
 26 57  1  0  0  0  0
 27 28  1  0  0  0  0
 27 58  1  0  0  0  0
 27 59  1  0  0  0  0
 28 29  1  0  0  0  0
 28 60  1  0  0  0  0
 29 61  1  0  0  0  0
 29 62  1  0  0  0  0
 29 63  1  0  0  0  0
M  CHG  1   3   1
M  END
> <s_m_source_file>
AV-unprocessed.smi

> <i_m_source_file_index>
249

> <i_lp_mmshare_version>
43012

> <i_f3d_flags>
0

> <s_epik_input>
W0NIM11bQ0gyXU4xW0NIMl1bQ0gyXVtDQEhdKFtDSDJdW0NASF0xW0NIM10pTihbQ0gzXSljKG5bY0hdbjIpYyhjMjMpbltjSF1uM1tDSDJdW0NASF0oW0NIMl1bT0hdKVtDQEBIXTRbQ0gyXVtDSDJdT1tDSDJdNA==

> <s_epik_cmdline>
J2VwaWtfcHl0aG9uJywgJy1waCcsICc3LjAnLCAnLXRuJywgJzgnLCAnLW1hJywgJzIwMCcsICctbWV0YWxfYmluZGluZycsICctaW1hZScsICc8aW5maWxlLm1hZT4nLCAnLW9tYWUnLCAnPG91dGZpbGUubWFlPic=

> <r_lp_tautomer_probability>
1

> <r_epik_Ionization_Penalty>
0.00294688

> <r_epik_Ionization_Penalty_Charging>
0.00169971

> <r_epik_Ionization_Penalty_Neutral>
0.00124717

> <r_epik_State_Penalty>
-0

> <r_epik_Charging_Adjusted_Penalty>
0.00169971

> <i_epik_Tot_Q>
1

> <i_epik_Tot_abs_Q>
1

> <r_epik_Metal_State_Penalty>
-0

> <b_epik_Metal_Only>
0

> <s_lp_Force_Field>
OPLS_2005

> <r_lp_Energy>
55.2795

> <b_lp_Chiralities_Consistent>
1

> <s_lp_Variant>
AV-unprocessed.smi:249-6

> <Gold.Version>
5.8.1

> <Gold.Id.Protein>
6NUR|6NUR_protein|mol2

> <Gold.PLP.Fitness>
44.0677

> <Gold.PLP.PLP>
-40.6016

> <Gold.PLP.part.hbond>
-2.0000

> <Gold.PLP.part.metal>
0.0000

> <Gold.PLP.part.buried>
-7.3461

> <Gold.PLP.part.nonpolar>
-31.5793

> <Gold.PLP.part.repulsive>
0.1499

> <Gold.PLP.ligand.clash>
0.0000

> <Gold.PLP.ligand.torsion>
1.7439

> <Gold.PLP.Chemscore.Hbond>
2.0000

> <Gold.PLP.Chemscore.CHOScore>
0.0000

> <Gold.PLP.Chemscore.Metal>
0.0000

> <Gold.Chemscore.Hbonds>
donor molecule, donor type, donor heavy atom, donor atom, acceptor molecule, acceptor atom, score
      L1  H     3    64       P1 10747  1.00
      P1  H  6896  6909       L1    15  1.00

> <Gold.PLP.Chemscore.Internal.Correction>
0.9539

> <Gold.Rescore>
     Score         DG    S(hbond)    S(metal)    S(lipo)     H(rot)  DE(clash)    DE(int)     intcor
     11.71     -16.12       1.80        0.00     103.00       2.90       0.13       4.29       ----

> <Gold.Chemscore.Fitness>
11.7063

> <Gold.Chemscore.DG>
-16.1228

> <Gold.Chemscore.ZeroCoef>
-5.4800

> <Gold.Chemscore.Hbond>
1.8018

> <Gold.Chemscore.Metal>
0.0000

> <Gold.Chemscore.Lipo>
102.9955

> <Gold.Chemscore.Internal_Hbond>
0.0000

> <Gold.Chemscore.DEClash>
0.1283

> <Gold.Chemscore.DEInternal>
4.2881

> <Gold.Chemscore.Rot>
2.9006

> <Gold.Chemscore.Internal.Correction>
   9.000000E+99

> <Gold.Chemscore.Hbonds>
donor molecule, donor type, donor heavy atom, donor atom, acceptor molecule, acceptor atom, score
      L1  H     3    64       P1 10747  0.78
      P1  H  6896  6909       L1    15  0.36

> <Gold.Chemscore.Hbond.Weighted>
-6.0180

> <Gold.Chemscore.Metal.Weighted>
-0.0000

> <Gold.Chemscore.Lipo.Weighted>
-12.0505

> <Gold.Chemscore.Internal_Hbond.Weighted>
0.0000

> <Gold.Chemscore.DEClash.Weighted>
0.1283

> <Gold.Chemscore.DEInternal.Weighted>
4.2881

> <Gold.Chemscore.Rot.Weighted>
7.4256

> <Gold.Chemscore.Internal.Correction.Weighted>
   9.000000E+99

> <Gold.Protein.RotatedTorsions>
[ 6907 6896 6895 6894 ] final   58.61 input  -60.11 | X-H torsion
[ 7974 7965 7964 7962 ] final  -60.97 input  175.53 | X-H torsion
[ 8008 7997 7996 7995 ] final   14.30 input   59.86 | X-H torsion
[ 10167 10162 10161 10158 ] final  169.23 input  -65.29 | X-H torsion
[ 10718 10713 10712 10709 ] final  132.85 input   66.30 | X-H torsion
[ 10763 10752 10751 10750 ] final   46.90 input  -60.55 | X-H torsion
[ 11005 11000 10999 10996 ] final  -54.18 input  -57.11 | X-H torsion

> <Gold.Protein.ActiveResidues>
 VAL166  LYS551  ARG553  GLY616  TRP617  ASP618  TYR619  PRO620  LYS621  CYS622 
 ASP623  PHE694  ASN695  SER759  ASP760  ASP761  ALA762  ILE779  LEU786  VAL792 
 PHE793  MET794  SER795  GLU796  ALA797  LYS798  CYS799  TRP800  GLU811  SER814 

> <Gold.Protein.RotatedAtoms>
  152.3839  134.6547  160.0132 H   0  0  0  0  0  0  0  0  0  0  0  0  # atno 6907 bound_to 6896
  151.6802  133.3306  159.3225 H   0  0  0  0  0  0  0  0  0  0  0  0  # atno 6908 bound_to 6896
  150.7770  134.6724  159.6443 H   0  0  0  0  0  0  0  0  0  0  0  0  # atno 6909 bound_to 6896
  145.8091  140.8609  143.0191 H   0  0  0  0  0  0  0  0  0  0  0  0  # atno 7974 bound_to 7965
  154.8465  140.2923  155.5625 H   0  0  0  0  0  0  0  0  0  0  0  0  # atno 8008 bound_to 7997
  156.3014  140.2504  156.3349 H   0  0  0  0  0  0  0  0  0  0  0  0  # atno 8009 bound_to 7997
  154.9067  140.0390  157.1913 H   0  0  0  0  0  0  0  0  0  0  0  0  # atno 8010 bound_to 7997
  139.4987  144.3729  151.9705 H   0  0  0  0  0  0  0  0  0  0  0  0  # atno 10167 bound_to 10162
  157.4831  131.1087  150.9656 H   0  0  0  0  0  0  0  0  0  0  0  0  # atno 10718 bound_to 10713
  152.9805  135.5993  154.3675 H   0  0  0  0  0  0  0  0  0  0  0  0  # atno 10763 bound_to 10752
  154.3351  135.2768  155.2453 H   0  0  0  0  0  0  0  0  0  0  0  0  # atno 10764 bound_to 10752
  154.4560  135.5978  153.6278 H   0  0  0  0  0  0  0  0  0  0  0  0  # atno 10765 bound_to 10752
  141.1013  133.6618  156.4283 H   0  0  0  0  0  0  0  0  0  0  0  0  # atno 11005 bound_to 11000
  144.6759  140.0369  143.7481 LP  0  0  0  0  0  0  0  0  0  0  0  0  # atno 17320 bound_to 7965
  145.9796  139.2931  143.1050 LP  0  0  0  0  0  0  0  0  0  0  0  0  # atno 17321 bound_to 7965
  140.3165  144.3478  150.6020 LP  0  0  0  0  0  0  0  0  0  0  0  0  # atno 17342 bound_to 10162
  140.5757  143.2176  151.7519 LP  0  0  0  0  0  0  0  0  0  0  0  0  # atno 17343 bound_to 10162
  157.0382  130.5738  149.5352 LP  0  0  0  0  0  0  0  0  0  0  0  0  # atno 17370 bound_to 10713
  156.0132  130.5225  150.8054 LP  0  0  0  0  0  0  0  0  0  0  0  0  # atno 17371 bound_to 10713
  140.5014  134.6482  157.5250 LP  0  0  0  0  0  0  0  0  0  0  0  0  # atno 17394 bound_to 11000
  139.9866  134.7052  155.9763 LP  0  0  0  0  0  0  0  0  0  0  0  0  # atno 17395 bound_to 11000

$$$$
