AV-unprocessed.smi:1910|AV-procd|sdf|7737|dock2
  -GOLD-   22720 9473D 1   1.00000     0.00000
 Structure written by MMmdl.
 41 42  0  0  0  0  0  0  0  0  2 V2000
  151.8018  138.2838  154.5416 C   0  0  0  0  0  0  0  0  0  0  0  0
  150.4479  138.2574  154.1029 O   0  0  0  0  0  0  0  0  0  0  0  0
  149.6757  139.3904  154.2754 C   0  0  0  0  0  0  0  0  0  0  0  0
  150.2523  140.4866  154.8289 N   0  0  0  0  0  0  0  0  0  0  0  0
  149.5010  141.5951  154.9920 C   0  0  0  0  0  0  0  0  0  0  0  0
  148.1491  141.6724  154.6104 C   0  0  0  0  0  0  0  0  0  0  0  0
  147.5486  140.5367  154.0367 C   0  0  0  0  0  0  0  0  0  0  0  0
  148.3202  139.3607  153.8722 C   0  0  0  0  0  0  0  0  0  0  0  0
  147.8195  138.1670  153.2833 N   0  0  0  0  0  0  0  0  0  0  0  0
  146.5414  137.7783  153.1395 C   0  0  0  0  0  0  0  0  0  0  0  0
  145.5579  138.3961  153.5465 O   0  0  0  0  0  0  0  0  0  0  0  0
  146.4595  136.6014  152.5051 N   0  0  0  0  0  0  0  0  0  0  0  0
  145.2087  135.9134  152.2156 C   0  0  0  0  0  0  0  0  0  0  0  0
  145.0330  135.7189  150.7012 C   0  0  0  0  0  0  0  0  0  0  0  0
  145.1141  134.2904  150.3068 N   0  3  0  0  0  0  0  0  0  0  0  0
  146.3401  133.6295  150.8149 C   0  0  0  0  0  0  0  0  0  0  0  0
  146.4036  132.1697  150.3341 C   0  0  0  0  0  0  0  0  0  0  0  0
  145.2346  131.4779  150.7544 O   0  0  0  0  0  0  0  0  0  0  0  0
  144.0537  132.0472  150.2032 C   0  0  0  0  0  0  0  0  0  0  0  0
  143.9115  133.5036  150.6773 C   0  0  0  0  0  0  0  0  0  0  0  0
  152.2662  137.3199  154.3339 H   0  0  0  0  0  0  0  0  0  0  0  0
  151.8706  138.4589  155.6161 H   0  0  0  0  0  0  0  0  0  0  0  0
  152.3764  139.0478  154.0159 H   0  0  0  0  0  0  0  0  0  0  0  0
  149.9942  142.4484  155.4333 H   0  0  0  0  0  0  0  0  0  0  0  0
  147.5867  142.5840  154.7491 H   0  0  0  0  0  0  0  0  0  0  0  0
  146.5185  140.5961  153.7212 H   0  0  0  0  0  0  0  0  0  0  0  0
  148.5236  137.5072  152.9862 H   0  0  0  0  0  0  0  0  0  0  0  0
  147.3151  136.1543  152.2090 H   0  0  0  0  0  0  0  0  0  0  0  0
  145.2186  134.9563  152.7374 H   0  0  0  0  0  0  0  0  0  0  0  0
  144.3703  136.4886  152.6123 H   0  0  0  0  0  0  0  0  0  0  0  0
  144.0539  136.1105  150.4206 H   0  0  0  0  0  0  0  0  0  0  0  0
  145.7694  136.3011  150.1445 H   0  0  0  0  0  0  0  0  0  0  0  0
  147.2233  134.1667  150.4671 H   0  0  0  0  0  0  0  0  0  0  0  0
  146.3506  133.6652  151.9055 H   0  0  0  0  0  0  0  0  0  0  0  0
  146.5001  132.1197  149.2483 H   0  0  0  0  0  0  0  0  0  0  0  0
  147.2784  131.6730  150.7542 H   0  0  0  0  0  0  0  0  0  0  0  0
  144.0824  131.9925  149.1136 H   0  0  0  0  0  0  0  0  0  0  0  0
  143.1942  131.4610  150.5287 H   0  0  0  0  0  0  0  0  0  0  0  0
  143.7762  133.5295  151.7597 H   0  0  0  0  0  0  0  0  0  0  0  0
  143.0171  133.9390  150.2329 H   0  0  0  0  0  0  0  0  0  0  0  0
  145.1817  134.2724  149.2991 H   0  0  0  0  0  0  0  0  0  0  0  0
  1  2  1  0  0  0  0
  1 21  1  0  0  0  0
  1 22  1  0  0  0  0
  1 23  1  0  0  0  0
  2  3  1  0  0  0  0
  3  8  1  0  0  0  0
  3  4  2  0  0  0  0
  4  5  1  0  0  0  0
  5  6  2  0  0  0  0
  5 24  1  0  0  0  0
  6  7  1  0  0  0  0
  6 25  1  0  0  0  0
  7  8  2  0  0  0  0
  7 26  1  0  0  0  0
  8  9  1  0  0  0  0
  9 10  1  0  0  0  0
  9 27  1  0  0  0  0
 10 11  2  0  0  0  0
 10 12  1  0  0  0  0
 12 13  1  0  0  0  0
 12 28  1  0  0  0  0
 13 14  1  0  0  0  0
 13 29  1  0  0  0  0
 13 30  1  0  0  0  0
 14 15  1  0  0  0  0
 14 31  1  0  0  0  0
 14 32  1  0  0  0  0
 15 20  1  0  0  0  0
 15 16  1  0  0  0  0
 15 41  1  0  0  0  0
 16 17  1  0  0  0  0
 16 33  1  0  0  0  0
 16 34  1  0  0  0  0
 17 18  1  0  0  0  0
 17 35  1  0  0  0  0
 17 36  1  0  0  0  0
 18 19  1  0  0  0  0
 19 20  1  0  0  0  0
 19 37  1  0  0  0  0
 19 38  1  0  0  0  0
 20 39  1  0  0  0  0
 20 40  1  0  0  0  0
M  CHG  1  15   1
M  END
> <s_m_source_file>
AV-unprocessed.smi

> <i_m_source_file_index>
1910

> <i_lp_mmshare_version>
43012

> <i_f3d_flags>
0

> <s_epik_input>
W0NIM11PYzFuW2NIXVtjSF1bY0hdYzFbTkhdQyg9TylbTkhdW0NIMl1bQ0gyXU4yW0NIMl1bQ0gyXU9bQ0gyXVtDSDJdMg==

> <s_epik_cmdline>
J2VwaWtfcHl0aG9uJywgJy1waCcsICc3LjAnLCAnLXRuJywgJzgnLCAnLW1hJywgJzIwMCcsICctbWV0YWxfYmluZGluZycsICctaW1hZScsICc8aW5maWxlLm1hZT4nLCAnLW9tYWUnLCAnPG91dGZpbGUubWFlPic=

> <r_lp_tautomer_probability>
1

> <r_epik_Ionization_Penalty>
0.602607

> <r_epik_Ionization_Penalty_Charging>
0.602531

> <r_epik_Ionization_Penalty_Neutral>
7.65669e-05

> <r_epik_State_Penalty>
0.617039

> <r_epik_Charging_Adjusted_Penalty>
1.21957

> <i_epik_Tot_Q>
1

> <i_epik_Tot_abs_Q>
1

> <r_epik_Metal_State_Penalty>
0.617043

> <b_epik_Metal_Only>
0

> <s_lp_Force_Field>
OPLS_2005

> <r_lp_Energy>
18.6257

> <b_lp_Chiralities_Consistent>
1

> <s_lp_Variant>
AV-unprocessed.smi:1910-2

> <Gold.Version>
5.8.1

> <Gold.Id.Protein>
6NUR|6NUR_protein|mol2

> <Gold.PLP.Fitness>
47.9092

> <Gold.PLP.PLP>
-34.5640

> <Gold.PLP.part.hbond>
-4.0108

> <Gold.PLP.part.metal>
0.0000

> <Gold.PLP.part.buried>
-1.2606

> <Gold.PLP.part.nonpolar>
-30.7206

> <Gold.PLP.part.repulsive>
1.3860

> <Gold.PLP.ligand.clash>
0.0000

> <Gold.PLP.ligand.torsion>
0.5068

> <Gold.PLP.Chemscore.Hbond>
3.9120

> <Gold.PLP.Chemscore.CHOScore>
0.8587

> <Gold.PLP.Chemscore.Metal>
0.0000

> <Gold.Chemscore.Hbonds>
donor molecule, donor type, donor heavy atom, donor atom, acceptor molecule, acceptor atom, score
      L1  H     9    27       P1  7948  0.94
      L1  H    12    28       P1  7948  1.00
      L1  H    15    41       P1  7921  0.99
      P1  H  7989  7998       L1     4  0.98
      L1  C     5    24       P1  8028  0.85

> <Gold.PLP.Chemscore.Internal.Correction>
0.0468

> <Gold.Rescore>
     Score         DG    S(hbond)    S(metal)    S(lipo)     H(rot)  DE(clash)    DE(int)     intcor
     17.71     -20.00       2.93        0.00      80.41       1.83       0.41       1.88       ----

> <Gold.Chemscore.Fitness>
17.7107

> <Gold.Chemscore.DG>
-20.0000

> <Gold.Chemscore.ZeroCoef>
-5.4800

> <Gold.Chemscore.Hbond>
2.9299

> <Gold.Chemscore.Metal>
0.0000

> <Gold.Chemscore.Lipo>
80.4134

> <Gold.Chemscore.Internal_Hbond>
0.0000

> <Gold.Chemscore.DEClash>
0.4113

> <Gold.Chemscore.DEInternal>
1.8780

> <Gold.Chemscore.Rot>
1.8260

> <Gold.Chemscore.Internal.Correction>
   9.000000E+99

> <Gold.Chemscore.Hbonds>
donor molecule, donor type, donor heavy atom, donor atom, acceptor molecule, acceptor atom, score
      L1  H     9    27       P1  7948  0.91
      L1  H    12    28       P1  7948  0.95
      L1  H    15    41       P1  7921  0.89
      P1  H  7989  7998       L1     4  0.18

> <Gold.Chemscore.Hbond.Weighted>
-9.7860

> <Gold.Chemscore.Metal.Weighted>
-0.0000

> <Gold.Chemscore.Lipo.Weighted>
-9.4084

> <Gold.Chemscore.Internal_Hbond.Weighted>
0.0000

> <Gold.Chemscore.DEClash.Weighted>
0.4113

> <Gold.Chemscore.DEInternal.Weighted>
1.8780

> <Gold.Chemscore.Rot.Weighted>
4.6744

> <Gold.Chemscore.Internal.Correction.Weighted>
   9.000000E+99

> <Gold.Protein.RotatedTorsions>
[ 6907 6896 6895 6894 ] final  178.28 input  -60.11 | X-H torsion
[ 7974 7965 7964 7962 ] final  -86.22 input  175.53 | X-H torsion
[ 8008 7997 7996 7995 ] final   54.43 input   59.86 | X-H torsion
[ 10167 10162 10161 10158 ] final   67.81 input  -65.29 | X-H torsion
[ 10718 10713 10712 10709 ] final  -86.93 input   66.30 | X-H torsion
[ 10763 10752 10751 10750 ] final  154.82 input  -60.55 | X-H torsion
[ 11005 11000 10999 10996 ] final  -19.99 input  -57.11 | X-H torsion

> <Gold.Protein.ActiveResidues>
 VAL166  LYS551  ARG553  GLY616  TRP617  ASP618  TYR619  PRO620  LYS621  CYS622 
 ASP623  PHE694  ASN695  SER759  ASP760  ASP761  ALA762  ILE779  LEU786  VAL792 
 PHE793  MET794  SER795  GLU796  ALA797  LYS798  CYS799  TRP800  GLU811  SER814 

> <Gold.Protein.RotatedAtoms>
  151.6904  133.3311  159.3241 H   0  0  0  0  0  0  0  0  0  0  0  0  # atno 6907 bound_to 6896
  150.7782  134.6704  159.6397 H   0  0  0  0  0  0  0  0  0  0  0  0  # atno 6908 bound_to 6896
  152.3831  134.6563  160.0188 H   0  0  0  0  0  0  0  0  0  0  0  0  # atno 6909 bound_to 6896
  145.4828  140.9556  143.1855 H   0  0  0  0  0  0  0  0  0  0  0  0  # atno 7974 bound_to 7965
  155.4846  140.3469  155.4345 H   0  0  0  0  0  0  0  0  0  0  0  0  # atno 8008 bound_to 7997
  156.1017  140.1437  156.9487 H   0  0  0  0  0  0  0  0  0  0  0  0  # atno 8009 bound_to 7997
  154.4698  140.0905  156.7092 H   0  0  0  0  0  0  0  0  0  0  0  0  # atno 8010 bound_to 7997
  140.0854  144.5034  150.7134 H   0  0  0  0  0  0  0  0  0  0  0  0  # atno 10167 bound_to 10162
  155.9987  130.4782  150.4790 H   0  0  0  0  0  0  0  0  0  0  0  0  # atno 10718 bound_to 10713
  154.1585  135.2811  155.3115 H   0  0  0  0  0  0  0  0  0  0  0  0  # atno 10763 bound_to 10752
  154.6165  135.5481  153.7532 H   0  0  0  0  0  0  0  0  0  0  0  0  # atno 10764 bound_to 10752
  153.0199  135.6428  154.1727 H   0  0  0  0  0  0  0  0  0  0  0  0  # atno 10765 bound_to 10752
  140.8421  133.7919  155.9872 H   0  0  0  0  0  0  0  0  0  0  0  0  # atno 11005 bound_to 11000
  144.7879  139.6389  143.7126 LP  0  0  0  0  0  0  0  0  0  0  0  0  # atno 17320 bound_to 7965
  146.2330  139.5851  142.9542 LP  0  0  0  0  0  0  0  0  0  0  0  0  # atno 17321 bound_to 7965
  140.7056  143.2465  151.4736 LP  0  0  0  0  0  0  0  0  0  0  0  0  # atno 17342 bound_to 10162
  139.5755  144.1829  152.1897 LP  0  0  0  0  0  0  0  0  0  0  0  0  # atno 17343 bound_to 10162
  157.2797  131.0604  151.2206 LP  0  0  0  0  0  0  0  0  0  0  0  0  # atno 17370 bound_to 10713
  157.3256  130.6959  149.6294 LP  0  0  0  0  0  0  0  0  0  0  0  0  # atno 17371 bound_to 10713
  140.8884  134.2525  157.5107 LP  0  0  0  0  0  0  0  0  0  0  0  0  # atno 17394 bound_to 11000
  139.8703  134.9649  156.4512 LP  0  0  0  0  0  0  0  0  0  0  0  0  # atno 17395 bound_to 11000

$$$$
