AV-unprocessed.smi:32|AV-procd|sdf|198|dock3
  -GOLD-   2262015463D 1   1.00000     0.00000
 Structure written by MMmdl.
 49 51  0  0  0  0  0  0  0  0  1 V2000
  152.5340  136.4180  156.7834 O   0  0  0  0  0  0  0  0  0  0  0  0
  151.9616  137.2797  156.1149 C   0  0  0  0  0  0  0  0  0  0  0  0
  152.6432  138.6243  155.8200 C   0  0  0  0  0  0  0  0  0  0  0  0
  151.8301  139.7911  156.2262 N   0  0  0  0  0  0  0  0  0  0  0  0
  150.8100  140.2383  155.3498 C   0  0  0  0  0  0  0  0  0  0  0  0
  150.5922  139.6673  154.2800 O   0  0  0  0  0  0  0  0  0  0  0  0
  150.0607  141.4062  155.7984 C   0  0  0  0  0  0  0  0  0  0  0  0
  149.0758  141.9010  155.0295 F   0  0  0  0  0  0  0  0  0  0  0  0
  150.3433  142.0026  156.9746 C   0  0  0  0  0  0  0  0  0  0  0  0
  151.3433  141.5566  157.8199 N   0  0  0  0  0  0  0  0  0  0  0  0
  151.6498  142.2615  159.1241 C   0  0  1  0  0  0  0  0  0  0  0  0
  153.0673  142.8420  159.0925 C   0  0  0  0  0  0  0  0  0  0  0  0
  152.8170  144.2362  158.5604 C   0  0  0  0  0  0  0  0  0  0  0  0
  151.4696  144.5718  159.1916 C   0  0  0  0  0  0  0  0  0  0  0  0
  150.7664  143.3338  159.2874 O   0  0  0  0  0  0  0  0  0  0  0  0
  152.1201  140.4362  157.4522 C   0  0  0  0  0  0  0  0  0  0  0  0
  153.0345  140.0400  158.1781 O   0  0  0  0  0  0  0  0  0  0  0  0
  150.7240  137.1304  155.6117 N   0  0  0  0  0  0  0  0  0  0  0  0
  149.8392  135.9685  155.7391 C   0  0  0  0  0  0  0  0  0  0  0  0
  149.4606  135.7459  157.2226 C   0  0  0  0  0  0  0  0  0  0  0  0
  148.2510  134.8299  157.4597 C   0  0  0  0  0  0  0  0  0  0  0  0
  148.3774  133.4180  156.8644 C   0  0  0  0  0  0  0  0  0  0  0  0
  148.2109  133.4032  155.3374 C   0  0  0  0  0  0  0  0  0  0  0  0
  149.4906  133.6738  154.5276 C   0  0  0  0  0  0  0  0  0  0  0  0
  150.4748  134.7147  155.0929 C   0  0  0  0  0  0  0  0  0  0  0  0
  153.6174  138.6501  156.3116 H   0  0  0  0  0  0  0  0  0  0  0  0
  152.8846  138.6551  154.7568 H   0  0  0  0  0  0  0  0  0  0  0  0
  149.7588  142.8675  157.2497 H   0  0  0  0  0  0  0  0  0  0  0  0
  151.4866  141.5239  159.9118 H   0  0  0  0  0  0  0  0  0  0  0  0
  153.4490  142.8853  160.1132 H   0  0  0  0  0  0  0  0  0  0  0  0
  153.7494  142.2478  158.4834 H   0  0  0  0  0  0  0  0  0  0  0  0
  153.6014  144.9450  158.8268 H   0  0  0  0  0  0  0  0  0  0  0  0
  152.7316  144.2146  157.4734 H   0  0  0  0  0  0  0  0  0  0  0  0
  151.6112  144.9699  160.1972 H   0  0  0  0  0  0  0  0  0  0  0  0
  150.9083  145.3054  158.6127 H   0  0  0  0  0  0  0  0  0  0  0  0
  150.3545  137.9045  155.0791 H   0  0  0  0  0  0  0  0  0  0  0  0
  148.9419  136.2374  155.1807 H   0  0  0  0  0  0  0  0  0  0  0  0
  150.3164  135.3516  157.7719 H   0  0  0  0  0  0  0  0  0  0  0  0
  149.2371  136.7101  157.6815 H   0  0  0  0  0  0  0  0  0  0  0  0
  148.1041  134.7389  158.5364 H   0  0  0  0  0  0  0  0  0  0  0  0
  147.3480  135.3106  157.0814 H   0  0  0  0  0  0  0  0  0  0  0  0
  149.3123  132.9432  157.1646 H   0  0  0  0  0  0  0  0  0  0  0  0
  147.5818  132.8082  157.2937 H   0  0  0  0  0  0  0  0  0  0  0  0
  147.8236  132.4300  155.0339 H   0  0  0  0  0  0  0  0  0  0  0  0
  147.4391  134.1184  155.0501 H   0  0  0  0  0  0  0  0  0  0  0  0
  150.0328  132.7366  154.3985 H   0  0  0  0  0  0  0  0  0  0  0  0
  149.1942  133.9766  153.5227 H   0  0  0  0  0  0  0  0  0  0  0  0
  151.1318  135.0125  154.2743 H   0  0  0  0  0  0  0  0  0  0  0  0
  151.1278  134.2284  155.8186 H   0  0  0  0  0  0  0  0  0  0  0  0
  1  2  2  0  0  0  0
  2  3  1  0  0  0  0
  2 18  1  0  0  0  0
  3  4  1  0  0  0  0
  3 26  1  0  0  0  0
  3 27  1  0  0  0  0
  4 16  1  0  0  0  0
  4  5  1  0  0  0  0
  5  6  2  0  0  0  0
  5  7  1  0  0  0  0
  7  8  1  0  0  0  0
  7  9  2  0  0  0  0
  9 10  1  0  0  0  0
  9 28  1  0  0  0  0
 10 11  1  0  0  0  0
 10 16  1  0  0  0  0
 11 15  1  0  0  0  0
 11 12  1  0  0  0  0
 11 29  1  0  0  0  0
 12 13  1  0  0  0  0
 12 30  1  0  0  0  0
 12 31  1  0  0  0  0
 13 14  1  0  0  0  0
 13 32  1  0  0  0  0
 13 33  1  0  0  0  0
 14 15  1  0  0  0  0
 14 34  1  0  0  0  0
 14 35  1  0  0  0  0
 16 17  2  0  0  0  0
 18 19  1  0  0  0  0
 18 36  1  0  0  0  0
 19 25  1  0  0  0  0
 19 20  1  0  0  0  0
 19 37  1  0  0  0  0
 20 21  1  0  0  0  0
 20 38  1  0  0  0  0
 20 39  1  0  0  0  0
 21 22  1  0  0  0  0
 21 40  1  0  0  0  0
 21 41  1  0  0  0  0
 22 23  1  0  0  0  0
 22 42  1  0  0  0  0
 22 43  1  0  0  0  0
 23 24  1  0  0  0  0
 23 44  1  0  0  0  0
 23 45  1  0  0  0  0
 24 25  1  0  0  0  0
 24 46  1  0  0  0  0
 24 47  1  0  0  0  0
 25 48  1  0  0  0  0
 25 49  1  0  0  0  0
M  END
> <s_m_source_file>
AV-unprocessed.smi

> <i_m_source_file_index>
32

> <i_lp_mmshare_version>
43012

> <i_f3d_flags>
0

> <s_epik_input>
W0NIMl0xW0NIMl1bQ0gyXVtDSDJdW0NIMl1bQ0gyXVtDSF0xW05IXUMoPU8pW0NIMl1uMmMoPU8pYyhGKVtjSF1uKGMyPU8pW0NAQEhdM1tDSDJdW0NIMl1bQ0gyXU8z

> <s_epik_cmdline>
J2VwaWtfcHl0aG9uJywgJy1waCcsICc3LjAnLCAnLXRuJywgJzgnLCAnLW1hJywgJzIwMCcsICctbWV0YWxfYmluZGluZycsICctaW1hZScsICc8aW5maWxlLm1hZT4nLCAnLW9tYWUnLCAnPG91dGZpbGUubWFlPic=

> <r_lp_tautomer_probability>
1

> <r_epik_Ionization_Penalty>
2.43741e-08

> <r_epik_Ionization_Penalty_Charging>
4.15308e-09

> <r_epik_Ionization_Penalty_Neutral>
2.0221e-08

> <r_epik_State_Penalty>
-0

> <r_epik_Charging_Adjusted_Penalty>
4.15308e-09

> <i_epik_Tot_Q>
0

> <i_epik_Tot_abs_Q>
0

> <r_epik_Metal_State_Penalty>
-0

> <b_epik_Metal_Only>
0

> <s_epik_Chemistry_Notes>
This compound contains an acetal/aminal-like group ( X-CH(R)-Y where X, Y are N, S, or O) that may be acid/base labile, releasing an aldehyde.

> <s_lp_Force_Field>
OPLS_2005

> <r_lp_Energy>
36.3437

> <b_lp_Chiralities_Consistent>
1

> <s_lp_Variant>
AV-unprocessed.smi:32-2

> <Gold.Version>
5.8.1

> <Gold.Id.Protein>
6NUR|6NUR_protein|mol2

> <Gold.PLP.Fitness>
51.3640

> <Gold.PLP.PLP>
-42.0308

> <Gold.PLP.part.hbond>
-3.0000

> <Gold.PLP.part.metal>
0.0000

> <Gold.PLP.part.buried>
-1.3367

> <Gold.PLP.part.nonpolar>
-38.4186

> <Gold.PLP.part.repulsive>
0.2734

> <Gold.PLP.ligand.clash>
0.0000

> <Gold.PLP.ligand.torsion>
0.3530

> <Gold.PLP.Chemscore.Hbond>
2.5000

> <Gold.PLP.Chemscore.CHOScore>
0.8314

> <Gold.PLP.Chemscore.Metal>
0.0000

> <Gold.Chemscore.Hbonds>
donor molecule, donor type, donor heavy atom, donor atom, acceptor molecule, acceptor atom, score
      P1  H  7989  7998       L1     6  0.45
      P1  H  7997  8010       L1    17  1.00
      P1  H 10752 10765       L1     1  0.80
      L1  C     9    28       P1  8028  0.81

> <Gold.PLP.Chemscore.Internal.Correction>
0.0450

> <Gold.Rescore>
     Score         DG    S(hbond)    S(metal)    S(lipo)     H(rot)  DE(clash)    DE(int)     intcor
     15.83     -16.40       1.96        0.00      77.36       1.82       0.01       0.56       ----

> <Gold.Chemscore.Fitness>
15.8349

> <Gold.Chemscore.DG>
-16.3995

> <Gold.Chemscore.ZeroCoef>
-5.4800

> <Gold.Chemscore.Hbond>
1.9579

> <Gold.Chemscore.Metal>
0.0000

> <Gold.Chemscore.Lipo>
77.3635

> <Gold.Chemscore.Internal_Hbond>
0.0000

> <Gold.Chemscore.DEClash>
0.0082

> <Gold.Chemscore.DEInternal>
0.5563

> <Gold.Chemscore.Rot>
1.8248

> <Gold.Chemscore.Internal.Correction>
   9.000000E+99

> <Gold.Chemscore.Hbonds>
donor molecule, donor type, donor heavy atom, donor atom, acceptor molecule, acceptor atom, score
      P1  H  7989  7998       L1     6  0.02
      P1  H  7997  8010       L1    17  0.29
      P1  H 10752 10765       L1     1  0.11

> <Gold.Chemscore.Hbond.Weighted>
-6.5394

> <Gold.Chemscore.Metal.Weighted>
-0.0000

> <Gold.Chemscore.Lipo.Weighted>
-9.0515

> <Gold.Chemscore.Internal_Hbond.Weighted>
0.0000

> <Gold.Chemscore.DEClash.Weighted>
0.0082

> <Gold.Chemscore.DEInternal.Weighted>
0.5563

> <Gold.Chemscore.Rot.Weighted>
4.6714

> <Gold.Chemscore.Internal.Correction.Weighted>
   9.000000E+99

> <Gold.Protein.RotatedTorsions>
[ 6907 6896 6895 6894 ] final  105.55 input  -60.11 | X-H torsion
[ 7974 7965 7964 7962 ] final -111.88 input  175.53 | X-H torsion
[ 8008 7997 7996 7995 ] final   41.88 input   59.86 | X-H torsion
[ 10167 10162 10161 10158 ] final -145.26 input  -65.29 | X-H torsion
[ 10718 10713 10712 10709 ] final   15.51 input   66.30 | X-H torsion
[ 10763 10752 10751 10750 ] final -135.35 input  -60.55 | X-H torsion
[ 11005 11000 10999 10996 ] final   54.30 input  -57.11 | X-H torsion

> <Gold.Protein.ActiveResidues>
 VAL166  LYS551  ARG553  GLY616  TRP617  ASP618  TYR619  PRO620  LYS621  CYS622 
 ASP623  PHE694  ASN695  SER759  ASP760  ASP761  ALA762  ILE779  LEU786  VAL792 
 PHE793  MET794  SER795  GLU796  ALA797  LYS798  CYS799  TRP800  GLU811  SER814 

> <Gold.Protein.RotatedAtoms>
  152.5226  133.9512  159.7672 H   0  0  0  0  0  0  0  0  0  0  0  0  # atno 6907 bound_to 6896
  150.9821  133.6226  159.2728 H   0  0  0  0  0  0  0  0  0  0  0  0  # atno 6908 bound_to 6896
  151.3400  135.0867  159.9421 H   0  0  0  0  0  0  0  0  0  0  0  0  # atno 6909 bound_to 6896
  145.1507  140.8827  143.3648 H   0  0  0  0  0  0  0  0  0  0  0  0  # atno 7974 bound_to 7965
  155.2770  140.3370  155.4261 H   0  0  0  0  0  0  0  0  0  0  0  0  # atno 8008 bound_to 7997
  156.2107  140.1769  156.7743 H   0  0  0  0  0  0  0  0  0  0  0  0  # atno 8009 bound_to 7997
  154.5682  140.0675  156.8909 H   0  0  0  0  0  0  0  0  0  0  0  0  # atno 8010 bound_to 7997
  139.7822  143.8084  152.2640 H   0  0  0  0  0  0  0  0  0  0  0  0  # atno 10167 bound_to 10162
  157.0546  130.6284  149.5774 H   0  0  0  0  0  0  0  0  0  0  0  0  # atno 10718 bound_to 10713
  154.8704  135.3706  154.4884 H   0  0  0  0  0  0  0  0  0  0  0  0  # atno 10763 bound_to 10752
  153.5533  135.7024  153.5586 H   0  0  0  0  0  0  0  0  0  0  0  0  # atno 10764 bound_to 10752
  153.3695  135.4025  155.1742 H   0  0  0  0  0  0  0  0  0  0  0  0  # atno 10765 bound_to 10752
  140.0697  134.5486  155.9060 H   0  0  0  0  0  0  0  0  0  0  0  0  # atno 11005 bound_to 11000
  145.0433  139.3241  143.5965 LP  0  0  0  0  0  0  0  0  0  0  0  0  # atno 17320 bound_to 7965
  146.3495  139.9815  142.8695 LP  0  0  0  0  0  0  0  0  0  0  0  0  # atno 17321 bound_to 7965
  139.8150  144.7320  150.9646 LP  0  0  0  0  0  0  0  0  0  0  0  0  # atno 17342 bound_to 10162
  140.7818  143.4213  151.0837 LP  0  0  0  0  0  0  0  0  0  0  0  0  # atno 17343 bound_to 10162
  155.9997  130.5073  150.7616 LP  0  0  0  0  0  0  0  0  0  0  0  0  # atno 17370 bound_to 10713
  157.5003  131.0918  151.0322 LP  0  0  0  0  0  0  0  0  0  0  0  0  # atno 17371 bound_to 10713
  141.2007  133.6614  156.5911 LP  0  0  0  0  0  0  0  0  0  0  0  0  # atno 17394 bound_to 11000
  140.3645  134.7659  157.4556 LP  0  0  0  0  0  0  0  0  0  0  0  0  # atno 17395 bound_to 11000

$$$$
