AV-unprocessed.smi:1274|AV-procd|sdf|5341|dock1
  -GOLD-   22720 4473D 1   1.00000     0.00000
 Structure written by MMmdl.
 36 37  0  0  0  0  0  0  0  0  2 V2000
  148.3030  136.0993  158.1759 O   0  0  0  0  0  0  0  0  0  0  0  0
  149.2963  135.5028  159.0839 S   0  0  0  0  0  0  0  0  0  0  0  0
  149.9305  134.2390  158.6734 O   0  0  0  0  0  0  0  0  0  0  0  0
  150.3316  136.5975  159.6781 N   0  5  0  0  0  0  0  0  0  0  0  0
  150.3197  137.9506  159.1505 C   0  0  0  0  0  0  0  0  0  0  0  0
  151.0380  137.9922  157.7839 C   0  0  0  0  0  0  0  0  0  0  0  0
  150.7176  139.2191  156.9351 C   0  0  0  0  0  0  0  0  0  0  0  0
  150.1323  140.3681  157.5111 C   0  0  0  0  0  0  0  0  0  0  0  0
  149.8501  141.4751  156.6881 C   0  0  0  0  0  0  0  0  0  0  0  0
  150.1607  141.3861  155.3169 C   0  0  0  0  0  0  0  0  0  0  0  0
  150.7127  140.2918  154.7499 N   0  0  0  0  0  0  0  0  0  0  0  0
  150.9832  139.2359  155.5475 C   0  0  0  0  0  0  0  0  0  0  0  0
  148.4679  135.1538  160.5732 N   0  0  0  0  0  0  0  0  0  0  0  0
  147.7553  136.2728  161.2242 C   0  0  0  0  0  0  0  0  0  0  0  0
  147.3955  135.9445  162.6834 C   0  0  0  0  0  0  0  0  0  0  0  0
  146.6001  134.6406  162.7818 C   0  0  0  0  0  0  0  0  0  0  0  0
  147.4003  133.5134  162.1246 C   0  0  0  0  0  0  0  0  0  0  0  0
  147.7523  133.8596  160.6692 C   0  0  0  0  0  0  0  0  0  0  0  0
  149.3054  138.3319  159.0264 H   0  0  0  0  0  0  0  0  0  0  0  0
  150.8160  138.6429  159.8310 H   0  0  0  0  0  0  0  0  0  0  0  0
  152.1158  137.9641  157.9475 H   0  0  0  0  0  0  0  0  0  0  0  0
  150.8024  137.0930  157.2126 H   0  0  0  0  0  0  0  0  0  0  0  0
  149.9102  140.4022  158.5678 H   0  0  0  0  0  0  0  0  0  0  0  0
  149.4080  142.3706  157.0989 H   0  0  0  0  0  0  0  0  0  0  0  0
  149.9574  142.2160  154.6566 H   0  0  0  0  0  0  0  0  0  0  0  0
  151.4256  138.3777  155.0634 H   0  0  0  0  0  0  0  0  0  0  0  0
  148.3762  137.1680  161.2074 H   0  0  0  0  0  0  0  0  0  0  0  0
  146.8558  136.5000  160.6509 H   0  0  0  0  0  0  0  0  0  0  0  0
  148.3092  135.8611  163.2734 H   0  0  0  0  0  0  0  0  0  0  0  0
  146.8217  136.7639  163.1170 H   0  0  0  0  0  0  0  0  0  0  0  0
  146.3944  134.4005  163.8253 H   0  0  0  0  0  0  0  0  0  0  0  0
  145.6355  134.7528  162.2855 H   0  0  0  0  0  0  0  0  0  0  0  0
  148.3166  133.3339  162.6883 H   0  0  0  0  0  0  0  0  0  0  0  0
  146.8305  132.5845  162.1567 H   0  0  0  0  0  0  0  0  0  0  0  0
  146.8462  133.9136  160.0647 H   0  0  0  0  0  0  0  0  0  0  0  0
  148.3570  133.0569  160.2486 H   0  0  0  0  0  0  0  0  0  0  0  0
  1  2  2  0  0  0  0
  2  3  2  0  0  0  0
  2  4  1  0  0  0  0
  2 13  1  0  0  0  0
  4  5  1  0  0  0  0
  5  6  1  0  0  0  0
  5 19  1  0  0  0  0
  5 20  1  0  0  0  0
  6  7  1  0  0  0  0
  6 21  1  0  0  0  0
  6 22  1  0  0  0  0
  7 12  1  0  0  0  0
  7  8  2  0  0  0  0
  8  9  1  0  0  0  0
  8 23  1  0  0  0  0
  9 10  2  0  0  0  0
  9 24  1  0  0  0  0
 10 11  1  0  0  0  0
 10 25  1  0  0  0  0
 11 12  2  0  0  0  0
 12 26  1  0  0  0  0
 13 18  1  0  0  0  0
 13 14  1  0  0  0  0
 14 15  1  0  0  0  0
 14 27  1  0  0  0  0
 14 28  1  0  0  0  0
 15 16  1  0  0  0  0
 15 29  1  0  0  0  0
 15 30  1  0  0  0  0
 16 17  1  0  0  0  0
 16 31  1  0  0  0  0
 16 32  1  0  0  0  0
 17 18  1  0  0  0  0
 17 33  1  0  0  0  0
 17 34  1  0  0  0  0
 18 35  1  0  0  0  0
 18 36  1  0  0  0  0
M  CHG  1   4  -1
M  END
> <s_m_source_file>
AV-unprocessed.smi

> <i_m_source_file_index>
1274

> <i_lp_mmshare_version>
43012

> <i_f3d_flags>
0

> <s_epik_input>
W0NIMl0xW0NIMl1bQ0gyXVtDSDJdW0NIMl1OMVMoPU8pKD1PKVtOSF1bQ0gyXVtDSDJdYzJbY0hdW2NIXVtjSF1uW2NIXTI=

> <s_epik_cmdline>
J2VwaWtfcHl0aG9uJywgJy1waCcsICc3LjAnLCAnLXRuJywgJzgnLCAnLW1hJywgJzIwMCcsICctbWV0YWxfYmluZGluZycsICctaW1hZScsICc8aW5maWxlLm1hZT4nLCAnLW9tYWUnLCAnPG91dGZpbGUubWFlPic=

> <r_epik_Ionization_Penalty>
1.98317

> <r_epik_Ionization_Penalty_Charging>
1.95606

> <r_epik_Ionization_Penalty_Neutral>
0.027117

> <r_epik_State_Penalty>
2.28376

> <r_epik_Charging_Adjusted_Penalty>
4.23982

> <i_epik_Tot_Q>
-1

> <i_epik_Tot_abs_Q>
1

> <r_epik_Metal_State_Penalty>
0.598332

> <b_epik_Metal_Only>
0

> <s_lp_Force_Field>
OPLS_2005

> <r_lp_Energy>
4.69546

> <b_lp_Chiralities_Consistent>
1

> <s_lp_Variant>
AV-unprocessed.smi:1274-2

> <Gold.Version>
5.8.1

> <Gold.Id.Protein>
6NUR|6NUR_protein|mol2

> <Gold.PLP.Fitness>
40.8669

> <Gold.PLP.PLP>
-30.2692

> <Gold.PLP.part.hbond>
-2.6123

> <Gold.PLP.part.metal>
0.0000

> <Gold.PLP.part.buried>
-4.2463

> <Gold.PLP.part.nonpolar>
-24.2872

> <Gold.PLP.part.repulsive>
0.0912

> <Gold.PLP.ligand.clash>
0.0000

> <Gold.PLP.ligand.torsion>
1.4286

> <Gold.PLP.Chemscore.Hbond>
2.9600

> <Gold.PLP.Chemscore.CHOScore>
1.0000

> <Gold.PLP.Chemscore.Metal>
0.0000

> <Gold.Chemscore.Hbonds>
donor molecule, donor type, donor heavy atom, donor atom, acceptor molecule, acceptor atom, score
      P1  H  7989  7998       L1    11  1.00
      L1  C    10    25       P1  8028  0.08

> <Gold.PLP.Chemscore.Internal.Correction>
1.5749

> <Gold.Rescore>
     Score         DG    S(hbond)    S(metal)    S(lipo)     H(rot)  DE(clash)    DE(int)     intcor
     15.07     -16.71       1.83        0.00      75.60       1.45       0.06       1.58       ----

> <Gold.Chemscore.Fitness>
15.0732

> <Gold.Chemscore.DG>
-16.7129

> <Gold.Chemscore.ZeroCoef>
-5.4800

> <Gold.Chemscore.Hbond>
1.8296

> <Gold.Chemscore.Metal>
0.0000

> <Gold.Chemscore.Lipo>
75.6003

> <Gold.Chemscore.Internal_Hbond>
0.0000

> <Gold.Chemscore.DEClash>
0.0577

> <Gold.Chemscore.DEInternal>
1.5820

> <Gold.Chemscore.Rot>
1.4544

> <Gold.Chemscore.Internal.Correction>
   9.000000E+99

> <Gold.Chemscore.Hbonds>
donor molecule, donor type, donor heavy atom, donor atom, acceptor molecule, acceptor atom, score
      P1  H  6896  6909       L1     3  0.02
      P1  H  7989  7998       L1    11  0.50

> <Gold.Chemscore.Hbond.Weighted>
-6.1108

> <Gold.Chemscore.Metal.Weighted>
-0.0000

> <Gold.Chemscore.Lipo.Weighted>
-8.8452

> <Gold.Chemscore.Internal_Hbond.Weighted>
0.0000

> <Gold.Chemscore.DEClash.Weighted>
0.0577

> <Gold.Chemscore.DEInternal.Weighted>
1.5820

> <Gold.Chemscore.Rot.Weighted>
3.7232

> <Gold.Chemscore.Internal.Correction.Weighted>
   9.000000E+99

> <Gold.Protein.RotatedTorsions>
[ 6907 6896 6895 6894 ] final  -37.38 input  -60.11 | X-H torsion
[ 7974 7965 7964 7962 ] final  114.13 input  175.53 | X-H torsion
[ 8008 7997 7996 7995 ] final -101.27 input   59.86 | X-H torsion
[ 10167 10162 10161 10158 ] final  168.05 input  -65.29 | X-H torsion
[ 10718 10713 10712 10709 ] final   64.93 input   66.30 | X-H torsion
[ 10763 10752 10751 10750 ] final -135.63 input  -60.55 | X-H torsion
[ 11005 11000 10999 10996 ] final -110.27 input  -57.11 | X-H torsion

> <Gold.Protein.ActiveResidues>
 VAL166  LYS551  ARG553  GLY616  TRP617  ASP618  TYR619  PRO620  LYS621  CYS622 
 ASP623  PHE694  ASN695  SER759  ASP760  ASP761  ALA762  ILE779  LEU786  VAL792 
 PHE793  MET794  SER795  GLU796  ALA797  LYS798  CYS799  TRP800  GLU811  SER814 

> <Gold.Protein.RotatedAtoms>
  151.0155  134.9429  159.8030 H   0  0  0  0  0  0  0  0  0  0  0  0  # atno 6907 bound_to 6896
  152.5313  134.2972  159.9075 H   0  0  0  0  0  0  0  0  0  0  0  0  # atno 6908 bound_to 6896
  151.2979  133.4094  159.2672 H   0  0  0  0  0  0  0  0  0  0  0  0  # atno 6909 bound_to 6896
  145.2083  139.2918  143.4282 H   0  0  0  0  0  0  0  0  0  0  0  0  # atno 7974 bound_to 7965
  154.8402  140.0435  157.1536 H   0  0  0  0  0  0  0  0  0  0  0  0  # atno 8008 bound_to 7997
  154.9056  140.3006  155.5274 H   0  0  0  0  0  0  0  0  0  0  0  0  # atno 8009 bound_to 7997
  156.2992  140.2368  156.4089 H   0  0  0  0  0  0  0  0  0  0  0  0  # atno 8010 bound_to 7997
  139.4959  144.3856  151.9574 H   0  0  0  0  0  0  0  0  0  0  0  0  # atno 10167 bound_to 10162
  157.6072  130.9187  149.9910 H   0  0  0  0  0  0  0  0  0  0  0  0  # atno 10718 bound_to 10713
  154.8699  135.3697  154.4930 H   0  0  0  0  0  0  0  0  0  0  0  0  # atno 10763 bound_to 10752
  153.5575  135.7023  153.5567 H   0  0  0  0  0  0  0  0  0  0  0  0  # atno 10764 bound_to 10752
  153.3658  135.4034  155.1716 H   0  0  0  0  0  0  0  0  0  0  0  0  # atno 10765 bound_to 10752
  141.0801  133.9234  157.2307 H   0  0  0  0  0  0  0  0  0  0  0  0  # atno 11005 bound_to 11000
  146.3403  140.2350  142.8594 LP  0  0  0  0  0  0  0  0  0  0  0  0  # atno 17320 bound_to 7965
  144.9880  140.8521  143.5356 LP  0  0  0  0  0  0  0  0  0  0  0  0  # atno 17321 bound_to 7965
  140.3293  144.3335  150.5991 LP  0  0  0  0  0  0  0  0  0  0  0  0  # atno 17342 bound_to 10162
  140.5658  143.2186  151.7686 LP  0  0  0  0  0  0  0  0  0  0  0  0  # atno 17343 bound_to 10162
  156.1162  130.3647  149.9963 LP  0  0  0  0  0  0  0  0  0  0  0  0  # atno 17370 bound_to 10713
  156.8052  130.9305  151.3645 LP  0  0  0  0  0  0  0  0  0  0  0  0  # atno 17371 bound_to 10713
  139.9614  135.0153  156.9272 LP  0  0  0  0  0  0  0  0  0  0  0  0  # atno 17394 bound_to 11000
  140.5487  134.0648  155.7363 LP  0  0  0  0  0  0  0  0  0  0  0  0  # atno 17395 bound_to 11000

$$$$
