#       Name:                AV-unprocessed.smi:3056
#       Creating user name   scv26
#       Creation time:       Fri Mar 27 17:05:09 2020


#       File generated by GOLD software.
#

@<TRIPOS>MOLECULE
AV-unprocessed.smi:3056
    53    54     1
SMALL
NO_CHARGES


@<TRIPOS>ATOM
      1 ****        -3.6193  -3.6859   4.7834 C.3            1 S1                 0.0000
      2 ****        -3.5003  -3.2610   3.3481 C.2            1 S1                 0.0000
      3 ****        -4.1268  -3.8416   2.2093 C.2            1 S1                 0.0000
      4 ****        -3.8090  -3.2297   1.0801 N.2            1 S1                 0.0000
      5 ****        -2.9731  -2.2373   1.4539 N.pl3          1 S1                 0.0000
      6 ****        -2.4050  -1.3513   0.4455 C.3            1 S1                 0.0000
      7 ****        -2.8097   0.1037   0.7449 C.3            1 S1                 0.0000
      8 ****        -0.8705  -1.5423   0.3121 C.3            1 S1                 0.0000
      9 ****        -0.4545  -3.0174   0.1659 C.3            1 S1                 0.0000
     10 ****        -0.3512  -0.7876  -0.8505 N.4            1 S1                 1.0000
     11 ****         0.4757   0.3919  -0.5129 C.3            1 S1                 0.0000
     12 ****         0.9767   1.1354  -1.7601 C.2            1 S1                 0.0000
     13 ****         0.6829   0.6926  -2.8720 O.2            1 S1                 0.0000
     14 ****         1.7264   2.2525  -1.6016 N.am           1 S1                 0.0000
     15 ****         2.1640   2.8255  -0.3246 C.3            1 S1                 0.0000
     16 ****         3.7012   2.7775  -0.2713 C.3            1 S1                 0.0000
     17 ****         4.2431   3.4783  -1.3879 O.3            1 S1                 0.0000
     18 ****         3.8212   2.9529  -2.6452 C.3            1 S1                 0.0000
     19 ****         4.4910   3.7695  -3.7557 C.3            1 S1                 0.0000
     20 ****         2.2824   3.0126  -2.7249 C.3            1 S1                 0.0000
     21 ****        -2.7692  -2.2354   2.8194 C.2            1 S1                 0.0000
     22 ****        -4.5303  -4.2574   4.9625 H              1 S1                 0.0000
     23 ****        -3.6410  -2.8297   5.4579 H              1 S1                 0.0000
     24 ****        -2.7814  -4.3136   5.0867 H              1 S1                 0.0000
     25 ****        -4.7980  -4.6869   2.1703 H              1 S1                 0.0000
     26 ****        -2.8575  -1.6211  -0.5110 H              1 S1                 0.0000
     27 ****        -2.5294   0.7722  -0.0689 H              1 S1                 0.0000
     28 ****        -2.3383   0.4720   1.6566 H              1 S1                 0.0000
     29 ****        -3.8894   0.1900   0.8719 H              1 S1                 0.0000
     30 ****        -0.3955  -1.1686   1.2211 H              1 S1                 0.0000
     31 ****        -0.7104  -3.6021   1.0497 H              1 S1                 0.0000
     32 ****         0.6234  -3.1076   0.0270 H              1 S1                 0.0000
     33 ****        -0.9399  -3.4822  -0.6931 H              1 S1                 0.0000
     34 ****         0.2183  -1.4123  -1.4034 H              1 S1                 0.0000
     35 ****        -0.1130   1.0744   0.1006 H              1 S1                 0.0000
     36 ****         1.3338   0.0627   0.0751 H              1 S1                 0.0000
     37 ****         1.8208   3.8590  -0.2604 H              1 S1                 0.0000
     38 ****         1.7562   2.3221   0.5503 H              1 S1                 0.0000
     39 ****         4.0623   3.2436   0.6456 H              1 S1                 0.0000
     40 ****         4.0580   1.7464  -0.2681 H              1 S1                 0.0000
     41 ****         4.1538   1.9164  -2.7258 H              1 S1                 0.0000
     42 ****         4.2141   3.3938  -4.7410 H              1 S1                 0.0000
     43 ****         5.5771   3.7195  -3.6749 H              1 S1                 0.0000
     44 ****         4.2010   4.8192  -3.7041 H              1 S1                 0.0000
     45 ****         1.9485   2.6404  -3.6945 H              1 S1                 0.0000
     46 ****         1.9386   4.0464  -2.6644 H              1 S1                 0.0000
     47 ****        -2.1247  -1.5130   3.2983 H              1 S1                 0.0000
     48 ****        -1.1311  -0.4878  -1.4181 H              1 S1                 0.0000
     49 ****        -4.1189  -3.4525   0.1557 LP             1 S1                 0.0000
     50 ****         0.1282  -0.1358  -2.9497 LP             1 S1                 0.0000
     51 ****         0.9991   1.1618  -3.6966 LP             1 S1                 0.0000
     52 ****         5.2406   3.4262  -1.3412 LP             1 S1                 0.0000
     53 ****         3.9562   4.4347  -1.3316 LP             1 S1                 0.0000
@<TRIPOS>BOND
    1    1    2 1     
    2    1   22 1     
    3    1   23 1     
    4    1   24 1     
    5    2   21 2     
    6    2    3 1     
    7    3    4 2     
    8    3   25 1     
    9    4    5 1     
   10    5    6 1     
   11    5   21 1     
   12    6    7 1     
   13    6    8 1     
   14    6   26 1     
   15    7   27 1     
   16    7   28 1     
   17    7   29 1     
   18    8    9 1     
   19    8   10 1     
   20    8   30 1     
   21    9   31 1     
   22    9   32 1     
   23    9   33 1     
   24   10   11 1     
   25   10   34 1     
   26   10   48 1     
   27   11   12 1     
   28   11   35 1     
   29   11   36 1     
   30   12   13 2     
   31   12   14 am    
   32   14   20 1     
   33   14   15 1     
   34   15   16 1     
   35   15   37 1     
   36   15   38 1     
   37   16   17 1     
   38   16   39 1     
   39   16   40 1     
   40   17   18 1     
   41   18   19 1     
   42   18   20 1     
   43   18   41 1     
   44   19   42 1     
   45   19   43 1     
   46   19   44 1     
   47   20   45 1     
   48   20   46 1     
   49   21   47 1     
   50    4   49 1     
   51   13   50 1     
   52   13   51 1     
   53   17   52 1     
   54   17   53 1     
@<TRIPOS>SUBSTRUCTURE
      1 S1             1
@<TRIPOS>SET
LONE_PAIRS      STATIC     ATOMS    <user>   **** ""
5 49 50 51 52 53
DONOR_HYDROGENS      STATIC     ATOMS    <user>   **** ""
2 34 48
ATOM$BLUE        STATIC     ATOMS    COLORGROUP SYSTEM
5 49 50 51 52 53
ATOM$RED        STATIC     ATOMS    COLORGROUP SYSTEM
2 34 48
