AV-unprocessed.smi:532|AV-procd|sdf|2852|dock10
  -GOLD-   2262023343D 1   1.00000     0.00000
 Structure written by MMmdl.
 48 50  0  0  0  0  0  0  0  0  2 V2000
  153.5198  137.8625  159.2486 C   0  0  0  0  0  0  0  0  0  0  0  0
  153.4837  138.6489  158.0711 O   0  0  0  0  0  0  0  0  0  0  0  0
  152.1638  139.0102  157.7026 C   0  0  0  0  0  0  0  0  0  0  0  0
  152.2304  140.1072  156.6341 C   0  0  0  0  0  0  0  0  0  0  0  0
  150.9253  140.7217  156.4192 N   0  0  0  0  0  0  0  0  0  0  0  0
  150.3239  141.7071  157.1416 C   0  0  0  0  0  0  0  0  0  0  0  0
  150.9288  142.3207  158.2437 N   0  0  0  0  0  0  0  0  0  0  0  0
  151.6766  141.5449  159.2342 C   0  0  0  0  0  0  0  0  0  0  0  0
  152.9234  142.2857  159.7497 C   0  0  2  0  0  0  0  0  0  0  0  0
  153.7137  141.4243  160.7439 C   0  0  0  0  0  0  0  0  0  0  0  0
  152.5061  143.6254  160.3755 C   0  0  0  0  0  0  0  0  0  0  0  0
  151.6495  144.4477  159.3983 C   0  0  1  0  0  0  0  0  0  0  0  0
  152.4944  145.1228  158.3050 C   0  0  0  0  0  0  0  0  0  0  0  0
  150.4909  143.5868  158.8416 C   0  0  0  0  0  0  0  0  0  0  0  0
  149.0903  142.0149  156.7335 N   0  0  0  0  0  0  0  0  0  0  0  0
  148.8933  141.1680  155.6549 C   0  0  0  0  0  0  0  0  0  0  0  0
  149.9765  140.3721  155.4517 C   0  0  0  0  0  0  0  0  0  0  0  0
  150.0461  139.3331  154.3994 C   0  0  0  0  0  0  0  0  0  0  0  0
  151.0359  138.6142  154.2791 O   0  0  0  0  0  0  0  0  0  0  0  0
  148.9089  139.2938  153.6352 N   0  5  0  0  0  0  0  0  0  0  0  0
  147.7943  140.0879  153.7998 C   0  0  0  0  0  0  0  0  0  0  0  0
  146.8101  139.9869  153.0660 O   0  0  0  0  0  0  0  0  0  0  0  0
  147.7647  141.0197  154.8036 N   0  0  0  0  0  0  0  0  0  0  0  0
  146.5883  141.8693  155.0098 C   0  0  0  0  0  0  0  0  0  0  0  0
  154.5521  137.6059  159.4859 H   0  0  0  0  0  0  0  0  0  0  0  0
  152.9624  136.9337  159.1203 H   0  0  0  0  0  0  0  0  0  0  0  0
  153.1044  138.4063  160.0980 H   0  0  0  0  0  0  0  0  0  0  0  0
  151.6281  138.1406  157.3192 H   0  0  0  0  0  0  0  0  0  0  0  0
  151.6199  139.3727  158.5767 H   0  0  0  0  0  0  0  0  0  0  0  0
  152.9499  140.8632  156.9236 H   0  0  0  0  0  0  0  0  0  0  0  0
  152.6097  139.7117  155.6933 H   0  0  0  0  0  0  0  0  0  0  0  0
  151.0138  141.2911  160.0627 H   0  0  0  0  0  0  0  0  0  0  0  0
  151.9842  140.5996  158.7852 H   0  0  0  0  0  0  0  0  0  0  0  0
  153.5772  142.4842  158.8997 H   0  0  0  0  0  0  0  0  0  0  0  0
  153.1150  141.1828  161.6228 H   0  0  0  0  0  0  0  0  0  0  0  0
  154.6118  141.9410  161.0835 H   0  0  0  0  0  0  0  0  0  0  0  0
  154.0269  140.4856  160.2866 H   0  0  0  0  0  0  0  0  0  0  0  0
  151.9270  143.4341  161.2801 H   0  0  0  0  0  0  0  0  0  0  0  0
  153.3826  144.1938  160.6886 H   0  0  0  0  0  0  0  0  0  0  0  0
  151.1993  145.2589  159.9716 H   0  0  0  0  0  0  0  0  0  0  0  0
  152.9704  144.3935  157.6509 H   0  0  0  0  0  0  0  0  0  0  0  0
  153.2831  145.7351  158.7429 H   0  0  0  0  0  0  0  0  0  0  0  0
  151.8830  145.7800  157.6868 H   0  0  0  0  0  0  0  0  0  0  0  0
  149.8903  144.1602  158.1367 H   0  0  0  0  0  0  0  0  0  0  0  0
  149.8105  143.3425  159.6584 H   0  0  0  0  0  0  0  0  0  0  0  0
  146.3866  142.4656  154.1189 H   0  0  0  0  0  0  0  0  0  0  0  0
  146.7088  142.5607  155.8434 H   0  0  0  0  0  0  0  0  0  0  0  0
  145.7088  141.2587  155.2184 H   0  0  0  0  0  0  0  0  0  0  0  0
  1  2  1  0  0  0  0
  1 25  1  0  0  0  0
  1 26  1  0  0  0  0
  1 27  1  0  0  0  0
  2  3  1  0  0  0  0
  3  4  1  0  0  0  0
  3 28  1  0  0  0  0
  3 29  1  0  0  0  0
  4  5  1  0  0  0  0
  4 30  1  0  0  0  0
  4 31  1  0  0  0  0
  5 17  1  0  0  0  0
  5  6  1  0  0  0  0
  6  7  1  0  0  0  0
  6 15  2  0  0  0  0
  7 14  1  0  0  0  0
  7  8  1  0  0  0  0
  8  9  1  0  0  0  0
  8 32  1  0  0  0  0
  8 33  1  0  0  0  0
  9 10  1  0  0  0  0
  9 11  1  0  0  0  0
  9 34  1  0  0  0  0
 10 35  1  0  0  0  0
 10 36  1  0  0  0  0
 10 37  1  0  0  0  0
 11 12  1  0  0  0  0
 11 38  1  0  0  0  0
 11 39  1  0  0  0  0
 12 13  1  0  0  0  0
 12 14  1  0  0  0  0
 12 40  1  0  0  0  0
 13 41  1  0  0  0  0
 13 42  1  0  0  0  0
 13 43  1  0  0  0  0
 14 44  1  0  0  0  0
 14 45  1  0  0  0  0
 15 16  1  0  0  0  0
 16 23  1  0  0  0  0
 16 17  2  0  0  0  0
 17 18  1  0  0  0  0
 18 19  2  0  0  0  0
 18 20  1  0  0  0  0
 20 21  1  0  0  0  0
 21 22  2  0  0  0  0
 21 23  1  0  0  0  0
 23 24  1  0  0  0  0
 24 46  1  0  0  0  0
 24 47  1  0  0  0  0
 24 48  1  0  0  0  0
M  CHG  1  20  -1
M  END
> <s_m_source_file>
AV-unprocessed.smi

> <i_m_source_file_index>
532

> <i_lp_mmshare_version>
43012

> <i_f3d_flags>
0

> <s_epik_input>
W0NIM11uMWMoPU8pW25IXWMoPU8pYyhjMTIpbihbQ0gyXVtDSDJdT1tDSDNdKWMobjIpTjNbQ0gyXVtDQEBIXShbQ0gzXSlbQ0gyXVtDQEBIXShbQ0gzXSlbQ0gyXTM=

> <s_epik_cmdline>
J2VwaWtfcHl0aG9uJywgJy1waCcsICc3LjAnLCAnLXRuJywgJzgnLCAnLW1hJywgJzIwMCcsICctbWV0YWxfYmluZGluZycsICctaW1hZScsICc8aW5maWxlLm1hZT4nLCAnLW9tYWUnLCAnPG91dGZpbGUubWFlPic=

> <r_lp_tautomer_probability>
1

> <r_epik_Ionization_Penalty>
5.12128

> <r_epik_Ionization_Penalty_Charging>
0.0789629

> <r_epik_Ionization_Penalty_Neutral>
5.04232

> <r_epik_State_Penalty>
5.03111

> <r_epik_Charging_Adjusted_Penalty>
5.11007

> <i_epik_Tot_Q>
-1

> <i_epik_Tot_abs_Q>
1

> <r_epik_Metal_State_Penalty>
1.14201

> <b_epik_Metal_Only>
1

> <s_lp_Force_Field>
OPLS_2005

> <r_lp_Energy>
45.9264

> <b_lp_Chiralities_Consistent>
1

> <s_lp_Variant>
AV-unprocessed.smi:532-5

> <Gold.Version>
5.8.1

> <Gold.Id.Protein>
6NUR|6NUR_protein|mol2

> <Gold.PLP.Fitness>
44.7468

> <Gold.PLP.PLP>
-42.9852

> <Gold.PLP.part.hbond>
-1.0000

> <Gold.PLP.part.metal>
0.0000

> <Gold.PLP.part.buried>
-6.5935

> <Gold.PLP.part.nonpolar>
-39.1261

> <Gold.PLP.part.repulsive>
4.7689

> <Gold.PLP.ligand.clash>
0.0000

> <Gold.PLP.ligand.torsion>
0.8266

> <Gold.PLP.Chemscore.Hbond>
0.9913

> <Gold.PLP.Chemscore.CHOScore>
0.0000

> <Gold.PLP.Chemscore.Metal>
0.0000

> <Gold.Chemscore.Hbonds>
donor molecule, donor type, donor heavy atom, donor atom, acceptor molecule, acceptor atom, score
      P1  H  7997  8010       L1     2  0.93

> <Gold.PLP.Chemscore.Internal.Correction>
0.4410

> <Gold.Rescore>
     Score         DG    S(hbond)    S(metal)    S(lipo)     H(rot)  DE(clash)    DE(int)     intcor
     13.17     -16.17       0.82        0.00      98.89       1.41       0.46       2.55       ----

> <Gold.Chemscore.Fitness>
13.1651

> <Gold.Chemscore.DG>
-16.1711

> <Gold.Chemscore.ZeroCoef>
-5.4800

> <Gold.Chemscore.Hbond>
0.8210

> <Gold.Chemscore.Metal>
0.0000

> <Gold.Chemscore.Lipo>
98.8946

> <Gold.Chemscore.Internal_Hbond>
0.0000

> <Gold.Chemscore.DEClash>
0.4568

> <Gold.Chemscore.DEInternal>
2.5491

> <Gold.Chemscore.Rot>
1.4147

> <Gold.Chemscore.Internal.Correction>
   9.000000E+99

> <Gold.Chemscore.Hbonds>
donor molecule, donor type, donor heavy atom, donor atom, acceptor molecule, acceptor atom, score
      P1  H  7997  8010       L1     2  0.49

> <Gold.Chemscore.Hbond.Weighted>
-2.7420

> <Gold.Chemscore.Metal.Weighted>
-0.0000

> <Gold.Chemscore.Lipo.Weighted>
-11.5707

> <Gold.Chemscore.Internal_Hbond.Weighted>
0.0000

> <Gold.Chemscore.DEClash.Weighted>
0.4568

> <Gold.Chemscore.DEInternal.Weighted>
2.5491

> <Gold.Chemscore.Rot.Weighted>
3.6216

> <Gold.Chemscore.Internal.Correction.Weighted>
   9.000000E+99

> <Gold.Protein.RotatedTorsions>
[ 6907 6896 6895 6894 ] final   16.01 input  -60.11 | X-H torsion
[ 7974 7965 7964 7962 ] final   -4.40 input  175.53 | X-H torsion
[ 8008 7997 7996 7995 ] final   25.00 input   59.86 | X-H torsion
[ 10167 10162 10161 10158 ] final -127.40 input  -65.29 | X-H torsion
[ 10718 10713 10712 10709 ] final   93.09 input   66.30 | X-H torsion
[ 10763 10752 10751 10750 ] final   15.93 input  -60.55 | X-H torsion
[ 11005 11000 10999 10996 ] final   93.82 input  -57.11 | X-H torsion

> <Gold.Protein.ActiveResidues>
 VAL166  LYS551  ARG553  GLY616  TRP617  ASP618  TYR619  PRO620  LYS621  CYS622 
 ASP623  PHE694  ASN695  SER759  ASP760  ASP761  ALA762  ILE779  LEU786  VAL792 
 PHE793  MET794  SER795  GLU796  ALA797  LYS798  CYS799  TRP800  GLU811  SER814 

> <Gold.Protein.RotatedAtoms>
  151.8272  135.0633  160.0432 H   0  0  0  0  0  0  0  0  0  0  0  0  # atno 6907 bound_to 6896
  152.2907  133.5554  159.5564 H   0  0  0  0  0  0  0  0  0  0  0  0  # atno 6908 bound_to 6896
  150.7229  134.0348  159.3788 H   0  0  0  0  0  0  0  0  0  0  0  0  # atno 6909 bound_to 6896
  146.2373  140.1866  142.8332 H   0  0  0  0  0  0  0  0  0  0  0  0  # atno 7974 bound_to 7965
  155.0050  140.3130  155.4852 H   0  0  0  0  0  0  0  0  0  0  0  0  # atno 8008 bound_to 7997
  156.2919  140.2225  156.5103 H   0  0  0  0  0  0  0  0  0  0  0  0  # atno 8009 bound_to 7997
  154.7585  140.0461  157.0941 H   0  0  0  0  0  0  0  0  0  0  0  0  # atno 8010 bound_to 7997
  139.9613  143.5947  152.2444 H   0  0  0  0  0  0  0  0  0  0  0  0  # atno 10167 bound_to 10162
  157.6956  131.0466  150.3981 H   0  0  0  0  0  0  0  0  0  0  0  0  # atno 10718 bound_to 10713
  153.1479  135.6773  153.8927 H   0  0  0  0  0  0  0  0  0  0  0  0  # atno 10763 bound_to 10752
  153.8363  135.3111  155.3424 H   0  0  0  0  0  0  0  0  0  0  0  0  # atno 10764 bound_to 10752
  154.7839  135.4873  153.9989 H   0  0  0  0  0  0  0  0  0  0  0  0  # atno 10765 bound_to 10752
  139.8805  134.8811  156.3773 H   0  0  0  0  0  0  0  0  0  0  0  0  # atno 11005 bound_to 11000
  144.9892  140.8531  143.5350 LP  0  0  0  0  0  0  0  0  0  0  0  0  # atno 17320 bound_to 7965
  145.1869  139.2321  143.5263 LP  0  0  0  0  0  0  0  0  0  0  0  0  # atno 17321 bound_to 7965
  139.6552  144.7662  151.2069 LP  0  0  0  0  0  0  0  0  0  0  0  0  # atno 17342 bound_to 10162
  140.7552  143.6097  150.8618 LP  0  0  0  0  0  0  0  0  0  0  0  0  # atno 17343 bound_to 10162
  156.4377  130.3985  149.6718 LP  0  0  0  0  0  0  0  0  0  0  0  0  # atno 17370 bound_to 10713
  156.3913  130.7628  151.2629 LP  0  0  0  0  0  0  0  0  0  0  0  0  # atno 17371 bound_to 10713
  140.9423  133.7506  156.0162 LP  0  0  0  0  0  0  0  0  0  0  0  0  # atno 17394 bound_to 11000
  140.8205  134.3295  157.5383 LP  0  0  0  0  0  0  0  0  0  0  0  0  # atno 17395 bound_to 11000

$$$$
