AV-unprocessed.smi:3205|AV-procd|sdf|12255|dock10
  -GOLD-   2272018 93D 1   1.00000     0.00000
 Structure written by MMmdl.
 38 39  0  0  0  0  0  0  0  0  2 V2000
  149.0462  141.1420  154.5228 C   0  0  0  0  0  0  0  0  0  0  0  0
  147.9639  141.2655  155.6134 C   0  0  1  0  0  0  0  0  0  0  0  0
  148.4657  142.1085  156.7227 N   0  3  0  0  0  0  0  0  0  0  0  0
  149.5993  141.5506  157.4913 C   0  0  0  0  0  0  0  0  0  0  0  0
  150.9166  142.2577  157.1356 C   0  0  0  0  0  0  0  0  0  0  0  0
  151.3440  143.1724  158.1794 N   0  0  0  0  0  0  0  0  0  0  0  0
  150.8149  144.4020  158.5111 C   0  0  0  0  0  0  0  0  0  0  0  0
  151.5545  144.8959  159.5472 C   0  0  0  0  0  0  0  0  0  0  0  0
  152.5253  143.8830  159.7839 C   0  0  0  0  0  0  0  0  0  0  0  0
  152.3981  142.8536  158.9620 N   0  0  0  0  0  0  0  0  0  0  0  0
  146.6300  141.8507  155.0787 C   0  0  0  0  0  0  0  0  0  0  0  0
  146.8682  142.9315  154.0008 C   0  0  0  0  0  0  0  0  0  0  0  0
  145.5451  143.5545  153.5286 C   0  0  0  0  0  0  0  0  0  0  0  0
  144.8491  144.1067  154.6381 O   0  0  0  0  0  0  0  0  0  0  0  0
  144.4912  143.1259  155.6031 C   0  0  0  0  0  0  0  0  0  0  0  0
  145.7548  142.4733  156.1870 C   0  0  0  0  0  0  0  0  0  0  0  0
  148.7540  140.4423  153.7405 H   0  0  0  0  0  0  0  0  0  0  0  0
  149.9864  140.7689  154.9282 H   0  0  0  0  0  0  0  0  0  0  0  0
  149.2481  142.1051  154.0530 H   0  0  0  0  0  0  0  0  0  0  0  0
  147.7559  140.2699  156.0084 H   0  0  0  0  0  0  0  0  0  0  0  0
  148.7135  143.0204  156.3664 H   0  0  0  0  0  0  0  0  0  0  0  0
  149.4086  141.6493  158.5610 H   0  0  0  0  0  0  0  0  0  0  0  0
  149.6899  140.4854  157.2797 H   0  0  0  0  0  0  0  0  0  0  0  0
  151.7048  141.5181  156.9889 H   0  0  0  0  0  0  0  0  0  0  0  0
  150.8228  142.8041  156.1958 H   0  0  0  0  0  0  0  0  0  0  0  0
  149.9672  144.8197  157.9879 H   0  0  0  0  0  0  0  0  0  0  0  0
  151.4217  145.8374  160.0592 H   0  0  0  0  0  0  0  0  0  0  0  0
  153.3136  143.8659  160.5219 H   0  0  0  0  0  0  0  0  0  0  0  0
  146.0601  141.0396  154.6222 H   0  0  0  0  0  0  0  0  0  0  0  0
  147.5118  143.7168  154.3996 H   0  0  0  0  0  0  0  0  0  0  0  0
  147.3878  142.5143  153.1380 H   0  0  0  0  0  0  0  0  0  0  0  0
  145.7422  144.3482  152.8078 H   0  0  0  0  0  0  0  0  0  0  0  0
  144.9228  142.8138  153.0237 H   0  0  0  0  0  0  0  0  0  0  0  0
  143.9191  143.6074  156.3963 H   0  0  0  0  0  0  0  0  0  0  0  0
  143.8393  142.3763  155.1518 H   0  0  0  0  0  0  0  0  0  0  0  0
  145.4482  141.7184  156.9104 H   0  0  0  0  0  0  0  0  0  0  0  0
  146.3279  143.2212  156.7366 H   0  0  0  0  0  0  0  0  0  0  0  0
  147.7040  142.2227  157.3771 H   0  0  0  0  0  0  0  0  0  0  0  0
  1  2  1  0  0  0  0
  1 17  1  0  0  0  0
  1 18  1  0  0  0  0
  1 19  1  0  0  0  0
  2  3  1  0  0  0  0
  2 11  1  0  0  0  0
  2 20  1  0  0  0  0
  3  4  1  0  0  0  0
  3 21  1  0  0  0  0
  3 38  1  0  0  0  0
  4  5  1  0  0  0  0
  4 22  1  0  0  0  0
  4 23  1  0  0  0  0
  5  6  1  0  0  0  0
  5 24  1  0  0  0  0
  5 25  1  0  0  0  0
  6 10  1  0  0  0  0
  6  7  1  0  0  0  0
  7  8  2  0  0  0  0
  7 26  1  0  0  0  0
  8  9  1  0  0  0  0
  8 27  1  0  0  0  0
  9 10  2  0  0  0  0
  9 28  1  0  0  0  0
 11 16  1  0  0  0  0
 11 12  1  0  0  0  0
 11 29  1  0  0  0  0
 12 13  1  0  0  0  0
 12 30  1  0  0  0  0
 12 31  1  0  0  0  0
 13 14  1  0  0  0  0
 13 32  1  0  0  0  0
 13 33  1  0  0  0  0
 14 15  1  0  0  0  0
 15 16  1  0  0  0  0
 15 34  1  0  0  0  0
 15 35  1  0  0  0  0
 16 36  1  0  0  0  0
 16 37  1  0  0  0  0
M  CHG  1   3   1
M  END
> <s_m_source_file>
AV-unprocessed.smi

> <i_m_source_file_index>
3205

> <i_lp_mmshare_version>
43012

> <i_f3d_flags>
0

> <s_epik_input>
W0NIMl0xW0NIMl1PW0NIMl1bQ0gyXVtDSF0xW0NASF0oW0NIM10pW05IXVtDSDJdW0NIMl1uMltjSF1bY0hdW2NIXW4y

> <s_epik_cmdline>
J2VwaWtfcHl0aG9uJywgJy1waCcsICc3LjAnLCAnLXRuJywgJzgnLCAnLW1hJywgJzIwMCcsICctbWV0YWxfYmluZGluZycsICctaW1hZScsICc8aW5maWxlLm1hZT4nLCAnLW9tYWUnLCAnPG91dGZpbGUubWFlPic=

> <r_lp_tautomer_probability>
1

> <r_epik_Ionization_Penalty>
0.00310903

> <r_epik_Ionization_Penalty_Charging>
0.00310601

> <r_epik_Ionization_Penalty_Neutral>
3.02836e-06

> <r_epik_State_Penalty>
-0

> <r_epik_Charging_Adjusted_Penalty>
0.00310601

> <i_epik_Tot_Q>
1

> <i_epik_Tot_abs_Q>
1

> <r_epik_Metal_State_Penalty>
-0

> <b_epik_Metal_Only>
0

> <s_lp_Force_Field>
OPLS_2005

> <r_lp_Energy>
14.7607

> <b_lp_Chiralities_Consistent>
1

> <s_lp_Variant>
AV-unprocessed.smi:3205-2

> <Gold.Version>
5.8.1

> <Gold.Id.Protein>
6NUR|6NUR_protein|mol2

> <Gold.PLP.Fitness>
41.1054

> <Gold.PLP.PLP>
-34.6002

> <Gold.PLP.part.hbond>
-1.0000

> <Gold.PLP.part.metal>
0.0000

> <Gold.PLP.part.buried>
-4.2407

> <Gold.PLP.part.nonpolar>
-30.8116

> <Gold.PLP.part.repulsive>
0.1762

> <Gold.PLP.ligand.clash>
0.0000

> <Gold.PLP.ligand.torsion>
1.3541

> <Gold.PLP.Chemscore.Hbond>
2.0000

> <Gold.PLP.Chemscore.CHOScore>
1.0579

> <Gold.PLP.Chemscore.Metal>
0.0000

> <Gold.Chemscore.Hbonds>
donor molecule, donor type, donor heavy atom, donor atom, acceptor molecule, acceptor atom, score
      L1  H     3    21       P1  8028  2.00
      L1  C     7    26       P1  8028  0.45
      L1  C     7    26       P1  8029  0.63

> <Gold.PLP.Chemscore.Internal.Correction>
0.0399

> <Gold.Rescore>
     Score         DG    S(hbond)    S(metal)    S(lipo)     H(rot)  DE(clash)    DE(int)     intcor
     13.60     -15.03       1.00        0.00      89.47       1.66       0.29       1.14       ----

> <Gold.Chemscore.Fitness>
13.6003

> <Gold.Chemscore.DG>
-15.0319

> <Gold.Chemscore.ZeroCoef>
-5.4800

> <Gold.Chemscore.Hbond>
0.9978

> <Gold.Chemscore.Metal>
0.0000

> <Gold.Chemscore.Lipo>
89.4668

> <Gold.Chemscore.Internal_Hbond>
0.0000

> <Gold.Chemscore.DEClash>
0.2932

> <Gold.Chemscore.DEInternal>
1.1385

> <Gold.Chemscore.Rot>
1.6594

> <Gold.Chemscore.Internal.Correction>
   9.000000E+99

> <Gold.Chemscore.Hbonds>
donor molecule, donor type, donor heavy atom, donor atom, acceptor molecule, acceptor atom, score
      L1  H     3    21       P1  8028  0.97

> <Gold.Chemscore.Hbond.Weighted>
-3.3325

> <Gold.Chemscore.Metal.Weighted>
-0.0000

> <Gold.Chemscore.Lipo.Weighted>
-10.4676

> <Gold.Chemscore.Internal_Hbond.Weighted>
0.0000

> <Gold.Chemscore.DEClash.Weighted>
0.2932

> <Gold.Chemscore.DEInternal.Weighted>
1.1385

> <Gold.Chemscore.Rot.Weighted>
4.2482

> <Gold.Chemscore.Internal.Correction.Weighted>
   9.000000E+99

> <Gold.Protein.RotatedTorsions>
[ 6907 6896 6895 6894 ] final -133.33 input  -60.11 | X-H torsion
[ 7974 7965 7964 7962 ] final -121.66 input  175.53 | X-H torsion
[ 8008 7997 7996 7995 ] final  114.88 input   59.86 | X-H torsion
[ 10167 10162 10161 10158 ] final   10.06 input  -65.29 | X-H torsion
[ 10718 10713 10712 10709 ] final -108.64 input   66.30 | X-H torsion
[ 10763 10752 10751 10750 ] final  123.95 input  -60.55 | X-H torsion
[ 11005 11000 10999 10996 ] final -117.23 input  -57.11 | X-H torsion

> <Gold.Protein.ActiveResidues>
 VAL166  LYS551  ARG553  GLY616  TRP617  ASP618  TYR619  PRO620  LYS621  CYS622 
 ASP623  PHE694  ASN695  SER759  ASP760  ASP761  ALA762  ILE779  LEU786  VAL792 
 PHE793  MET794  SER795  GLU796  ALA797  LYS798  CYS799  TRP800  GLU811  SER814 

> <Gold.Protein.RotatedAtoms>
  150.9728  133.6326  159.2735 H   0  0  0  0  0  0  0  0  0  0  0  0  # atno 6907 bound_to 6896
  151.3609  135.0903  159.9444 H   0  0  0  0  0  0  0  0  0  0  0  0  # atno 6908 bound_to 6896
  152.5189  133.9301  159.7631 H   0  0  0  0  0  0  0  0  0  0  0  0  # atno 6909 bound_to 6896
  145.0379  140.8121  143.4284 H   0  0  0  0  0  0  0  0  0  0  0  0  # atno 7974 bound_to 7965
  156.2348  140.2950  156.0283 H   0  0  0  0  0  0  0  0  0  0  0  0  # atno 8008 bound_to 7997
  155.2123  140.0413  157.2952 H   0  0  0  0  0  0  0  0  0  0  0  0  # atno 8009 bound_to 7997
  154.6059  140.2439  155.7739 H   0  0  0  0  0  0  0  0  0  0  0  0  # atno 8010 bound_to 7997
  140.6217  143.8189  150.7183 H   0  0  0  0  0  0  0  0  0  0  0  0  # atno 10167 bound_to 10162
  156.0496  130.5723  150.7990 H   0  0  0  0  0  0  0  0  0  0  0  0  # atno 10718 bound_to 10713
  153.6536  135.3358  155.3107 H   0  0  0  0  0  0  0  0  0  0  0  0  # atno 10763 bound_to 10752
  154.8532  135.4347  154.1878 H   0  0  0  0  0  0  0  0  0  0  0  0  # atno 10764 bound_to 10752
  153.2827  135.7010  153.7445 H   0  0  0  0  0  0  0  0  0  0  0  0  # atno 10765 bound_to 10752
  141.0368  133.9896  157.3057 H   0  0  0  0  0  0  0  0  0  0  0  0  # atno 11005 bound_to 11000
  145.1685  139.2417  143.5354 LP  0  0  0  0  0  0  0  0  0  0  0  0  # atno 17320 bound_to 7965
  146.3506  140.1431  142.8594 LP  0  0  0  0  0  0  0  0  0  0  0  0  # atno 17321 bound_to 7965
  140.1781  143.4138  152.1953 LP  0  0  0  0  0  0  0  0  0  0  0  0  # atno 17342 bound_to 10162
  139.5444  144.7286  151.4629 LP  0  0  0  0  0  0  0  0  0  0  0  0  # atno 17343 bound_to 10162
  157.5408  131.0940  150.9829 LP  0  0  0  0  0  0  0  0  0  0  0  0  # atno 17370 bound_to 10713
  157.0112  130.5637  149.5321 LP  0  0  0  0  0  0  0  0  0  0  0  0  # atno 17371 bound_to 10713
  139.9247  135.0201  156.8191 LP  0  0  0  0  0  0  0  0  0  0  0  0  # atno 17394 bound_to 11000
  140.6307  133.9909  155.7660 LP  0  0  0  0  0  0  0  0  0  0  0  0  # atno 17395 bound_to 11000

$$$$
