AV-unprocessed.smi:2477|AV-procd|sdf|9761|dock6
  -GOLD-   2272013403D 1   1.00000     0.00000
 Structure written by MMmdl.
 51 53  0  0  0  0  0  0  0  0  1 V2000
  145.8631  131.2235  151.0663 C   0  0  0  0  0  0  0  0  0  0  0  0
  145.3931  132.5890  150.8185 N   0  0  0  0  0  0  0  0  0  0  0  0
  144.2537  132.7479  150.0122 C   0  0  0  0  0  0  0  0  0  0  0  0
  143.7544  133.9595  149.7323 C   0  0  0  0  0  0  0  0  0  0  0  0
  144.4161  135.1189  150.2808 C   0  0  0  0  0  0  0  0  0  0  0  0
  145.5189  134.9892  151.0616 C   0  0  0  0  0  0  0  0  0  0  0  0
  146.2313  136.0556  151.6397 N   0  0  0  0  0  0  0  0  0  0  0  0
  145.7962  137.0810  152.3948 C   0  0  0  0  0  0  0  0  0  0  0  0
  144.6327  137.2909  152.7353 O   0  0  0  0  0  0  0  0  0  0  0  0
  146.8185  137.8684  152.7566 N   0  0  0  0  0  0  0  0  0  0  0  0
  146.7154  139.0530  153.6042 C   0  0  2  0  0  0  0  0  0  0  0  0
  147.0740  140.3111  152.7906 C   0  0  0  0  0  0  0  0  0  0  0  0
  146.9916  141.5791  153.6544 C   0  0  0  0  0  0  0  0  0  0  0  0
  147.8833  141.4619  154.8997 C   0  0  0  0  0  0  0  0  0  0  0  0
  147.5372  140.2072  155.7187 C   0  0  0  0  0  0  0  0  0  0  0  0
  147.6014  138.9255  154.8672 C   0  0  2  0  0  0  0  0  0  0  0  0
  148.9589  138.7213  154.4847 O   0  0  0  0  0  0  0  0  0  0  0  0
  149.8330  138.3238  155.5347 C   0  0  0  0  0  0  0  0  0  0  0  0
  150.7238  139.4914  155.9707 C   0  0  0  0  0  0  0  0  0  0  0  0
  151.8207  139.5718  154.9040 C   0  0  0  0  0  0  0  0  0  0  0  0
  151.9153  138.1708  154.2798 C   0  0  0  0  0  0  0  0  0  0  0  0
  150.8327  137.3219  154.9579 C   0  0  0  0  0  0  0  0  0  0  0  0
  146.0611  133.6493  151.3630 C   0  0  0  0  0  0  0  0  0  0  0  0
  147.0607  133.4790  152.0657 O   0  0  0  0  0  0  0  0  0  0  0  0
  145.2274  130.4680  150.6034 H   0  0  0  0  0  0  0  0  0  0  0  0
  145.8881  131.0138  152.1367 H   0  0  0  0  0  0  0  0  0  0  0  0
  146.8703  131.0886  150.6695 H   0  0  0  0  0  0  0  0  0  0  0  0
  143.8158  131.8333  149.6392 H   0  0  0  0  0  0  0  0  0  0  0  0
  142.8778  134.0664  149.1105 H   0  0  0  0  0  0  0  0  0  0  0  0
  143.9920  136.0782  150.0373 H   0  0  0  0  0  0  0  0  0  0  0  0
  147.2248  136.0323  151.4600 H   0  0  0  0  0  0  0  0  0  0  0  0
  147.7439  137.6212  152.4379 H   0  0  0  0  0  0  0  0  0  0  0  0
  145.6761  139.1543  153.9234 H   0  0  0  0  0  0  0  0  0  0  0  0
  148.0810  140.2158  152.3817 H   0  0  0  0  0  0  0  0  0  0  0  0
  146.4028  140.4071  151.9365 H   0  0  0  0  0  0  0  0  0  0  0  0
  147.2862  142.4489  153.0667 H   0  0  0  0  0  0  0  0  0  0  0  0
  145.9578  141.7473  153.9591 H   0  0  0  0  0  0  0  0  0  0  0  0
  148.9307  141.4255  154.5974 H   0  0  0  0  0  0  0  0  0  0  0  0
  147.7734  142.3517  155.5202 H   0  0  0  0  0  0  0  0  0  0  0  0
  148.2109  140.1231  156.5720 H   0  0  0  0  0  0  0  0  0  0  0  0
  146.5332  140.3137  156.1314 H   0  0  0  0  0  0  0  0  0  0  0  0
  147.2398  138.0976  155.4801 H   0  0  0  0  0  0  0  0  0  0  0  0
  149.2754  137.8877  156.3649 H   0  0  0  0  0  0  0  0  0  0  0  0
  150.1845  140.4310  156.0896 H   0  0  0  0  0  0  0  0  0  0  0  0
  151.1764  139.2546  156.9345 H   0  0  0  0  0  0  0  0  0  0  0  0
  151.5393  140.2954  154.1377 H   0  0  0  0  0  0  0  0  0  0  0  0
  152.7706  139.8982  155.3285 H   0  0  0  0  0  0  0  0  0  0  0  0
  151.7298  138.2323  153.2068 H   0  0  0  0  0  0  0  0  0  0  0  0
  152.9038  137.7307  154.4155 H   0  0  0  0  0  0  0  0  0  0  0  0
  151.2811  136.7525  155.7731 H   0  0  0  0  0  0  0  0  0  0  0  0
  150.3686  136.6069  154.2775 H   0  0  0  0  0  0  0  0  0  0  0  0
  1  2  1  0  0  0  0
  1 25  1  0  0  0  0
  1 26  1  0  0  0  0
  1 27  1  0  0  0  0
  2 23  1  0  0  0  0
  2  3  1  0  0  0  0
  3  4  2  0  0  0  0
  3 28  1  0  0  0  0
  4  5  1  0  0  0  0
  4 29  1  0  0  0  0
  5  6  2  0  0  0  0
  5 30  1  0  0  0  0
  6  7  1  0  0  0  0
  6 23  1  0  0  0  0
  7  8  1  0  0  0  0
  7 31  1  0  0  0  0
  8  9  2  0  0  0  0
  8 10  1  0  0  0  0
 10 11  1  0  0  0  0
 10 32  1  0  0  0  0
 11 16  1  0  0  0  0
 11 12  1  0  0  0  0
 11 33  1  0  0  0  0
 12 13  1  0  0  0  0
 12 34  1  0  0  0  0
 12 35  1  0  0  0  0
 13 14  1  0  0  0  0
 13 36  1  0  0  0  0
 13 37  1  0  0  0  0
 14 15  1  0  0  0  0
 14 38  1  0  0  0  0
 14 39  1  0  0  0  0
 15 16  1  0  0  0  0
 15 40  1  0  0  0  0
 15 41  1  0  0  0  0
 16 17  1  0  0  0  0
 16 42  1  0  0  0  0
 17 18  1  0  0  0  0
 18 22  1  0  0  0  0
 18 19  1  0  0  0  0
 18 43  1  0  0  0  0
 19 20  1  0  0  0  0
 19 44  1  0  0  0  0
 19 45  1  0  0  0  0
 20 21  1  0  0  0  0
 20 46  1  0  0  0  0
 20 47  1  0  0  0  0
 21 22  1  0  0  0  0
 21 48  1  0  0  0  0
 21 49  1  0  0  0  0
 22 50  1  0  0  0  0
 22 51  1  0  0  0  0
 23 24  2  0  0  0  0
M  END
> <s_m_source_file>
AV-unprocessed.smi

> <i_m_source_file_index>
2477

> <i_lp_mmshare_version>
43012

> <i_f3d_flags>
0

> <s_epik_input>
W0NIM11uMVtjSF1bY0hdW2NIXWMoYzE9TylbTkhdQyg9TylbTkhdW0NAQEhdMltDSDJdW0NIMl1bQ0gyXVtDSDJdW0NASF0yT1tDSF0zW0NIMl1bQ0gyXVtDSDJdW0NIMl0z

> <s_epik_cmdline>
J2VwaWtfcHl0aG9uJywgJy1waCcsICc3LjAnLCAnLXRuJywgJzgnLCAnLW1hJywgJzIwMCcsICctbWV0YWxfYmluZGluZycsICctaW1hZScsICc8aW5maWxlLm1hZT4nLCAnLW9tYWUnLCAnPG91dGZpbGUubWFlPic=

> <r_lp_tautomer_probability>
1

> <r_epik_Ionization_Penalty>
2.40753e-05

> <r_epik_Ionization_Penalty_Charging>
4.84018e-06

> <r_epik_Ionization_Penalty_Neutral>
1.92352e-05

> <r_epik_State_Penalty>
-0

> <r_epik_Charging_Adjusted_Penalty>
4.84018e-06

> <i_epik_Tot_Q>
0

> <i_epik_Tot_abs_Q>
0

> <r_epik_Metal_State_Penalty>
-0

> <b_epik_Metal_Only>
0

> <s_lp_Force_Field>
OPLS_2005

> <r_lp_Energy>
42.349

> <b_lp_Chiralities_Consistent>
1

> <s_lp_Variant>
AV-unprocessed.smi:2477-3

> <Gold.Version>
5.8.1

> <Gold.Id.Protein>
6NUR|6NUR_protein|mol2

> <Gold.PLP.Fitness>
41.8990

> <Gold.PLP.PLP>
-38.1377

> <Gold.PLP.part.hbond>
-2.0000

> <Gold.PLP.part.metal>
0.0000

> <Gold.PLP.part.buried>
-1.0982

> <Gold.PLP.part.nonpolar>
-35.3822

> <Gold.PLP.part.repulsive>
0.6504

> <Gold.PLP.ligand.clash>
0.0000

> <Gold.PLP.ligand.torsion>
1.1242

> <Gold.PLP.Chemscore.Hbond>
1.9920

> <Gold.PLP.Chemscore.CHOScore>
0.0000

> <Gold.PLP.Chemscore.Metal>
0.0000

> <Gold.Chemscore.Hbonds>
donor molecule, donor type, donor heavy atom, donor atom, acceptor molecule, acceptor atom, score
      L1  H     7    31       P1  7948  1.00
      L1  H    10    32       P1  7948  0.98

> <Gold.PLP.Chemscore.Internal.Correction>
0.0337

> <Gold.Rescore>
     Score         DG    S(hbond)    S(metal)    S(lipo)     H(rot)  DE(clash)    DE(int)     intcor
     17.83     -20.76       1.93        0.00     105.30       1.36       1.86       1.06       ----

> <Gold.Chemscore.Fitness>
17.8344

> <Gold.Chemscore.DG>
-20.7580

> <Gold.Chemscore.ZeroCoef>
-5.4800

> <Gold.Chemscore.Hbond>
1.9252

> <Gold.Chemscore.Metal>
0.0000

> <Gold.Chemscore.Lipo>
105.3003

> <Gold.Chemscore.Internal_Hbond>
0.0000

> <Gold.Chemscore.DEClash>
1.8639

> <Gold.Chemscore.DEInternal>
1.0597

> <Gold.Chemscore.Rot>
1.3564

> <Gold.Chemscore.Internal.Correction>
   9.000000E+99

> <Gold.Chemscore.Hbonds>
donor molecule, donor type, donor heavy atom, donor atom, acceptor molecule, acceptor atom, score
      L1  H     7    31       P1  7948  0.99
      L1  H    10    32       P1  7948  0.92

> <Gold.Chemscore.Hbond.Weighted>
-6.4303

> <Gold.Chemscore.Metal.Weighted>
-0.0000

> <Gold.Chemscore.Lipo.Weighted>
-12.3201

> <Gold.Chemscore.Internal_Hbond.Weighted>
0.0000

> <Gold.Chemscore.DEClash.Weighted>
1.8639

> <Gold.Chemscore.DEInternal.Weighted>
1.0597

> <Gold.Chemscore.Rot.Weighted>
3.4724

> <Gold.Chemscore.Internal.Correction.Weighted>
   9.000000E+99

> <Gold.Protein.RotatedTorsions>
[ 6907 6896 6895 6894 ] final -133.61 input  -60.11 | X-H torsion
[ 7974 7965 7964 7962 ] final  -47.22 input  175.53 | X-H torsion
[ 8008 7997 7996 7995 ] final -116.87 input   59.86 | X-H torsion
[ 10167 10162 10161 10158 ] final  -64.51 input  -65.29 | X-H torsion
[ 10718 10713 10712 10709 ] final  -73.96 input   66.30 | X-H torsion
[ 10763 10752 10751 10750 ] final  -48.18 input  -60.55 | X-H torsion
[ 11005 11000 10999 10996 ] final   25.80 input  -57.11 | X-H torsion

> <Gold.Protein.ActiveResidues>
 VAL166  LYS551  ARG553  GLY616  TRP617  ASP618  TYR619  PRO620  LYS621  CYS622 
 ASP623  PHE694  ASN695  SER759  ASP760  ASP761  ALA762  ILE779  LEU786  VAL792 
 PHE793  MET794  SER795  GLU796  ALA797  LYS798  CYS799  TRP800  GLU811  SER814 

> <Gold.Protein.RotatedAtoms>
  150.9760  133.6294  159.2729 H   0  0  0  0  0  0  0  0  0  0  0  0  # atno 6907 bound_to 6896
  151.3566  135.0894  159.9430 H   0  0  0  0  0  0  0  0  0  0  0  0  # atno 6908 bound_to 6896
  152.5199  133.9342  159.7650 H   0  0  0  0  0  0  0  0  0  0  0  0  # atno 6909 bound_to 6896
  145.9639  140.7452  142.9444 H   0  0  0  0  0  0  0  0  0  0  0  0  # atno 7974 bound_to 7965
  155.0747  140.0394  157.2620 H   0  0  0  0  0  0  0  0  0  0  0  0  # atno 8008 bound_to 7997
  154.6954  140.2662  155.6746 H   0  0  0  0  0  0  0  0  0  0  0  0  # atno 8009 bound_to 7997
  156.2743  140.2751  156.1547 H   0  0  0  0  0  0  0  0  0  0  0  0  # atno 8010 bound_to 7997
  140.5795  143.2325  151.6371 H   0  0  0  0  0  0  0  0  0  0  0  0  # atno 10167 bound_to 10162
  156.0260  130.4406  150.2820 H   0  0  0  0  0  0  0  0  0  0  0  0  # atno 10718 bound_to 10713
  154.0735  135.6601  153.4827 H   0  0  0  0  0  0  0  0  0  0  0  0  # atno 10763 bound_to 10752
  153.0382  135.5163  154.7543 H   0  0  0  0  0  0  0  0  0  0  0  0  # atno 10764 bound_to 10752
  154.6616  135.3016  154.9826 H   0  0  0  0  0  0  0  0  0  0  0  0  # atno 10765 bound_to 10752
  140.3439  134.2302  155.7687 H   0  0  0  0  0  0  0  0  0  0  0  0  # atno 11005 bound_to 11000
  144.6821  140.2636  143.7315 LP  0  0  0  0  0  0  0  0  0  0  0  0  # atno 17320 bound_to 7965
  145.8002  139.1961  143.2052 LP  0  0  0  0  0  0  0  0  0  0  0  0  # atno 17321 bound_to 7965
  139.5162  144.3355  152.0788 LP  0  0  0  0  0  0  0  0  0  0  0  0  # atno 17342 bound_to 10162
  140.2503  144.4176  150.6224 LP  0  0  0  0  0  0  0  0  0  0  0  0  # atno 17343 bound_to 10162
  157.0924  131.0173  151.3117 LP  0  0  0  0  0  0  0  0  0  0  0  0  # atno 17370 bound_to 10713
  157.4844  130.7784  149.7445 LP  0  0  0  0  0  0  0  0  0  0  0  0  # atno 17371 bound_to 10713
  141.2031  133.7921  157.0358 LP  0  0  0  0  0  0  0  0  0  0  0  0  # atno 17394 bound_to 11000
  140.0758  134.9676  157.1543 LP  0  0  0  0  0  0  0  0  0  0  0  0  # atno 17395 bound_to 11000

$$$$
