#       Name:                AV-unprocessed.smi:2764
#       Creating user name   scv26
#       Creation time:       Fri Mar 27 15:09:24 2020


#       File generated by GOLD software.
#

@<TRIPOS>MOLECULE
AV-unprocessed.smi:2764
    52    54     1
SMALL
NO_CHARGES


@<TRIPOS>ATOM
      1 ****        -0.5219   3.7223  -1.0716 O.2            1 S1                 0.0000
      2 ****        -1.0483   2.8526  -0.3771 C.2            1 S1                 0.0000
      3 ****        -2.3659   2.7438  -0.1308 N.am           1 S1                 0.0000
      4 ****        -3.4193   3.5682  -0.6089 C.ar           1 S1                 0.0000
      5 ****        -4.7123   3.1995  -0.1726 C.ar           1 S1                 0.0000
      6 ****        -5.8262   3.9534  -0.5911 C.ar           1 S1                 0.0000
      7 ****        -5.6158   5.0575  -1.4361 C.ar           1 S1                 0.0000
      8 ****        -6.6553   5.8125  -1.8636 F              1 S1                 0.0000
      9 ****        -4.2973   5.3573  -1.8254 C.ar           1 S1                 0.0000
     10 ****        -3.2289   4.6351  -1.4253 N.ar           1 S1                 0.0000
     11 ****        -0.3573   1.8790   0.2344 N.am           1 S1                 0.0000
     12 ****         1.0954   1.7134   0.1838 C.3            1 S1                 0.0000
     13 ****         1.5632   1.1206  -1.1596 C.3            1 S1                 0.0000
     14 ****         1.1566  -0.3555  -1.3114 C.3            1 S1                 0.0000
     15 ****         1.6630  -1.1767  -0.1801 N.4            1 S1                 1.0000
     16 ****         1.3992  -2.6270  -0.3784 C.3            1 S1                 0.0000
     17 ****         2.4762  -3.5315   0.2573 C.3            1 S1                 0.0000
     18 ****         2.3295  -3.7910   1.7549 C.3            1 S1                 0.0000
     19 ****         2.7308  -5.2585   1.9381 C.3            1 S1                 0.0000
     20 ****         3.1923  -5.6840   0.6651 O.3            1 S1                 0.0000
     21 ****         2.4722  -4.9508  -0.3086 C.3            1 S1                 0.0000
     22 ****         1.1743  -0.6590   1.1258 C.3            1 S1                 0.0000
     23 ****         1.5753   0.8132   1.3346 C.3            1 S1                 0.0000
     24 ****        -2.6507   1.9811   0.4655 H              1 S1                 0.0000
     25 ****        -4.8549   2.3484   0.4775 H              1 S1                 0.0000
     26 ****        -6.8224   3.6887  -0.2688 H              1 S1                 0.0000
     27 ****        -4.0937   6.1973  -2.4731 H              1 S1                 0.0000
     28 ****        -0.8726   1.2126   0.7907 H              1 S1                 0.0000
     29 ****         1.5487   2.6982   0.3120 H              1 S1                 0.0000
     30 ****         1.1745   1.7031  -1.9956 H              1 S1                 0.0000
     31 ****         2.6496   1.1971  -1.2229 H              1 S1                 0.0000
     32 ****         0.0710  -0.4467  -1.3740 H              1 S1                 0.0000
     33 ****         1.5597  -0.7335  -2.2518 H              1 S1                 0.0000
     34 ****         0.3974  -2.8910  -0.0365 H              1 S1                 0.0000
     35 ****         1.4071  -2.8325  -1.4499 H              1 S1                 0.0000
     36 ****         3.4652  -3.1100   0.0691 H              1 S1                 0.0000
     37 ****         2.9728  -3.1276   2.3333 H              1 S1                 0.0000
     38 ****         1.3036  -3.6451   2.0949 H              1 S1                 0.0000
     39 ****         3.5040  -5.3900   2.6954 H              1 S1                 0.0000
     40 ****         1.8668  -5.8583   2.2270 H              1 S1                 0.0000
     41 ****         1.4581  -5.3464  -0.3897 H              1 S1                 0.0000
     42 ****         2.9469  -5.0142  -1.2881 H              1 S1                 0.0000
     43 ****         0.0900  -0.7673   1.1788 H              1 S1                 0.0000
     44 ****         1.5864  -1.2445   1.9443 H              1 S1                 0.0000
     45 ****         2.6617   0.8775   1.4085 H              1 S1                 0.0000
     46 ****         1.1865   1.1768   2.2867 H              1 S1                 0.0000
     47 ****         2.6670  -1.0666  -0.1860 H              1 S1                 0.0000
     48 ****        -1.0860   4.4243  -1.5063 LP             1 S1                 0.0000
     49 ****         0.4696   3.7266  -1.2010 LP             1 S1                 0.0000
     50 ****        -2.3085   4.8835  -1.7270 LP             1 S1                 0.0000
     51 ****         3.0247  -6.6631   0.5497 LP             1 S1                 0.0000
     52 ****         4.1714  -5.5008   0.5769 LP             1 S1                 0.0000
@<TRIPOS>BOND
    1    1    2 2     
    2    2    3 am    
    3    2   11 am    
    4    3    4 1     
    5    3   24 1     
    6    4   10 ar    
    7    4    5 ar    
    8    5    6 ar    
    9    5   25 1     
   10    6    7 ar    
   11    6   26 1     
   12    7    8 1     
   13    7    9 ar    
   14    9   10 ar    
   15    9   27 1     
   16   11   12 1     
   17   11   28 1     
   18   12   23 1     
   19   12   13 1     
   20   12   29 1     
   21   13   14 1     
   22   13   30 1     
   23   13   31 1     
   24   14   15 1     
   25   14   32 1     
   26   14   33 1     
   27   15   16 1     
   28   15   22 1     
   29   15   47 1     
   30   16   17 1     
   31   16   34 1     
   32   16   35 1     
   33   17   21 1     
   34   17   18 1     
   35   17   36 1     
   36   18   19 1     
   37   18   37 1     
   38   18   38 1     
   39   19   20 1     
   40   19   39 1     
   41   19   40 1     
   42   20   21 1     
   43   21   41 1     
   44   21   42 1     
   45   22   23 1     
   46   22   43 1     
   47   22   44 1     
   48   23   45 1     
   49   23   46 1     
   50    1   48 1     
   51    1   49 1     
   52   10   50 1     
   53   20   51 1     
   54   20   52 1     
@<TRIPOS>SUBSTRUCTURE
      1 S1             1
@<TRIPOS>SET
LONE_PAIRS      STATIC     ATOMS    <user>   **** ""
5 48 49 50 51 52
DONOR_HYDROGENS      STATIC     ATOMS    <user>   **** ""
3 24 28 47
ATOM$BLUE        STATIC     ATOMS    COLORGROUP SYSTEM
5 48 49 50 51 52
ATOM$RED        STATIC     ATOMS    COLORGROUP SYSTEM
3 24 28 47
