#       Name:                AV-unprocessed.smi:101
#       Creating user name   scv26
#       Creation time:       Thu Mar 26 17:45:28 2020


#       File generated by GOLD software.
#

@<TRIPOS>MOLECULE
AV-unprocessed.smi:101
    56    58     1
SMALL
NO_CHARGES


@<TRIPOS>ATOM
      1 ****        -2.5380   1.8632  -2.1548 C.3            1 S1                 0.0000
      2 ****        -2.9486   1.5431  -0.7280 C.2            1 S1                 0.0000
      3 ****        -2.1437   0.8615   0.1171 C.2            1 S1                 0.0000
      4 ****        -2.5192   0.5749   1.4195 N.am           1 S1                 0.0000
      5 ****        -1.6010  -0.1743   2.3706 C.3            1 S1                 0.0000
      6 ****        -0.3014  -0.1865   1.8561 O.3            1 S1                 0.0000
      7 ****        -0.0073  -1.4738   1.3266 C.3            1 S1                 0.0000
      8 ****         1.5060  -1.6786   1.1785 C.3            1 S1                 0.0000
      9 ****         1.9438  -0.9419   0.0491 O.3            1 S1                 0.0000
     10 ****         3.2562  -0.8306  -0.2259 C.2            1 S1                 0.0000
     11 ****         4.1438  -1.3482   0.4551 O.2            1 S1                 0.0000
     12 ****         3.5212  -0.0111  -1.4437 C.ar           1 S1                 0.0000
     13 ****         4.8569   0.2202  -1.8478 C.ar           1 S1                 0.0000
     14 ****         5.1366   0.9907  -2.9933 C.ar           1 S1                 0.0000
     15 ****         4.0840   1.5385  -3.7493 C.ar           1 S1                 0.0000
     16 ****         2.7509   1.3160  -3.3580 C.ar           1 S1                 0.0000
     17 ****         2.4691   0.5469  -2.2122 C.ar           1 S1                 0.0000
     18 ****        -0.7239  -2.4100   2.3017 C.3            1 S1                 0.0000
     19 ****         0.0381  -2.5826   3.4824 O.3            1 S1                 0.0000
     20 ****        -2.0142  -1.6531   2.5963 C.3            1 S1                 0.0000
     21 ****        -3.0337  -2.1065   1.7225 O.3            1 S1                 0.0000
     22 ****        -3.7814   1.0159   1.8958 C.2            1 S1                 0.0000
     23 ****        -4.0834   0.7466   3.0588 O.2            1 S1                 0.0000
     24 ****        -4.6009   1.7024   1.0503 N.pl3          1 S1                -1.0000
     25 ****        -4.2580   1.9903  -0.2381 C.2            1 S1                 0.0000
     26 ****        -5.0089   2.6085  -0.9920 O.2            1 S1                 0.0000
     27 ****        -1.5536   1.4552  -2.3856 H              1 S1                 0.0000
     28 ****        -2.5006   2.9424  -2.3067 H              1 S1                 0.0000
     29 ****        -3.2525   1.4397  -2.8614 H              1 S1                 0.0000
     30 ****        -1.1804   0.5418  -0.2484 H              1 S1                 0.0000
     31 ****        -1.5913   0.4179   3.2873 H              1 S1                 0.0000
     32 ****        -0.4834  -1.5752   0.3498 H              1 S1                 0.0000
     33 ****         2.0291  -1.3582   2.0807 H              1 S1                 0.0000
     34 ****         1.7290  -2.7344   1.0200 H              1 S1                 0.0000
     35 ****         5.6815  -0.1904  -1.2828 H              1 S1                 0.0000
     36 ****         6.1605   1.1615  -3.2915 H              1 S1                 0.0000
     37 ****         4.2985   2.1289  -4.6279 H              1 S1                 0.0000
     38 ****         1.9414   1.7359  -3.9370 H              1 S1                 0.0000
     39 ****         1.4343   0.3967  -1.9402 H              1 S1                 0.0000
     40 ****        -0.9009  -3.3947   1.8665 H              1 S1                 0.0000
     41 ****         0.1999  -1.7306   3.8581 H              1 S1                 0.0000
     42 ****        -2.3537  -1.7893   3.6240 H              1 S1                 0.0000
     43 ****        -3.7990  -1.5674   1.8578 H              1 S1                 0.0000
     44 ****         0.3471   0.0287   2.5862 LP             1 S1                 0.0000
     45 ****        -0.2249   0.4969   1.1301 LP             1 S1                 0.0000
     46 ****         3.9043  -1.8867   1.2630 LP             1 S1                 0.0000
     47 ****         5.1033  -1.2297   0.1996 LP             1 S1                 0.0000
     48 ****         0.9071  -3.0258   3.2623 LP             1 S1                 0.0000
     49 ****        -0.4692  -3.1482   4.1326 LP             1 S1                 0.0000
     50 ****        -3.2522  -3.0615   1.9235 LP             1 S1                 0.0000
     51 ****        -2.7269  -2.0273   0.7740 LP             1 S1                 0.0000
     52 ****        -3.4473   0.2328   3.6344 LP             1 S1                 0.0000
     53 ****        -4.9649   1.0416   3.4276 LP             1 S1                 0.0000
     54 ****        -5.4910   2.0078   1.3888 LP             1 S1                 0.0000
     55 ****        -4.7255   2.8029  -1.9311 LP             1 S1                 0.0000
     56 ****        -5.9026   2.9164  -0.6655 LP             1 S1                 0.0000
@<TRIPOS>BOND
    1    1    2 1     
    2    1   27 1     
    3    1   28 1     
    4    1   29 1     
    5    2   25 1     
    6    2    3 2     
    7    3    4 1     
    8    3   30 1     
    9    4    5 1     
   10    4   22 am    
   11    5   20 1     
   12    5    6 1     
   13    5   31 1     
   14    6    7 1     
   15    7    8 1     
   16    7   18 1     
   17    7   32 1     
   18    8    9 1     
   19    8   33 1     
   20    8   34 1     
   21    9   10 1     
   22   10   11 2     
   23   10   12 1     
   24   12   17 ar    
   25   12   13 ar    
   26   13   14 ar    
   27   13   35 1     
   28   14   15 ar    
   29   14   36 1     
   30   15   16 ar    
   31   15   37 1     
   32   16   17 ar    
   33   16   38 1     
   34   17   39 1     
   35   18   19 1     
   36   18   20 1     
   37   18   40 1     
   38   19   41 1     
   39   20   21 1     
   40   20   42 1     
   41   21   43 1     
   42   22   23 2     
   43   22   24 1     
   44   24   25 1     
   45   25   26 2     
   46    6   44 1     
   47    6   45 1     
   48   11   46 1     
   49   11   47 1     
   50   19   48 1     
   51   19   49 1     
   52   21   50 1     
   53   21   51 1     
   54   23   52 1     
   55   23   53 1     
   56   24   54 1     
   57   26   55 1     
   58   26   56 1     
@<TRIPOS>SUBSTRUCTURE
      1 S1             1
@<TRIPOS>SET
LONE_PAIRS      STATIC     ATOMS    <user>   **** ""
13 44 45 46 47 48 49 50 51 52 53 54 55 56
DONOR_HYDROGENS      STATIC     ATOMS    <user>   **** ""
2 41 43
ATOM$BLUE        STATIC     ATOMS    COLORGROUP SYSTEM
13 44 45 46 47 48 49 50 51 52 53 54 55 56
ATOM$RED        STATIC     ATOMS    COLORGROUP SYSTEM
2 41 43
