AV-unprocessed.smi:34|AV-procd|sdf|246|dock5
  -GOLD-   2262016 03D 1   1.00000     0.00000
 Structure written by MMmdl.
 54 58  0  0  0  0  0  0  0  0  2 V2000
  151.3126  140.6651  155.4755 O   0  0  0  0  0  0  0  0  0  0  0  0
  150.5822  141.3746  156.1707 C   0  0  0  0  0  0  0  0  0  0  0  0
  149.2490  141.5870  156.0300 N   0  5  0  0  0  0  0  0  0  0  0  0
  148.5707  140.9562  155.0596 C   0  0  0  0  0  0  0  0  0  0  0  0
  148.4524  141.5186  153.8300 N   0  0  0  0  0  0  0  0  0  0  0  0
  147.7742  140.8912  152.8631 C   0  0  0  0  0  0  0  0  0  0  0  0
  147.1422  139.7148  152.9088 N   0  0  0  0  0  0  0  0  0  0  0  0
  147.2426  139.1415  154.1433 C   0  0  0  0  0  0  0  0  0  0  0  0
  147.9323  139.7012  155.2587 C   0  0  0  0  0  0  0  0  0  0  0  0
  147.8398  138.8685  156.3635 N   0  0  0  0  0  0  0  0  0  0  0  0
  147.1149  137.8624  155.8808 C   0  0  0  0  0  0  0  0  0  0  0  0
  146.7286  137.9330  154.5910 N   0  0  0  0  0  0  0  0  0  0  0  0
  145.9050  136.9265  153.8493 C   0  0  1  0  0  0  0  0  0  0  0  0
  144.6798  136.7882  154.5120 O   0  0  0  0  0  0  0  0  0  0  0  0
  143.6143  137.2107  153.6638 C   0  0  2  0  0  0  0  0  0  0  0  0
  142.3147  136.4746  154.0133 C   0  0  0  0  0  0  0  0  0  0  0  0
  141.3330  137.4145  154.4201 O   0  0  0  0  0  0  0  0  0  0  0  0
  140.0334  137.0599  154.4501 C   0  0  0  0  0  0  0  0  0  0  0  0
  139.6453  135.9105  154.6691 O   0  0  0  0  0  0  0  0  0  0  0  0
  139.1125  138.2020  154.1824 C   0  0  0  0  0  0  0  0  0  0  0  0
  137.7182  138.0168  154.3332 C   0  0  0  0  0  0  0  0  0  0  0  0
  136.8226  139.0742  154.0824 C   0  0  0  0  0  0  0  0  0  0  0  0
  137.3104  140.3312  153.6808 C   0  0  0  0  0  0  0  0  0  0  0  0
  138.6953  140.5293  153.5298 C   0  0  0  0  0  0  0  0  0  0  0  0
  139.5927  139.4720  153.7780 C   0  0  0  0  0  0  0  0  0  0  0  0
  144.1561  136.9505  152.2588 C   0  0  2  0  0  0  0  0  0  0  0  0
  144.0761  135.6420  151.9971 F   0  0  0  0  0  0  0  0  0  0  0  0
  145.6047  137.3856  152.4138 C   0  0  2  0  0  0  0  0  0  0  0  0
  146.4198  136.7682  151.4380 O   0  0  0  0  0  0  0  0  0  0  0  0
  151.1987  142.1774  157.2849 C   0  0  0  0  0  0  0  0  0  0  0  0
  151.2949  143.5828  157.1647 C   0  0  0  0  0  0  0  0  0  0  0  0
  151.8907  144.3502  158.1845 C   0  0  0  0  0  0  0  0  0  0  0  0
  152.4058  143.7191  159.3322 C   0  0  0  0  0  0  0  0  0  0  0  0
  152.3286  142.3193  159.4570 C   0  0  0  0  0  0  0  0  0  0  0  0
  151.7329  141.5512  158.4377 C   0  0  0  0  0  0  0  0  0  0  0  0
  147.7322  141.4059  151.9148 H   0  0  0  0  0  0  0  0  0  0  0  0
  146.8507  137.0207  156.5042 H   0  0  0  0  0  0  0  0  0  0  0  0
  146.4625  135.9903  153.9069 H   0  0  0  0  0  0  0  0  0  0  0  0
  143.4630  138.2808  153.8001 H   0  0  0  0  0  0  0  0  0  0  0  0
  141.9602  135.8980  153.1578 H   0  0  0  0  0  0  0  0  0  0  0  0
  142.4952  135.7710  154.8271 H   0  0  0  0  0  0  0  0  0  0  0  0
  137.3198  137.0602  154.6394 H   0  0  0  0  0  0  0  0  0  0  0  0
  135.7599  138.9195  154.1983 H   0  0  0  0  0  0  0  0  0  0  0  0
  136.6233  141.1421  153.4889 H   0  0  0  0  0  0  0  0  0  0  0  0
  139.0711  141.4942  153.2230 H   0  0  0  0  0  0  0  0  0  0  0  0
  140.6493  139.6578  153.6528 H   0  0  0  0  0  0  0  0  0  0  0  0
  143.6188  137.4867  151.4761 H   0  0  0  0  0  0  0  0  0  0  0  0
  145.6796  138.4705  152.3342 H   0  0  0  0  0  0  0  0  0  0  0  0
  147.3015  136.7159  151.7743 H   0  0  0  0  0  0  0  0  0  0  0  0
  150.9065  144.0825  156.2889 H   0  0  0  0  0  0  0  0  0  0  0  0
  151.9537  145.4236  158.0843 H   0  0  0  0  0  0  0  0  0  0  0  0
  152.8630  144.3071  160.1140 H   0  0  0  0  0  0  0  0  0  0  0  0
  152.7289  141.8324  160.3340 H   0  0  0  0  0  0  0  0  0  0  0  0
  151.6936  140.4770  158.5491 H   0  0  0  0  0  0  0  0  0  0  0  0
  1  2  2  0  0  0  0
  2  3  1  0  0  0  0
  2 30  1  0  0  0  0
  3  4  1  0  0  0  0
  4  9  1  0  0  0  0
  4  5  2  0  0  0  0
  5  6  1  0  0  0  0
  6  7  2  0  0  0  0
  6 36  1  0  0  0  0
  7  8  1  0  0  0  0
  8 12  1  0  0  0  0
  8  9  2  0  0  0  0
  9 10  1  0  0  0  0
 10 11  2  0  0  0  0
 11 12  1  0  0  0  0
 11 37  1  0  0  0  0
 12 13  1  0  0  0  0
 13 28  1  0  0  0  0
 13 14  1  0  0  0  0
 13 38  1  0  0  0  0
 14 15  1  0  0  0  0
 15 16  1  0  0  0  0
 15 26  1  0  0  0  0
 15 39  1  0  0  0  0
 16 17  1  0  0  0  0
 16 40  1  0  0  0  0
 16 41  1  0  0  0  0
 17 18  1  0  0  0  0
 18 19  2  0  0  0  0
 18 20  1  0  0  0  0
 20 25  1  0  0  0  0
 20 21  2  0  0  0  0
 21 22  1  0  0  0  0
 21 42  1  0  0  0  0
 22 23  2  0  0  0  0
 22 43  1  0  0  0  0
 23 24  1  0  0  0  0
 23 44  1  0  0  0  0
 24 25  2  0  0  0  0
 24 45  1  0  0  0  0
 25 46  1  0  0  0  0
 26 27  1  0  0  0  0
 26 28  1  0  0  0  0
 26 47  1  0  0  0  0
 28 29  1  0  0  0  0
 28 48  1  0  0  0  0
 29 49  1  0  0  0  0
 30 35  1  0  0  0  0
 30 31  2  0  0  0  0
 31 32  1  0  0  0  0
 31 50  1  0  0  0  0
 32 33  2  0  0  0  0
 32 51  1  0  0  0  0
 33 34  1  0  0  0  0
 33 52  1  0  0  0  0
 34 35  2  0  0  0  0
 34 53  1  0  0  0  0
 35 54  1  0  0  0  0
M  CHG  1   3  -1
M  END
> <s_m_source_file>
AV-unprocessed.smi

> <i_m_source_file_index>
34

> <i_lp_mmshare_version>
43012

> <i_f3d_flags>
0

> <s_epik_input>
W2NIXTFbY0hdW2NIXVtjSF1bY0hdYzFDKD1PKVtOSF1jKG5bY0hdbjIpYyhjMjMpbltjSF1uM1tDQEBIXTRPW0NASF0oW0NAQEhdKEYpW0NASF00W09IXSlbQ0gyXU9DKD1PKWM1W2NIXVtjSF1bY0hdW2NIXVtjSF01

> <s_epik_cmdline>
J2VwaWtfcHl0aG9uJywgJy1waCcsICc3LjAnLCAnLXRuJywgJzgnLCAnLW1hJywgJzIwMCcsICctbWV0YWxfYmluZGluZycsICctaW1hZScsICc8aW5maWxlLm1hZT4nLCAnLW9tYWUnLCAnPG91dGZpbGUubWFlPic=

> <r_lp_tautomer_probability>
1

> <r_epik_Ionization_Penalty>
4.33227

> <r_epik_Ionization_Penalty_Charging>
3.41027

> <r_epik_Ionization_Penalty_Neutral>
0.922001

> <r_epik_State_Penalty>
3.41358

> <r_epik_Charging_Adjusted_Penalty>
6.82385

> <i_epik_Tot_Q>
-1

> <i_epik_Tot_abs_Q>
1

> <r_epik_Metal_State_Penalty>
0.496292

> <b_epik_Metal_Only>
1

> <s_epik_Chemistry_Notes>
This compound has an ester and may undergo hydrolysis at high or low pH. This compound contains an acetal/aminal-like group ( X-CH(R)-Y where X, Y are N, S, or O) that may be acid/base labile, releasing an aldehyde.

> <s_lp_Force_Field>
OPLS_2005

> <r_lp_Energy>
46.0199

> <b_lp_Chiralities_Consistent>
1

> <s_lp_Variant>
AV-unprocessed.smi:34-32

> <Gold.Version>
5.8.1

> <Gold.Id.Protein>
6NUR|6NUR_protein|mol2

> <Gold.PLP.Fitness>
54.2134

> <Gold.PLP.PLP>
-50.4328

> <Gold.PLP.part.hbond>
-4.1979

> <Gold.PLP.part.metal>
0.0000

> <Gold.PLP.part.buried>
-1.4777

> <Gold.PLP.part.nonpolar>
-44.7078

> <Gold.PLP.part.repulsive>
1.2804

> <Gold.PLP.ligand.clash>
0.0000

> <Gold.PLP.ligand.torsion>
3.2707

> <Gold.PLP.Chemscore.Hbond>
3.0555

> <Gold.PLP.Chemscore.CHOScore>
0.2219

> <Gold.PLP.Chemscore.Metal>
0.0000

> <Gold.Chemscore.Hbonds>
donor molecule, donor type, donor heavy atom, donor atom, acceptor molecule, acceptor atom, score
      L1  H    29    49       P1  7948  1.00
      P1  H  7989  7998       L1     1  0.80
      P1  H  8011  8017       L1     5  0.19
      P1  H 11000 11005       L1    19  1.00
      L1  C     6    36       P1  7957  0.20

> <Gold.PLP.Chemscore.Internal.Correction>
0.4897

> <Gold.Rescore>
     Score         DG    S(hbond)    S(metal)    S(lipo)     H(rot)  DE(clash)    DE(int)     intcor
     15.87     -21.86       2.88        0.00     116.73       2.69       1.51       4.48       ----

> <Gold.Chemscore.Fitness>
15.8706

> <Gold.Chemscore.DG>
-21.8595

> <Gold.Chemscore.ZeroCoef>
-5.4800

> <Gold.Chemscore.Hbond>
2.8803

> <Gold.Chemscore.Metal>
0.0000

> <Gold.Chemscore.Lipo>
116.7255

> <Gold.Chemscore.Internal_Hbond>
0.0000

> <Gold.Chemscore.DEClash>
1.5125

> <Gold.Chemscore.DEInternal>
4.4765

> <Gold.Chemscore.Rot>
2.6944

> <Gold.Chemscore.Internal.Correction>
   9.000000E+99

> <Gold.Chemscore.Hbonds>
donor molecule, donor type, donor heavy atom, donor atom, acceptor molecule, acceptor atom, score
      L1  H    29    49       P1  7948  0.99
      P1  H  7989  7998       L1     1  0.76
      P1  H  8011  8017       L1     5  0.01
      P1  H 11000 11005       L1    19  1.00

> <Gold.Chemscore.Hbond.Weighted>
-9.6201

> <Gold.Chemscore.Metal.Weighted>
-0.0000

> <Gold.Chemscore.Lipo.Weighted>
-13.6569

> <Gold.Chemscore.Internal_Hbond.Weighted>
0.0000

> <Gold.Chemscore.DEClash.Weighted>
1.5125

> <Gold.Chemscore.DEInternal.Weighted>
4.4765

> <Gold.Chemscore.Rot.Weighted>
6.8975

> <Gold.Chemscore.Internal.Correction.Weighted>
   9.000000E+99

> <Gold.Protein.RotatedTorsions>
[ 6907 6896 6895 6894 ] final  -13.92 input  -60.11 | X-H torsion
[ 7974 7965 7964 7962 ] final  -51.76 input  175.53 | X-H torsion
[ 8008 7997 7996 7995 ] final  -59.02 input   59.86 | X-H torsion
[ 10167 10162 10161 10158 ] final  179.44 input  -65.29 | X-H torsion
[ 10718 10713 10712 10709 ] final   49.58 input   66.30 | X-H torsion
[ 10763 10752 10751 10750 ] final    2.13 input  -60.55 | X-H torsion
[ 11005 11000 10999 10996 ] final   62.47 input  -57.11 | X-H torsion

> <Gold.Protein.ActiveResidues>
 VAL166  LYS551  ARG553  GLY616  TRP617  ASP618  TYR619  PRO620  LYS621  CYS622 
 ASP623  PHE694  ASN695  SER759  ASP760  ASP761  ALA762  ILE779  LEU786  VAL792 
 PHE793  MET794  SER795  GLU796  ALA797  LYS798  CYS799  TRP800  GLU811  SER814 

> <Gold.Protein.RotatedAtoms>
  151.3475  135.0877  159.9391 H   0  0  0  0  0  0  0  0  0  0  0  0  # atno 6907 bound_to 6896
  152.5196  133.9386  159.7625 H   0  0  0  0  0  0  0  0  0  0  0  0  # atno 6908 bound_to 6896
  150.9754  133.6246  159.2760 H   0  0  0  0  0  0  0  0  0  0  0  0  # atno 6909 bound_to 6896
  145.9154  140.7879  142.9674 H   0  0  0  0  0  0  0  0  0  0  0  0  # atno 7974 bound_to 7965
  154.4334  140.1071  156.6049 H   0  0  0  0  0  0  0  0  0  0  0  0  # atno 8008 bound_to 7997
  155.5871  140.3491  155.4537 H   0  0  0  0  0  0  0  0  0  0  0  0  # atno 8009 bound_to 7997
  156.0275  140.1253  157.0283 H   0  0  0  0  0  0  0  0  0  0  0  0  # atno 8010 bound_to 7997
  139.5336  144.2561  152.0745 H   0  0  0  0  0  0  0  0  0  0  0  0  # atno 10167 bound_to 10162
  157.4800  130.8309  149.8083 H   0  0  0  0  0  0  0  0  0  0  0  0  # atno 10718 bound_to 10713
  153.2994  135.6955  153.7217 H   0  0  0  0  0  0  0  0  0  0  0  0  # atno 10763 bound_to 10752
  153.6137  135.3440  155.2988 H   0  0  0  0  0  0  0  0  0  0  0  0  # atno 10764 bound_to 10752
  154.8546  135.4369  154.2101 H   0  0  0  0  0  0  0  0  0  0  0  0  # atno 10765 bound_to 10752
  140.0090  134.6325  155.9810 H   0  0  0  0  0  0  0  0  0  0  0  0  # atno 11005 bound_to 11000
  144.6747  140.1891  143.7398 LP  0  0  0  0  0  0  0  0  0  0  0  0  # atno 17320 bound_to 7965
  145.8618  139.2227  143.1712 LP  0  0  0  0  0  0  0  0  0  0  0  0  # atno 17321 bound_to 7965
  140.2028  144.4641  150.6423 LP  0  0  0  0  0  0  0  0  0  0  0  0  # atno 17342 bound_to 10162
  140.6530  143.2230  151.6034 LP  0  0  0  0  0  0  0  0  0  0  0  0  # atno 17343 bound_to 10162
  156.0117  130.3830  150.2244 LP  0  0  0  0  0  0  0  0  0  0  0  0  # atno 17370 bound_to 10713
  157.0430  131.0040  151.3278 LP  0  0  0  0  0  0  0  0  0  0  0  0  # atno 17371 bound_to 10713
  141.1697  133.6537  156.4608 LP  0  0  0  0  0  0  0  0  0  0  0  0  # atno 17394 bound_to 11000
  140.4589  134.6860  157.5076 LP  0  0  0  0  0  0  0  0  0  0  0  0  # atno 17395 bound_to 11000

$$$$
