AV-unprocessed.smi:2189|AV-procd|sdf|8886|dock6
  -GOLD-   2272012 83D 1   1.00000     0.00000
 Structure written by MMmdl.
 38 40  0  0  0  0  0  0  0  0  2 V2000
  151.6457  140.1269  155.4657 O   0  0  0  0  0  0  0  0  0  0  0  0
  150.9985  141.0652  155.9490 C   0  0  0  0  0  0  0  0  0  0  0  0
  149.7932  141.5152  155.4823 N   0  5  0  0  0  0  0  0  0  0  0  0
  148.9630  140.8471  154.4758 C   0  0  0  0  0  0  0  0  0  0  0  0
  147.5852  140.4793  155.0753 C   0  0  0  0  0  0  0  0  0  0  0  0
  146.4949  141.5343  154.8937 C   0  0  0  0  0  0  0  0  0  0  0  0
  146.5850  142.4866  153.8528 C   0  0  0  0  0  0  0  0  0  0  0  0
  145.5573  143.4388  153.7160 C   0  0  0  0  0  0  0  0  0  0  0  0
  144.4847  143.4139  154.6273 C   0  0  0  0  0  0  0  0  0  0  0  0
  144.4900  142.4350  155.6405 C   0  0  0  0  0  0  0  0  0  0  0  0
  145.4703  141.5174  155.7815 N   0  0  0  0  0  0  0  0  0  0  0  0
  151.5554  141.7949  157.1038 C   0  0  0  0  0  0  0  0  0  0  0  0
  151.2444  143.1100  157.2488 C   0  0  0  0  0  0  0  0  0  0  0  0
  151.7369  143.8918  158.3552 C   0  0  0  0  0  0  0  0  0  0  0  0
  152.5470  143.2933  159.2346 C   0  0  0  0  0  0  0  0  0  0  0  0
  152.9342  141.9582  159.1309 N   0  0  0  0  0  0  0  0  0  0  0  0
  153.9044  141.4739  160.1065 C   0  0  0  0  0  0  0  0  0  0  0  0
  153.5384  140.0746  160.5661 C   0  0  0  0  0  0  0  0  0  0  0  0
  153.6611  139.0146  159.0815 S   0  0  0  0  0  0  0  0  0  0  0  0
  155.0440  139.0854  158.5843 O   0  0  0  0  0  0  0  0  0  0  0  0
  153.0778  137.7042  159.4071 O   0  0  0  0  0  0  0  0  0  0  0  0
  152.6536  139.8436  158.0316 N   0  0  0  0  0  0  0  0  0  0  0  0
  152.4203  141.1244  158.0974 C   0  0  0  0  0  0  0  0  0  0  0  0
  148.8064  141.4523  153.5819 H   0  0  0  0  0  0  0  0  0  0  0  0
  149.4433  139.9326  154.1269 H   0  0  0  0  0  0  0  0  0  0  0  0
  147.2382  139.5517  154.6187 H   0  0  0  0  0  0  0  0  0  0  0  0
  147.6926  140.2592  156.1384 H   0  0  0  0  0  0  0  0  0  0  0  0
  147.4185  142.4763  153.1660 H   0  0  0  0  0  0  0  0  0  0  0  0
  145.5913  144.1738  152.9257 H   0  0  0  0  0  0  0  0  0  0  0  0
  143.6780  144.1276  154.5518 H   0  0  0  0  0  0  0  0  0  0  0  0
  143.6846  142.3888  156.3587 H   0  0  0  0  0  0  0  0  0  0  0  0
  150.6207  143.6162  156.5260 H   0  0  0  0  0  0  0  0  0  0  0  0
  151.4597  144.9291  158.4689 H   0  0  0  0  0  0  0  0  0  0  0  0
  152.9496  143.8262  160.0836 H   0  0  0  0  0  0  0  0  0  0  0  0
  154.9006  141.4911  159.6634 H   0  0  0  0  0  0  0  0  0  0  0  0
  153.9387  142.1309  160.9759 H   0  0  0  0  0  0  0  0  0  0  0  0
  154.2297  139.7017  161.3213 H   0  0  0  0  0  0  0  0  0  0  0  0
  152.5246  140.0250  160.9651 H   0  0  0  0  0  0  0  0  0  0  0  0
  1  2  2  0  0  0  0
  2  3  1  0  0  0  0
  2 12  1  0  0  0  0
  3  4  1  0  0  0  0
  4  5  1  0  0  0  0
  4 24  1  0  0  0  0
  4 25  1  0  0  0  0
  5  6  1  0  0  0  0
  5 26  1  0  0  0  0
  5 27  1  0  0  0  0
  6 11  1  0  0  0  0
  6  7  2  0  0  0  0
  7  8  1  0  0  0  0
  7 28  1  0  0  0  0
  8  9  2  0  0  0  0
  8 29  1  0  0  0  0
  9 10  1  0  0  0  0
  9 30  1  0  0  0  0
 10 11  2  0  0  0  0
 10 31  1  0  0  0  0
 12 23  1  0  0  0  0
 12 13  2  0  0  0  0
 13 14  1  0  0  0  0
 13 32  1  0  0  0  0
 14 15  2  0  0  0  0
 14 33  1  0  0  0  0
 15 16  1  0  0  0  0
 15 34  1  0  0  0  0
 16 23  1  0  0  0  0
 16 17  1  0  0  0  0
 17 18  1  0  0  0  0
 17 35  1  0  0  0  0
 17 36  1  0  0  0  0
 18 19  1  0  0  0  0
 18 37  1  0  0  0  0
 18 38  1  0  0  0  0
 19 20  2  0  0  0  0
 19 21  2  0  0  0  0
 19 22  1  0  0  0  0
 22 23  2  0  0  0  0
M  CHG  1   3  -1
M  END
> <s_m_source_file>
AV-unprocessed.smi

> <i_m_source_file_index>
2189

> <i_lp_mmshare_version>
43012

> <i_f3d_flags>
0

> <s_epik_input>
W0NIMl0xW0NIMl1TKD1PKSg9TylOPUMoTjEyKUMoPVtDSF1bQ0hdPVtDSF0yKUMoPU8pW05IXVtDSDJdW0NIMl1jM1tjSF1bY0hdW2NIXVtjSF1uMw==

> <s_epik_cmdline>
J2VwaWtfcHl0aG9uJywgJy1waCcsICc3LjAnLCAnLXRuJywgJzgnLCAnLW1hJywgJzIwMCcsICctbWV0YWxfYmluZGluZycsICctaW1hZScsICc8aW5maWxlLm1hZT4nLCAnLW9tYWUnLCAnPG91dGZpbGUubWFlPic=

> <r_epik_Ionization_Penalty>
5.6695

> <r_epik_Ionization_Penalty_Charging>
5.5942

> <r_epik_Ionization_Penalty_Neutral>
0.0753022

> <r_epik_State_Penalty>
5.60818

> <r_epik_Charging_Adjusted_Penalty>
11.2024

> <i_epik_Tot_Q>
-1

> <i_epik_Tot_abs_Q>
1

> <r_epik_Metal_State_Penalty>
1.61782

> <b_epik_Metal_Only>
1

> <s_lp_Force_Field>
OPLS_2005

> <r_lp_Energy>
39.8175

> <b_lp_Chiralities_Consistent>
1

> <s_lp_Variant>
AV-unprocessed.smi:2189-3

> <Gold.Version>
5.8.1

> <Gold.Id.Protein>
6NUR|6NUR_protein|mol2

> <Gold.PLP.Fitness>
48.9039

> <Gold.PLP.PLP>
-44.4713

> <Gold.PLP.part.hbond>
-2.3298

> <Gold.PLP.part.metal>
0.0000

> <Gold.PLP.part.buried>
-7.1400

> <Gold.PLP.part.nonpolar>
-35.5631

> <Gold.PLP.part.repulsive>
0.2365

> <Gold.PLP.ligand.clash>
0.0000

> <Gold.PLP.ligand.torsion>
0.9340

> <Gold.PLP.Chemscore.Hbond>
1.9600

> <Gold.PLP.Chemscore.CHOScore>
0.0000

> <Gold.PLP.Chemscore.Metal>
0.0000

> <Gold.Chemscore.Hbonds>
donor molecule, donor type, donor heavy atom, donor atom, acceptor molecule, acceptor atom, score
      P1  H  7989  7998       L1     1  0.63
      P1  H  7997  8008       L1    20  1.00

> <Gold.PLP.Chemscore.Internal.Correction>
0.4206

> <Gold.Rescore>
     Score         DG    S(hbond)    S(metal)    S(lipo)     H(rot)  DE(clash)    DE(int)     intcor
     15.87     -19.02       1.62        0.00     100.98       1.44       0.82       2.33       ----

> <Gold.Chemscore.Fitness>
15.8683

> <Gold.Chemscore.DG>
-19.0171

> <Gold.Chemscore.ZeroCoef>
-5.4800

> <Gold.Chemscore.Hbond>
1.6219

> <Gold.Chemscore.Metal>
0.0000

> <Gold.Chemscore.Lipo>
100.9831

> <Gold.Chemscore.Internal_Hbond>
0.0000

> <Gold.Chemscore.DEClash>
0.8197

> <Gold.Chemscore.DEInternal>
2.3291

> <Gold.Chemscore.Rot>
1.4433

> <Gold.Chemscore.Internal.Correction>
   9.000000E+99

> <Gold.Chemscore.Hbonds>
donor molecule, donor type, donor heavy atom, donor atom, acceptor molecule, acceptor atom, score
      P1  H  7989  7998       L1     1  0.09
      P1  H  7997  8008       L1    20  0.92

> <Gold.Chemscore.Hbond.Weighted>
-5.4170

> <Gold.Chemscore.Metal.Weighted>
-0.0000

> <Gold.Chemscore.Lipo.Weighted>
-11.8150

> <Gold.Chemscore.Internal_Hbond.Weighted>
0.0000

> <Gold.Chemscore.DEClash.Weighted>
0.8197

> <Gold.Chemscore.DEInternal.Weighted>
2.3291

> <Gold.Chemscore.Rot.Weighted>
3.6949

> <Gold.Chemscore.Internal.Correction.Weighted>
   9.000000E+99

> <Gold.Protein.RotatedTorsions>
[ 6907 6896 6895 6894 ] final  -94.51 input  -60.11 | X-H torsion
[ 7974 7965 7964 7962 ] final -167.06 input  175.53 | X-H torsion
[ 8008 7997 7996 7995 ] final -133.80 input   59.86 | X-H torsion
[ 10167 10162 10161 10158 ] final -131.45 input  -65.29 | X-H torsion
[ 10718 10713 10712 10709 ] final   -6.90 input   66.30 | X-H torsion
[ 10763 10752 10751 10750 ] final  132.25 input  -60.55 | X-H torsion
[ 11005 11000 10999 10996 ] final   87.64 input  -57.11 | X-H torsion

> <Gold.Protein.ActiveResidues>
 VAL166  LYS551  ARG553  GLY616  TRP617  ASP618  TYR619  PRO620  LYS621  CYS622 
 ASP623  PHE694  ASN695  SER759  ASP760  ASP761  ALA762  ILE779  LEU786  VAL792 
 PHE793  MET794  SER795  GLU796  ALA797  LYS798  CYS799  TRP800  GLU811  SER814 

> <Gold.Protein.RotatedAtoms>
  150.6943  134.1800  159.4244 H   0  0  0  0  0  0  0  0  0  0  0  0  # atno 6907 bound_to 6896
  151.9775  135.0043  160.0565 H   0  0  0  0  0  0  0  0  0  0  0  0  # atno 6908 bound_to 6896
  152.1785  133.4656  159.4983 H   0  0  0  0  0  0  0  0  0  0  0  0  # atno 6909 bound_to 6896
  144.7231  140.2574  143.6270 H   0  0  0  0  0  0  0  0  0  0  0  0  # atno 7974 bound_to 7965
  155.3515  140.0477  157.3046 H   0  0  0  0  0  0  0  0  0  0  0  0  # atno 8008 bound_to 7997
  154.5225  140.2230  155.8914 H   0  0  0  0  0  0  0  0  0  0  0  0  # atno 8009 bound_to 7997
  156.1704  140.3097  155.8970 H   0  0  0  0  0  0  0  0  0  0  0  0  # atno 8010 bound_to 7997
  139.9188  143.6407  152.2558 H   0  0  0  0  0  0  0  0  0  0  0  0  # atno 10167 bound_to 10162
  156.7251  130.5163  149.5858 H   0  0  0  0  0  0  0  0  0  0  0  0  # atno 10718 bound_to 10713
  153.7876  135.3159  155.3374 H   0  0  0  0  0  0  0  0  0  0  0  0  # atno 10763 bound_to 10752
  154.8138  135.4650  154.0590 H   0  0  0  0  0  0  0  0  0  0  0  0  # atno 10764 bound_to 10752
  153.1898  135.6906  153.8453 H   0  0  0  0  0  0  0  0  0  0  0  0  # atno 10765 bound_to 10752
  139.8915  134.8436  156.2889 H   0  0  0  0  0  0  0  0  0  0  0  0  # atno 11005 bound_to 11000
  145.8169  139.2027  143.1960 LP  0  0  0  0  0  0  0  0  0  0  0  0  # atno 17320 bound_to 7965
  146.0548  140.8032  142.9764 LP  0  0  0  0  0  0  0  0  0  0  0  0  # atno 17321 bound_to 7965
  139.6879  144.7650  151.1491 LP  0  0  0  0  0  0  0  0  0  0  0  0  # atno 17342 bound_to 10162
  140.7667  143.5631  150.9078 LP  0  0  0  0  0  0  0  0  0  0  0  0  # atno 17343 bound_to 10162
  156.1567  130.6346  151.0666 LP  0  0  0  0  0  0  0  0  0  0  0  0  # atno 17370 bound_to 10713
  157.6882  131.0818  150.7184 LP  0  0  0  0  0  0  0  0  0  0  0  0  # atno 17371 bound_to 10713
  140.9989  133.7163  156.0930 LP  0  0  0  0  0  0  0  0  0  0  0  0  # atno 17394 bound_to 11000
  140.7524  134.4030  157.5539 LP  0  0  0  0  0  0  0  0  0  0  0  0  # atno 17395 bound_to 11000

$$$$
