AV-unprocessed.smi:445|AV-procd|sdf|2590|dock6
  -GOLD-   2262022583D 1   1.00000     0.00000
 Structure written by MMmdl.
 44 45  0  0  0  0  0  0  0  0  3 V2000
  150.9058  139.6457  155.1098 C   0  0  0  0  0  0  0  0  0  0  0  0
  151.6076  140.1297  156.3901 C   0  0  1  0  0  0  0  0  0  0  0  0
  151.0853  141.5123  156.8347 C   0  0  0  0  0  0  0  0  0  0  0  0
  151.8211  142.0217  158.0844 C   0  0  0  0  0  0  0  0  0  0  0  0
  151.7375  141.0085  159.2352 C   0  0  0  0  0  0  0  0  0  0  0  0
  152.2642  139.6309  158.7990 C   0  0  0  0  0  0  0  0  0  0  0  0
  151.5327  139.1001  157.5457 C   0  0  1  0  0  0  0  0  0  0  0  0
  150.1444  138.7526  157.8522 N   0  0  0  0  0  0  0  0  0  0  0  0
  149.7367  137.6415  158.4838 C   0  0  0  0  0  0  0  0  0  0  0  0
  150.5092  136.7624  158.8679 O   0  0  0  0  0  0  0  0  0  0  0  0
  148.2227  137.5144  158.7034 C   0  0  0  0  0  0  0  0  0  0  0  0
  147.8434  136.2787  159.4126 N   0  0  0  0  0  0  0  0  0  0  0  0
  148.3190  135.0784  158.8559 C   0  0  0  0  0  0  0  0  0  0  0  0
  148.0415  133.8781  159.3936 C   0  0  0  0  0  0  0  0  0  0  0  0
  148.5370  132.6567  158.7957 N   0  3  0  0  0  0  0  0  0  0  0  0
  147.9615  131.6024  159.0455 O   0  0  0  0  0  0  0  0  0  0  0  0
  149.5165  132.7093  158.0578 O   0  5  0  0  0  0  0  0  0  0  0  0
  147.2251  133.8449  160.5890 C   0  0  0  0  0  0  0  0  0  0  0  0
  146.7483  134.9902  161.1405 C   0  0  0  0  0  0  0  0  0  0  0  0
  145.9097  135.0019  162.3604 C   0  0  0  0  0  0  0  0  0  0  0  0
  145.1184  136.0761  162.4755 N   0  0  0  0  0  0  0  0  0  0  0  0
  145.8772  134.1457  163.2440 O   0  0  0  0  0  0  0  0  0  0  0  0
  147.0546  136.3142  160.5322 C   0  0  0  0  0  0  0  0  0  0  0  0
  146.6504  137.3972  160.9636 O   0  0  0  0  0  0  0  0  0  0  0  0
  149.8295  139.5438  155.2507 H   0  0  0  0  0  0  0  0  0  0  0  0
  151.2943  138.6776  154.7926 H   0  0  0  0  0  0  0  0  0  0  0  0
  151.0639  140.3474  154.2906 H   0  0  0  0  0  0  0  0  0  0  0  0
  152.6627  140.2513  156.1397 H   0  0  0  0  0  0  0  0  0  0  0  0
  151.2063  142.2332  156.0255 H   0  0  0  0  0  0  0  0  0  0  0  0
  150.0150  141.4591  157.0387 H   0  0  0  0  0  0  0  0  0  0  0  0
  152.8673  142.2093  157.8399 H   0  0  0  0  0  0  0  0  0  0  0  0
  151.4015  142.9776  158.3996 H   0  0  0  0  0  0  0  0  0  0  0  0
  152.3093  141.3700  160.0902 H   0  0  0  0  0  0  0  0  0  0  0  0
  150.7040  140.9195  159.5725 H   0  0  0  0  0  0  0  0  0  0  0  0
  153.3302  139.7110  158.5821 H   0  0  0  0  0  0  0  0  0  0  0  0
  152.1815  138.9228  159.6241 H   0  0  0  0  0  0  0  0  0  0  0  0
  152.0385  138.1908  157.2155 H   0  0  0  0  0  0  0  0  0  0  0  0
  149.4404  139.4182  157.5679 H   0  0  0  0  0  0  0  0  0  0  0  0
  147.8707  138.3819  159.2646 H   0  0  0  0  0  0  0  0  0  0  0  0
  147.7237  137.5892  157.7360 H   0  0  0  0  0  0  0  0  0  0  0  0
  148.9123  135.2054  157.9615 H   0  0  0  0  0  0  0  0  0  0  0  0
  147.0088  132.8821  161.0268 H   0  0  0  0  0  0  0  0  0  0  0  0
  144.5080  136.1731  163.2735 H   0  0  0  0  0  0  0  0  0  0  0  0
  145.1347  136.7872  161.7586 H   0  0  0  0  0  0  0  0  0  0  0  0
  1  2  1  0  0  0  0
  1 25  1  0  0  0  0
  1 26  1  0  0  0  0
  1 27  1  0  0  0  0
  2  7  1  0  0  0  0
  2  3  1  0  0  0  0
  2 28  1  0  0  0  0
  3  4  1  0  0  0  0
  3 29  1  0  0  0  0
  3 30  1  0  0  0  0
  4  5  1  0  0  0  0
  4 31  1  0  0  0  0
  4 32  1  0  0  0  0
  5  6  1  0  0  0  0
  5 33  1  0  0  0  0
  5 34  1  0  0  0  0
  6  7  1  0  0  0  0
  6 35  1  0  0  0  0
  6 36  1  0  0  0  0
  7  8  1  0  0  0  0
  7 37  1  0  0  0  0
  8  9  1  0  0  0  0
  8 38  1  0  0  0  0
  9 10  2  0  0  0  0
  9 11  1  0  0  0  0
 11 12  1  0  0  0  0
 11 39  1  0  0  0  0
 11 40  1  0  0  0  0
 12 23  1  0  0  0  0
 12 13  1  0  0  0  0
 13 14  2  0  0  0  0
 13 41  1  0  0  0  0
 14 15  1  0  0  0  0
 14 18  1  0  0  0  0
 15 16  2  0  0  0  0
 15 17  1  0  0  0  0
 18 19  2  0  0  0  0
 18 42  1  0  0  0  0
 19 20  1  0  0  0  0
 19 23  1  0  0  0  0
 20 21  1  0  0  0  0
 20 22  2  0  0  0  0
 21 43  1  0  0  0  0
 21 44  1  0  0  0  0
 23 24  2  0  0  0  0
M  CHG  1  15   1
M  CHG  1  17  -1
M  END
> <s_m_source_file>
AV-unprocessed.smi

> <i_m_source_file_index>
445

> <i_lp_mmshare_version>
43012

> <i_f3d_flags>
0

> <s_epik_input>
W0NIM11bQ0BASF0xW0NIMl1bQ0gyXVtDSDJdW0NIMl1bQ0BIXTFbTkhdQyg9TylbQ0gyXW4yW2NIXWMoW04rXSg9TylbTy1dKVtjSF1jKGMyPU8pQyg9TylbTkgyXQ==

> <s_epik_cmdline>
J2VwaWtfcHl0aG9uJywgJy1waCcsICc3LjAnLCAnLXRuJywgJzgnLCAnLW1hJywgJzIwMCcsICctbWV0YWxfYmluZGluZycsICctaW1hZScsICc8aW5maWxlLm1hZT4nLCAnLW9tYWUnLCAnPG91dGZpbGUubWFlPic=

> <r_lp_tautomer_probability>
1

> <r_epik_Ionization_Penalty>
2.81321e-06

> <r_epik_Ionization_Penalty_Charging>
2.43777e-12

> <r_epik_Ionization_Penalty_Neutral>
2.81321e-06

> <r_epik_State_Penalty>
-0

> <r_epik_Charging_Adjusted_Penalty>
2.43777e-12

> <i_epik_Tot_Q>
0

> <i_epik_Tot_abs_Q>
2

> <r_epik_Metal_State_Penalty>
-0

> <b_epik_Metal_Only>
0

> <s_lp_Force_Field>
OPLS_2005

> <r_lp_Energy>
28.4442

> <b_lp_Chiralities_Consistent>
1

> <s_lp_Variant>
AV-unprocessed.smi:445-2

> <Gold.Version>
5.8.1

> <Gold.Id.Protein>
6NUR|6NUR_protein|mol2

> <Gold.PLP.Fitness>
40.1559

> <Gold.PLP.PLP>
-32.6905

> <Gold.PLP.part.hbond>
-4.0000

> <Gold.PLP.part.metal>
0.0000

> <Gold.PLP.part.buried>
-4.9588

> <Gold.PLP.part.nonpolar>
-24.3963

> <Gold.PLP.part.repulsive>
0.1844

> <Gold.PLP.ligand.clash>
0.0000

> <Gold.PLP.ligand.torsion>
0.7807

> <Gold.PLP.Chemscore.Hbond>
3.0000

> <Gold.PLP.Chemscore.CHOScore>
0.0000

> <Gold.PLP.Chemscore.Metal>
0.0000

> <Gold.Chemscore.Hbonds>
donor molecule, donor type, donor heavy atom, donor atom, acceptor molecule, acceptor atom, score
      P1  H  6896  6907       L1    10  0.98
      P1  H  6896  6909       L1    17  0.84
      P1  H  6934  6947       L1    24  1.00

> <Gold.PLP.Chemscore.Internal.Correction>
0.0268

> <Gold.Rescore>
     Score         DG    S(hbond)    S(metal)    S(lipo)     H(rot)  DE(clash)    DE(int)     intcor
     14.50     -18.57       2.97        0.00      64.70       1.71       0.07       4.00       ----

> <Gold.Chemscore.Fitness>
14.5039

> <Gold.Chemscore.DG>
-18.5732

> <Gold.Chemscore.ZeroCoef>
-5.4800

> <Gold.Chemscore.Hbond>
2.9662

> <Gold.Chemscore.Metal>
0.0000

> <Gold.Chemscore.Lipo>
64.6970

> <Gold.Chemscore.Internal_Hbond>
0.0000

> <Gold.Chemscore.DEClash>
0.0679

> <Gold.Chemscore.DEInternal>
4.0014

> <Gold.Chemscore.Rot>
1.7123

> <Gold.Chemscore.Internal.Correction>
   9.000000E+99

> <Gold.Chemscore.Hbonds>
donor molecule, donor type, donor heavy atom, donor atom, acceptor molecule, acceptor atom, score
      P1  H  6896  6907       L1    10  0.91
      P1  H  6896  6909       L1    17  0.45
      P1  H  6934  6947       L1    24  1.00

> <Gold.Chemscore.Hbond.Weighted>
-9.9071

> <Gold.Chemscore.Metal.Weighted>
-0.0000

> <Gold.Chemscore.Lipo.Weighted>
-7.5695

> <Gold.Chemscore.Internal_Hbond.Weighted>
0.0000

> <Gold.Chemscore.DEClash.Weighted>
0.0679

> <Gold.Chemscore.DEInternal.Weighted>
4.0014

> <Gold.Chemscore.Rot.Weighted>
4.3835

> <Gold.Chemscore.Internal.Correction.Weighted>
   9.000000E+99

> <Gold.Protein.RotatedTorsions>
[ 6907 6896 6895 6894 ] final  -25.83 input  -60.11 | X-H torsion
[ 7974 7965 7964 7962 ] final  145.20 input  175.53 | X-H torsion
[ 8008 7997 7996 7995 ] final -117.65 input   59.86 | X-H torsion
[ 10167 10162 10161 10158 ] final  -42.56 input  -65.29 | X-H torsion
[ 10718 10713 10712 10709 ] final -113.87 input   66.30 | X-H torsion
[ 10763 10752 10751 10750 ] final  131.11 input  -60.55 | X-H torsion
[ 11005 11000 10999 10996 ] final  100.47 input  -57.11 | X-H torsion

> <Gold.Protein.ActiveResidues>
 VAL166  LYS551  ARG553  GLY616  TRP617  ASP618  TYR619  PRO620  LYS621  CYS622 
 ASP623  PHE694  ASN695  SER759  ASP760  ASP761  ALA762  ILE779  LEU786  VAL792 
 PHE793  MET794  SER795  GLU796  ALA797  LYS798  CYS799  TRP800  GLU811  SER814 

> <Gold.Protein.RotatedAtoms>
  151.1696  135.0312  159.8745 H   0  0  0  0  0  0  0  0  0  0  0  0  # atno 6907 bound_to 6896
  152.5449  134.1185  159.8399 H   0  0  0  0  0  0  0  0  0  0  0  0  # atno 6908 bound_to 6896
  151.1290  133.5004  159.2632 H   0  0  0  0  0  0  0  0  0  0  0  0  # atno 6909 bound_to 6896
  144.8772  139.5754  143.5859 H   0  0  0  0  0  0  0  0  0  0  0  0  # atno 7974 bound_to 7965
  155.0871  140.0394  157.2657 H   0  0  0  0  0  0  0  0  0  0  0  0  # atno 8008 bound_to 7997
  154.6861  140.2643  155.6835 H   0  0  0  0  0  0  0  0  0  0  0  0  # atno 8009 bound_to 7997
  156.2712  140.2769  156.1422 H   0  0  0  0  0  0  0  0  0  0  0  0  # atno 8010 bound_to 7997
  140.6965  143.3031  151.3227 H   0  0  0  0  0  0  0  0  0  0  0  0  # atno 10167 bound_to 10162
  156.0794  130.5996  150.8700 H   0  0  0  0  0  0  0  0  0  0  0  0  # atno 10718 bound_to 10713
  153.7689  135.3185  155.3349 H   0  0  0  0  0  0  0  0  0  0  0  0  # atno 10763 bound_to 10752
  154.8203  135.4608  154.0764 H   0  0  0  0  0  0  0  0  0  0  0  0  # atno 10764 bound_to 10752
  153.2017  135.6923  153.8307 H   0  0  0  0  0  0  0  0  0  0  0  0  # atno 10765 bound_to 10752
  139.8771  134.9141  156.4761 H   0  0  0  0  0  0  0  0  0  0  0  0  # atno 11005 bound_to 11000
  146.2971  139.7310  142.9119 LP  0  0  0  0  0  0  0  0  0  0  0  0  # atno 17320 bound_to 7965
  145.4020  141.0386  143.3065 LP  0  0  0  0  0  0  0  0  0  0  0  0  # atno 17321 bound_to 7965
  139.6426  144.0510  152.2566 LP  0  0  0  0  0  0  0  0  0  0  0  0  # atno 17342 bound_to 10162
  140.0021  144.6286  150.7721 LP  0  0  0  0  0  0  0  0  0  0  0  0  # atno 17343 bound_to 10162
  157.5904  131.0944  150.9128 LP  0  0  0  0  0  0  0  0  0  0  0  0  # atno 17370 bound_to 10713
  156.9305  130.5348  149.5279 LP  0  0  0  0  0  0  0  0  0  0  0  0  # atno 17371 bound_to 10713
  140.8761  133.7952  155.9416 LP  0  0  0  0  0  0  0  0  0  0  0  0  # atno 17394 bound_to 11000
  140.8903  134.2504  157.5098 LP  0  0  0  0  0  0  0  0  0  0  0  0  # atno 17395 bound_to 11000

$$$$
