AV-unprocessed.smi:2154|AV-procd|sdf|8774|dock4
  -GOLD-   2272011553D 1   1.00000     0.00000
 Structure written by MMmdl.
 31 32  0  0  0  0  0  0  0  0  2 V2000
  151.9269  144.0835  160.2615 C   0  0  0  0  0  0  0  0  0  0  0  0
  152.1108  143.5314  158.8647 C   0  0  2  0  0  0  0  0  0  0  0  0
  151.8570  144.3948  157.6493 C   0  0  0  0  0  0  0  0  0  0  0  0
  150.9125  143.2647  157.9828 C   0  0  1  0  0  0  0  0  0  0  0  0
  150.8474  142.0259  157.1160 C   0  0  0  0  0  0  0  0  0  0  0  0
  149.8586  142.1210  156.0517 N   0  0  0  0  0  0  0  0  0  0  0  0
  149.6786  141.2432  155.0511 C   0  0  0  0  0  0  0  0  0  0  0  0
  150.3351  140.2080  154.9418 O   0  0  0  0  0  0  0  0  0  0  0  0
  148.5955  141.5556  154.0028 C   0  0  0  0  0  0  0  0  0  0  0  0
  147.3148  142.0336  154.5567 N   0  0  0  0  0  0  0  0  0  0  0  0
  146.6916  143.1160  153.9109 C   0  0  0  0  0  0  0  0  0  0  0  0
  145.5137  143.6133  154.3334 C   0  0  0  0  0  0  0  0  0  0  0  0
  144.8817  142.9993  155.4945 C   0  0  0  0  0  0  0  0  0  0  0  0
  143.8053  143.4393  155.8933 O   0  0  0  0  0  0  0  0  0  0  0  0
  145.5254  141.9512  156.0869 N   0  5  0  0  0  0  0  0  0  0  0  0
  146.7228  141.4553  155.6457 C   0  0  0  0  0  0  0  0  0  0  0  0
  147.2815  140.5021  156.1889 O   0  0  0  0  0  0  0  0  0  0  0  0
  151.0958  144.7884  160.2936 H   0  0  0  0  0  0  0  0  0  0  0  0
  152.8321  144.5978  160.5837 H   0  0  0  0  0  0  0  0  0  0  0  0
  151.7197  143.2713  160.9584 H   0  0  0  0  0  0  0  0  0  0  0  0
  152.9346  142.8247  158.7821 H   0  0  0  0  0  0  0  0  0  0  0  0
  151.4992  145.4094  157.8117 H   0  0  0  0  0  0  0  0  0  0  0  0
  152.5213  144.2669  156.7969 H   0  0  0  0  0  0  0  0  0  0  0  0
  149.9447  143.5652  158.3809 H   0  0  0  0  0  0  0  0  0  0  0  0
  151.8444  141.8478  156.7109 H   0  0  0  0  0  0  0  0  0  0  0  0
  150.6036  141.1620  157.7356 H   0  0  0  0  0  0  0  0  0  0  0  0
  149.2730  142.9443  156.0542 H   0  0  0  0  0  0  0  0  0  0  0  0
  148.9970  142.2863  153.2988 H   0  0  0  0  0  0  0  0  0  0  0  0
  148.4318  140.6552  153.4092 H   0  0  0  0  0  0  0  0  0  0  0  0
  147.2224  143.5086  153.0561 H   0  0  0  0  0  0  0  0  0  0  0  0
  145.0471  144.4436  153.8240 H   0  0  0  0  0  0  0  0  0  0  0  0
  1  2  1  0  0  0  0
  1 18  1  0  0  0  0
  1 19  1  0  0  0  0
  1 20  1  0  0  0  0
  2  4  1  0  0  0  0
  2  3  1  0  0  0  0
  2 21  1  0  0  0  0
  3  4  1  0  0  0  0
  3 22  1  0  0  0  0
  3 23  1  0  0  0  0
  4  5  1  0  0  0  0
  4 24  1  0  0  0  0
  5  6  1  0  0  0  0
  5 25  1  0  0  0  0
  5 26  1  0  0  0  0
  6  7  1  0  0  0  0
  6 27  1  0  0  0  0
  7  8  2  0  0  0  0
  7  9  1  0  0  0  0
  9 10  1  0  0  0  0
  9 28  1  0  0  0  0
  9 29  1  0  0  0  0
 10 16  1  0  0  0  0
 10 11  1  0  0  0  0
 11 12  2  0  0  0  0
 11 30  1  0  0  0  0
 12 13  1  0  0  0  0
 12 31  1  0  0  0  0
 13 14  2  0  0  0  0
 13 15  1  0  0  0  0
 15 16  1  0  0  0  0
 16 17  2  0  0  0  0
M  CHG  1  15  -1
M  END
> <s_m_source_file>
AV-unprocessed.smi

> <i_m_source_file_index>
2154

> <i_lp_mmshare_version>
43012

> <i_f3d_flags>
0

> <s_epik_input>
W0NIM11bQ0BASF0xW0NIMl1bQ0BIXTFbQ0gyXVtOSF1DKD1PKVtDSDJdbjJbY0hdW2NIXWMoPU8pW25IXWMyPU8=

> <s_epik_cmdline>
J2VwaWtfcHl0aG9uJywgJy1waCcsICc3LjAnLCAnLXRuJywgJzgnLCAnLW1hJywgJzIwMCcsICctbWV0YWxfYmluZGluZycsICctaW1hZScsICc8aW5maWxlLm1hZT4nLCAnLW9tYWUnLCAnPG91dGZpbGUubWFlPic=

> <r_lp_tautomer_probability>
0.999537

> <r_epik_Ionization_Penalty>
3.12283

> <r_epik_Ionization_Penalty_Charging>
2.83566e-08

> <r_epik_Ionization_Penalty_Neutral>
3.12283

> <r_epik_State_Penalty>
3.12192

> <r_epik_Charging_Adjusted_Penalty>
3.12192

> <i_epik_Tot_Q>
-1

> <i_epik_Tot_abs_Q>
1

> <r_epik_Metal_State_Penalty>
0.463748

> <b_epik_Metal_Only>
1

> <s_lp_Force_Field>
OPLS_2005

> <r_lp_Energy>
23.7869

> <b_lp_Chiralities_Consistent>
1

> <s_lp_Variant>
AV-unprocessed.smi:2154-5

> <Gold.Version>
5.8.1

> <Gold.Id.Protein>
6NUR|6NUR_protein|mol2

> <Gold.PLP.Fitness>
42.3205

> <Gold.PLP.PLP>
-37.1942

> <Gold.PLP.part.hbond>
-2.0000

> <Gold.PLP.part.metal>
0.0000

> <Gold.PLP.part.buried>
-4.2050

> <Gold.PLP.part.nonpolar>
-31.6261

> <Gold.PLP.part.repulsive>
0.3122

> <Gold.PLP.ligand.clash>
0.0000

> <Gold.PLP.ligand.torsion>
0.7083

> <Gold.PLP.Chemscore.Hbond>
2.0000

> <Gold.PLP.Chemscore.CHOScore>
0.0000

> <Gold.PLP.Chemscore.Metal>
0.0000

> <Gold.Chemscore.Hbonds>
donor molecule, donor type, donor heavy atom, donor atom, acceptor molecule, acceptor atom, score
      L1  H     6    27       P1  8028  1.00
      P1  H  7989  7998       L1     8  0.81

> <Gold.PLP.Chemscore.Internal.Correction>
0.5429

> <Gold.Rescore>
     Score         DG    S(hbond)    S(metal)    S(lipo)     H(rot)  DE(clash)    DE(int)     intcor
     12.74     -14.68       1.64        0.00      74.75       1.96       0.04       1.89       ----

> <Gold.Chemscore.Fitness>
12.7415

> <Gold.Chemscore.DG>
-14.6758

> <Gold.Chemscore.ZeroCoef>
-5.4800

> <Gold.Chemscore.Hbond>
1.6378

> <Gold.Chemscore.Metal>
0.0000

> <Gold.Chemscore.Lipo>
74.7469

> <Gold.Chemscore.Internal_Hbond>
0.0000

> <Gold.Chemscore.DEClash>
0.0437

> <Gold.Chemscore.DEInternal>
1.8906

> <Gold.Chemscore.Rot>
1.9609

> <Gold.Chemscore.Internal.Correction>
   9.000000E+99

> <Gold.Chemscore.Hbonds>
donor molecule, donor type, donor heavy atom, donor atom, acceptor molecule, acceptor atom, score
      L1  H     6    27       P1  8028  0.98
      P1  H  7989  7998       L1     8  0.13

> <Gold.Chemscore.Hbond.Weighted>
-5.4704

> <Gold.Chemscore.Metal.Weighted>
-0.0000

> <Gold.Chemscore.Lipo.Weighted>
-8.7454

> <Gold.Chemscore.Internal_Hbond.Weighted>
0.0000

> <Gold.Chemscore.DEClash.Weighted>
0.0437

> <Gold.Chemscore.DEInternal.Weighted>
1.8906

> <Gold.Chemscore.Rot.Weighted>
5.0200

> <Gold.Chemscore.Internal.Correction.Weighted>
   9.000000E+99

> <Gold.Protein.RotatedTorsions>
[ 6907 6896 6895 6894 ] final   22.35 input  -60.11 | X-H torsion
[ 7974 7965 7964 7962 ] final  -64.95 input  175.53 | X-H torsion
[ 8008 7997 7996 7995 ] final  -31.15 input   59.86 | X-H torsion
[ 10167 10162 10161 10158 ] final   93.26 input  -65.29 | X-H torsion
[ 10718 10713 10712 10709 ] final   66.75 input   66.30 | X-H torsion
[ 10763 10752 10751 10750 ] final  -66.46 input  -60.55 | X-H torsion
[ 11005 11000 10999 10996 ] final -111.83 input  -57.11 | X-H torsion

> <Gold.Protein.ActiveResidues>
 VAL166  LYS551  ARG553  GLY616  TRP617  ASP618  TYR619  PRO620  LYS621  CYS622 
 ASP623  PHE694  ASN695  SER759  ASP760  ASP761  ALA762  ILE779  LEU786  VAL792 
 PHE793  MET794  SER795  GLU796  ALA797  LYS798  CYS799  TRP800  GLU811  SER814 

> <Gold.Protein.RotatedAtoms>
  151.9258  135.0278  160.0525 H   0  0  0  0  0  0  0  0  0  0  0  0  # atno 6907 bound_to 6896
  152.2161  133.4943  159.5145 H   0  0  0  0  0  0  0  0  0  0  0  0  # atno 6908 bound_to 6896
  150.6988  134.1321  159.4116 H   0  0  0  0  0  0  0  0  0  0  0  0  # atno 6909 bound_to 6896
  145.7604  140.8864  143.0433 H   0  0  0  0  0  0  0  0  0  0  0  0  # atno 7974 bound_to 7965
  154.4224  140.1772  156.1521 H   0  0  0  0  0  0  0  0  0  0  0  0  # atno 8008 bound_to 7997
  155.9907  140.3369  155.6725 H   0  0  0  0  0  0  0  0  0  0  0  0  # atno 8009 bound_to 7997
  155.6377  140.0676  157.2619 H   0  0  0  0  0  0  0  0  0  0  0  0  # atno 8010 bound_to 7997
  139.8196  144.6737  150.9535 H   0  0  0  0  0  0  0  0  0  0  0  0  # atno 10167 bound_to 10162
  157.6188  130.9284  150.0150 H   0  0  0  0  0  0  0  0  0  0  0  0  # atno 10718 bound_to 10713
  154.3602  135.6117  153.5686 H   0  0  0  0  0  0  0  0  0  0  0  0  # atno 10763 bound_to 10752
  152.9794  135.5813  154.4642 H   0  0  0  0  0  0  0  0  0  0  0  0  # atno 10764 bound_to 10752
  154.4378  135.2849  155.1846 H   0  0  0  0  0  0  0  0  0  0  0  0  # atno 10765 bound_to 10752
  141.0711  133.9378  157.2482 H   0  0  0  0  0  0  0  0  0  0  0  0  # atno 11005 bound_to 11000
  144.6831  139.9715  143.7482 LP  0  0  0  0  0  0  0  0  0  0  0  0  # atno 17320 bound_to 7965
  146.0270  139.3301  143.0778 LP  0  0  0  0  0  0  0  0  0  0  0  0  # atno 17321 bound_to 7965
  140.7814  143.4104  151.1002 LP  0  0  0  0  0  0  0  0  0  0  0  0  # atno 17342 bound_to 10162
  139.7765  143.8417  152.3130 LP  0  0  0  0  0  0  0  0  0  0  0  0  # atno 17343 bound_to 10162
  156.1323  130.3643  149.9712 LP  0  0  0  0  0  0  0  0  0  0  0  0  # atno 17370 bound_to 10713
  156.7770  130.9207  151.3645 LP  0  0  0  0  0  0  0  0  0  0  0  0  # atno 17371 bound_to 10713
  139.9525  135.0172  156.9033 LP  0  0  0  0  0  0  0  0  0  0  0  0  # atno 17394 bound_to 11000
  140.5671  134.0479  155.7418 LP  0  0  0  0  0  0  0  0  0  0  0  0  # atno 17395 bound_to 11000

$$$$
