AV-unprocessed.smi:870|AV-procd|sdf|4009|dock9
  -GOLD-   22720 1503D 1   1.00000     0.00000
 Structure written by MMmdl.
 47 49  0  0  0  0  0  0  0  0  2 V2000
  146.2639  137.3382  151.4840 C   0  0  0  0  0  0  0  0  0  0  0  0
  147.0042  138.5201  151.2339 O   0  0  0  0  0  0  0  0  0  0  0  0
  146.8867  139.4662  152.2839 C   0  0  0  0  0  0  0  0  0  0  0  0
  148.0964  139.4799  153.1600 C   0  0  0  0  0  0  0  0  0  0  0  0
  149.0914  138.5483  153.1726 N   0  3  0  0  0  0  0  0  0  0  0  0
  150.0516  138.8940  154.1239 C   0  0  0  0  0  0  0  0  0  0  0  0
  151.2340  138.2619  154.4959 C   0  0  0  0  0  0  0  0  0  0  0  0
  151.9935  138.8850  155.5077 C   0  0  0  0  0  0  0  0  0  0  0  0
  151.5704  140.0891  156.1069 C   0  0  0  0  0  0  0  0  0  0  0  0
  150.3693  140.7203  155.7219 C   0  0  0  0  0  0  0  0  0  0  0  0
  149.6224  140.0970  154.7220 C   0  0  0  0  0  0  0  0  0  0  0  0
  148.4120  140.4201  154.0960 N   0  0  0  0  0  0  0  0  0  0  0  0
  147.6825  141.6346  154.4945 C   0  0  0  0  0  0  0  0  0  0  0  0
  146.4971  141.3399  155.4356 C   0  0  2  0  0  0  0  0  0  0  0  0
  145.5486  140.5215  154.7816 O   0  0  0  0  0  0  0  0  0  0  0  0
  145.7933  142.6198  155.9078 C   0  0  0  0  0  0  0  0  0  0  0  0
  145.3541  143.3446  154.7671 O   0  0  0  0  0  0  0  0  0  0  0  0
  144.4683  144.3864  154.9486 C   0  0  0  0  0  0  0  0  0  0  0  0
  143.6868  144.5606  156.1194 C   0  0  0  0  0  0  0  0  0  0  0  0
  142.8029  145.6503  156.2341 C   0  0  0  0  0  0  0  0  0  0  0  0
  142.6877  146.5789  155.1845 C   0  0  0  0  0  0  0  0  0  0  0  0
  143.4576  146.4164  154.0186 C   0  0  0  0  0  0  0  0  0  0  0  0
  144.3447  145.3261  153.8985 C   0  0  0  0  0  0  0  0  0  0  0  0
  145.1663  145.1638  152.6332 C   0  0  0  0  0  0  0  0  0  0  0  0
  146.3854  136.6464  150.6505 H   0  0  0  0  0  0  0  0  0  0  0  0
  145.2000  137.5544  151.5891 H   0  0  0  0  0  0  0  0  0  0  0  0
  146.6115  136.8390  152.3892 H   0  0  0  0  0  0  0  0  0  0  0  0
  146.7423  140.4647  151.8693 H   0  0  0  0  0  0  0  0  0  0  0  0
  146.0148  139.2355  152.8977 H   0  0  0  0  0  0  0  0  0  0  0  0
  151.5611  137.3405  154.0370 H   0  0  0  0  0  0  0  0  0  0  0  0
  152.9197  138.4314  155.8299 H   0  0  0  0  0  0  0  0  0  0  0  0
  152.1799  140.5389  156.8772 H   0  0  0  0  0  0  0  0  0  0  0  0
  150.0589  141.6453  156.1850 H   0  0  0  0  0  0  0  0  0  0  0  0
  148.3989  142.2887  154.9928 H   0  0  0  0  0  0  0  0  0  0  0  0
  147.3575  142.1712  153.6030 H   0  0  0  0  0  0  0  0  0  0  0  0
  146.8520  140.7912  156.3088 H   0  0  0  0  0  0  0  0  0  0  0  0
  145.9861  139.7407  154.4786 H   0  0  0  0  0  0  0  0  0  0  0  0
  144.9517  142.3680  156.5558 H   0  0  0  0  0  0  0  0  0  0  0  0
  146.4918  143.2327  156.4803 H   0  0  0  0  0  0  0  0  0  0  0  0
  143.7467  143.8712  156.9476 H   0  0  0  0  0  0  0  0  0  0  0  0
  142.2122  145.7732  157.1299 H   0  0  0  0  0  0  0  0  0  0  0  0
  142.0093  147.4148  155.2733 H   0  0  0  0  0  0  0  0  0  0  0  0
  143.3630  147.1329  153.2159 H   0  0  0  0  0  0  0  0  0  0  0  0
  144.9643  145.9633  151.9197 H   0  0  0  0  0  0  0  0  0  0  0  0
  144.9353  144.2133  152.1516 H   0  0  0  0  0  0  0  0  0  0  0  0
  146.2310  145.1809  152.8684 H   0  0  0  0  0  0  0  0  0  0  0  0
  149.1065  137.7353  152.5700 H   0  0  0  0  0  0  0  0  0  0  0  0
  1  2  1  0  0  0  0
  1 25  1  0  0  0  0
  1 26  1  0  0  0  0
  1 27  1  0  0  0  0
  2  3  1  0  0  0  0
  3  4  1  0  0  0  0
  3 28  1  0  0  0  0
  3 29  1  0  0  0  0
  4 12  1  0  0  0  0
  4  5  2  0  0  0  0
  5  6  1  0  0  0  0
  5 47  1  0  0  0  0
  6 11  2  0  0  0  0
  6  7  1  0  0  0  0
  7  8  2  0  0  0  0
  7 30  1  0  0  0  0
  8  9  1  0  0  0  0
  8 31  1  0  0  0  0
  9 10  2  0  0  0  0
  9 32  1  0  0  0  0
 10 11  1  0  0  0  0
 10 33  1  0  0  0  0
 11 12  1  0  0  0  0
 12 13  1  0  0  0  0
 13 14  1  0  0  0  0
 13 34  1  0  0  0  0
 13 35  1  0  0  0  0
 14 15  1  0  0  0  0
 14 16  1  0  0  0  0
 14 36  1  0  0  0  0
 15 37  1  0  0  0  0
 16 17  1  0  0  0  0
 16 38  1  0  0  0  0
 16 39  1  0  0  0  0
 17 18  1  0  0  0  0
 18 23  1  0  0  0  0
 18 19  2  0  0  0  0
 19 20  1  0  0  0  0
 19 40  1  0  0  0  0
 20 21  2  0  0  0  0
 20 41  1  0  0  0  0
 21 22  1  0  0  0  0
 21 42  1  0  0  0  0
 22 23  2  0  0  0  0
 22 43  1  0  0  0  0
 23 24  1  0  0  0  0
 24 44  1  0  0  0  0
 24 45  1  0  0  0  0
 24 46  1  0  0  0  0
M  CHG  1   5   1
M  END
> <s_m_source_file>
AV-unprocessed.smi

> <i_m_source_file_index>
870

> <i_lp_mmshare_version>
43012

> <i_f3d_flags>
0

> <s_epik_input>
W2NIXTFbY0hdW2NIXVtjSF1jKGMxMiluKGMobjIpW0NIMl1PW0NIM10pW0NIMl1bQ0BIXShbT0hdKVtDSDJdT2MzW2NIXVtjSF1bY0hdW2NIXWMzW0NIM10=

> <s_epik_cmdline>
J2VwaWtfcHl0aG9uJywgJy1waCcsICc3LjAnLCAnLXRuJywgJzgnLCAnLW1hJywgJzIwMCcsICctbWV0YWxfYmluZGluZycsICctaW1hZScsICc8aW5maWxlLm1hZT4nLCAnLW9tYWUnLCAnPG91dGZpbGUubWFlPic=

> <r_lp_tautomer_probability>
1

> <r_epik_Ionization_Penalty>
1.55338

> <r_epik_Ionization_Penalty_Charging>
1.55338

> <r_epik_Ionization_Penalty_Neutral>
2.3993e-06

> <r_epik_State_Penalty>
1.64778

> <r_epik_Charging_Adjusted_Penalty>
3.20115

> <i_epik_Tot_Q>
1

> <i_epik_Tot_abs_Q>
1

> <r_epik_Metal_State_Penalty>
5.70266

> <b_epik_Metal_Only>
0

> <s_lp_Force_Field>
OPLS_2005

> <r_lp_Energy>
18.2102

> <b_lp_Chiralities_Consistent>
1

> <s_lp_Variant>
AV-unprocessed.smi:870-3

> <Gold.Version>
5.8.1

> <Gold.Id.Protein>
6NUR|6NUR_protein|mol2

> <Gold.PLP.Fitness>
55.2546

> <Gold.PLP.PLP>
-48.1422

> <Gold.PLP.part.hbond>
-3.7499

> <Gold.PLP.part.metal>
0.0000

> <Gold.PLP.part.buried>
1.9811

> <Gold.PLP.part.nonpolar>
-48.1681

> <Gold.PLP.part.repulsive>
1.4498

> <Gold.PLP.ligand.clash>
0.0000

> <Gold.PLP.ligand.torsion>
1.0025

> <Gold.PLP.Chemscore.Hbond>
3.0000

> <Gold.PLP.Chemscore.CHOScore>
0.0000

> <Gold.PLP.Chemscore.Metal>
0.0000

> <Gold.Chemscore.Hbonds>
donor molecule, donor type, donor heavy atom, donor atom, acceptor molecule, acceptor atom, score
      L1  H     5    47       P1  7948  2.00
      P1  H  7954  7966       L1     2  1.00

> <Gold.PLP.Chemscore.Internal.Correction>
0.1175

> <Gold.Rescore>
     Score         DG    S(hbond)    S(metal)    S(lipo)     H(rot)  DE(clash)    DE(int)     intcor
     14.09     -18.05       1.57        0.00     116.18       2.45       2.70       1.26       ----

> <Gold.Chemscore.Fitness>
14.0852

> <Gold.Chemscore.DG>
-18.0457

> <Gold.Chemscore.ZeroCoef>
-5.4800

> <Gold.Chemscore.Hbond>
1.5698

> <Gold.Chemscore.Metal>
0.0000

> <Gold.Chemscore.Lipo>
116.1799

> <Gold.Chemscore.Internal_Hbond>
0.0000

> <Gold.Chemscore.DEClash>
2.7002

> <Gold.Chemscore.DEInternal>
1.2603

> <Gold.Chemscore.Rot>
2.4494

> <Gold.Chemscore.Internal.Correction>
   9.000000E+99

> <Gold.Chemscore.Hbonds>
donor molecule, donor type, donor heavy atom, donor atom, acceptor molecule, acceptor atom, score
      L1  H     5    47       P1  7948  0.97
      P1  H  7954  7966       L1     2  0.25

> <Gold.Chemscore.Hbond.Weighted>
-5.2431

> <Gold.Chemscore.Metal.Weighted>
-0.0000

> <Gold.Chemscore.Lipo.Weighted>
-13.5930

> <Gold.Chemscore.Internal_Hbond.Weighted>
0.0000

> <Gold.Chemscore.DEClash.Weighted>
2.7002

> <Gold.Chemscore.DEInternal.Weighted>
1.2603

> <Gold.Chemscore.Rot.Weighted>
6.2704

> <Gold.Chemscore.Internal.Correction.Weighted>
   9.000000E+99

> <Gold.Protein.RotatedTorsions>
[ 6907 6896 6895 6894 ] final   75.48 input  -60.11 | X-H torsion
[ 7974 7965 7964 7962 ] final  179.50 input  175.53 | X-H torsion
[ 8008 7997 7996 7995 ] final -125.30 input   59.86 | X-H torsion
[ 10167 10162 10161 10158 ] final  140.66 input  -65.29 | X-H torsion
[ 10718 10713 10712 10709 ] final  -35.78 input   66.30 | X-H torsion
[ 10763 10752 10751 10750 ] final   34.15 input  -60.55 | X-H torsion
[ 11005 11000 10999 10996 ] final  -77.29 input  -57.11 | X-H torsion

> <Gold.Protein.ActiveResidues>
 VAL166  LYS551  ARG553  GLY616  TRP617  ASP618  TYR619  PRO620  LYS621  CYS622 
 ASP623  PHE694  ASN695  SER759  ASP760  ASP761  ALA762  ILE779  LEU786  VAL792 
 PHE793  MET794  SER795  GLU796  ALA797  LYS798  CYS799  TRP800  GLU811  SER814 

> <Gold.Protein.RotatedAtoms>
  152.5028  134.4114  159.9449 H   0  0  0  0  0  0  0  0  0  0  0  0  # atno 6907 bound_to 6896
  151.4082  133.3729  159.2748 H   0  0  0  0  0  0  0  0  0  0  0  0  # atno 6908 bound_to 6896
  150.9311  134.8747  159.7611 H   0  0  0  0  0  0  0  0  0  0  0  0  # atno 6909 bound_to 6896
  144.7145  140.0558  143.6434 H   0  0  0  0  0  0  0  0  0  0  0  0  # atno 7974 bound_to 7965
  155.2110  140.0419  157.2933 H   0  0  0  0  0  0  0  0  0  0  0  0  # atno 8008 bound_to 7997
  154.6011  140.2452  155.7762 H   0  0  0  0  0  0  0  0  0  0  0  0  # atno 8009 bound_to 7997
  156.2322  140.2934  156.0226 H   0  0  0  0  0  0  0  0  0  0  0  0  # atno 8010 bound_to 7997
  139.5042  144.6220  151.6027 H   0  0  0  0  0  0  0  0  0  0  0  0  # atno 10167 bound_to 10162
  156.3346  130.4284  149.7841 H   0  0  0  0  0  0  0  0  0  0  0  0  # atno 10718 bound_to 10713
  153.0177  135.6368  154.1624 H   0  0  0  0  0  0  0  0  0  0  0  0  # atno 10763 bound_to 10752
  154.1361  135.2837  155.3174 H   0  0  0  0  0  0  0  0  0  0  0  0  # atno 10764 bound_to 10752
  154.6159  135.5541  153.7584 H   0  0  0  0  0  0  0  0  0  0  0  0  # atno 10765 bound_to 10752
  141.1659  133.7017  156.7799 H   0  0  0  0  0  0  0  0  0  0  0  0  # atno 11005 bound_to 11000
  145.9906  139.3012  143.0987 LP  0  0  0  0  0  0  0  0  0  0  0  0  # atno 17320 bound_to 7965
  145.8908  140.9305  143.0553 LP  0  0  0  0  0  0  0  0  0  0  0  0  # atno 17321 bound_to 7965
  140.5926  143.9753  150.6334 LP  0  0  0  0  0  0  0  0  0  0  0  0  # atno 17342 bound_to 10162
  140.2939  143.3306  152.1037 LP  0  0  0  0  0  0  0  0  0  0  0  0  # atno 17343 bound_to 10162
  156.5101  130.8168  151.3165 LP  0  0  0  0  0  0  0  0  0  0  0  0  # atno 17370 bound_to 10713
  157.7436  130.9916  150.2609 LP  0  0  0  0  0  0  0  0  0  0  0  0  # atno 17371 bound_to 10713
  140.2402  134.8619  157.3566 LP  0  0  0  0  0  0  0  0  0  0  0  0  # atno 17394 bound_to 11000
  140.1803  134.4498  155.7776 LP  0  0  0  0  0  0  0  0  0  0  0  0  # atno 17395 bound_to 11000

$$$$
