AV-unprocessed.smi:3135|AV-procd|sdf|11946|dock2
  -GOLD-   2272017333D 1   1.00000     0.00000
 Structure written by MMmdl.
 38 39  0  0  0  0  0  0  0  0  2 V2000
  147.0107  140.3618  154.0500 C   0  0  0  0  0  0  0  0  0  0  0  0
  148.4603  140.0038  154.2078 C   0  0  0  0  0  0  0  0  0  0  0  0
  149.5398  140.8640  154.5579 C   0  0  0  0  0  0  0  0  0  0  0  0
  150.7021  140.2342  154.6144 N   0  0  0  0  0  0  0  0  0  0  0  0
  150.4077  138.9534  154.3041 N   0  0  0  0  0  0  0  0  0  0  0  0
  151.4619  137.9529  154.2758 C   0  0  0  0  0  0  0  0  0  0  0  0
  151.0790  136.6819  155.0418 C   0  0  0  0  0  0  0  0  0  0  0  0
  151.7476  136.3276  156.0124 O   0  0  0  0  0  0  0  0  0  0  0  0
  150.0181  135.9912  154.5928 N   0  0  0  0  0  0  0  0  0  0  0  0
  149.4978  134.7721  155.1991 C   0  0  0  0  0  0  0  0  0  0  0  0
  147.9613  134.7109  155.1136 C   0  0  0  0  0  0  0  0  0  0  0  0
  147.4608  134.5682  153.7226 N   0  3  2  0  0  0  0  0  0  0  0  0
  146.1105  135.1584  153.5768 C   0  0  0  0  0  0  0  0  0  0  0  0
  147.5002  133.1701  153.2297 C   0  0  0  0  0  0  0  0  0  0  0  0
  146.5951  132.9031  152.0468 C   0  0  0  0  0  0  0  0  0  0  0  0
  146.2023  132.4142  153.4199 C   0  0  0  0  0  0  0  0  0  0  0  0
  149.0622  138.7877  154.0496 C   0  0  0  0  0  0  0  0  0  0  0  0
  146.6969  141.1063  154.7821 H   0  0  0  0  0  0  0  0  0  0  0  0
  146.3624  139.4944  154.1776 H   0  0  0  0  0  0  0  0  0  0  0  0
  146.8055  140.7748  153.0624 H   0  0  0  0  0  0  0  0  0  0  0  0
  149.5128  141.9223  154.7722 H   0  0  0  0  0  0  0  0  0  0  0  0
  151.6801  137.6973  153.2382 H   0  0  0  0  0  0  0  0  0  0  0  0
  152.3707  138.3857  154.6972 H   0  0  0  0  0  0  0  0  0  0  0  0
  149.5239  136.3518  153.7892 H   0  0  0  0  0  0  0  0  0  0  0  0
  149.9457  133.8970  154.7247 H   0  0  0  0  0  0  0  0  0  0  0  0
  149.8245  134.7670  156.2386 H   0  0  0  0  0  0  0  0  0  0  0  0
  147.5795  133.8919  155.7256 H   0  0  0  0  0  0  0  0  0  0  0  0
  147.5518  135.6300  155.5355 H   0  0  0  0  0  0  0  0  0  0  0  0
  145.3863  134.6309  154.1992 H   0  0  0  0  0  0  0  0  0  0  0  0
  145.7682  135.1104  152.5429 H   0  0  0  0  0  0  0  0  0  0  0  0
  146.1126  136.2086  153.8705 H   0  0  0  0  0  0  0  0  0  0  0  0
  148.4496  132.6482  153.3377 H   0  0  0  0  0  0  0  0  0  0  0  0
  146.0259  133.7330  151.6320 H   0  0  0  0  0  0  0  0  0  0  0  0
  146.9191  132.1557  151.3253 H   0  0  0  0  0  0  0  0  0  0  0  0
  146.2668  131.3435  153.6034 H   0  0  0  0  0  0  0  0  0  0  0  0
  145.3684  132.9186  153.9047 H   0  0  0  0  0  0  0  0  0  0  0  0
  148.6476  137.8265  153.7833 H   0  0  0  0  0  0  0  0  0  0  0  0
  148.0760  135.1094  153.1318 H   0  0  0  0  0  0  0  0  0  0  0  0
  1  2  1  0  0  0  0
  1 18  1  0  0  0  0
  1 19  1  0  0  0  0
  1 20  1  0  0  0  0
  2 17  2  0  0  0  0
  2  3  1  0  0  0  0
  3  4  2  0  0  0  0
  3 21  1  0  0  0  0
  4  5  1  0  0  0  0
  5  6  1  0  0  0  0
  5 17  1  0  0  0  0
  6  7  1  0  0  0  0
  6 22  1  0  0  0  0
  6 23  1  0  0  0  0
  7  8  2  0  0  0  0
  7  9  1  0  0  0  0
  9 10  1  0  0  0  0
  9 24  1  0  0  0  0
 10 11  1  0  0  0  0
 10 25  1  0  0  0  0
 10 26  1  0  0  0  0
 11 12  1  0  0  0  0
 11 27  1  0  0  0  0
 11 28  1  0  0  0  0
 12 13  1  0  0  0  0
 12 14  1  0  0  0  0
 12 38  1  0  0  0  0
 13 29  1  0  0  0  0
 13 30  1  0  0  0  0
 13 31  1  0  0  0  0
 14 16  1  0  0  0  0
 14 15  1  0  0  0  0
 14 32  1  0  0  0  0
 15 16  1  0  0  0  0
 15 33  1  0  0  0  0
 15 34  1  0  0  0  0
 16 35  1  0  0  0  0
 16 36  1  0  0  0  0
 17 37  1  0  0  0  0
M  CHG  1  12   1
M  END
> <s_m_source_file>
AV-unprocessed.smi

> <i_m_source_file_index>
3135

> <i_lp_mmshare_version>
43012

> <i_f3d_flags>
0

> <s_epik_input>
W0NIM11jMVtjSF1ubihbY0hdMSlbQ0gyXUMoPU8pW05IXVtDSDJdW0NIMl1OKFtDSDNdKVtDSF0yW0NIMl1bQ0gyXTI=

> <s_epik_cmdline>
J2VwaWtfcHl0aG9uJywgJy1waCcsICc3LjAnLCAnLXRuJywgJzgnLCAnLW1hJywgJzIwMCcsICctbWV0YWxfYmluZGluZycsICctaW1hZScsICc8aW5maWxlLm1hZT4nLCAnLW9tYWUnLCAnPG91dGZpbGUubWFlPic=

> <r_lp_tautomer_probability>
1

> <r_epik_Ionization_Penalty>
0.174318

> <r_epik_Ionization_Penalty_Charging>
0.174302

> <r_epik_Ionization_Penalty_Neutral>
1.62778e-05

> <r_epik_State_Penalty>
0.163722

> <r_epik_Charging_Adjusted_Penalty>
0.338024

> <i_epik_Tot_Q>
1

> <i_epik_Tot_abs_Q>
1

> <r_epik_Metal_State_Penalty>
0.163727

> <b_epik_Metal_Only>
0

> <s_lp_Force_Field>
OPLS_2005

> <r_lp_Energy>
17.5594

> <b_lp_Chiralities_Consistent>
1

> <s_lp_Variant>
AV-unprocessed.smi:3135-2

> <Gold.Version>
5.8.1

> <Gold.Id.Protein>
6NUR|6NUR_protein|mol2

> <Gold.PLP.Fitness>
47.6292

> <Gold.PLP.PLP>
-30.3550

> <Gold.PLP.part.hbond>
-4.7255

> <Gold.PLP.part.metal>
0.0000

> <Gold.PLP.part.buried>
-1.2078

> <Gold.PLP.part.nonpolar>
-24.2564

> <Gold.PLP.part.repulsive>
0.1725

> <Gold.PLP.ligand.clash>
0.0000

> <Gold.PLP.ligand.torsion>
1.2241

> <Gold.PLP.Chemscore.Hbond>
4.9120

> <Gold.PLP.Chemscore.CHOScore>
1.2009

> <Gold.PLP.Chemscore.Metal>
0.0000

> <Gold.Chemscore.Hbonds>
donor molecule, donor type, donor heavy atom, donor atom, acceptor molecule, acceptor atom, score
      L1  H     9    24       P1  7948  1.00
      L1  H    12    38       P1  7948  2.00
      P1  H  7989  7998       L1     4  1.00
      P1  H 10752 10763       L1     8  0.75
      L1  C    17    37       P1  7948  1.00

> <Gold.PLP.Chemscore.Internal.Correction>
1.3836

> <Gold.Rescore>
     Score         DG    S(hbond)    S(metal)    S(lipo)     H(rot)  DE(clash)    DE(int)     intcor
     13.81     -15.74       2.60        0.00      56.22       1.96       0.04       1.89       ----

> <Gold.Chemscore.Fitness>
13.8056

> <Gold.Chemscore.DG>
-15.7392

> <Gold.Chemscore.ZeroCoef>
-5.4800

> <Gold.Chemscore.Hbond>
2.6012

> <Gold.Chemscore.Metal>
0.0000

> <Gold.Chemscore.Lipo>
56.2151

> <Gold.Chemscore.Internal_Hbond>
0.0000

> <Gold.Chemscore.DEClash>
0.0404

> <Gold.Chemscore.DEInternal>
1.8933

> <Gold.Chemscore.Rot>
1.9555

> <Gold.Chemscore.Internal.Correction>
   9.000000E+99

> <Gold.Chemscore.Hbonds>
donor molecule, donor type, donor heavy atom, donor atom, acceptor molecule, acceptor atom, score
      L1  H     9    24       P1  7948  0.64
      L1  H    12    38       P1  7948  0.98
      P1  H  7989  7998       L1     4  0.44
      P1  H 10752 10763       L1     8  0.09

> <Gold.Chemscore.Hbond.Weighted>
-8.6880

> <Gold.Chemscore.Metal.Weighted>
-0.0000

> <Gold.Chemscore.Lipo.Weighted>
-6.5772

> <Gold.Chemscore.Internal_Hbond.Weighted>
0.0000

> <Gold.Chemscore.DEClash.Weighted>
0.0404

> <Gold.Chemscore.DEInternal.Weighted>
1.8933

> <Gold.Chemscore.Rot.Weighted>
5.0060

> <Gold.Chemscore.Internal.Correction.Weighted>
   9.000000E+99

> <Gold.Protein.RotatedTorsions>
[ 6907 6896 6895 6894 ] final  156.01 input  -60.11 | X-H torsion
[ 7974 7965 7964 7962 ] final   50.31 input  175.53 | X-H torsion
[ 8008 7997 7996 7995 ] final  153.26 input   59.86 | X-H torsion
[ 10167 10162 10161 10158 ] final   -8.30 input  -65.29 | X-H torsion
[ 10718 10713 10712 10709 ] final  -39.68 input   66.30 | X-H torsion
[ 10763 10752 10751 10750 ] final   85.45 input  -60.55 | X-H torsion
[ 11005 11000 10999 10996 ] final    5.98 input  -57.11 | X-H torsion

> <Gold.Protein.ActiveResidues>
 VAL166  LYS551  ARG553  GLY616  TRP617  ASP618  TYR619  PRO620  LYS621  CYS622 
 ASP623  PHE694  ASN695  SER759  ASP760  ASP761  ALA762  ILE779  LEU786  VAL792 
 PHE793  MET794  SER795  GLU796  ALA797  LYS798  CYS799  TRP800  GLU811  SER814 

> <Gold.Protein.RotatedAtoms>
  152.0359  133.3956  159.4316 H   0  0  0  0  0  0  0  0  0  0  0  0  # atno 6907 bound_to 6896
  150.6879  134.3469  159.4901 H   0  0  0  0  0  0  0  0  0  0  0  0  # atno 6908 bound_to 6896
  152.1261  134.9169  160.0611 H   0  0  0  0  0  0  0  0  0  0  0  0  # atno 6909 bound_to 6896
  146.0024  139.4453  143.0007 H   0  0  0  0  0  0  0  0  0  0  0  0  # atno 7974 bound_to 7965
  156.2590  140.1998  156.6463 H   0  0  0  0  0  0  0  0  0  0  0  0  # atno 8008 bound_to 7997
  154.6571  140.0565  157.0045 H   0  0  0  0  0  0  0  0  0  0  0  0  # atno 8009 bound_to 7997
  155.1332  140.3235  155.4472 H   0  0  0  0  0  0  0  0  0  0  0  0  # atno 8010 bound_to 7997
  140.7055  143.5984  150.8822 H   0  0  0  0  0  0  0  0  0  0  0  0  # atno 10167 bound_to 10162
  156.2898  130.4227  149.8250 H   0  0  0  0  0  0  0  0  0  0  0  0  # atno 10718 bound_to 10713
  153.1476  135.4617  154.9589 H   0  0  0  0  0  0  0  0  0  0  0  0  # atno 10763 bound_to 10752
  154.7799  135.3185  154.8015 H   0  0  0  0  0  0  0  0  0  0  0  0  # atno 10764 bound_to 10752
  153.8526  135.6920  153.4845 H   0  0  0  0  0  0  0  0  0  0  0  0  # atno 10765 bound_to 10752
  140.5646  134.0160  155.7985 H   0  0  0  0  0  0  0  0  0  0  0  0  # atno 11005 bound_to 11000
  145.7467  140.9988  143.1272 LP  0  0  0  0  0  0  0  0  0  0  0  0  # atno 17320 bound_to 7965
  144.6924  139.9165  143.7466 LP  0  0  0  0  0  0  0  0  0  0  0  0  # atno 17321 bound_to 7965
  139.9709  143.6058  152.2974 LP  0  0  0  0  0  0  0  0  0  0  0  0  # atno 17342 bound_to 10162
  139.6644  144.7662  151.1901 LP  0  0  0  0  0  0  0  0  0  0  0  0  # atno 17343 bound_to 10162
  156.5668  130.8407  151.3345 LP  0  0  0  0  0  0  0  0  0  0  0  0  # atno 17370 bound_to 10713
  157.7339  130.9738  150.2001 LP  0  0  0  0  0  0  0  0  0  0  0  0  # atno 17371 bound_to 10713
  141.1094  133.9641  157.2938 LP  0  0  0  0  0  0  0  0  0  0  0  0  # atno 17394 bound_to 11000
  139.9391  135.0193  156.8651 LP  0  0  0  0  0  0  0  0  0  0  0  0  # atno 17395 bound_to 11000

$$$$
