AV-unprocessed.smi:2712|AV-procd|sdf|10476|dock9
  -GOLD-   2272014513D 1   1.00000     0.00000
 Structure written by MMmdl.
 52 53  0  0  0  0  0  0  0  0  1 V2000
  145.9535  131.7415  161.6379 C   0  0  0  0  0  0  0  0  0  0  0  0
  146.3804  133.1719  161.4886 C   0  0  0  0  0  0  0  0  0  0  0  0
  146.3035  134.1347  162.5708 C   0  0  0  0  0  0  0  0  0  0  0  0
  146.7032  135.4062  162.3550 C   0  0  0  0  0  0  0  0  0  0  0  0
  147.2164  135.8405  161.0574 C   0  0  0  0  0  0  0  0  0  0  0  0
  147.5854  136.9920  160.8278 O   0  0  0  0  0  0  0  0  0  0  0  0
  147.2513  134.8469  160.1203 N   0  0  0  0  0  0  0  0  0  0  0  0
  147.7598  135.0971  158.7637 C   0  0  0  0  0  0  0  0  0  0  0  0
  147.9109  133.8229  157.9191 C   0  0  0  0  0  0  0  0  0  0  0  0
  148.4704  132.8232  158.3727 O   0  0  0  0  0  0  0  0  0  0  0  0
  147.3864  133.8755  156.6851 N   0  0  0  0  0  0  0  0  0  0  0  0
  147.4002  132.7886  155.7082 C   0  0  2  0  0  0  0  0  0  0  0  0
  148.4899  133.0509  154.6493 C   0  0  0  0  0  0  0  0  0  0  0  0
  148.3478  132.2174  153.3676 C   0  0  0  0  0  0  0  0  0  0  0  0
  147.4645  132.8918  152.3005 C   0  0  0  0  0  0  0  0  0  0  0  0
  145.9332  132.8943  152.5690 C   0  0  2  0  0  0  0  0  0  0  0  0
  145.0980  133.5433  151.4030 C   0  0  0  0  0  0  0  0  0  0  0  0
  143.6530  133.8677  151.8405 C   0  0  0  0  0  0  0  0  0  0  0  0
  145.0413  132.5977  150.1792 C   0  0  0  0  0  0  0  0  0  0  0  0
  145.7570  134.8504  150.9046 C   0  0  0  0  0  0  0  0  0  0  0  0
  145.5960  133.4906  153.9659 C   0  0  0  0  0  0  0  0  0  0  0  0
  145.9828  132.5755  155.1417 C   0  0  0  0  0  0  0  0  0  0  0  0
  146.8341  133.5438  160.3368 N   0  0  0  0  0  0  0  0  0  0  0  0
  145.5477  131.5526  162.6320 H   0  0  0  0  0  0  0  0  0  0  0  0
  146.7975  131.0676  161.4877 H   0  0  0  0  0  0  0  0  0  0  0  0
  145.1830  131.4872  160.9093 H   0  0  0  0  0  0  0  0  0  0  0  0
  145.9290  133.8290  163.5366 H   0  0  0  0  0  0  0  0  0  0  0  0
  146.6459  136.1221  163.1618 H   0  0  0  0  0  0  0  0  0  0  0  0
  147.0916  135.7777  158.2329 H   0  0  0  0  0  0  0  0  0  0  0  0
  148.7206  135.6128  158.8139 H   0  0  0  0  0  0  0  0  0  0  0  0
  146.9453  134.7368  156.3970 H   0  0  0  0  0  0  0  0  0  0  0  0
  147.6554  131.8657  156.2324 H   0  0  0  0  0  0  0  0  0  0  0  0
  148.5231  134.1098  154.3884 H   0  0  0  0  0  0  0  0  0  0  0  0
  149.4590  132.8370  155.1021 H   0  0  0  0  0  0  0  0  0  0  0  0
  149.3436  132.0997  152.9387 H   0  0  0  0  0  0  0  0  0  0  0  0
  148.0020  131.2069  153.5877 H   0  0  0  0  0  0  0  0  0  0  0  0
  147.8207  133.9084  152.1358 H   0  0  0  0  0  0  0  0  0  0  0  0
  147.6647  132.3549  151.3747 H   0  0  0  0  0  0  0  0  0  0  0  0
  145.6349  131.8451  152.5930 H   0  0  0  0  0  0  0  0  0  0  0  0
  143.0944  134.3356  151.0290 H   0  0  0  0  0  0  0  0  0  0  0  0
  143.6267  134.5567  152.6844 H   0  0  0  0  0  0  0  0  0  0  0  0
  143.1029  132.9718  152.1277 H   0  0  0  0  0  0  0  0  0  0  0  0
  144.4504  131.7015  150.3612 H   0  0  0  0  0  0  0  0  0  0  0  0
  146.0393  132.2822  149.8729 H   0  0  0  0  0  0  0  0  0  0  0  0
  144.5819  133.0889  149.3205 H   0  0  0  0  0  0  0  0  0  0  0  0
  145.2691  135.2253  150.0041 H   0  0  0  0  0  0  0  0  0  0  0  0
  146.8100  134.6995  150.6641 H   0  0  0  0  0  0  0  0  0  0  0  0
  145.6906  135.6524  151.6397 H   0  0  0  0  0  0  0  0  0  0  0  0
  146.0383  134.4799  154.0874 H   0  0  0  0  0  0  0  0  0  0  0  0
  144.5240  133.6463  154.0526 H   0  0  0  0  0  0  0  0  0  0  0  0
  145.8634  131.5336  154.8432 H   0  0  0  0  0  0  0  0  0  0  0  0
  145.2616  132.7101  155.9494 H   0  0  0  0  0  0  0  0  0  0  0  0
  1  2  1  0  0  0  0
  1 24  1  0  0  0  0
  1 25  1  0  0  0  0
  1 26  1  0  0  0  0
  2 23  2  0  0  0  0
  2  3  1  0  0  0  0
  3  4  2  0  0  0  0
  3 27  1  0  0  0  0
  4  5  1  0  0  0  0
  4 28  1  0  0  0  0
  5  6  2  0  0  0  0
  5  7  1  0  0  0  0
  7  8  1  0  0  0  0
  7 23  1  0  0  0  0
  8  9  1  0  0  0  0
  8 29  1  0  0  0  0
  8 30  1  0  0  0  0
  9 10  2  0  0  0  0
  9 11  1  0  0  0  0
 11 12  1  0  0  0  0
 11 31  1  0  0  0  0
 12 22  1  0  0  0  0
 12 13  1  0  0  0  0
 12 32  1  0  0  0  0
 13 14  1  0  0  0  0
 13 33  1  0  0  0  0
 13 34  1  0  0  0  0
 14 15  1  0  0  0  0
 14 35  1  0  0  0  0
 14 36  1  0  0  0  0
 15 16  1  0  0  0  0
 15 37  1  0  0  0  0
 15 38  1  0  0  0  0
 16 17  1  0  0  0  0
 16 21  1  0  0  0  0
 16 39  1  0  0  0  0
 17 18  1  0  0  0  0
 17 19  1  0  0  0  0
 17 20  1  0  0  0  0
 18 40  1  0  0  0  0
 18 41  1  0  0  0  0
 18 42  1  0  0  0  0
 19 43  1  0  0  0  0
 19 44  1  0  0  0  0
 19 45  1  0  0  0  0
 20 46  1  0  0  0  0
 20 47  1  0  0  0  0
 20 48  1  0  0  0  0
 21 22  1  0  0  0  0
 21 49  1  0  0  0  0
 21 50  1  0  0  0  0
 22 51  1  0  0  0  0
 22 52  1  0  0  0  0
M  END
> <s_m_source_file>
AV-unprocessed.smi

> <i_m_source_file_index>
2712

> <i_lp_mmshare_version>
43012

> <i_f3d_flags>
0

> <s_epik_input>
W0NIM11jMVtjSF1bY0hdYyg9TyluKG4xKVtDSDJdQyg9TylbTkhdW0NAQEhdMltDSDJdW0NIMl1bQ0gyXVtDQEBIXShDKFtDSDNdKShbQ0gzXSlbQ0gzXSlbQ0gyXVtDSDJdMg==

> <s_epik_cmdline>
J2VwaWtfcHl0aG9uJywgJy1waCcsICc3LjAnLCAnLXRuJywgJzgnLCAnLW1hJywgJzIwMCcsICctbWV0YWxfYmluZGluZycsICctaW1hZScsICc8aW5maWxlLm1hZT4nLCAnLW9tYWUnLCAnPG91dGZpbGUubWFlPic=

> <r_lp_tautomer_probability>
1

> <r_epik_Ionization_Penalty>
8.71758e-07

> <r_epik_Ionization_Penalty_Charging>
8.50442e-07

> <r_epik_Ionization_Penalty_Neutral>
2.13165e-08

> <r_epik_State_Penalty>
-0

> <r_epik_Charging_Adjusted_Penalty>
8.50442e-07

> <i_epik_Tot_Q>
0

> <i_epik_Tot_abs_Q>
0

> <r_epik_Metal_State_Penalty>
-0

> <b_epik_Metal_Only>
0

> <s_lp_Force_Field>
OPLS_2005

> <r_lp_Energy>
39.6201

> <b_lp_Chiralities_Consistent>
1

> <s_lp_Variant>
AV-unprocessed.smi:2712-3

> <Gold.Version>
5.8.1

> <Gold.Id.Protein>
6NUR|6NUR_protein|mol2

> <Gold.PLP.Fitness>
46.9843

> <Gold.PLP.PLP>
-40.6121

> <Gold.PLP.part.hbond>
-3.0000

> <Gold.PLP.part.metal>
0.0000

> <Gold.PLP.part.buried>
-4.6232

> <Gold.PLP.part.nonpolar>
-32.8266

> <Gold.PLP.part.repulsive>
0.0000

> <Gold.PLP.ligand.clash>
0.0000

> <Gold.PLP.ligand.torsion>
0.8881

> <Gold.PLP.Chemscore.Hbond>
2.6800

> <Gold.PLP.Chemscore.CHOScore>
0.0000

> <Gold.PLP.Chemscore.Metal>
0.0000

> <Gold.Chemscore.Hbonds>
donor molecule, donor type, donor heavy atom, donor atom, acceptor molecule, acceptor atom, score
      P1  H  6931  6943       L1     6  0.53
      P1  H  6934  6947       L1     6  0.89

> <Gold.PLP.Chemscore.Internal.Correction>
0.1084

> <Gold.Rescore>
     Score         DG    S(hbond)    S(metal)    S(lipo)     H(rot)  DE(clash)    DE(int)     intcor
     18.59     -20.83       2.70        0.00      87.36       1.52       0.09       2.16       ----

> <Gold.Chemscore.Fitness>
18.5881

> <Gold.Chemscore.DG>
-20.8346

> <Gold.Chemscore.ZeroCoef>
-5.4800

> <Gold.Chemscore.Hbond>
2.6992

> <Gold.Chemscore.Metal>
0.0000

> <Gold.Chemscore.Lipo>
87.3550

> <Gold.Chemscore.Internal_Hbond>
0.0000

> <Gold.Chemscore.DEClash>
0.0859

> <Gold.Chemscore.DEInternal>
2.1607

> <Gold.Chemscore.Rot>
1.5162

> <Gold.Chemscore.Internal.Correction>
   9.000000E+99

> <Gold.Chemscore.Hbonds>
donor molecule, donor type, donor heavy atom, donor atom, acceptor molecule, acceptor atom, score
      P1  H  6931  6943       L1     6  0.52
      P1  H  6934  6947       L1     6  0.82

> <Gold.Chemscore.Hbond.Weighted>
-9.0155

> <Gold.Chemscore.Metal.Weighted>
-0.0000

> <Gold.Chemscore.Lipo.Weighted>
-10.2205

> <Gold.Chemscore.Internal_Hbond.Weighted>
0.0000

> <Gold.Chemscore.DEClash.Weighted>
0.0859

> <Gold.Chemscore.DEInternal.Weighted>
2.1607

> <Gold.Chemscore.Rot.Weighted>
3.8814

> <Gold.Chemscore.Internal.Correction.Weighted>
   9.000000E+99

> <Gold.Protein.RotatedTorsions>
[ 6907 6896 6895 6894 ] final  102.19 input  -60.11 | X-H torsion
[ 7974 7965 7964 7962 ] final -178.16 input  175.53 | X-H torsion
[ 8008 7997 7996 7995 ] final  101.61 input   59.86 | X-H torsion
[ 10167 10162 10161 10158 ] final   55.50 input  -65.29 | X-H torsion
[ 10718 10713 10712 10709 ] final  171.81 input   66.30 | X-H torsion
[ 10763 10752 10751 10750 ] final   59.38 input  -60.55 | X-H torsion
[ 11005 11000 10999 10996 ] final  119.18 input  -57.11 | X-H torsion

> <Gold.Protein.ActiveResidues>
 VAL166  LYS551  ARG553  GLY616  TRP617  ASP618  TYR619  PRO620  LYS621  CYS622 
 ASP623  PHE694  ASN695  SER759  ASP760  ASP761  ALA762  ILE779  LEU786  VAL792 
 PHE793  MET794  SER795  GLU796  ALA797  LYS798  CYS799  TRP800  GLU811  SER814 

> <Gold.Protein.RotatedAtoms>
  152.5330  134.0013  159.7895 H   0  0  0  0  0  0  0  0  0  0  0  0  # atno 6907 bound_to 6896
  151.0231  133.5850  159.2676 H   0  0  0  0  0  0  0  0  0  0  0  0  # atno 6908 bound_to 6896
  151.2883  135.0741  159.9248 H   0  0  0  0  0  0  0  0  0  0  0  0  # atno 6909 bound_to 6896
  144.7130  140.0911  143.6421 H   0  0  0  0  0  0  0  0  0  0  0  0  # atno 7974 bound_to 7965
  156.1315  140.3194  155.8357 H   0  0  0  0  0  0  0  0  0  0  0  0  # atno 8008 bound_to 7997
  155.4322  140.0519  157.3034 H   0  0  0  0  0  0  0  0  0  0  0  0  # atno 8009 bound_to 7997
  154.4903  140.2089  155.9576 H   0  0  0  0  0  0  0  0  0  0  0  0  # atno 8010 bound_to 7997
  140.2187  144.3811  150.6459 H   0  0  0  0  0  0  0  0  0  0  0  0  # atno 10167 bound_to 10162
  156.9881  131.0139  151.2864 H   0  0  0  0  0  0  0  0  0  0  0  0  # atno 10718 bound_to 10713
  152.9893  135.5573  154.5704 H   0  0  0  0  0  0  0  0  0  0  0  0  # atno 10763 bound_to 10752
  154.5105  135.2802  155.1348 H   0  0  0  0  0  0  0  0  0  0  0  0  # atno 10764 bound_to 10752
  154.2742  135.6357  153.5375 H   0  0  0  0  0  0  0  0  0  0  0  0  # atno 10765 bound_to 10752
  139.9137  134.9626  156.7615 H   0  0  0  0  0  0  0  0  0  0  0  0  # atno 11005 bound_to 11000
  145.9619  139.2807  143.1150 LP  0  0  0  0  0  0  0  0  0  0  0  0  # atno 17320 bound_to 7965
  145.9211  140.9114  143.0404 LP  0  0  0  0  0  0  0  0  0  0  0  0  # atno 17321 bound_to 7965
  140.6271  143.2182  151.6574 LP  0  0  0  0  0  0  0  0  0  0  0  0  # atno 17342 bound_to 10162
  139.5152  144.3386  152.0761 LP  0  0  0  0  0  0  0  0  0  0  0  0  # atno 17343 bound_to 10162
  157.5478  130.8162  149.8108 LP  0  0  0  0  0  0  0  0  0  0  0  0  # atno 17370 bound_to 10713
  156.0218  130.3793  150.1940 LP  0  0  0  0  0  0  0  0  0  0  0  0  # atno 17371 bound_to 10713
  140.6693  133.9574  155.7848 LP  0  0  0  0  0  0  0  0  0  0  0  0  # atno 17394 bound_to 11000
  141.0588  134.0376  157.3686 LP  0  0  0  0  0  0  0  0  0  0  0  0  # atno 17395 bound_to 11000

$$$$
