AV-unprocessed.smi:3303|AV-procd|sdf|12661|dock7
  -GOLD-   2272018593D 1   1.00000     0.00000
 Structure written by MMmdl.
 45 46  0  0  0  0  0  0  0  0  3 V2000
  144.2357  133.0293  149.9138 C   0  0  0  0  0  0  0  0  0  0  0  0
  145.5754  132.6362  150.5620 C   0  0  2  0  0  0  0  0  0  0  0  0
  145.4028  131.3399  151.3828 C   0  0  0  0  0  0  0  0  0  0  0  0
  146.6729  130.9268  152.0307 N   0  3  2  0  0  0  0  0  0  0  0  0
  146.5918  129.5846  152.6512 C   0  0  0  0  0  0  0  0  0  0  0  0
  147.2502  131.9760  152.9177 C   0  0  2  0  0  0  0  0  0  0  0  0
  146.4503  132.1990  154.2196 C   0  0  0  0  0  0  0  0  0  0  0  0
  147.4519  133.2823  152.1240 C   0  0  0  0  0  0  0  0  0  0  0  0
  146.1562  133.7701  151.4394 C   0  0  1  0  0  0  0  0  0  0  0  0
  146.4182  134.9781  150.6215 N   0  3  0  0  0  0  0  0  0  0  0  0
  145.3332  135.9814  150.6128 C   0  0  0  0  0  0  0  0  0  0  0  0
  145.1089  136.5607  152.0160 C   0  0  0  0  0  0  0  0  0  0  0  0
  143.7523  136.1813  152.5783 C   0  0  0  0  0  0  0  0  0  0  0  0
  142.8623  137.1709  153.0472 C   0  0  0  0  0  0  0  0  0  0  0  0
  141.6111  136.7630  153.5489 C   0  0  0  0  0  0  0  0  0  0  0  0
  141.3002  135.3894  153.5611 C   0  0  0  0  0  0  0  0  0  0  0  0
  142.2580  134.4806  153.0689 C   0  0  0  0  0  0  0  0  0  0  0  0
  143.4601  134.8613  152.5843 N   0  0  0  0  0  0  0  0  0  0  0  0
  143.4861  133.2734  150.6674 H   0  0  0  0  0  0  0  0  0  0  0  0
  143.8404  132.2140  149.3070 H   0  0  0  0  0  0  0  0  0  0  0  0
  144.3416  133.8936  149.2579 H   0  0  0  0  0  0  0  0  0  0  0  0
  146.2840  132.4279  149.7585 H   0  0  0  0  0  0  0  0  0  0  0  0
  144.6225  131.4614  152.1352 H   0  0  0  0  0  0  0  0  0  0  0  0
  145.0693  130.5385  150.7217 H   0  0  0  0  0  0  0  0  0  0  0  0
  145.8255  129.5454  153.4259 H   0  0  0  0  0  0  0  0  0  0  0  0
  147.5475  129.3036  153.0951 H   0  0  0  0  0  0  0  0  0  0  0  0
  146.3442  128.8343  151.8996 H   0  0  0  0  0  0  0  0  0  0  0  0
  148.2418  131.6289  153.2124 H   0  0  0  0  0  0  0  0  0  0  0  0
  146.9108  132.9814  154.8234 H   0  0  0  0  0  0  0  0  0  0  0  0
  146.4255  131.3017  154.8377 H   0  0  0  0  0  0  0  0  0  0  0  0
  145.4208  132.5012  154.0318 H   0  0  0  0  0  0  0  0  0  0  0  0
  147.8506  134.0482  152.7893 H   0  0  0  0  0  0  0  0  0  0  0  0
  148.2178  133.1183  151.3642 H   0  0  0  0  0  0  0  0  0  0  0  0
  145.4173  134.0282  152.1995 H   0  0  0  0  0  0  0  0  0  0  0  0
  147.2722  135.4146  150.9384 H   0  0  0  0  0  0  0  0  0  0  0  0
  145.5895  136.7843  149.9202 H   0  0  0  0  0  0  0  0  0  0  0  0
  144.4114  135.5253  150.2519 H   0  0  0  0  0  0  0  0  0  0  0  0
  145.8844  136.2060  152.6972 H   0  0  0  0  0  0  0  0  0  0  0  0
  145.1960  137.6481  151.9907 H   0  0  0  0  0  0  0  0  0  0  0  0
  143.1275  138.2179  153.0240 H   0  0  0  0  0  0  0  0  0  0  0  0
  140.9027  137.4902  153.9171 H   0  0  0  0  0  0  0  0  0  0  0  0
  140.3505  135.0402  153.9386 H   0  0  0  0  0  0  0  0  0  0  0  0
  142.0527  133.4201  153.0629 H   0  0  0  0  0  0  0  0  0  0  0  0
  146.5500  134.6769  149.6662 H   0  0  0  0  0  0  0  0  0  0  0  0
  147.3370  130.8243  151.2764 H   0  0  0  0  0  0  0  0  0  0  0  0
  1  2  1  0  0  0  0
  1 19  1  0  0  0  0
  1 20  1  0  0  0  0
  1 21  1  0  0  0  0
  2  9  1  0  0  0  0
  2  3  1  0  0  0  0
  2 22  1  0  0  0  0
  3  4  1  0  0  0  0
  3 23  1  0  0  0  0
  3 24  1  0  0  0  0
  4  5  1  0  0  0  0
  4  6  1  0  0  0  0
  4 45  1  0  0  0  0
  5 25  1  0  0  0  0
  5 26  1  0  0  0  0
  5 27  1  0  0  0  0
  6  7  1  0  0  0  0
  6  8  1  0  0  0  0
  6 28  1  0  0  0  0
  7 29  1  0  0  0  0
  7 30  1  0  0  0  0
  7 31  1  0  0  0  0
  8  9  1  0  0  0  0
  8 32  1  0  0  0  0
  8 33  1  0  0  0  0
  9 10  1  0  0  0  0
  9 34  1  0  0  0  0
 10 11  1  0  0  0  0
 10 35  1  0  0  0  0
 10 44  1  0  0  0  0
 11 12  1  0  0  0  0
 11 36  1  0  0  0  0
 11 37  1  0  0  0  0
 12 13  1  0  0  0  0
 12 38  1  0  0  0  0
 12 39  1  0  0  0  0
 13 18  1  0  0  0  0
 13 14  2  0  0  0  0
 14 15  1  0  0  0  0
 14 40  1  0  0  0  0
 15 16  2  0  0  0  0
 15 41  1  0  0  0  0
 16 17  1  0  0  0  0
 16 42  1  0  0  0  0
 17 18  2  0  0  0  0
 17 43  1  0  0  0  0
M  CHG  1   4   1
M  CHG  1  10   1
M  END
> <s_m_source_file>
AV-unprocessed.smi

> <i_m_source_file_index>
3303

> <i_lp_mmshare_version>
43012

> <i_f3d_flags>
0

> <s_epik_input>
W0NIM11bQ0BASF0xW0NIMl1OKFtDSDNdKVtDQEBIXShbQ0gzXSlbQ0gyXVtDQEhdMVtOSF1bQ0gyXVtDSDJdYzJbY0hdW2NIXVtjSF1bY0hdbjI=

> <s_epik_cmdline>
J2VwaWtfcHl0aG9uJywgJy1waCcsICc3LjAnLCAnLXRuJywgJzgnLCAnLW1hJywgJzIwMCcsICctbWV0YWxfYmluZGluZycsICctaW1hZScsICc8aW5maWxlLm1hZT4nLCAnLW9tYWUnLCAnPG91dGZpbGUubWFlPic=

> <r_epik_Ionization_Penalty>
0.0769462

> <r_epik_Ionization_Penalty_Charging>
0.0759813

> <r_epik_Ionization_Penalty_Neutral>
0.000964829

> <r_epik_State_Penalty>
0.0654373

> <r_epik_Charging_Adjusted_Penalty>
0.141419

> <i_epik_Tot_Q>
2

> <i_epik_Tot_abs_Q>
2

> <r_epik_Metal_State_Penalty>
0.0656439

> <b_epik_Metal_Only>
0

> <s_lp_Force_Field>
OPLS_2005

> <r_lp_Energy>
28.3665

> <b_lp_Chiralities_Consistent>
1

> <s_lp_Variant>
AV-unprocessed.smi:3303-5

> <Gold.Version>
5.8.1

> <Gold.Id.Protein>
6NUR|6NUR_protein|mol2

> <Gold.PLP.Fitness>
46.1991

> <Gold.PLP.PLP>
-33.9772

> <Gold.PLP.part.hbond>
-2.9794

> <Gold.PLP.part.metal>
0.0000

> <Gold.PLP.part.buried>
-0.3458

> <Gold.PLP.part.nonpolar>
-30.3897

> <Gold.PLP.part.repulsive>
0.2914

> <Gold.PLP.ligand.clash>
0.0000

> <Gold.PLP.ligand.torsion>
0.8904

> <Gold.PLP.Chemscore.Hbond>
3.7069

> <Gold.PLP.Chemscore.CHOScore>
0.9579

> <Gold.PLP.Chemscore.Metal>
0.0000

> <Gold.Chemscore.Hbonds>
donor molecule, donor type, donor heavy atom, donor atom, acceptor molecule, acceptor atom, score
      L1  H     4    45       P1 10747  1.00
      L1  H    10    35       P1  7948  2.00
      L1  H    10    44       P1  7921  0.65
      L1  C    17    43       P1 10957  0.97

> <Gold.PLP.Chemscore.Internal.Correction>
0.0085

> <Gold.Rescore>
     Score         DG    S(hbond)    S(metal)    S(lipo)     H(rot)  DE(clash)    DE(int)     intcor
     17.56     -19.50       2.00        0.00      92.89       1.37       1.07       0.87       ----

> <Gold.Chemscore.Fitness>
17.5607

> <Gold.Chemscore.DG>
-19.4957

> <Gold.Chemscore.ZeroCoef>
-5.4800

> <Gold.Chemscore.Hbond>
1.9959

> <Gold.Chemscore.Metal>
0.0000

> <Gold.Chemscore.Lipo>
92.8882

> <Gold.Chemscore.Internal_Hbond>
0.0000

> <Gold.Chemscore.DEClash>
1.0681

> <Gold.Chemscore.DEInternal>
0.8668

> <Gold.Chemscore.Rot>
1.3744

> <Gold.Chemscore.Internal.Correction>
   9.000000E+99

> <Gold.Chemscore.Hbonds>
donor molecule, donor type, donor heavy atom, donor atom, acceptor molecule, acceptor atom, score
      L1  H     4    45       P1 10747  0.99
      L1  H    10    35       P1  7948  0.52
      L1  H    10    44       P1  7921  0.06

> <Gold.Chemscore.Hbond.Weighted>
-6.6662

> <Gold.Chemscore.Metal.Weighted>
-0.0000

> <Gold.Chemscore.Lipo.Weighted>
-10.8679

> <Gold.Chemscore.Internal_Hbond.Weighted>
0.0000

> <Gold.Chemscore.DEClash.Weighted>
1.0681

> <Gold.Chemscore.DEInternal.Weighted>
0.8668

> <Gold.Chemscore.Rot.Weighted>
3.5185

> <Gold.Chemscore.Internal.Correction.Weighted>
   9.000000E+99

> <Gold.Protein.RotatedTorsions>
[ 6907 6896 6895 6894 ] final  -95.09 input  -60.11 | X-H torsion
[ 7974 7965 7964 7962 ] final  103.33 input  175.53 | X-H torsion
[ 8008 7997 7996 7995 ] final -137.82 input   59.86 | X-H torsion
[ 10167 10162 10161 10158 ] final   32.82 input  -65.29 | X-H torsion
[ 10718 10713 10712 10709 ] final  173.40 input   66.30 | X-H torsion
[ 10763 10752 10751 10750 ] final   91.26 input  -60.55 | X-H torsion
[ 11005 11000 10999 10996 ] final -139.88 input  -57.11 | X-H torsion

> <Gold.Protein.ActiveResidues>
 VAL166  LYS551  ARG553  GLY616  TRP617  ASP618  TYR619  PRO620  LYS621  CYS622 
 ASP623  PHE694  ASN695  SER759  ASP760  ASP761  ALA762  ILE779  LEU786  VAL792 
 PHE793  MET794  SER795  GLU796  ALA797  LYS798  CYS799  TRP800  GLU811  SER814 

> <Gold.Protein.RotatedAtoms>
  150.6956  134.1711  159.4212 H   0  0  0  0  0  0  0  0  0  0  0  0  # atno 6907 bound_to 6896
  151.9689  135.0084  160.0561 H   0  0  0  0  0  0  0  0  0  0  0  0  # atno 6908 bound_to 6896
  152.1859  133.4704  159.5019 H   0  0  0  0  0  0  0  0  0  0  0  0  # atno 6909 bound_to 6896
  145.3473  139.2447  143.3577 H   0  0  0  0  0  0  0  0  0  0  0  0  # atno 7974 bound_to 7965
  155.4181  140.0516  157.3027 H   0  0  0  0  0  0  0  0  0  0  0  0  # atno 8008 bound_to 7997
  154.4915  140.2122  155.9497 H   0  0  0  0  0  0  0  0  0  0  0  0  # atno 8009 bound_to 7997
  156.1348  140.3165  155.8410 H   0  0  0  0  0  0  0  0  0  0  0  0  # atno 8010 bound_to 7997
  140.4463  144.1113  150.6183 H   0  0  0  0  0  0  0  0  0  0  0  0  # atno 10167 bound_to 10162
  156.9648  131.0072  151.2919 H   0  0  0  0  0  0  0  0  0  0  0  0  # atno 10718 bound_to 10713
  153.2064  135.4404  155.0327 H   0  0  0  0  0  0  0  0  0  0  0  0  # atno 10763 bound_to 10752
  154.8176  135.3322  154.7135 H   0  0  0  0  0  0  0  0  0  0  0  0  # atno 10764 bound_to 10752
  153.7576  135.6994  153.4988 H   0  0  0  0  0  0  0  0  0  0  0  0  # atno 10765 bound_to 10752
  140.8476  134.2325  157.4777 H   0  0  0  0  0  0  0  0  0  0  0  0  # atno 11005 bound_to 11000
  146.2983  140.4082  142.8713 LP  0  0  0  0  0  0  0  0  0  0  0  0  # atno 17320 bound_to 7965
  144.8744  140.7317  143.6026 LP  0  0  0  0  0  0  0  0  0  0  0  0  # atno 17321 bound_to 7965
  140.4259  143.2590  151.9656 LP  0  0  0  0  0  0  0  0  0  0  0  0  # atno 17342 bound_to 10162
  139.4793  144.5788  151.7967 LP  0  0  0  0  0  0  0  0  0  0  0  0  # atno 17343 bound_to 10162
  157.5633  130.8260  149.8294 LP  0  0  0  0  0  0  0  0  0  0  0  0  # atno 17370 bound_to 10713
  156.0307  130.3765  150.1696 LP  0  0  0  0  0  0  0  0  0  0  0  0  # atno 17371 bound_to 10713
  139.8703  134.9667  156.4572 LP  0  0  0  0  0  0  0  0  0  0  0  0  # atno 17394 bound_to 11000
  140.8825  133.7907  155.9483 LP  0  0  0  0  0  0  0  0  0  0  0  0  # atno 17395 bound_to 11000

$$$$
