AV-unprocessed.smi:1278|AV-procd|sdf|5349|dock10
  -GOLD-   22720 4483D 1   1.00000     0.00000
 Structure written by MMmdl.
 39 40  0  0  0  0  0  0  0  0  2 V2000
  148.4911  142.9513  158.3277 C   0  0  0  0  0  0  0  0  0  0  0  0
  148.7821  141.5263  157.8246 C   0  0  2  0  0  0  0  0  0  0  0  0
  150.2744  141.2904  157.5271 C   0  0  0  0  0  0  0  0  0  0  0  0
  150.7012  141.9918  156.2300 C   0  0  0  0  0  0  0  0  0  0  0  0
  149.7866  141.5936  155.0607 C   0  0  0  0  0  0  0  0  0  0  0  0
  148.3615  141.8738  155.3742 N   0  3  1  0  0  0  0  0  0  0  0  0
  147.4738  141.6432  154.2067 C   0  0  0  0  0  0  0  0  0  0  0  0
  147.9256  140.4418  153.3540 C   0  0  0  0  0  0  0  0  0  0  0  0
  147.0341  139.2999  153.5222 N   0  0  0  0  0  0  0  0  0  0  0  0
  146.6498  138.4762  152.5362 C   0  0  0  0  0  0  0  0  0  0  0  0
  147.0265  138.5975  151.3700 O   0  0  0  0  0  0  0  0  0  0  0  0
  145.8199  137.5216  152.9919 N   0  0  0  0  0  0  0  0  0  0  0  0
  145.2033  136.4724  152.2605 C   0  0  0  0  0  0  0  0  0  0  0  0
  145.7132  135.9250  151.1509 N   0  0  0  0  0  0  0  0  0  0  0  0
  144.8937  134.9147  150.6406 C   0  0  0  0  0  0  0  0  0  0  0  0
  143.7571  134.7035  151.3807 C   0  0  0  0  0  0  0  0  0  0  0  0
  143.6692  135.7720  152.7556 S   0  0  0  0  0  0  0  0  0  0  0  0
  147.9203  141.1541  156.6000 C   0  0  0  0  0  0  0  0  0  0  0  0
  148.7167  143.7049  157.5732 H   0  0  0  0  0  0  0  0  0  0  0  0
  149.0828  143.1822  159.2138 H   0  0  0  0  0  0  0  0  0  0  0  0
  147.4410  143.0619  158.5988 H   0  0  0  0  0  0  0  0  0  0  0  0
  148.5039  140.8526  158.6364 H   0  0  0  0  0  0  0  0  0  0  0  0
  150.8911  141.6273  158.3613 H   0  0  0  0  0  0  0  0  0  0  0  0
  150.4554  140.2190  157.4277 H   0  0  0  0  0  0  0  0  0  0  0  0
  150.6773  143.0737  156.3648 H   0  0  0  0  0  0  0  0  0  0  0  0
  151.7350  141.7375  155.9951 H   0  0  0  0  0  0  0  0  0  0  0  0
  150.0873  142.1491  154.1714 H   0  0  0  0  0  0  0  0  0  0  0  0
  149.9079  140.5342  154.8296 H   0  0  0  0  0  0  0  0  0  0  0  0
  146.4625  141.4466  154.5656 H   0  0  0  0  0  0  0  0  0  0  0  0
  147.4135  142.5492  153.6017 H   0  0  0  0  0  0  0  0  0  0  0  0
  147.9280  140.6947  152.2945 H   0  0  0  0  0  0  0  0  0  0  0  0
  148.9483  140.1561  153.6073 H   0  0  0  0  0  0  0  0  0  0  0  0
  146.6773  139.1306  154.4514 H   0  0  0  0  0  0  0  0  0  0  0  0
  145.6005  137.5477  153.9768 H   0  0  0  0  0  0  0  0  0  0  0  0
  145.1967  134.3959  149.7430 H   0  0  0  0  0  0  0  0  0  0  0  0
  142.9694  133.9871  151.2008 H   0  0  0  0  0  0  0  0  0  0  0  0
  147.9802  140.0793  156.4211 H   0  0  0  0  0  0  0  0  0  0  0  0
  146.8755  141.3714  156.8192 H   0  0  0  0  0  0  0  0  0  0  0  0
  148.3104  142.8620  155.5777 H   0  0  0  0  0  0  0  0  0  0  0  0
  1  2  1  0  0  0  0
  1 19  1  0  0  0  0
  1 20  1  0  0  0  0
  1 21  1  0  0  0  0
  2 18  1  0  0  0  0
  2  3  1  0  0  0  0
  2 22  1  0  0  0  0
  3  4  1  0  0  0  0
  3 23  1  0  0  0  0
  3 24  1  0  0  0  0
  4  5  1  0  0  0  0
  4 25  1  0  0  0  0
  4 26  1  0  0  0  0
  5  6  1  0  0  0  0
  5 27  1  0  0  0  0
  5 28  1  0  0  0  0
  6  7  1  0  0  0  0
  6 18  1  0  0  0  0
  6 39  1  0  0  0  0
  7  8  1  0  0  0  0
  7 29  1  0  0  0  0
  7 30  1  0  0  0  0
  8  9  1  0  0  0  0
  8 31  1  0  0  0  0
  8 32  1  0  0  0  0
  9 10  1  0  0  0  0
  9 33  1  0  0  0  0
 10 11  2  0  0  0  0
 10 12  1  0  0  0  0
 12 13  1  0  0  0  0
 12 34  1  0  0  0  0
 13 17  1  0  0  0  0
 13 14  2  0  0  0  0
 14 15  1  0  0  0  0
 15 16  2  0  0  0  0
 15 35  1  0  0  0  0
 16 17  1  0  0  0  0
 16 36  1  0  0  0  0
 18 37  1  0  0  0  0
 18 38  1  0  0  0  0
M  CHG  1   6   1
M  END
> <s_m_source_file>
AV-unprocessed.smi

> <i_m_source_file_index>
1278

> <i_lp_mmshare_version>
43012

> <i_f3d_flags>
0

> <s_epik_input>
W0NIM11bQ0BASF0xW0NIMl1bQ0gyXVtDSDJdTihbQ0gyXTEpW0NIMl1bQ0gyXVtOSF1DKD1PKVtOSF1jMm5bY0hdW2NIXXMy

> <s_epik_cmdline>
J2VwaWtfcHl0aG9uJywgJy1waCcsICc3LjAnLCAnLXRuJywgJzgnLCAnLW1hJywgJzIwMCcsICctbWV0YWxfYmluZGluZycsICctaW1hZScsICc8aW5maWxlLm1hZT4nLCAnLW9tYWUnLCAnPG91dGZpbGUubWFlPic=

> <r_lp_tautomer_probability>
0.999

> <r_epik_Ionization_Penalty>
0.00222194

> <r_epik_Ionization_Penalty_Charging>
0.00208169

> <r_epik_Ionization_Penalty_Neutral>
0.000140251

> <r_epik_State_Penalty>
0.00142585

> <r_epik_Charging_Adjusted_Penalty>
0.00350754

> <i_epik_Tot_Q>
1

> <i_epik_Tot_abs_Q>
1

> <r_epik_Metal_State_Penalty>
0.0570424

> <b_epik_Metal_Only>
0

> <s_lp_Force_Field>
OPLS_2005

> <r_lp_Energy>
16.5942

> <b_lp_Chiralities_Consistent>
1

> <s_lp_Variant>
AV-unprocessed.smi:1278-3

> <Gold.Version>
5.8.1

> <Gold.Id.Protein>
6NUR|6NUR_protein|mol2

> <Gold.PLP.Fitness>
40.3617

> <Gold.PLP.PLP>
-27.6051

> <Gold.PLP.part.hbond>
-2.0000

> <Gold.PLP.part.metal>
0.0000

> <Gold.PLP.part.buried>
-1.6868

> <Gold.PLP.part.nonpolar>
-25.2259

> <Gold.PLP.part.repulsive>
2.0153

> <Gold.PLP.ligand.clash>
0.0000

> <Gold.PLP.ligand.torsion>
0.9672

> <Gold.PLP.Chemscore.Hbond>
2.9913

> <Gold.PLP.Chemscore.CHOScore>
1.8988

> <Gold.PLP.Chemscore.Metal>
0.0000

> <Gold.Chemscore.Hbonds>
donor molecule, donor type, donor heavy atom, donor atom, acceptor molecule, acceptor atom, score
      L1  H     6    39       P1  8028  2.00
      P1  H  7954  7966       L1    11  1.00
      L1  C    15    35       P1  7921  1.00
      L1  C    16    36       P1 10186  0.73

> <Gold.PLP.Chemscore.Internal.Correction>
0.0207

> <Gold.Rescore>
     Score         DG    S(hbond)    S(metal)    S(lipo)     H(rot)  DE(clash)    DE(int)     intcor
     10.83     -14.24       1.82        0.00      57.84       1.60       1.45       1.96       ----

> <Gold.Chemscore.Fitness>
10.8327

> <Gold.Chemscore.DG>
-14.2381

> <Gold.Chemscore.ZeroCoef>
-5.4800

> <Gold.Chemscore.Hbond>
1.8224

> <Gold.Chemscore.Metal>
0.0000

> <Gold.Chemscore.Lipo>
57.8434

> <Gold.Chemscore.Internal_Hbond>
0.0000

> <Gold.Chemscore.DEClash>
1.4488

> <Gold.Chemscore.DEInternal>
1.9566

> <Gold.Chemscore.Rot>
1.6001

> <Gold.Chemscore.Internal.Correction>
   9.000000E+99

> <Gold.Chemscore.Hbonds>
donor molecule, donor type, donor heavy atom, donor atom, acceptor molecule, acceptor atom, score
      L1  H     6    39       P1  8028  0.97
      P1  H  7954  7966       L1    11  0.94

> <Gold.Chemscore.Hbond.Weighted>
-6.0867

> <Gold.Chemscore.Metal.Weighted>
-0.0000

> <Gold.Chemscore.Lipo.Weighted>
-6.7677

> <Gold.Chemscore.Internal_Hbond.Weighted>
0.0000

> <Gold.Chemscore.DEClash.Weighted>
1.4488

> <Gold.Chemscore.DEInternal.Weighted>
1.9566

> <Gold.Chemscore.Rot.Weighted>
4.0963

> <Gold.Chemscore.Internal.Correction.Weighted>
   9.000000E+99

> <Gold.Protein.RotatedTorsions>
[ 6907 6896 6895 6894 ] final  -57.51 input  -60.11 | X-H torsion
[ 7974 7965 7964 7962 ] final  135.44 input  175.53 | X-H torsion
[ 8008 7997 7996 7995 ] final   54.28 input   59.86 | X-H torsion
[ 10167 10162 10161 10158 ] final  165.06 input  -65.29 | X-H torsion
[ 10718 10713 10712 10709 ] final -140.55 input   66.30 | X-H torsion
[ 10763 10752 10751 10750 ] final   12.50 input  -60.55 | X-H torsion
[ 11005 11000 10999 10996 ] final -178.68 input  -57.11 | X-H torsion

> <Gold.Protein.ActiveResidues>
 VAL166  LYS551  ARG553  GLY616  TRP617  ASP618  TYR619  PRO620  LYS621  CYS622 
 ASP623  PHE694  ASN695  SER759  ASP760  ASP761  ALA762  ILE779  LEU786  VAL792 
 PHE793  MET794  SER795  GLU796  ALA797  LYS798  CYS799  TRP800  GLU811  SER814 

> <Gold.Protein.RotatedAtoms>
  150.8080  134.7217  159.6661 H   0  0  0  0  0  0  0  0  0  0  0  0  # atno 6907 bound_to 6896
  152.4200  134.5969  159.9999 H   0  0  0  0  0  0  0  0  0  0  0  0  # atno 6908 bound_to 6896
  151.6187  133.3304  159.3119 H   0  0  0  0  0  0  0  0  0  0  0  0  # atno 6909 bound_to 6896
  144.9663  139.4654  143.5455 H   0  0  0  0  0  0  0  0  0  0  0  0  # atno 7974 bound_to 7965
  155.4822  140.3469  155.4341 H   0  0  0  0  0  0  0  0  0  0  0  0  # atno 8008 bound_to 7997
  156.1032  140.1441  156.9468 H   0  0  0  0  0  0  0  0  0  0  0  0  # atno 8009 bound_to 7997
  154.4707  140.0902  156.7115 H   0  0  0  0  0  0  0  0  0  0  0  0  # atno 8010 bound_to 7997
  139.4899  144.4171  151.9231 H   0  0  0  0  0  0  0  0  0  0  0  0  # atno 10167 bound_to 10162
  156.3236  130.7547  151.1651 H   0  0  0  0  0  0  0  0  0  0  0  0  # atno 10718 bound_to 10713
  153.1816  135.6828  153.8470 H   0  0  0  0  0  0  0  0  0  0  0  0  # atno 10763 bound_to 10752
  153.7799  135.3184  155.3365 H   0  0  0  0  0  0  0  0  0  0  0  0  # atno 10764 bound_to 10752
  154.8063  135.4746  154.0497 H   0  0  0  0  0  0  0  0  0  0  0  0  # atno 10765 bound_to 10752
  140.4271  134.6553  157.4693 H   0  0  0  0  0  0  0  0  0  0  0  0  # atno 11005 bound_to 11000
  146.3369  139.8846  142.8819 LP  0  0  0  0  0  0  0  0  0  0  0  0  # atno 17320 bound_to 7965
  145.2625  141.0082  143.3818 LP  0  0  0  0  0  0  0  0  0  0  0  0  # atno 17321 bound_to 7965
  140.3614  144.2969  150.5933 LP  0  0  0  0  0  0  0  0  0  0  0  0  # atno 17342 bound_to 10162
  140.5400  143.2225  151.8101 LP  0  0  0  0  0  0  0  0  0  0  0  0  # atno 17343 bound_to 10162
  157.7417  131.0501  150.5080 LP  0  0  0  0  0  0  0  0  0  0  0  0  # atno 17370 bound_to 10713
  156.5236  130.4168  149.6238 LP  0  0  0  0  0  0  0  0  0  0  0  0  # atno 17371 bound_to 10713
  140.0160  134.6619  155.9310 LP  0  0  0  0  0  0  0  0  0  0  0  0  # atno 17394 bound_to 11000
  141.1761  133.6540  156.4833 LP  0  0  0  0  0  0  0  0  0  0  0  0  # atno 17395 bound_to 11000

$$$$
