AV-unprocessed.smi:2886|AV-procd|sdf|11093|dock10
  -GOLD-   2272015563D 1   1.00000     0.00000
 Structure written by MMmdl.
 28 30  0  0  0  0  0  0  0  0  3 V2000
  153.4356  138.5344  156.5032 O   0  0  0  0  0  0  0  0  0  0  0  0
  152.5186  138.5602  155.6847 C   0  0  0  0  0  0  0  0  0  0  0  0
  152.3503  137.6092  154.7182 N   0  5  0  0  0  0  0  0  0  0  0  0
  151.3612  137.6632  153.8543 N   0  3  0  0  0  0  0  0  0  0  0  0
  150.4491  138.6301  153.8390 C   0  0  0  0  0  0  0  0  0  0  0  0
  150.5047  139.6800  154.7979 C   0  0  0  0  0  0  0  0  0  0  0  0
  149.5775  140.7144  154.8254 N   0  0  0  0  0  0  0  0  0  0  0  0
  148.4305  140.9502  153.9577 C   0  0  2  0  0  0  0  0  0  0  0  0
  147.7389  142.2897  154.2148 C   0  0  0  0  0  0  0  0  0  0  0  0
  146.2861  141.8488  154.4443 C   0  0  2  0  0  0  0  0  0  0  0  0
  146.1055  141.2056  155.8253 C   0  0  0  0  0  0  0  0  0  0  0  0
  146.8045  139.8608  155.6349 C   0  0  0  0  0  0  0  0  0  0  0  0
  147.2807  139.9516  154.1747 C   0  0  1  0  0  0  0  0  0  0  0  0
  146.2145  140.7001  153.6145 O   0  0  0  0  0  0  0  0  0  0  0  0
  151.5247  139.6494  155.7036 C   0  0  0  0  0  0  0  0  0  0  0  0
  151.6809  140.8881  156.9056 Cl  0  0  0  0  0  0  0  0  0  0  0  0
  151.2565  136.9349  153.1306 H   0  0  0  0  0  0  0  0  0  0  0  0
  149.6872  138.5717  153.0725 H   0  0  0  0  0  0  0  0  0  0  0  0
  149.6335  141.3400  155.6170 H   0  0  0  0  0  0  0  0  0  0  0  0
  148.7250  140.8961  152.9102 H   0  0  0  0  0  0  0  0  0  0  0  0
  148.1414  142.8335  155.0710 H   0  0  0  0  0  0  0  0  0  0  0  0
  147.8201  142.9312  153.3368 H   0  0  0  0  0  0  0  0  0  0  0  0
  145.5481  142.6180  154.2154 H   0  0  0  0  0  0  0  0  0  0  0  0
  146.5456  141.8034  156.6243 H   0  0  0  0  0  0  0  0  0  0  0  0
  145.0484  141.0584  156.0505 H   0  0  0  0  0  0  0  0  0  0  0  0
  147.6179  139.6996  156.3427 H   0  0  0  0  0  0  0  0  0  0  0  0
  146.0908  139.0448  155.7540 H   0  0  0  0  0  0  0  0  0  0  0  0
  147.4439  138.9825  153.7024 H   0  0  0  0  0  0  0  0  0  0  0  0
  1  2  2  0  0  0  0
  2  3  1  0  0  0  0
  2 15  1  0  0  0  0
  3  4  1  0  0  0  0
  4  5  2  0  0  0  0
  4 17  1  0  0  0  0
  5  6  1  0  0  0  0
  5 18  1  0  0  0  0
  6 15  2  0  0  0  0
  6  7  1  0  0  0  0
  7  8  1  0  0  0  0
  7 19  1  0  0  0  0
  8 13  1  0  0  0  0
  8  9  1  0  0  0  0
  8 20  1  0  0  0  0
  9 10  1  0  0  0  0
  9 21  1  0  0  0  0
  9 22  1  0  0  0  0
 10 14  1  0  0  0  0
 10 11  1  0  0  0  0
 10 23  1  0  0  0  0
 11 12  1  0  0  0  0
 11 24  1  0  0  0  0
 11 25  1  0  0  0  0
 12 13  1  0  0  0  0
 12 26  1  0  0  0  0
 12 27  1  0  0  0  0
 13 14  1  0  0  0  0
 13 28  1  0  0  0  0
 15 16  1  0  0  0  0
M  CHG  1   3  -1
M  CHG  1   4   1
M  END
> <s_m_source_file>
AV-unprocessed.smi

> <i_m_source_file_index>
2886

> <i_lp_mmshare_version>
43012

> <i_f3d_flags>
0

> <s_epik_input>
Tz1jMVtuSF1uW2NIXWMoYzFDbClbTkhdW0NASF0oW0NIMl1bQ0BASF0yMylbQ0BASF0oTzMpW0NIMl1bQ0gyXTI=

> <s_epik_cmdline>
J2VwaWtfcHl0aG9uJywgJy1waCcsICc3LjAnLCAnLXRuJywgJzgnLCAnLW1hJywgJzIwMCcsICctbWV0YWxfYmluZGluZycsICctaW1hZScsICc8aW5maWxlLm1hZT4nLCAnLW9tYWUnLCAnPG91dGZpbGUubWFlPic=

> <r_lp_tautomer_probability>
0.0138196

> <r_epik_Ionization_Penalty>
2.43027

> <r_epik_Ionization_Penalty_Charging>
2.43027

> <r_epik_Ionization_Penalty_Neutral>
1.33267e-06

> <r_epik_State_Penalty>
2.7044

> <r_epik_Charging_Adjusted_Penalty>
5.13467

> <i_epik_Tot_Q>
0

> <i_epik_Tot_abs_Q>
2

> <r_epik_Metal_State_Penalty>
2.98589

> <b_epik_Metal_Only>
0

> <s_lp_Force_Field>
OPLS_2005

> <r_lp_Energy>
57.8079

> <b_lp_Chiralities_Consistent>
1

> <s_lp_Variant>
AV-unprocessed.smi:2886-7

> <Gold.Version>
5.8.1

> <Gold.Id.Protein>
6NUR|6NUR_protein|mol2

> <Gold.PLP.Fitness>
36.0424

> <Gold.PLP.PLP>
-22.9814

> <Gold.PLP.part.hbond>
-3.0000

> <Gold.PLP.part.metal>
0.0000

> <Gold.PLP.part.buried>
-2.3749

> <Gold.PLP.part.nonpolar>
-20.7462

> <Gold.PLP.part.repulsive>
2.6157

> <Gold.PLP.ligand.clash>
0.0000

> <Gold.PLP.ligand.torsion>
0.0741

> <Gold.PLP.Chemscore.Hbond>
4.4000

> <Gold.PLP.Chemscore.CHOScore>
0.0000

> <Gold.PLP.Chemscore.Metal>
0.0000

> <Gold.Chemscore.Hbonds>
donor molecule, donor type, donor heavy atom, donor atom, acceptor molecule, acceptor atom, score
      L1  H     4    17       P1  7949  2.00
      P1  H  7997  8009       L1     1  0.85
      P1  H 10752 10764       L1     3  1.10

> <Gold.PLP.Chemscore.Internal.Correction>
0.0093

> <Gold.Rescore>
     Score         DG    S(hbond)    S(metal)    S(lipo)     H(rot)  DE(clash)    DE(int)     intcor
     13.92     -15.68       1.83        0.00      56.88       1.00       1.64       0.13       ----

> <Gold.Chemscore.Fitness>
13.9174

> <Gold.Chemscore.DG>
-15.6815

> <Gold.Chemscore.ZeroCoef>
-5.4800

> <Gold.Chemscore.Hbond>
1.8283

> <Gold.Chemscore.Metal>
0.0000

> <Gold.Chemscore.Lipo>
56.8811

> <Gold.Chemscore.Internal_Hbond>
0.0000

> <Gold.Chemscore.DEClash>
1.6365

> <Gold.Chemscore.DEInternal>
0.1276

> <Gold.Chemscore.Rot>
1.0000

> <Gold.Chemscore.Internal.Correction>
   9.000000E+99

> <Gold.Chemscore.Hbonds>
donor molecule, donor type, donor heavy atom, donor atom, acceptor molecule, acceptor atom, score
      L1  H     4    17       P1  7949  0.65
      P1  H  7997  8009       L1     1  0.80
      P1  H 10752 10764       L1     3  0.18

> <Gold.Chemscore.Hbond.Weighted>
-6.1065

> <Gold.Chemscore.Metal.Weighted>
-0.0000

> <Gold.Chemscore.Lipo.Weighted>
-6.6551

> <Gold.Chemscore.Internal_Hbond.Weighted>
0.0000

> <Gold.Chemscore.DEClash.Weighted>
1.6365

> <Gold.Chemscore.DEInternal.Weighted>
0.1276

> <Gold.Chemscore.Rot.Weighted>
2.5600

> <Gold.Chemscore.Internal.Correction.Weighted>
   9.000000E+99

> <Gold.Protein.RotatedTorsions>
[ 6907 6896 6895 6894 ] final  105.81 input  -60.11 | X-H torsion
[ 7974 7965 7964 7962 ] final   15.22 input  175.53 | X-H torsion
[ 8008 7997 7996 7995 ] final  174.16 input   59.86 | X-H torsion
[ 10167 10162 10161 10158 ] final -124.91 input  -65.29 | X-H torsion
[ 10718 10713 10712 10709 ] final  -36.25 input   66.30 | X-H torsion
[ 10763 10752 10751 10750 ] final  -60.43 input  -60.55 | X-H torsion
[ 11005 11000 10999 10996 ] final  -80.69 input  -57.11 | X-H torsion

> <Gold.Protein.ActiveResidues>
 VAL166  LYS551  ARG553  GLY616  TRP617  ASP618  TYR619  PRO620  LYS621  CYS622 
 ASP623  PHE694  ASN695  SER759  ASP760  ASP761  ALA762  ILE779  LEU786  VAL792 
 PHE793  MET794  SER795  GLU796  ALA797  LYS798  CYS799  TRP800  GLU811  SER814 

> <Gold.Protein.RotatedAtoms>
  152.5217  133.9473  159.7654 H   0  0  0  0  0  0  0  0  0  0  0  0  # atno 6907 bound_to 6896
  150.9791  133.6256  159.2732 H   0  0  0  0  0  0  0  0  0  0  0  0  # atno 6908 bound_to 6896
  151.3440  135.0876  159.9433 H   0  0  0  0  0  0  0  0  0  0  0  0  # atno 6909 bound_to 6896
  146.2284  139.8926  142.8552 H   0  0  0  0  0  0  0  0  0  0  0  0  # atno 7974 bound_to 7965
  156.1003  140.1441  156.9477 H   0  0  0  0  0  0  0  0  0  0  0  0  # atno 8008 bound_to 7997
  154.4698  140.0914  156.7160 H   0  0  0  0  0  0  0  0  0  0  0  0  # atno 8009 bound_to 7997
  155.4772  140.3444  155.4336 H   0  0  0  0  0  0  0  0  0  0  0  0  # atno 8010 bound_to 7997
  139.9877  143.5674  152.2354 H   0  0  0  0  0  0  0  0  0  0  0  0  # atno 10167 bound_to 10162
  156.3291  130.4276  149.7889 H   0  0  0  0  0  0  0  0  0  0  0  0  # atno 10718 bound_to 10713
  154.2691  135.6293  153.5303 H   0  0  0  0  0  0  0  0  0  0  0  0  # atno 10763 bound_to 10752
  152.9883  135.5606  154.5620 H   0  0  0  0  0  0  0  0  0  0  0  0  # atno 10764 bound_to 10752
  154.5186  135.2881  155.1257 H   0  0  0  0  0  0  0  0  0  0  0  0  # atno 10765 bound_to 10752
  141.1667  133.7162  156.8310 H   0  0  0  0  0  0  0  0  0  0  0  0  # atno 11005 bound_to 11000
  145.2402  141.0006  143.3940 LP  0  0  0  0  0  0  0  0  0  0  0  0  # atno 17320 bound_to 7965
  144.9458  139.4138  143.6427 LP  0  0  0  0  0  0  0  0  0  0  0  0  # atno 17321 bound_to 7965
  139.6363  144.7650  151.2431 LP  0  0  0  0  0  0  0  0  0  0  0  0  # atno 17342 bound_to 10162
  140.7466  143.6393  150.8350 LP  0  0  0  0  0  0  0  0  0  0  0  0  # atno 17343 bound_to 10162
  156.5168  130.8197  151.3189 LP  0  0  0  0  0  0  0  0  0  0  0  0  # atno 17370 bound_to 10713
  157.7427  130.9896  150.2535 LP  0  0  0  0  0  0  0  0  0  0  0  0  # atno 17371 bound_to 10713
  140.2051  134.8869  157.3212 LP  0  0  0  0  0  0  0  0  0  0  0  0  # atno 17394 bound_to 11000
  140.2146  134.4097  155.7595 LP  0  0  0  0  0  0  0  0  0  0  0  0  # atno 17395 bound_to 11000

$$$$
