AV-unprocessed.smi:3031|AV-procd|sdf|11542|dock9
  -GOLD-   2272016493D 1   1.00000     0.00000
 Structure written by MMmdl.
 47 48  0  0  0  0  0  0  0  0  2 V2000
  143.8123  132.5982  149.2903 C   0  0  0  0  0  0  0  0  0  0  0  0
  144.0473  133.4499  150.5043 C   0  0  0  0  0  0  0  0  0  0  0  0
  143.3487  133.4189  151.7449 C   0  0  0  0  0  0  0  0  0  0  0  0
  143.8106  134.3008  152.6167 N   0  0  0  0  0  0  0  0  0  0  0  0
  144.8157  134.9240  151.9652 N   0  0  0  0  0  0  0  0  0  0  0  0
  145.5822  135.9567  152.6386 C   0  0  0  0  0  0  0  0  0  0  0  0
  144.7413  137.2085  152.9738 C   0  0  1  0  0  0  0  0  0  0  0  0
  144.9167  137.5984  154.4475 C   0  0  0  0  0  0  0  0  0  0  0  0
  145.1170  138.3556  152.1153 N   0  3  0  0  0  0  0  0  0  0  0  0
  146.5707  138.5975  151.9887 C   0  0  0  0  0  0  0  0  0  0  0  0
  147.1193  139.3491  153.2133 C   0  0  2  0  0  0  0  0  0  0  0  0
  146.5235  140.6315  153.2234 O   0  0  0  0  0  0  0  0  0  0  0  0
  148.6490  139.5663  153.2274 C   0  0  0  0  0  0  0  0  0  0  0  0
  149.2336  139.8755  154.5363 N   0  0  0  0  0  0  0  0  0  0  0  0
  150.5327  139.2322  154.7413 C   0  0  0  0  0  0  0  0  0  0  0  0
  151.1328  139.5750  156.1157 C   0  0  0  0  0  0  0  0  0  0  0  0
  151.2580  140.9868  156.2414 O   0  0  0  0  0  0  0  0  0  0  0  0
  150.0157  141.6629  156.0812 C   0  0  0  0  0  0  0  0  0  0  0  0
  149.4133  141.3153  154.7086 C   0  0  0  0  0  0  0  0  0  0  0  0
  144.9767  134.4342  150.6868 C   0  0  0  0  0  0  0  0  0  0  0  0
  142.9306  131.9670  149.4014 H   0  0  0  0  0  0  0  0  0  0  0  0
  144.6571  131.9380  149.0941 H   0  0  0  0  0  0  0  0  0  0  0  0
  143.6625  133.2039  148.3967 H   0  0  0  0  0  0  0  0  0  0  0  0
  142.5272  132.7811  152.0370 H   0  0  0  0  0  0  0  0  0  0  0  0
  145.9856  135.5230  153.5545 H   0  0  0  0  0  0  0  0  0  0  0  0
  146.4411  136.2245  152.0206 H   0  0  0  0  0  0  0  0  0  0  0  0
  143.6845  136.9807  152.8241 H   0  0  0  0  0  0  0  0  0  0  0  0
  144.6167  136.7840  155.1076 H   0  0  0  0  0  0  0  0  0  0  0  0
  144.3054  138.4656  154.7000 H   0  0  0  0  0  0  0  0  0  0  0  0
  145.9546  137.8444  154.6742 H   0  0  0  0  0  0  0  0  0  0  0  0
  144.7618  138.1880  151.1847 H   0  0  0  0  0  0  0  0  0  0  0  0
  147.0562  137.6315  151.9067 H   0  0  0  0  0  0  0  0  0  0  0  0
  146.7796  139.1426  151.0671 H   0  0  0  0  0  0  0  0  0  0  0  0
  146.8241  138.8325  154.1278 H   0  0  0  0  0  0  0  0  0  0  0  0
  145.6458  140.5583  152.8792 H   0  0  0  0  0  0  0  0  0  0  0  0
  149.1646  138.7225  152.7661 H   0  0  0  0  0  0  0  0  0  0  0  0
  148.8388  140.4098  152.5611 H   0  0  0  0  0  0  0  0  0  0  0  0
  150.4584  138.1523  154.6573 H   0  0  0  0  0  0  0  0  0  0  0  0
  151.2280  139.5497  153.9622 H   0  0  0  0  0  0  0  0  0  0  0  0
  150.5070  139.1851  156.9197 H   0  0  0  0  0  0  0  0  0  0  0  0
  152.1169  139.1192  156.2247 H   0  0  0  0  0  0  0  0  0  0  0  0
  149.3338  141.3812  156.8852 H   0  0  0  0  0  0  0  0  0  0  0  0
  150.1813  142.7374  156.1623 H   0  0  0  0  0  0  0  0  0  0  0  0
  150.0594  141.7062  153.9206 H   0  0  0  0  0  0  0  0  0  0  0  0
  148.4540  141.8236  154.6056 H   0  0  0  0  0  0  0  0  0  0  0  0
  145.7376  134.8166  150.0222 H   0  0  0  0  0  0  0  0  0  0  0  0
  144.6744  139.1869  152.4804 H   0  0  0  0  0  0  0  0  0  0  0  0
  1  2  1  0  0  0  0
  1 21  1  0  0  0  0
  1 22  1  0  0  0  0
  1 23  1  0  0  0  0
  2 20  2  0  0  0  0
  2  3  1  0  0  0  0
  3  4  2  0  0  0  0
  3 24  1  0  0  0  0
  4  5  1  0  0  0  0
  5  6  1  0  0  0  0
  5 20  1  0  0  0  0
  6  7  1  0  0  0  0
  6 25  1  0  0  0  0
  6 26  1  0  0  0  0
  7  8  1  0  0  0  0
  7  9  1  0  0  0  0
  7 27  1  0  0  0  0
  8 28  1  0  0  0  0
  8 29  1  0  0  0  0
  8 30  1  0  0  0  0
  9 10  1  0  0  0  0
  9 31  1  0  0  0  0
  9 47  1  0  0  0  0
 10 11  1  0  0  0  0
 10 32  1  0  0  0  0
 10 33  1  0  0  0  0
 11 12  1  0  0  0  0
 11 13  1  0  0  0  0
 11 34  1  0  0  0  0
 12 35  1  0  0  0  0
 13 14  1  0  0  0  0
 13 36  1  0  0  0  0
 13 37  1  0  0  0  0
 14 19  1  0  0  0  0
 14 15  1  0  0  0  0
 15 16  1  0  0  0  0
 15 38  1  0  0  0  0
 15 39  1  0  0  0  0
 16 17  1  0  0  0  0
 16 40  1  0  0  0  0
 16 41  1  0  0  0  0
 17 18  1  0  0  0  0
 18 19  1  0  0  0  0
 18 42  1  0  0  0  0
 18 43  1  0  0  0  0
 19 44  1  0  0  0  0
 19 45  1  0  0  0  0
 20 46  1  0  0  0  0
M  CHG  1   9   1
M  END
> <s_m_source_file>
AV-unprocessed.smi

> <i_m_source_file_index>
3031

> <i_lp_mmshare_version>
43012

> <i_f3d_flags>
0

> <s_epik_input>
W0NIM11jMVtjSF1ubihbY0hdMSlbQ0gyXVtDQEhdKFtDSDNdKVtOSF1bQ0gyXVtDQEhdKFtPSF0pW0NIMl1OMltDSDJdW0NIMl1PW0NIMl1bQ0gyXTI=

> <s_epik_cmdline>
J2VwaWtfcHl0aG9uJywgJy1waCcsICc3LjAnLCAnLXRuJywgJzgnLCAnLW1hJywgJzIwMCcsICctbWV0YWxfYmluZGluZycsICctaW1hZScsICc8aW5maWxlLm1hZT4nLCAnLW9tYWUnLCAnPG91dGZpbGUubWFlPic=

> <r_lp_tautomer_probability>
1

> <r_epik_Ionization_Penalty>
0.108564

> <r_epik_Ionization_Penalty_Charging>
0.01811

> <r_epik_Ionization_Penalty_Neutral>
0.0904541

> <r_epik_State_Penalty>
0.141043

> <r_epik_Charging_Adjusted_Penalty>
0.159153

> <i_epik_Tot_Q>
1

> <i_epik_Tot_abs_Q>
1

> <r_epik_Metal_State_Penalty>
0.141052

> <b_epik_Metal_Only>
0

> <s_lp_Force_Field>
OPLS_2005

> <r_lp_Energy>
29.6303

> <b_lp_Chiralities_Consistent>
1

> <s_lp_Variant>
AV-unprocessed.smi:3031-2

> <Gold.Version>
5.8.1

> <Gold.Id.Protein>
6NUR|6NUR_protein|mol2

> <Gold.PLP.Fitness>
47.9676

> <Gold.PLP.PLP>
-36.1251

> <Gold.PLP.part.hbond>
-2.9850

> <Gold.PLP.part.metal>
0.0000

> <Gold.PLP.part.buried>
1.2069

> <Gold.PLP.part.nonpolar>
-34.7992

> <Gold.PLP.part.repulsive>
0.2793

> <Gold.PLP.ligand.clash>
0.0000

> <Gold.PLP.ligand.torsion>
1.6241

> <Gold.PLP.Chemscore.Hbond>
4.0000

> <Gold.PLP.Chemscore.CHOScore>
1.0000

> <Gold.PLP.Chemscore.Metal>
0.0000

> <Gold.Chemscore.Hbonds>
donor molecule, donor type, donor heavy atom, donor atom, acceptor molecule, acceptor atom, score
      L1  H     9    31       P1 10171  1.00
      L1  H     9    47       P1 10175  2.00
      L1  H    12    35       P1 10175  1.00
      L1  C     3    24       P1 10957  0.03
      L1  C    20    46       P1  7921  1.00

> <Gold.PLP.Chemscore.Internal.Correction>
0.0907

> <Gold.Rescore>
     Score         DG    S(hbond)    S(metal)    S(lipo)     H(rot)  DE(clash)    DE(int)     intcor
     15.86     -19.56       2.89        0.00      95.23       2.63       2.03       1.66       ----

> <Gold.Chemscore.Fitness>
15.8625

> <Gold.Chemscore.DG>
-19.5554

> <Gold.Chemscore.ZeroCoef>
-5.4800

> <Gold.Chemscore.Hbond>
2.8919

> <Gold.Chemscore.Metal>
0.0000

> <Gold.Chemscore.Lipo>
95.2270

> <Gold.Chemscore.Internal_Hbond>
0.0000

> <Gold.Chemscore.DEClash>
2.0299

> <Gold.Chemscore.DEInternal>
1.6630

> <Gold.Chemscore.Rot>
2.6270

> <Gold.Chemscore.Internal.Correction>
   9.000000E+99

> <Gold.Chemscore.Hbonds>
donor molecule, donor type, donor heavy atom, donor atom, acceptor molecule, acceptor atom, score
      L1  H     9    31       P1 10171  0.97
      L1  H     9    47       P1 10175  0.97
      L1  H    12    35       P1 10175  0.71

> <Gold.Chemscore.Hbond.Weighted>
-9.6590

> <Gold.Chemscore.Metal.Weighted>
-0.0000

> <Gold.Chemscore.Lipo.Weighted>
-11.1416

> <Gold.Chemscore.Internal_Hbond.Weighted>
0.0000

> <Gold.Chemscore.DEClash.Weighted>
2.0299

> <Gold.Chemscore.DEInternal.Weighted>
1.6630

> <Gold.Chemscore.Rot.Weighted>
6.7251

> <Gold.Chemscore.Internal.Correction.Weighted>
   9.000000E+99

> <Gold.Protein.RotatedTorsions>
[ 6907 6896 6895 6894 ] final  174.34 input  -60.11 | X-H torsion
[ 7974 7965 7964 7962 ] final  -10.49 input  175.53 | X-H torsion
[ 8008 7997 7996 7995 ] final    4.97 input   59.86 | X-H torsion
[ 10167 10162 10161 10158 ] final  -57.89 input  -65.29 | X-H torsion
[ 10718 10713 10712 10709 ] final  109.42 input   66.30 | X-H torsion
[ 10763 10752 10751 10750 ] final  -81.71 input  -60.55 | X-H torsion
[ 11005 11000 10999 10996 ] final  -19.77 input  -57.11 | X-H torsion

> <Gold.Protein.ActiveResidues>
 VAL166  LYS551  ARG553  GLY616  TRP617  ASP618  TYR619  PRO620  LYS621  CYS622 
 ASP623  PHE694  ASN695  SER759  ASP760  ASP761  ALA762  ILE779  LEU786  VAL792 
 PHE793  MET794  SER795  GLU796  ALA797  LYS798  CYS799  TRP800  GLU811  SER814 

> <Gold.Protein.RotatedAtoms>
  151.7538  133.3329  159.3398 H   0  0  0  0  0  0  0  0  0  0  0  0  # atno 6907 bound_to 6896
  150.7525  134.6168  159.6124 H   0  0  0  0  0  0  0  0  0  0  0  0  # atno 6908 bound_to 6896
  152.3451  134.7084  160.0304 H   0  0  0  0  0  0  0  0  0  0  0  0  # atno 6909 bound_to 6896
  146.2219  140.2772  142.8360 H   0  0  0  0  0  0  0  0  0  0  0  0  # atno 7974 bound_to 7965
  154.7226  140.2714  155.6528 H   0  0  0  0  0  0  0  0  0  0  0  0  # atno 8008 bound_to 7997
  156.2828  140.2731  156.1826 H   0  0  0  0  0  0  0  0  0  0  0  0  # atno 8009 bound_to 7997
  155.0487  140.0371  157.2526 H   0  0  0  0  0  0  0  0  0  0  0  0  # atno 8010 bound_to 7997
  140.6231  143.2427  151.5432 H   0  0  0  0  0  0  0  0  0  0  0  0  # atno 10167 bound_to 10162
  157.6542  131.0913  150.6451 H   0  0  0  0  0  0  0  0  0  0  0  0  # atno 10718 bound_to 10713
  154.5669  135.5617  153.7059 H   0  0  0  0  0  0  0  0  0  0  0  0  # atno 10763 bound_to 10752
  153.0036  135.6287  154.2168 H   0  0  0  0  0  0  0  0  0  0  0  0  # atno 10764 bound_to 10752
  154.2107  135.2874  155.2939 H   0  0  0  0  0  0  0  0  0  0  0  0  # atno 10765 bound_to 10752
  140.8400  133.7934  155.9850 H   0  0  0  0  0  0  0  0  0  0  0  0  # atno 11005 bound_to 11000
  144.9224  140.7883  143.5740 LP  0  0  0  0  0  0  0  0  0  0  0  0  # atno 17320 bound_to 7965
  145.2710  139.1955  143.4842 LP  0  0  0  0  0  0  0  0  0  0  0  0  # atno 17321 bound_to 7965
  139.5456  144.2531  152.1435 LP  0  0  0  0  0  0  0  0  0  0  0  0  # atno 17342 bound_to 10162
  140.1756  144.4894  150.6556 LP  0  0  0  0  0  0  0  0  0  0  0  0  # atno 17343 bound_to 10162
  156.6759  130.4553  149.5642 LP  0  0  0  0  0  0  0  0  0  0  0  0  # atno 17370 bound_to 10713
  156.1964  130.6592  151.1119 LP  0  0  0  0  0  0  0  0  0  0  0  0  # atno 17371 bound_to 10713
  140.8906  134.2500  157.5096 LP  0  0  0  0  0  0  0  0  0  0  0  0  # atno 17394 bound_to 11000
  139.8703  134.9659  156.4546 LP  0  0  0  0  0  0  0  0  0  0  0  0  # atno 17395 bound_to 11000

$$$$
