AV-unprocessed.smi:2114|AV-procd|sdf|8621|dock2
  -GOLD-   2272011363D 1   1.00000     0.00000
 Structure written by MMmdl.
 47 48  0  0  0  0  0  0  0  0  1 V2000
  147.5732  133.4552  153.1351 C   0  0  0  0  0  0  0  0  0  0  0  0
  148.8586  133.5062  153.7283 O   0  0  0  0  0  0  0  0  0  0  0  0
  148.9502  134.4915  154.7449 C   0  0  0  0  0  0  0  0  0  0  0  0
  150.3979  134.5687  155.2560 C   0  0  2  0  0  0  0  0  0  0  0  0
  150.7288  133.4057  156.2013 C   0  0  0  0  0  0  0  0  0  0  0  0
  150.6084  135.8327  155.9580 N   0  0  0  0  0  0  0  0  0  0  0  0
  151.2859  136.8918  155.4845 C   0  0  0  0  0  0  0  0  0  0  0  0
  151.8671  136.9051  154.3993 O   0  0  0  0  0  0  0  0  0  0  0  0
  151.3486  138.0779  156.4020 C   0  0  0  0  0  0  0  0  0  0  0  0
  150.3629  138.3039  157.3888 C   0  0  0  0  0  0  0  0  0  0  0  0
  150.4578  139.4507  158.2001 C   0  0  0  0  0  0  0  0  0  0  0  0
  151.5337  140.3391  157.9967 C   0  0  0  0  0  0  0  0  0  0  0  0
  151.6265  141.4878  158.7948 N   0  0  0  0  0  0  0  0  0  0  0  0
  152.5164  141.3434  159.9386 C   0  0  0  0  0  0  0  0  0  0  0  0
  152.4158  142.5855  160.8426 C   0  0  1  0  0  0  0  0  0  0  0  0
  153.4137  142.5321  162.0042 C   0  0  0  0  0  0  0  0  0  0  0  0
  152.6930  143.7569  160.0736 O   0  0  0  0  0  0  0  0  0  0  0  0
  151.8496  143.9416  158.9329 C   0  0  2  0  0  0  0  0  0  0  0  0
  150.4194  144.3507  159.3277 C   0  0  0  0  0  0  0  0  0  0  0  0
  151.9021  142.6953  158.0273 C   0  0  0  0  0  0  0  0  0  0  0  0
  152.4777  140.1353  157.0475 N   0  0  0  0  0  0  0  0  0  0  0  0
  152.3782  139.0356  156.2701 C   0  0  0  0  0  0  0  0  0  0  0  0
  147.5563  132.6865  152.3627 H   0  0  0  0  0  0  0  0  0  0  0  0
  147.3174  134.4070  152.6677 H   0  0  0  0  0  0  0  0  0  0  0  0
  146.8076  133.2094  153.8720 H   0  0  0  0  0  0  0  0  0  0  0  0
  148.6289  135.4624  154.3637 H   0  0  0  0  0  0  0  0  0  0  0  0
  148.2808  134.2253  155.5643 H   0  0  0  0  0  0  0  0  0  0  0  0
  151.0684  134.4925  154.3982 H   0  0  0  0  0  0  0  0  0  0  0  0
  150.5928  132.4451  155.7035 H   0  0  0  0  0  0  0  0  0  0  0  0
  150.0897  133.4160  157.0848 H   0  0  0  0  0  0  0  0  0  0  0  0
  151.7648  133.4572  156.5379 H   0  0  0  0  0  0  0  0  0  0  0  0
  150.1883  135.9153  156.8723 H   0  0  0  0  0  0  0  0  0  0  0  0
  149.5386  137.6190  157.5256 H   0  0  0  0  0  0  0  0  0  0  0  0
  149.7153  139.6448  158.9606 H   0  0  0  0  0  0  0  0  0  0  0  0
  152.2501  140.4471  160.5004 H   0  0  0  0  0  0  0  0  0  0  0  0
  153.5432  141.2150  159.5926 H   0  0  0  0  0  0  0  0  0  0  0  0
  151.4122  142.6522  161.2631 H   0  0  0  0  0  0  0  0  0  0  0  0
  153.2356  141.6611  162.6355 H   0  0  0  0  0  0  0  0  0  0  0  0
  153.3280  143.4196  162.6317 H   0  0  0  0  0  0  0  0  0  0  0  0
  154.4405  142.4788  161.6410 H   0  0  0  0  0  0  0  0  0  0  0  0
  152.2732  144.7761  158.3733 H   0  0  0  0  0  0  0  0  0  0  0  0
  149.8327  144.6023  158.4439 H   0  0  0  0  0  0  0  0  0  0  0  0
  150.4305  145.2271  159.9758 H   0  0  0  0  0  0  0  0  0  0  0  0
  149.8898  143.5541  159.8497 H   0  0  0  0  0  0  0  0  0  0  0  0
  152.8934  142.6146  157.5783 H   0  0  0  0  0  0  0  0  0  0  0  0
  151.1889  142.7912  157.2073 H   0  0  0  0  0  0  0  0  0  0  0  0
  153.1515  138.9193  155.5246 H   0  0  0  0  0  0  0  0  0  0  0  0
  1  2  1  0  0  0  0
  1 23  1  0  0  0  0
  1 24  1  0  0  0  0
  1 25  1  0  0  0  0
  2  3  1  0  0  0  0
  3  4  1  0  0  0  0
  3 26  1  0  0  0  0
  3 27  1  0  0  0  0
  4  5  1  0  0  0  0
  4  6  1  0  0  0  0
  4 28  1  0  0  0  0
  5 29  1  0  0  0  0
  5 30  1  0  0  0  0
  5 31  1  0  0  0  0
  6  7  1  0  0  0  0
  6 32  1  0  0  0  0
  7  8  2  0  0  0  0
  7  9  1  0  0  0  0
  9 22  1  0  0  0  0
  9 10  2  0  0  0  0
 10 11  1  0  0  0  0
 10 33  1  0  0  0  0
 11 12  2  0  0  0  0
 11 34  1  0  0  0  0
 12 13  1  0  0  0  0
 12 21  1  0  0  0  0
 13 20  1  0  0  0  0
 13 14  1  0  0  0  0
 14 15  1  0  0  0  0
 14 35  1  0  0  0  0
 14 36  1  0  0  0  0
 15 16  1  0  0  0  0
 15 17  1  0  0  0  0
 15 37  1  0  0  0  0
 16 38  1  0  0  0  0
 16 39  1  0  0  0  0
 16 40  1  0  0  0  0
 17 18  1  0  0  0  0
 18 19  1  0  0  0  0
 18 20  1  0  0  0  0
 18 41  1  0  0  0  0
 19 42  1  0  0  0  0
 19 43  1  0  0  0  0
 19 44  1  0  0  0  0
 20 45  1  0  0  0  0
 20 46  1  0  0  0  0
 21 22  2  0  0  0  0
 22 47  1  0  0  0  0
M  END
> <s_m_source_file>
AV-unprocessed.smi

> <i_m_source_file_index>
2114

> <i_lp_mmshare_version>
43012

> <i_f3d_flags>
0

> <s_epik_input>
W0NIM11PW0NIMl1bQ0BIXShbQ0gzXSlbTkhdQyg9TyljMVtjSF1bY0hdYyhuW2NIXTEpTjJbQ0gyXVtDQEBIXShbQ0gzXSlPW0NAQEhdKFtDSDNdKVtDSDJdMg==

> <s_epik_cmdline>
J2VwaWtfcHl0aG9uJywgJy1waCcsICc3LjAnLCAnLXRuJywgJzgnLCAnLW1hJywgJzIwMCcsICctbWV0YWxfYmluZGluZycsICctaW1hZScsICc8aW5maWxlLm1hZT4nLCAnLW9tYWUnLCAnPG91dGZpbGUubWFlPic=

> <r_lp_tautomer_probability>
1

> <r_epik_Ionization_Penalty>
1.92915e-05

> <r_epik_Ionization_Penalty_Charging>
0

> <r_epik_Ionization_Penalty_Neutral>
1.92915e-05

> <r_epik_State_Penalty>
-0

> <r_epik_Charging_Adjusted_Penalty>
0

> <i_epik_Tot_Q>
0

> <i_epik_Tot_abs_Q>
0

> <r_epik_Metal_State_Penalty>
-0

> <b_epik_Metal_Only>
0

> <s_lp_Force_Field>
OPLS_2005

> <r_lp_Energy>
24.3529

> <b_lp_Chiralities_Consistent>
1

> <s_lp_Variant>
AV-unprocessed.smi:2114-5

> <Gold.Version>
5.8.1

> <Gold.Id.Protein>
6NUR|6NUR_protein|mol2

> <Gold.PLP.Fitness>
38.4738

> <Gold.PLP.PLP>
-36.5312

> <Gold.PLP.part.hbond>
-2.0000

> <Gold.PLP.part.metal>
0.0000

> <Gold.PLP.part.buried>
-5.9171

> <Gold.PLP.part.nonpolar>
-27.7354

> <Gold.PLP.part.repulsive>
0.4589

> <Gold.PLP.ligand.clash>
0.0000

> <Gold.PLP.ligand.torsion>
1.0369

> <Gold.PLP.Chemscore.Hbond>
1.3000

> <Gold.PLP.Chemscore.CHOScore>
0.0000

> <Gold.PLP.Chemscore.Metal>
0.0000

> <Gold.Chemscore.Hbonds>
donor molecule, donor type, donor heavy atom, donor atom, acceptor molecule, acceptor atom, score
      P1  H  7997  8010       L1    21  0.30
      P1  H 10752 10764       L1     8  1.00

> <Gold.PLP.Chemscore.Internal.Correction>
0.1165

> <Gold.Rescore>
     Score         DG    S(hbond)    S(metal)    S(lipo)     H(rot)  DE(clash)    DE(int)     intcor
     15.40     -16.37       0.98        0.00      98.58       1.52       0.04       0.93       ----

> <Gold.Chemscore.Fitness>
15.4037

> <Gold.Chemscore.DG>
-16.3734

> <Gold.Chemscore.ZeroCoef>
-5.4800

> <Gold.Chemscore.Hbond>
0.9754

> <Gold.Chemscore.Metal>
0.0000

> <Gold.Chemscore.Lipo>
98.5755

> <Gold.Chemscore.Internal_Hbond>
0.0000

> <Gold.Chemscore.DEClash>
0.0406

> <Gold.Chemscore.DEInternal>
0.9290

> <Gold.Chemscore.Rot>
1.5226

> <Gold.Chemscore.Internal.Correction>
   9.000000E+99

> <Gold.Chemscore.Hbonds>
donor molecule, donor type, donor heavy atom, donor atom, acceptor molecule, acceptor atom, score
      P1  H 10752 10764       L1     8  0.77

> <Gold.Chemscore.Hbond.Weighted>
-3.2580

> <Gold.Chemscore.Metal.Weighted>
-0.0000

> <Gold.Chemscore.Lipo.Weighted>
-11.5333

> <Gold.Chemscore.Internal_Hbond.Weighted>
0.0000

> <Gold.Chemscore.DEClash.Weighted>
0.0406

> <Gold.Chemscore.DEInternal.Weighted>
0.9290

> <Gold.Chemscore.Rot.Weighted>
3.8980

> <Gold.Chemscore.Internal.Correction.Weighted>
   9.000000E+99

> <Gold.Protein.RotatedTorsions>
[ 6907 6896 6895 6894 ] final  100.06 input  -60.11 | X-H torsion
[ 7974 7965 7964 7962 ] final   70.83 input  175.53 | X-H torsion
[ 8008 7997 7996 7995 ] final   63.86 input   59.86 | X-H torsion
[ 10167 10162 10161 10158 ] final   53.63 input  -65.29 | X-H torsion
[ 10718 10713 10712 10709 ] final -152.99 input   66.30 | X-H torsion
[ 10763 10752 10751 10750 ] final  -77.03 input  -60.55 | X-H torsion
[ 11005 11000 10999 10996 ] final   -7.75 input  -57.11 | X-H torsion

> <Gold.Protein.ActiveResidues>
 VAL166  LYS551  ARG553  GLY616  TRP617  ASP618  TYR619  PRO620  LYS621  CYS622 
 ASP623  PHE694  ASN695  SER759  ASP760  ASP761  ALA762  ILE779  LEU786  VAL792 
 PHE793  MET794  SER795  GLU796  ALA797  LYS798  CYS799  TRP800  GLU811  SER814 

> <Gold.Protein.RotatedAtoms>
  152.5380  134.0334  159.8034 H   0  0  0  0  0  0  0  0  0  0  0  0  # atno 6907 bound_to 6896
  151.0502  133.5623  159.2650 H   0  0  0  0  0  0  0  0  0  0  0  0  # atno 6908 bound_to 6896
  151.2560  135.0646  159.9134 H   0  0  0  0  0  0  0  0  0  0  0  0  # atno 6909 bound_to 6896
  145.7733  139.2853  143.1308 H   0  0  0  0  0  0  0  0  0  0  0  0  # atno 7974 bound_to 7965
  155.6368  140.3496  155.4701 H   0  0  0  0  0  0  0  0  0  0  0  0  # atno 8008 bound_to 7997
  155.9958  140.1203  157.0618 H   0  0  0  0  0  0  0  0  0  0  0  0  # atno 8009 bound_to 7997
  154.4233  140.1110  156.5614 H   0  0  0  0  0  0  0  0  0  0  0  0  # atno 8010 bound_to 7997
  140.2387  144.3607  150.6388 H   0  0  0  0  0  0  0  0  0  0  0  0  # atno 10167 bound_to 10162
  156.4798  130.8298  151.2525 H   0  0  0  0  0  0  0  0  0  0  0  0  # atno 10718 bound_to 10713
  154.5076  135.5778  153.6580 H   0  0  0  0  0  0  0  0  0  0  0  0  # atno 10763 bound_to 10752
  152.9890  135.6151  154.2921 H   0  0  0  0  0  0  0  0  0  0  0  0  # atno 10764 bound_to 10752
  154.2833  135.2850  155.2667 H   0  0  0  0  0  0  0  0  0  0  0  0  # atno 10765 bound_to 10752
  140.7161  133.8868  155.8786 H   0  0  0  0  0  0  0  0  0  0  0  0  # atno 11005 bound_to 11000
  146.0148  140.8402  142.9953 LP  0  0  0  0  0  0  0  0  0  0  0  0  # atno 17320 bound_to 7965
  144.6809  140.2542  143.7327 LP  0  0  0  0  0  0  0  0  0  0  0  0  # atno 17321 bound_to 7965
  140.6130  143.2170  151.6848 LP  0  0  0  0  0  0  0  0  0  0  0  0  # atno 17342 bound_to 10162
  139.5085  144.3610  152.0562 LP  0  0  0  0  0  0  0  0  0  0  0  0  # atno 17343 bound_to 10162
  157.7484  131.0049  150.3092 LP  0  0  0  0  0  0  0  0  0  0  0  0  # atno 17370 bound_to 10713
  156.3533  130.3834  149.7311 LP  0  0  0  0  0  0  0  0  0  0  0  0  # atno 17371 bound_to 10713
  141.0043  134.1107  157.4285 LP  0  0  0  0  0  0  0  0  0  0  0  0  # atno 17394 bound_to 11000
  139.8859  135.0077  156.6468 LP  0  0  0  0  0  0  0  0  0  0  0  0  # atno 17395 bound_to 11000

$$$$
