AV-unprocessed.smi:3164|AV-procd|sdf|12079|dock4
  -GOLD-   2272017503D 1   1.00000     0.00000
 Structure written by MMmdl.
 40 41  0  0  0  0  0  0  0  0  3 V2000
  144.1710  132.7608  149.5600 C   0  0  0  0  0  0  0  0  0  0  0  0
  143.7203  133.8116  150.4980 N   0  3  1  0  0  0  0  0  0  0  0  0
  143.1860  133.2569  151.7620 C   0  0  0  0  0  0  0  0  0  0  0  0
  142.7016  134.3919  152.6789 C   0  0  0  0  0  0  0  0  0  0  0  0
  143.7684  135.3051  152.9105 O   0  0  0  0  0  0  0  0  0  0  0  0
  144.2284  135.9218  151.7113 C   0  0  1  0  0  0  0  0  0  0  0  0
  145.3160  136.9410  152.0852 C   0  0  0  0  0  0  0  0  0  0  0  0
  144.8314  137.8955  153.1031 N   0  3  0  0  0  0  0  0  0  0  0  0
  145.8926  138.4343  153.9760 C   0  0  0  0  0  0  0  0  0  0  0  0
  147.1013  138.8986  153.1519 C   0  0  0  0  0  0  0  0  0  0  0  0
  148.1536  139.5750  154.0094 C   0  0  0  0  0  0  0  0  0  0  0  0
  149.3720  138.9260  154.3019 C   0  0  0  0  0  0  0  0  0  0  0  0
  150.3126  139.5972  155.1071 C   0  0  0  0  0  0  0  0  0  0  0  0
  149.9990  140.8835  155.5868 C   0  0  0  0  0  0  0  0  0  0  0  0
  148.7540  141.4442  155.2389 C   0  0  0  0  0  0  0  0  0  0  0  0
  147.8448  140.8084  154.4681 N   0  0  0  0  0  0  0  0  0  0  0  0
  144.7661  134.8255  150.7686 C   0  0  0  0  0  0  0  0  0  0  0  0
  145.0003  132.1891  149.9788 H   0  0  0  0  0  0  0  0  0  0  0  0
  144.4994  133.2010  148.6178 H   0  0  0  0  0  0  0  0  0  0  0  0
  143.3570  132.0699  149.3380 H   0  0  0  0  0  0  0  0  0  0  0  0
  142.3622  132.5749  151.5471 H   0  0  0  0  0  0  0  0  0  0  0  0
  143.9612  132.6763  152.2650 H   0  0  0  0  0  0  0  0  0  0  0  0
  141.8489  134.9123  152.2397 H   0  0  0  0  0  0  0  0  0  0  0  0
  142.3691  133.9870  153.6348 H   0  0  0  0  0  0  0  0  0  0  0  0
  143.4008  136.4435  151.2263 H   0  0  0  0  0  0  0  0  0  0  0  0
  146.2046  136.4275  152.4557 H   0  0  0  0  0  0  0  0  0  0  0  0
  145.6157  137.5024  151.1992 H   0  0  0  0  0  0  0  0  0  0  0  0
  144.3801  138.6685  152.6353 H   0  0  0  0  0  0  0  0  0  0  0  0
  145.4913  139.2677  154.5546 H   0  0  0  0  0  0  0  0  0  0  0  0
  146.2001  137.6656  154.6864 H   0  0  0  0  0  0  0  0  0  0  0  0
  147.5514  138.0489  152.6366 H   0  0  0  0  0  0  0  0  0  0  0  0
  146.7809  139.5939  152.3744 H   0  0  0  0  0  0  0  0  0  0  0  0
  149.5845  137.9380  153.9203 H   0  0  0  0  0  0  0  0  0  0  0  0
  151.2568  139.1338  155.3525 H   0  0  0  0  0  0  0  0  0  0  0  0
  150.6965  141.4274  156.2065 H   0  0  0  0  0  0  0  0  0  0  0  0
  148.4808  142.4284  155.5893 H   0  0  0  0  0  0  0  0  0  0  0  0
  145.6368  134.3399  151.2132 H   0  0  0  0  0  0  0  0  0  0  0  0
  145.0929  135.2700  149.8275 H   0  0  0  0  0  0  0  0  0  0  0  0
  144.1503  137.4261  153.6835 H   0  0  0  0  0  0  0  0  0  0  0  0
  142.9556  134.2926  150.0456 H   0  0  0  0  0  0  0  0  0  0  0  0
  1  2  1  0  0  0  0
  1 18  1  0  0  0  0
  1 19  1  0  0  0  0
  1 20  1  0  0  0  0
  2 17  1  0  0  0  0
  2  3  1  0  0  0  0
  2 40  1  0  0  0  0
  3  4  1  0  0  0  0
  3 21  1  0  0  0  0
  3 22  1  0  0  0  0
  4  5  1  0  0  0  0
  4 23  1  0  0  0  0
  4 24  1  0  0  0  0
  5  6  1  0  0  0  0
  6  7  1  0  0  0  0
  6 17  1  0  0  0  0
  6 25  1  0  0  0  0
  7  8  1  0  0  0  0
  7 26  1  0  0  0  0
  7 27  1  0  0  0  0
  8  9  1  0  0  0  0
  8 28  1  0  0  0  0
  8 39  1  0  0  0  0
  9 10  1  0  0  0  0
  9 29  1  0  0  0  0
  9 30  1  0  0  0  0
 10 11  1  0  0  0  0
 10 31  1  0  0  0  0
 10 32  1  0  0  0  0
 11 16  1  0  0  0  0
 11 12  2  0  0  0  0
 12 13  1  0  0  0  0
 12 33  1  0  0  0  0
 13 14  2  0  0  0  0
 13 34  1  0  0  0  0
 14 15  1  0  0  0  0
 14 35  1  0  0  0  0
 15 16  2  0  0  0  0
 15 36  1  0  0  0  0
 17 37  1  0  0  0  0
 17 38  1  0  0  0  0
M  CHG  1   2   1
M  CHG  1   8   1
M  END
> <s_m_source_file>
AV-unprocessed.smi

> <i_m_source_file_index>
3164

> <i_lp_mmshare_version>
43012

> <i_f3d_flags>
0

> <s_epik_input>
W0NIM11OMVtDSDJdW0NIMl1PW0NASF0oW0NIMl0xKVtDSDJdW05IXVtDSDJdW0NIMl1jMltjSF1bY0hdW2NIXVtjSF1uMg==

> <s_epik_cmdline>
J2VwaWtfcHl0aG9uJywgJy1waCcsICc3LjAnLCAnLXRuJywgJzgnLCAnLW1hJywgJzIwMCcsICctbWV0YWxfYmluZGluZycsICctaW1hZScsICc8aW5maWxlLm1hZT4nLCAnLW9tYWUnLCAnPG91dGZpbGUubWFlPic=

> <r_epik_Ionization_Penalty>
0.294944

> <r_epik_Ionization_Penalty_Charging>
0.29381

> <r_epik_Ionization_Penalty_Neutral>
0.00113372

> <r_epik_State_Penalty>
0.271365

> <r_epik_Charging_Adjusted_Penalty>
0.565175

> <i_epik_Tot_Q>
2

> <i_epik_Tot_abs_Q>
2

> <r_epik_Metal_State_Penalty>
0.271365

> <b_epik_Metal_Only>
0

> <s_lp_Force_Field>
OPLS_2005

> <r_lp_Energy>
20.3644

> <b_lp_Chiralities_Consistent>
1

> <s_lp_Variant>
AV-unprocessed.smi:3164-1

> <Gold.Version>
5.8.1

> <Gold.Id.Protein>
6NUR|6NUR_protein|mol2

> <Gold.PLP.Fitness>
45.6686

> <Gold.PLP.PLP>
-31.4192

> <Gold.PLP.part.hbond>
-2.0000

> <Gold.PLP.part.metal>
0.0000

> <Gold.PLP.part.buried>
0.2581

> <Gold.PLP.part.nonpolar>
-29.1495

> <Gold.PLP.part.repulsive>
0.2270

> <Gold.PLP.ligand.clash>
0.0000

> <Gold.PLP.ligand.torsion>
0.3825

> <Gold.PLP.Chemscore.Hbond>
3.9840

> <Gold.PLP.Chemscore.CHOScore>
1.0000

> <Gold.PLP.Chemscore.Metal>
0.0000

> <Gold.Chemscore.Hbonds>
donor molecule, donor type, donor heavy atom, donor atom, acceptor molecule, acceptor atom, score
      L1  H     2    40       P1 10186  2.00
      L1  H     8    28       P1 10175  2.00
      L1  C    15    36       P1  8028  1.00

> <Gold.PLP.Chemscore.Internal.Correction>
0.0624

> <Gold.Rescore>
     Score         DG    S(hbond)    S(metal)    S(lipo)     H(rot)  DE(clash)    DE(int)     intcor
     16.48     -17.06       1.77        0.00      84.57       1.65       0.23       0.36       ----

> <Gold.Chemscore.Fitness>
16.4777

> <Gold.Chemscore.DG>
-17.0620

> <Gold.Chemscore.ZeroCoef>
-5.4800

> <Gold.Chemscore.Hbond>
1.7663

> <Gold.Chemscore.Metal>
0.0000

> <Gold.Chemscore.Lipo>
84.5695

> <Gold.Chemscore.Internal_Hbond>
0.0000

> <Gold.Chemscore.DEClash>
0.2273

> <Gold.Chemscore.DEInternal>
0.3570

> <Gold.Chemscore.Rot>
1.6454

> <Gold.Chemscore.Internal.Correction>
   9.000000E+99

> <Gold.Chemscore.Hbonds>
donor molecule, donor type, donor heavy atom, donor atom, acceptor molecule, acceptor atom, score
      L1  H     2    40       P1 10186  0.86
      L1  H     8    28       P1 10175  0.98

> <Gold.Chemscore.Hbond.Weighted>
-5.8996

> <Gold.Chemscore.Metal.Weighted>
-0.0000

> <Gold.Chemscore.Lipo.Weighted>
-9.8946

> <Gold.Chemscore.Internal_Hbond.Weighted>
0.0000

> <Gold.Chemscore.DEClash.Weighted>
0.2273

> <Gold.Chemscore.DEInternal.Weighted>
0.3570

> <Gold.Chemscore.Rot.Weighted>
4.2122

> <Gold.Chemscore.Internal.Correction.Weighted>
   9.000000E+99

> <Gold.Protein.RotatedTorsions>
[ 6907 6896 6895 6894 ] final -173.80 input  -60.11 | X-H torsion
[ 7974 7965 7964 7962 ] final -145.21 input  175.53 | X-H torsion
[ 8008 7997 7996 7995 ] final   53.44 input   59.86 | X-H torsion
[ 10167 10162 10161 10158 ] final   69.75 input  -65.29 | X-H torsion
[ 10718 10713 10712 10709 ] final  -15.66 input   66.30 | X-H torsion
[ 10763 10752 10751 10750 ] final -137.51 input  -60.55 | X-H torsion
[ 11005 11000 10999 10996 ] final  -58.83 input  -57.11 | X-H torsion

> <Gold.Protein.ActiveResidues>
 VAL166  LYS551  ARG553  GLY616  TRP617  ASP618  TYR619  PRO620  LYS621  CYS622 
 ASP623  PHE694  ASN695  SER759  ASP760  ASP761  ALA762  ILE779  LEU786  VAL792 
 PHE793  MET794  SER795  GLU796  ALA797  LYS798  CYS799  TRP800  GLU811  SER814 

> <Gold.Protein.RotatedAtoms>
  151.5621  133.3402  159.2972 H   0  0  0  0  0  0  0  0  0  0  0  0  # atno 6907 bound_to 6896
  150.8417  134.7714  159.6948 H   0  0  0  0  0  0  0  0  0  0  0  0  # atno 6908 bound_to 6896
  152.4483  134.5455  159.9903 H   0  0  0  0  0  0  0  0  0  0  0  0  # atno 6909 bound_to 6896
  144.8243  140.5612  143.5557 H   0  0  0  0  0  0  0  0  0  0  0  0  # atno 7974 bound_to 7965
  155.4683  140.3464  155.4322 H   0  0  0  0  0  0  0  0  0  0  0  0  # atno 8008 bound_to 7997
  156.1117  140.1462  156.9358 H   0  0  0  0  0  0  0  0  0  0  0  0  # atno 8009 bound_to 7997
  154.4761  140.0885  156.7243 H   0  0  0  0  0  0  0  0  0  0  0  0  # atno 8010 bound_to 7997
  140.0644  144.5206  150.7271 H   0  0  0  0  0  0  0  0  0  0  0  0  # atno 10167 bound_to 10162
  156.5985  130.4818  149.6249 H   0  0  0  0  0  0  0  0  0  0  0  0  # atno 10718 bound_to 10713
  154.8660  135.3640  154.5235 H   0  0  0  0  0  0  0  0  0  0  0  0  # atno 10763 bound_to 10752
  153.5864  135.7017  153.5446 H   0  0  0  0  0  0  0  0  0  0  0  0  # atno 10764 bound_to 10752
  153.3412  135.4097  155.1535 H   0  0  0  0  0  0  0  0  0  0  0  0  # atno 10765 bound_to 10752
  141.1224  133.6614  156.4980 H   0  0  0  0  0  0  0  0  0  0  0  0  # atno 11005 bound_to 11000
  145.5035  139.1482  143.3644 LP  0  0  0  0  0  0  0  0  0  0  0  0  # atno 17320 bound_to 7965
  146.2549  140.5175  142.8878 LP  0  0  0  0  0  0  0  0  0  0  0  0  # atno 17321 bound_to 7965
  140.7156  143.2542  151.4444 LP  0  0  0  0  0  0  0  0  0  0  0  0  # atno 17342 bound_to 10162
  139.5874  144.1574  152.2046 LP  0  0  0  0  0  0  0  0  0  0  0  0  # atno 17343 bound_to 10162
  156.2489  130.6895  151.1626 LP  0  0  0  0  0  0  0  0  0  0  0  0  # atno 17370 bound_to 10713
  157.7285  131.0631  150.5815 LP  0  0  0  0  0  0  0  0  0  0  0  0  # atno 17371 bound_to 10713
  140.4469  134.6965  157.5020 LP  0  0  0  0  0  0  0  0  0  0  0  0  # atno 17394 bound_to 11000
  140.0192  134.6573  155.9265 LP  0  0  0  0  0  0  0  0  0  0  0  0  # atno 17395 bound_to 11000

$$$$
