AV-unprocessed.smi:54|AV-procd|sdf|558|dock6
  -GOLD-   2262016463D 1   1.00000     0.00000
 Structure written by MMmdl.
 43 45  0  0  0  0  0  0  0  0  2 V2000
  152.4187  143.2052  160.5570 C   0  0  0  0  0  0  0  0  0  0  0  0
  151.8867  143.7747  159.2316 C   0  0  0  0  0  0  0  0  0  0  0  0
  150.7487  144.7802  159.4745 C   0  0  0  0  0  0  0  0  0  0  0  0
  151.4266  142.6434  158.3008 C   0  0  0  0  0  0  0  0  0  0  0  0
  150.2819  142.6730  157.8441 O   0  0  0  0  0  0  0  0  0  0  0  0
  152.3470  141.6813  158.0656 N   0  0  0  0  0  0  0  0  0  0  0  0
  152.2457  140.5193  157.2898 C   0  0  0  0  0  0  0  0  0  0  0  0
  151.3364  140.6115  156.3495 N   0  0  0  0  0  0  0  0  0  0  0  0
  151.2355  139.4597  155.5924 C   0  0  0  0  0  0  0  0  0  0  0  0
  151.9532  138.3034  155.7256 C   0  0  0  0  0  0  0  0  0  0  0  0
  151.5800  137.3621  154.7740 N   0  0  0  0  0  0  0  0  0  0  0  0
  150.6325  138.0097  154.0973 C   0  0  0  0  0  0  0  0  0  0  0  0
  150.3592  139.2582  154.5320 N   0  0  0  0  0  0  0  0  0  0  0  0
  149.3686  140.2438  153.9881 C   0  0  1  0  0  0  0  0  0  0  0  0
  148.7176  139.6632  152.8968 O   0  0  0  0  0  0  0  0  0  0  0  0
  147.4935  139.0802  153.3306 C   0  0  2  0  0  0  0  0  0  0  0  0
  146.5556  138.7998  152.1436 C   0  0  0  0  0  0  0  0  0  0  0  0
  147.1999  137.9596  151.2101 O   0  0  0  0  0  0  0  0  0  0  0  0
  146.9954  140.1190  154.3426 C   0  0  2  0  0  0  0  0  0  0  0  0
  146.3631  141.1997  153.6753 O   0  0  0  0  0  0  0  0  0  0  0  0
  148.2871  140.5367  155.0462 C   0  0  2  0  0  0  0  0  0  0  0  0
  148.2702  141.8870  155.4700 O   0  0  0  0  0  0  0  0  0  0  0  0
  152.9606  138.2631  156.8113 C   0  0  0  0  0  0  0  0  0  0  0  0
  153.6305  137.2442  156.9696 O   0  0  0  0  0  0  0  0  0  0  0  0
  153.0564  139.3995  157.5644 N   0  5  0  0  0  0  0  0  0  0  0  0
  149.9680  141.1039  153.6872 H   0  0  0  0  0  0  0  0  0  0  0  0
  147.7042  138.1531  153.8673 H   0  0  0  0  0  0  0  0  0  0  0  0
  146.2796  139.6888  155.0437 H   0  0  0  0  0  0  0  0  0  0  0  0
  148.4451  139.8972  155.9166 H   0  0  0  0  0  0  0  0  0  0  0  0
  153.2219  142.4875  160.3857 H   0  0  0  0  0  0  0  0  0  0  0  0
  151.6340  142.6987  161.1205 H   0  0  0  0  0  0  0  0  0  0  0  0
  152.8188  143.9985  161.1888 H   0  0  0  0  0  0  0  0  0  0  0  0
  152.7049  144.3097  158.7463 H   0  0  0  0  0  0  0  0  0  0  0  0
  150.3630  145.1772  158.5346 H   0  0  0  0  0  0  0  0  0  0  0  0
  151.0969  145.6259  160.0679 H   0  0  0  0  0  0  0  0  0  0  0  0
  149.9155  144.3230  160.0099 H   0  0  0  0  0  0  0  0  0  0  0  0
  153.2195  141.8080  158.5562 H   0  0  0  0  0  0  0  0  0  0  0  0
  150.1228  137.5560  153.2603 H   0  0  0  0  0  0  0  0  0  0  0  0
  145.6599  138.2817  152.4873 H   0  0  0  0  0  0  0  0  0  0  0  0
  146.2342  139.7228  151.6602 H   0  0  0  0  0  0  0  0  0  0  0  0
  147.6872  137.3048  151.6864 H   0  0  0  0  0  0  0  0  0  0  0  0
  145.5262  140.8996  153.3547 H   0  0  0  0  0  0  0  0  0  0  0  0
  148.3778  142.4375  154.7090 H   0  0  0  0  0  0  0  0  0  0  0  0
  1  2  1  0  0  0  0
  1 30  1  0  0  0  0
  1 31  1  0  0  0  0
  1 32  1  0  0  0  0
  2  3  1  0  0  0  0
  2  4  1  0  0  0  0
  2 33  1  0  0  0  0
  3 34  1  0  0  0  0
  3 35  1  0  0  0  0
  3 36  1  0  0  0  0
  4  5  2  0  0  0  0
  4  6  1  0  0  0  0
  6 37  1  0  0  0  0
  6  7  1  0  0  0  0
  7 25  1  0  0  0  0
  7  8  2  0  0  0  0
  8  9  1  0  0  0  0
  9 13  1  0  0  0  0
  9 10  2  0  0  0  0
 10 11  1  0  0  0  0
 10 23  1  0  0  0  0
 11 12  2  0  0  0  0
 12 13  1  0  0  0  0
 12 38  1  0  0  0  0
 13 14  1  0  0  0  0
 14 26  1  0  0  0  0
 14 21  1  0  0  0  0
 14 15  1  0  0  0  0
 15 16  1  0  0  0  0
 16 27  1  0  0  0  0
 16 17  1  0  0  0  0
 16 19  1  0  0  0  0
 17 18  1  0  0  0  0
 17 39  1  0  0  0  0
 17 40  1  0  0  0  0
 18 41  1  0  0  0  0
 19 28  1  0  0  0  0
 19 20  1  0  0  0  0
 19 21  1  0  0  0  0
 20 42  1  0  0  0  0
 21 29  1  0  0  0  0
 21 22  1  0  0  0  0
 22 43  1  0  0  0  0
 23 24  2  0  0  0  0
 23 25  1  0  0  0  0
M  CHG  1  25  -1
M  END
> <s_m_source_file>
AV-unprocessed.smi

> <i_m_source_file_index>
54

> <i_lp_mmshare_version>
43012

> <i_f3d_flags>
0

> <s_epik_input>
W0NIM11bQ0hdKFtDSDNdKUMoPU8pW05IXWMobjEpW25IXWMoPU8pYyhjMTIpbltjSF1uMltDQEBIXTNPW0NASF0oW0NIMl1bT0hdKVtDQEBIXShbT0hdKVtDQEhdM1tPSF0=

> <s_epik_cmdline>
J2VwaWtfcHl0aG9uJywgJy1waCcsICc3LjAnLCAnLXRuJywgJzgnLCAnLW1hJywgJzIwMCcsICctbWV0YWxfYmluZGluZycsICctaW1hZScsICc8aW5maWxlLm1hZT4nLCAnLW9tYWUnLCAnPG91dGZpbGUubWFlPic=

> <r_lp_tautomer_probability>
0.85571

> <r_epik_Ionization_Penalty>
1.75936

> <r_epik_Ionization_Penalty_Charging>
4.55893e-11

> <r_epik_Ionization_Penalty_Neutral>
1.75936

> <r_epik_State_Penalty>
1.72072

> <r_epik_Charging_Adjusted_Penalty>
1.72072

> <i_epik_Tot_Q>
-1

> <i_epik_Tot_abs_Q>
1

> <r_epik_Metal_State_Penalty>
0.400338

> <b_epik_Metal_Only>
1

> <s_epik_Chemistry_Notes>
This compound contains an acetal/aminal-like group ( X-CH(R)-Y where X, Y are N, S, or O) that may be acid/base labile, releasing an aldehyde.

> <s_lp_Force_Field>
OPLS_2005

> <r_lp_Energy>
63.0293

> <b_lp_Chiralities_Consistent>
1

> <s_lp_Variant>
AV-unprocessed.smi:54-30

> <Gold.Version>
5.8.1

> <Gold.Id.Protein>
6NUR|6NUR_protein|mol2

> <Gold.PLP.Fitness>
51.6074

> <Gold.PLP.PLP>
-33.0044

> <Gold.PLP.part.hbond>
-5.9449

> <Gold.PLP.part.metal>
0.0000

> <Gold.PLP.part.buried>
-1.4372

> <Gold.PLP.part.nonpolar>
-32.9332

> <Gold.PLP.part.repulsive>
7.7114

> <Gold.PLP.ligand.clash>
0.0000

> <Gold.PLP.ligand.torsion>
0.2157

> <Gold.PLP.Chemscore.Hbond>
5.2545

> <Gold.PLP.Chemscore.CHOScore>
1.0711

> <Gold.PLP.Chemscore.Metal>
0.0000

> <Gold.Chemscore.Hbonds>
donor molecule, donor type, donor heavy atom, donor atom, acceptor molecule, acceptor atom, score
      L1  H    18    41       P1  7948  1.00
      L1  H    20    42       P1 10175  0.88
      P1  H  7954  7966       L1    18  0.65
      P1  H  7997  8010       L1    25  2.00
      P1  H 10752 10765       L1    11  0.54
      L1  C    12    38       P1  7948  0.97
      L1  C    12    38       P1  7949  0.08

> <Gold.PLP.Chemscore.Internal.Correction>
0.0575

> <Gold.Rescore>
     Score         DG    S(hbond)    S(metal)    S(lipo)     H(rot)  DE(clash)    DE(int)     intcor
      6.92     -11.89       2.93        0.00      59.18       4.02       3.32       1.66       ----

> <Gold.Chemscore.Fitness>
6.9169

> <Gold.Chemscore.DG>
-11.8948

> <Gold.Chemscore.ZeroCoef>
-5.4800

> <Gold.Chemscore.Hbond>
2.9282

> <Gold.Chemscore.Metal>
0.0000

> <Gold.Chemscore.Lipo>
59.1783

> <Gold.Chemscore.Internal_Hbond>
0.0000

> <Gold.Chemscore.DEClash>
3.3217

> <Gold.Chemscore.DEInternal>
1.6562

> <Gold.Chemscore.Rot>
4.0192

> <Gold.Chemscore.Internal.Correction>
   9.000000E+99

> <Gold.Chemscore.Hbonds>
donor molecule, donor type, donor heavy atom, donor atom, acceptor molecule, acceptor atom, score
      L1  H    18    41       P1  7948  0.95
      L1  H    20    42       P1 10175  0.56
      P1  H  7954  7966       L1    18  0.06
      P1  H  7997  8010       L1    25  0.09
      P1  H 10752 10765       L1    11  0.50

> <Gold.Chemscore.Hbond.Weighted>
-9.7802

> <Gold.Chemscore.Metal.Weighted>
-0.0000

> <Gold.Chemscore.Lipo.Weighted>
-6.9239

> <Gold.Chemscore.Internal_Hbond.Weighted>
0.0000

> <Gold.Chemscore.DEClash.Weighted>
3.3217

> <Gold.Chemscore.DEInternal.Weighted>
1.6562

> <Gold.Chemscore.Rot.Weighted>
10.2893

> <Gold.Chemscore.Internal.Correction.Weighted>
   9.000000E+99

> <Gold.Protein.RotatedTorsions>
[ 6907 6896 6895 6894 ] final  -78.34 input  -60.11 | X-H torsion
[ 7974 7965 7964 7962 ] final -120.70 input  175.53 | X-H torsion
[ 8008 7997 7996 7995 ] final   28.59 input   59.86 | X-H torsion
[ 10167 10162 10161 10158 ] final   36.04 input  -65.29 | X-H torsion
[ 10718 10713 10712 10709 ] final  173.50 input   66.30 | X-H torsion
[ 10763 10752 10751 10750 ] final  172.87 input  -60.55 | X-H torsion
[ 11005 11000 10999 10996 ] final   83.19 input  -57.11 | X-H torsion

> <Gold.Protein.ActiveResidues>
 VAL166  LYS551  ARG553  GLY616  TRP617  ASP618  TYR619  PRO620  LYS621  CYS622 
 ASP623  PHE694  ASN695  SER759  ASP760  ASP761  ALA762  ILE779  LEU786  VAL792 
 PHE793  MET794  SER795  GLU796  ALA797  LYS798  CYS799  TRP800  GLU811  SER814 

> <Gold.Protein.RotatedAtoms>
  150.6975  134.4287  159.5237 H   0  0  0  0  0  0  0  0  0  0  0  0  # atno 6907 bound_to 6896
  152.2017  134.8579  160.0516 H   0  0  0  0  0  0  0  0  0  0  0  0  # atno 6908 bound_to 6896
  151.9497  133.3627  159.4032 H   0  0  0  0  0  0  0  0  0  0  0  0  # atno 6909 bound_to 6896
  145.0485  140.8200  143.4224 H   0  0  0  0  0  0  0  0  0  0  0  0  # atno 7974 bound_to 7965
  155.0611  140.3190  155.4660 H   0  0  0  0  0  0  0  0  0  0  0  0  # atno 8008 bound_to 7997
  156.2813  140.2129  156.5682 H   0  0  0  0  0  0  0  0  0  0  0  0  # atno 8009 bound_to 7997
  154.7132  140.0496  157.0557 H   0  0  0  0  0  0  0  0  0  0  0  0  # atno 8010 bound_to 7997
  140.4165  144.1519  150.6144 H   0  0  0  0  0  0  0  0  0  0  0  0  # atno 10167 bound_to 10162
  156.9634  131.0067  151.2922 H   0  0  0  0  0  0  0  0  0  0  0  0  # atno 10718 bound_to 10713
  154.4322  135.2760  155.1905 H   0  0  0  0  0  0  0  0  0  0  0  0  # atno 10763 bound_to 10752
  154.3806  135.6088  153.5792 H   0  0  0  0  0  0  0  0  0  0  0  0  # atno 10764 bound_to 10752
  152.9836  135.5879  154.4635 H   0  0  0  0  0  0  0  0  0  0  0  0  # atno 10765 bound_to 10752
  139.9039  134.8126  156.2276 H   0  0  0  0  0  0  0  0  0  0  0  0  # atno 11005 bound_to 11000
  145.1558  139.2487  143.5417 LP  0  0  0  0  0  0  0  0  0  0  0  0  # atno 17320 bound_to 7965
  146.3516  140.1272  142.8598 LP  0  0  0  0  0  0  0  0  0  0  0  0  # atno 17321 bound_to 7965
  140.4580  143.2460  151.9258 LP  0  0  0  0  0  0  0  0  0  0  0  0  # atno 17342 bound_to 10162
  139.4782  144.5496  151.8406 LP  0  0  0  0  0  0  0  0  0  0  0  0  # atno 17343 bound_to 10162
  157.5642  130.8266  149.8306 LP  0  0  0  0  0  0  0  0  0  0  0  0  # atno 17370 bound_to 10713
  156.0313  130.3764  150.1681 LP  0  0  0  0  0  0  0  0  0  0  0  0  # atno 17371 bound_to 10713
  141.0366  133.6960  156.1523 LP  0  0  0  0  0  0  0  0  0  0  0  0  # atno 17394 bound_to 11000
  140.7018  134.4556  157.5586 LP  0  0  0  0  0  0  0  0  0  0  0  0  # atno 17395 bound_to 11000

$$$$
