#       Name:                AV-unprocessed.smi:3193
#       Creating user name   scv26
#       Creation time:       Fri Mar 27 18:04:03 2020


#       File generated by GOLD software.
#

@<TRIPOS>MOLECULE
AV-unprocessed.smi:3193
    41    42     1
SMALL
NO_CHARGES


@<TRIPOS>ATOM
      1 ****        -0.3253   0.4839   1.5637 C.3            1 S1                 0.0000
      2 ****        -1.4571   0.8588   0.5883 C.3            1 S1                 0.0000
      3 ****        -2.0937   2.1941   1.0293 C.3            1 S1                 0.0000
      4 ****        -3.2713   2.5962   0.1316 C.3            1 S1                 0.0000
      5 ****        -2.8356   2.6719  -1.3355 C.3            1 S1                 0.0000
      6 ****        -2.2107   1.3453  -1.7887 C.3            1 S1                 0.0000
      7 ****        -1.0137   0.9292  -0.9045 C.3            1 S1                 0.0000
      8 ****        -0.4197  -0.3932  -1.4398 C.3            1 S1                 0.0000
      9 ****         0.9886  -0.5678  -1.0350 N.4            1 S1                 1.0000
     10 ****         1.5724  -1.8741  -1.3983 C.3            1 S1                 0.0000
     11 ****         2.9601  -2.0582  -0.7649 C.3            1 S1                 0.0000
     12 ****         2.8961  -2.0424   0.6850 N.pl3          1 S1                 0.0000
     13 ****         2.4104  -3.0459   1.5131 C.2            1 S1                 0.0000
     14 ****         2.5319  -2.5835   2.8041 C.2            1 S1                 0.0000
     15 ****         3.0895  -1.3073   2.7936 N.2            1 S1                 0.0000
     16 ****         3.2853  -1.0569   1.5060 C.2            1 S1                 0.0000
     17 ****         0.5343   1.1454   1.4518 H              1 S1                 0.0000
     18 ****         0.0117  -0.5420   1.4189 H              1 S1                 0.0000
     19 ****        -0.6611   0.5540   2.5987 H              1 S1                 0.0000
     20 ****        -2.2244   0.0880   0.6763 H              1 S1                 0.0000
     21 ****        -2.4408   2.1205   2.0606 H              1 S1                 0.0000
     22 ****        -1.3410   2.9838   1.0153 H              1 S1                 0.0000
     23 ****        -4.0797   1.8720   0.2388 H              1 S1                 0.0000
     24 ****        -3.6721   3.5585   0.4512 H              1 S1                 0.0000
     25 ****        -3.6918   2.9148  -1.9656 H              1 S1                 0.0000
     26 ****        -2.1158   3.4812  -1.4649 H              1 S1                 0.0000
     27 ****        -2.9708   0.5626  -1.7724 H              1 S1                 0.0000
     28 ****        -1.8932   1.4414  -2.8276 H              1 S1                 0.0000
     29 ****        -0.2561   1.7086  -1.0049 H              1 S1                 0.0000
     30 ****        -1.0192  -1.2387  -1.0995 H              1 S1                 0.0000
     31 ****        -0.4459  -0.4082  -2.5303 H              1 S1                 0.0000
     32 ****         1.5439   0.1691  -1.4458 H              1 S1                 0.0000
     33 ****         0.9092  -2.6756  -1.0697 H              1 S1                 0.0000
     34 ****         1.6429  -1.9434  -2.4843 H              1 S1                 0.0000
     35 ****         3.3915  -3.0100  -1.0769 H              1 S1                 0.0000
     36 ****         3.6436  -1.2768  -1.1003 H              1 S1                 0.0000
     37 ****         2.0253  -3.9785   1.1274 H              1 S1                 0.0000
     38 ****         2.2625  -3.0669   3.7319 H              1 S1                 0.0000
     39 ****         3.7108  -0.1291   1.1520 H              1 S1                 0.0000
     40 ****         1.0307  -0.4801  -0.0295 H              1 S1                 0.0000
     41 ****         3.2944  -0.7174   3.5747 LP             1 S1                 0.0000
@<TRIPOS>BOND
    1    1    2 1     
    2    1   17 1     
    3    1   18 1     
    4    1   19 1     
    5    2    7 1     
    6    2    3 1     
    7    2   20 1     
    8    3    4 1     
    9    3   21 1     
   10    3   22 1     
   11    4    5 1     
   12    4   23 1     
   13    4   24 1     
   14    5    6 1     
   15    5   25 1     
   16    5   26 1     
   17    6    7 1     
   18    6   27 1     
   19    6   28 1     
   20    7    8 1     
   21    7   29 1     
   22    8    9 1     
   23    8   30 1     
   24    8   31 1     
   25    9   10 1     
   26    9   32 1     
   27    9   40 1     
   28   10   11 1     
   29   10   33 1     
   30   10   34 1     
   31   11   12 1     
   32   11   35 1     
   33   11   36 1     
   34   12   16 1     
   35   12   13 1     
   36   13   14 2     
   37   13   37 1     
   38   14   15 1     
   39   14   38 1     
   40   15   16 2     
   41   16   39 1     
   42   15   41 1     
@<TRIPOS>SUBSTRUCTURE
      1 S1             1
@<TRIPOS>SET
LONE_PAIRS      STATIC     ATOMS    <user>   **** ""
1 41
DONOR_HYDROGENS      STATIC     ATOMS    <user>   **** ""
2 32 40
ATOM$BLUE        STATIC     ATOMS    COLORGROUP SYSTEM
1 41
ATOM$RED        STATIC     ATOMS    COLORGROUP SYSTEM
2 32 40
