#       Name:                AV-unprocessed.smi:3025
#       Creating user name   scv26
#       Creation time:       Fri Mar 27 16:44:16 2020


#       File generated by GOLD software.
#

@<TRIPOS>MOLECULE
AV-unprocessed.smi:3025
    44    45     1
SMALL
NO_CHARGES


@<TRIPOS>ATOM
      1 ****        -1.2884  -5.4585  -1.5898 C.3            1 S1                 0.0000
      2 ****        -1.6842  -3.9851  -1.4458 C.3            1 S1                 0.0000
      3 ****        -1.1378  -3.3531  -0.1543 C.3            1 S1                 0.0000
      4 ****        -1.5961  -1.8989   0.0816 C.3            1 S1                 0.0000
      5 ****        -1.0028  -0.9139  -0.9489 C.3            1 S1                 0.0000
      6 ****        -1.4522   0.5331  -0.6816 C.3            1 S1                 0.0000
      7 ****        -1.1168   0.9982   0.7513 C.3            1 S1                 0.0000
      8 ****         0.3390   1.1774   0.9622 N.4            1 S1                 1.0000
      9 ****         0.9315   2.3720   0.3250 C.3            1 S1                 0.0000
     10 ****         2.4068   2.5283   0.7163 C.3            1 S1                 0.0000
     11 ****         3.0410   3.7220   0.0809 C.2            1 S1                 0.0000
     12 ****         3.2245   4.8704   0.7357 N.pl3          1 S1                 0.0000
     13 ****         3.8016   5.7667  -0.0916 N.2            1 S1                 0.0000
     14 ****         3.9242   5.0684  -1.2189 C.2            1 S1                 0.0000
     15 ****         3.4640   3.7816  -1.1770 N.2            1 S1                 0.0000
     16 ****        -1.6891   0.0062   1.7808 C.3            1 S1                 0.0000
     17 ****        -1.2407  -1.4410   1.5103 C.3            1 S1                 0.0000
     18 ****         2.9881   5.0796   1.6953 H              1 S1                 0.0000
     19 ****        -1.6830  -5.8777  -2.5157 H              1 S1                 0.0000
     20 ****        -1.6774  -6.0542  -0.7638 H              1 S1                 0.0000
     21 ****        -0.2046  -5.5753  -1.6076 H              1 S1                 0.0000
     22 ****        -1.3196  -3.4400  -2.3159 H              1 S1                 0.0000
     23 ****        -2.7717  -3.9044  -1.4624 H              1 S1                 0.0000
     24 ****        -1.4657  -3.9649   0.6872 H              1 S1                 0.0000
     25 ****        -0.0480  -3.4016  -0.1536 H              1 S1                 0.0000
     26 ****        -2.6831  -1.8727  -0.0100 H              1 S1                 0.0000
     27 ****         0.0863  -0.9706  -0.9329 H              1 S1                 0.0000
     28 ****        -1.3079  -1.1910  -1.9576 H              1 S1                 0.0000
     29 ****        -1.0219   1.2028  -1.4258 H              1 S1                 0.0000
     30 ****        -2.5319   0.5933  -0.8256 H              1 S1                 0.0000
     31 ****        -1.5918   1.9647   0.9265 H              1 S1                 0.0000
     32 ****         0.4925   1.2610   1.9570 H              1 S1                 0.0000
     33 ****         0.8477   2.2915  -0.7588 H              1 S1                 0.0000
     34 ****         0.3747   3.2596   0.6287 H              1 S1                 0.0000
     35 ****         2.5012   2.6118   1.8000 H              1 S1                 0.0000
     36 ****         2.9700   1.6415   0.4223 H              1 S1                 0.0000
     37 ****         4.3604   5.5020  -2.1068 H              1 S1                 0.0000
     38 ****        -1.4046   0.3029   2.7911 H              1 S1                 0.0000
     39 ****        -2.7787   0.0496   1.7507 H              1 S1                 0.0000
     40 ****        -1.7097  -2.1030   2.2395 H              1 S1                 0.0000
     41 ****        -0.1650  -1.5285   1.6688 H              1 S1                 0.0000
     42 ****         0.8194   0.3517   0.6339 H              1 S1                 0.0000
     43 ****         4.0686   6.7123   0.0941 LP             1 S1                 0.0000
     44 ****         3.4498   3.0823  -1.8918 LP             1 S1                 0.0000
@<TRIPOS>BOND
    1    1    2 1     
    2    1   19 1     
    3    1   20 1     
    4    1   21 1     
    5    2    3 1     
    6    2   22 1     
    7    2   23 1     
    8    3    4 1     
    9    3   24 1     
   10    3   25 1     
   11    4   17 1     
   12    4    5 1     
   13    4   26 1     
   14    5    6 1     
   15    5   27 1     
   16    5   28 1     
   17    6    7 1     
   18    6   29 1     
   19    6   30 1     
   20    7    8 1     
   21    7   16 1     
   22    7   31 1     
   23    8    9 1     
   24    8   32 1     
   25    8   42 1     
   26    9   10 1     
   27    9   33 1     
   28    9   34 1     
   29   10   35 1     
   30   10   36 1     
   31   10   11 1     
   32   11   15 2     
   33   11   12 1     
   34   12   18 1     
   35   12   13 1     
   36   13   14 2     
   37   14   15 1     
   38   14   37 1     
   39   16   17 1     
   40   16   38 1     
   41   16   39 1     
   42   17   40 1     
   43   17   41 1     
   44   13   43 1     
   45   15   44 1     
@<TRIPOS>SUBSTRUCTURE
      1 S1             1
@<TRIPOS>SET
LONE_PAIRS      STATIC     ATOMS    <user>   **** ""
2 43 44
DONOR_HYDROGENS      STATIC     ATOMS    <user>   **** ""
3 32 42 18
ATOM$BLUE        STATIC     ATOMS    COLORGROUP SYSTEM
2 43 44
ATOM$RED        STATIC     ATOMS    COLORGROUP SYSTEM
3 32 42 18
