AV-unprocessed.smi:634|AV-procd|sdf|3137|dock3
  -GOLD-   22720 0 63D 1   1.00000     0.00000
 Structure written by MMmdl.
 32 33  0  0  0  0  0  0  0  0  2 V2000
  151.8051  145.4997  160.0942 C   0  0  0  0  0  0  0  0  0  0  0  0
  151.7624  144.3173  159.1885 C   0  0  0  0  0  0  0  0  0  0  0  0
  151.0833  144.0549  158.0321 C   0  0  0  0  0  0  0  0  0  0  0  0
  151.5068  142.7398  157.7019 C   0  0  0  0  0  0  0  0  0  0  0  0
  151.0099  142.0895  156.5417 N   0  0  0  0  0  0  0  0  0  0  0  0
  151.3364  140.8819  156.0473 C   0  0  0  0  0  0  0  0  0  0  0  0
  152.1965  140.1905  156.6027 O   0  0  0  0  0  0  0  0  0  0  0  0
  150.6214  140.5746  154.9284 N   0  5  0  0  0  0  0  0  0  0  0  0
  149.1660  140.3662  154.8125 C   0  0  1  0  0  0  0  0  0  0  0  0
  148.6132  140.3068  156.2519 C   0  0  0  0  0  0  0  0  0  0  0  0
  148.4729  141.5208  154.0388 C   0  0  0  0  0  0  0  0  0  0  0  0
  147.0535  141.0871  153.6380 C   0  0  0  0  0  0  0  0  0  0  0  0
  147.1266  139.2692  153.4003 S   0  0  0  0  0  0  0  0  0  0  0  0
  146.1555  138.6304  154.3027 O   0  0  0  0  0  0  0  0  0  0  0  0
  147.1297  138.9612  151.9616 O   0  0  0  0  0  0  0  0  0  0  0  0
  148.8254  139.0546  154.0667 C   0  0  0  0  0  0  0  0  0  0  0  0
  152.3701  142.2463  158.5778 N   0  0  0  0  0  0  0  0  0  0  0  0
  152.5380  143.2543  159.5345 O   0  0  0  0  0  0  0  0  0  0  0  0
  150.9936  146.1922  159.8693 H   0  0  0  0  0  0  0  0  0  0  0  0
  152.7482  146.0349  159.9846 H   0  0  0  0  0  0  0  0  0  0  0  0
  151.7079  145.1932  161.1358 H   0  0  0  0  0  0  0  0  0  0  0  0
  150.3927  144.6998  157.5091 H   0  0  0  0  0  0  0  0  0  0  0  0
  150.3049  142.5948  156.0259 H   0  0  0  0  0  0  0  0  0  0  0  0
  147.5369  140.1360  156.2711 H   0  0  0  0  0  0  0  0  0  0  0  0
  148.8035  141.2366  156.7896 H   0  0  0  0  0  0  0  0  0  0  0  0
  149.0763  139.5000  156.8217 H   0  0  0  0  0  0  0  0  0  0  0  0
  148.4579  142.4481  154.6126 H   0  0  0  0  0  0  0  0  0  0  0  0
  149.0141  141.7403  153.1189 H   0  0  0  0  0  0  0  0  0  0  0  0
  146.3331  141.3002  154.4285 H   0  0  0  0  0  0  0  0  0  0  0  0
  146.7116  141.5698  152.7225 H   0  0  0  0  0  0  0  0  0  0  0  0
  149.4785  138.8802  153.2124 H   0  0  0  0  0  0  0  0  0  0  0  0
  148.8684  138.1717  154.7047 H   0  0  0  0  0  0  0  0  0  0  0  0
  1  2  1  0  0  0  0
  1 19  1  0  0  0  0
  1 20  1  0  0  0  0
  1 21  1  0  0  0  0
  2 18  1  0  0  0  0
  2  3  2  0  0  0  0
  3  4  1  0  0  0  0
  3 22  1  0  0  0  0
  4  5  1  0  0  0  0
  4 17  2  0  0  0  0
  5  6  1  0  0  0  0
  5 23  1  0  0  0  0
  6  7  2  0  0  0  0
  6  8  1  0  0  0  0
  8  9  1  0  0  0  0
  9 16  1  0  0  0  0
  9 10  1  0  0  0  0
  9 11  1  0  0  0  0
 10 24  1  0  0  0  0
 10 25  1  0  0  0  0
 10 26  1  0  0  0  0
 11 12  1  0  0  0  0
 11 27  1  0  0  0  0
 11 28  1  0  0  0  0
 12 13  1  0  0  0  0
 12 29  1  0  0  0  0
 12 30  1  0  0  0  0
 13 14  2  0  0  0  0
 13 15  2  0  0  0  0
 13 16  1  0  0  0  0
 16 31  1  0  0  0  0
 16 32  1  0  0  0  0
 17 18  1  0  0  0  0
M  CHG  1   8  -1
M  END
> <s_m_source_file>
AV-unprocessed.smi

> <i_m_source_file_index>
634

> <i_lp_mmshare_version>
43012

> <i_f3d_flags>
0

> <s_epik_input>
W0NIM11jMVtjSF1jKG5vMSlbTkhdQyg9TylbTkhdW0NAQF0yKFtDSDNdKVtDSDJdW0NIMl1TKD1PKSg9TylbQ0gyXTI=

> <s_epik_cmdline>
J2VwaWtfcHl0aG9uJywgJy1waCcsICc3LjAnLCAnLXRuJywgJzgnLCAnLW1hJywgJzIwMCcsICctbWV0YWxfYmluZGluZycsICctaW1hZScsICc8aW5maWxlLm1hZT4nLCAnLW9tYWUnLCAnPG91dGZpbGUubWFlPic=

> <r_lp_tautomer_probability>
1

> <r_epik_Ionization_Penalty>
6.62388

> <r_epik_Ionization_Penalty_Charging>
6.62387

> <r_epik_Ionization_Penalty_Neutral>
5.45748e-06

> <r_epik_State_Penalty>
6.65157

> <r_epik_Charging_Adjusted_Penalty>
13.2754

> <i_epik_Tot_Q>
-1

> <i_epik_Tot_abs_Q>
1

> <r_epik_Metal_State_Penalty>
2.59195

> <b_epik_Metal_Only>
1

> <s_lp_Force_Field>
OPLS_2005

> <r_lp_Energy>
8.12985

> <b_lp_Chiralities_Consistent>
1

> <s_lp_Variant>
AV-unprocessed.smi:634-5

> <Gold.Version>
5.8.1

> <Gold.Id.Protein>
6NUR|6NUR_protein|mol2

> <Gold.PLP.Fitness>
35.9607

> <Gold.PLP.PLP>
-32.3090

> <Gold.PLP.part.hbond>
-1.8158

> <Gold.PLP.part.metal>
0.0000

> <Gold.PLP.part.buried>
-5.3761

> <Gold.PLP.part.nonpolar>
-25.9612

> <Gold.PLP.part.repulsive>
2.1362

> <Gold.PLP.ligand.clash>
0.0000

> <Gold.PLP.ligand.torsion>
0.7614

> <Gold.PLP.Chemscore.Hbond>
1.7233

> <Gold.PLP.Chemscore.CHOScore>
0.0000

> <Gold.PLP.Chemscore.Metal>
0.0000

> <Gold.Chemscore.Hbonds>
donor molecule, donor type, donor heavy atom, donor atom, acceptor molecule, acceptor atom, score
      P1  H  7989  7998       L1     8  0.98
      P1  H  7997  8008       L1     7  0.71

> <Gold.PLP.Chemscore.Internal.Correction>
0.0048

> <Gold.Rescore>
     Score         DG    S(hbond)    S(metal)    S(lipo)     H(rot)  DE(clash)    DE(int)     intcor
     12.35     -16.39       1.68        0.00      67.22       1.00       1.86       2.18       ----

> <Gold.Chemscore.Fitness>
12.3542

> <Gold.Chemscore.DG>
-16.3873

> <Gold.Chemscore.ZeroCoef>
-5.4800

> <Gold.Chemscore.Hbond>
1.6776

> <Gold.Chemscore.Metal>
0.0000

> <Gold.Chemscore.Lipo>
67.2161

> <Gold.Chemscore.Internal_Hbond>
0.0000

> <Gold.Chemscore.DEClash>
1.8577

> <Gold.Chemscore.DEInternal>
2.1754

> <Gold.Chemscore.Rot>
1.0000

> <Gold.Chemscore.Internal.Correction>
   9.000000E+99

> <Gold.Chemscore.Hbonds>
donor molecule, donor type, donor heavy atom, donor atom, acceptor molecule, acceptor atom, score
      P1  H  7989  7998       L1     8  0.64
      P1  H  7997  8008       L1     7  0.69

> <Gold.Chemscore.Hbond.Weighted>
-5.6031

> <Gold.Chemscore.Metal.Weighted>
-0.0000

> <Gold.Chemscore.Lipo.Weighted>
-7.8643

> <Gold.Chemscore.Internal_Hbond.Weighted>
0.0000

> <Gold.Chemscore.DEClash.Weighted>
1.8577

> <Gold.Chemscore.DEInternal.Weighted>
2.1754

> <Gold.Chemscore.Rot.Weighted>
2.5600

> <Gold.Chemscore.Internal.Correction.Weighted>
   9.000000E+99

> <Gold.Protein.RotatedTorsions>
[ 6907 6896 6895 6894 ] final   85.72 input  -60.11 | X-H torsion
[ 7974 7965 7964 7962 ] final -169.79 input  175.53 | X-H torsion
[ 8008 7997 7996 7995 ] final  -49.72 input   59.86 | X-H torsion
[ 10167 10162 10161 10158 ] final -141.85 input  -65.29 | X-H torsion
[ 10718 10713 10712 10709 ] final  -18.86 input   66.30 | X-H torsion
[ 10763 10752 10751 10750 ] final -148.12 input  -60.55 | X-H torsion
[ 11005 11000 10999 10996 ] final -179.18 input  -57.11 | X-H torsion

> <Gold.Protein.ActiveResidues>
 VAL166  LYS551  ARG553  GLY616  TRP617  ASP618  TYR619  PRO620  LYS621  CYS622 
 ASP623  PHE694  ASN695  SER759  ASP760  ASP761  ALA762  ILE779  LEU786  VAL792 
 PHE793  MET794  SER795  GLU796  ALA797  LYS798  CYS799  TRP800  GLU811  SER814 

> <Gold.Protein.RotatedAtoms>
  152.5380  134.2543  159.8910 H   0  0  0  0  0  0  0  0  0  0  0  0  # atno 6907 bound_to 6896
  151.2505  133.4346  159.2619 H   0  0  0  0  0  0  0  0  0  0  0  0  # atno 6908 bound_to 6896
  151.0543  134.9708  159.8284 H   0  0  0  0  0  0  0  0  0  0  0  0  # atno 6909 bound_to 6896
  144.7180  140.2169  143.6321 H   0  0  0  0  0  0  0  0  0  0  0  0  # atno 7974 bound_to 7965
  154.4049  140.1290  156.4548 H   0  0  0  0  0  0  0  0  0  0  0  0  # atno 8008 bound_to 7997
  155.7331  140.3491  155.5049 H   0  0  0  0  0  0  0  0  0  0  0  0  # atno 8009 bound_to 7997
  155.9109  140.1035  157.1270 H   0  0  0  0  0  0  0  0  0  0  0  0  # atno 8010 bound_to 7997
  139.8145  143.7657  152.2664 H   0  0  0  0  0  0  0  0  0  0  0  0  # atno 10167 bound_to 10162
  156.5537  130.4708  149.6440 H   0  0  0  0  0  0  0  0  0  0  0  0  # atno 10718 bound_to 10713
  154.8250  135.3342  154.6924 H   0  0  0  0  0  0  0  0  0  0  0  0  # atno 10763 bound_to 10752
  153.7552  135.6936  153.4941 H   0  0  0  0  0  0  0  0  0  0  0  0  # atno 10764 bound_to 10752
  153.2149  135.4469  155.0372 H   0  0  0  0  0  0  0  0  0  0  0  0  # atno 10765 bound_to 10752
  140.4215  134.6601  157.4666 H   0  0  0  0  0  0  0  0  0  0  0  0  # atno 11005 bound_to 11000
  145.8538  139.2188  143.1757 LP  0  0  0  0  0  0  0  0  0  0  0  0  # atno 17320 bound_to 7965
  146.0236  140.8324  142.9911 LP  0  0  0  0  0  0  0  0  0  0  0  0  # atno 17321 bound_to 7965
  139.7816  144.7442  151.0080 LP  0  0  0  0  0  0  0  0  0  0  0  0  # atno 17342 bound_to 10162
  140.7816  143.4536  151.0378 LP  0  0  0  0  0  0  0  0  0  0  0  0  # atno 17343 bound_to 10162
  156.2861  130.7098  151.1935 LP  0  0  0  0  0  0  0  0  0  0  0  0  # atno 17370 bound_to 10713
  157.7382  131.0543  150.5307 LP  0  0  0  0  0  0  0  0  0  0  0  0  # atno 17371 bound_to 10713
  140.0196  134.6566  155.9258 LP  0  0  0  0  0  0  0  0  0  0  0  0  # atno 17394 bound_to 11000
  141.1782  133.6543  156.4912 LP  0  0  0  0  0  0  0  0  0  0  0  0  # atno 17395 bound_to 11000

$$$$
