AV-unprocessed.smi:1523|AV-procd|sdf|6138|dock2
  -GOLD-   22720 6283D 1   1.00000     0.00000
 Structure written by MMmdl.
 37 38  0  0  0  0  0  0  0  0  1 V2000
  152.7350  131.5917  157.3090 C   0  0  0  0  0  0  0  0  0  0  0  0
  151.9643  130.9549  156.2040 C   0  0  0  0  0  0  0  0  0  0  0  0
  150.8006  131.4272  155.7501 N   0  0  0  0  0  0  0  0  0  0  0  0
  150.2744  130.6544  154.7099 C   0  0  0  0  0  0  0  0  0  0  0  0
  148.9745  131.0430  154.0734 C   0  0  0  0  0  0  0  0  0  0  0  0
  148.9464  132.5265  153.6707 C   0  0  0  0  0  0  0  0  0  0  0  0
  148.1487  132.7405  152.4689 N   0  0  0  0  0  0  0  0  0  0  0  0
  147.0826  133.5537  152.3762 C   0  0  0  0  0  0  0  0  0  0  0  0
  146.6757  134.2083  153.3370 O   0  0  0  0  0  0  0  0  0  0  0  0
  146.4995  133.5900  151.1505 N   0  0  0  0  0  0  0  0  0  0  0  0
  146.7211  132.6373  150.0476 C   0  0  0  0  0  0  0  0  0  0  0  0
  145.4665  131.7589  149.8910 C   0  0  0  0  0  0  0  0  0  0  0  0
  144.2179  132.6319  149.6525 C   0  0  0  0  0  0  0  0  0  0  0  0
  143.0589  131.8262  149.6707 O   0  0  0  0  0  0  0  0  0  0  0  0
  144.0968  133.7479  150.7095 C   0  0  0  0  0  0  0  0  0  0  0  0
  145.4175  134.5315  150.8302 C   0  0  0  0  0  0  0  0  0  0  0  0
  151.0638  129.5806  154.3813 C   0  0  0  0  0  0  0  0  0  0  0  0
  152.4963  129.5002  155.3694 S   0  0  0  0  0  0  0  0  0  0  0  0
  152.5790  132.6709  157.3089 H   0  0  0  0  0  0  0  0  0  0  0  0
  153.8003  131.3944  157.1874 H   0  0  0  0  0  0  0  0  0  0  0  0
  152.4112  131.1895  158.2690 H   0  0  0  0  0  0  0  0  0  0  0  0
  148.7944  130.4215  153.1952 H   0  0  0  0  0  0  0  0  0  0  0  0
  148.1512  130.8363  154.7585 H   0  0  0  0  0  0  0  0  0  0  0  0
  148.5090  133.1217  154.4728 H   0  0  0  0  0  0  0  0  0  0  0  0
  149.9603  132.9028  153.5230 H   0  0  0  0  0  0  0  0  0  0  0  0
  148.4257  132.2307  151.6429 H   0  0  0  0  0  0  0  0  0  0  0  0
  146.9001  133.1945  149.1268 H   0  0  0  0  0  0  0  0  0  0  0  0
  147.6016  132.0075  150.1747 H   0  0  0  0  0  0  0  0  0  0  0  0
  145.6002  131.0595  149.0651 H   0  0  0  0  0  0  0  0  0  0  0  0
  145.3348  131.1565  150.7914 H   0  0  0  0  0  0  0  0  0  0  0  0
  144.2909  133.0900  148.6652 H   0  0  0  0  0  0  0  0  0  0  0  0
  142.8048  131.6841  150.5699 H   0  0  0  0  0  0  0  0  0  0  0  0
  143.2816  134.4247  150.4511 H   0  0  0  0  0  0  0  0  0  0  0  0
  143.8460  133.3161  151.6798 H   0  0  0  0  0  0  0  0  0  0  0  0
  145.3110  135.3242  151.5721 H   0  0  0  0  0  0  0  0  0  0  0  0
  145.6424  135.0363  149.8898 H   0  0  0  0  0  0  0  0  0  0  0  0
  150.8905  128.8352  153.6192 H   0  0  0  0  0  0  0  0  0  0  0  0
  1  2  1  0  0  0  0
  1 19  1  0  0  0  0
  1 20  1  0  0  0  0
  1 21  1  0  0  0  0
  2 18  1  0  0  0  0
  2  3  2  0  0  0  0
  3  4  1  0  0  0  0
  4  5  1  0  0  0  0
  4 17  2  0  0  0  0
  5  6  1  0  0  0  0
  5 22  1  0  0  0  0
  5 23  1  0  0  0  0
  6  7  1  0  0  0  0
  6 24  1  0  0  0  0
  6 25  1  0  0  0  0
  7  8  1  0  0  0  0
  7 26  1  0  0  0  0
  8  9  2  0  0  0  0
  8 10  1  0  0  0  0
 10 16  1  0  0  0  0
 10 11  1  0  0  0  0
 11 12  1  0  0  0  0
 11 27  1  0  0  0  0
 11 28  1  0  0  0  0
 12 13  1  0  0  0  0
 12 29  1  0  0  0  0
 12 30  1  0  0  0  0
 13 14  1  0  0  0  0
 13 15  1  0  0  0  0
 13 31  1  0  0  0  0
 14 32  1  0  0  0  0
 15 16  1  0  0  0  0
 15 33  1  0  0  0  0
 15 34  1  0  0  0  0
 16 35  1  0  0  0  0
 16 36  1  0  0  0  0
 17 18  1  0  0  0  0
 17 37  1  0  0  0  0
M  END
> <s_m_source_file>
AV-unprocessed.smi

> <i_m_source_file_index>
1523

> <i_lp_mmshare_version>
43012

> <i_f3d_flags>
0

> <s_epik_input>
W0NIM11jMW5jKFtjSF1zMSlbQ0gyXVtDSDJdW05IXUMoPU8pTjJbQ0gyXVtDSDJdW0NIXShbT0hdKVtDSDJdW0NIMl0y

> <s_epik_cmdline>
J2VwaWtfcHl0aG9uJywgJy1waCcsICc3LjAnLCAnLXRuJywgJzgnLCAnLW1hJywgJzIwMCcsICctbWV0YWxfYmluZGluZycsICctaW1hZScsICc8aW5maWxlLm1hZT4nLCAnLW9tYWUnLCAnPG91dGZpbGUubWFlPic=

> <r_epik_Ionization_Penalty>
0.00204564

> <r_epik_Ionization_Penalty_Charging>
0

> <r_epik_Ionization_Penalty_Neutral>
0.00204564

> <r_epik_State_Penalty>
0.00135655

> <r_epik_Charging_Adjusted_Penalty>
0.00135655

> <i_epik_Tot_Q>
0

> <i_epik_Tot_abs_Q>
0

> <r_epik_Metal_State_Penalty>
-0

> <b_epik_Metal_Only>
0

> <s_lp_Force_Field>
OPLS_2005

> <r_lp_Energy>
24.1717

> <b_lp_Chiralities_Consistent>
1

> <s_lp_Variant>
AV-unprocessed.smi:1523-1

> <Gold.Version>
5.8.1

> <Gold.Id.Protein>
6NUR|6NUR_protein|mol2

> <Gold.PLP.Fitness>
45.2412

> <Gold.PLP.PLP>
-36.9643

> <Gold.PLP.part.hbond>
-3.3796

> <Gold.PLP.part.metal>
0.0000

> <Gold.PLP.part.buried>
-2.7190

> <Gold.PLP.part.nonpolar>
-30.5482

> <Gold.PLP.part.repulsive>
0.0970

> <Gold.PLP.ligand.clash>
0.0000

> <Gold.PLP.ligand.torsion>
0.3711

> <Gold.PLP.Chemscore.Hbond>
2.0000

> <Gold.PLP.Chemscore.CHOScore>
1.0000

> <Gold.PLP.Chemscore.Metal>
0.0000

> <Gold.Chemscore.Hbonds>
donor molecule, donor type, donor heavy atom, donor atom, acceptor molecule, acceptor atom, score
      L1  H     7    26       P1 10747  1.00
      P1  H 10785 10796       L1    14  1.00
      L1  C    17    37       P1 10737  1.00

> <Gold.PLP.Chemscore.Internal.Correction>
0.0191

> <Gold.Rescore>
     Score         DG    S(hbond)    S(metal)    S(lipo)     H(rot)  DE(clash)    DE(int)     intcor
     15.68     -16.89       1.89        0.00      84.44       1.86       0.99       0.23       ----

> <Gold.Chemscore.Fitness>
15.6811

> <Gold.Chemscore.DG>
-16.8949

> <Gold.Chemscore.ZeroCoef>
-5.4800

> <Gold.Chemscore.Hbond>
1.8860

> <Gold.Chemscore.Metal>
0.0000

> <Gold.Chemscore.Lipo>
84.4364

> <Gold.Chemscore.Internal_Hbond>
0.0000

> <Gold.Chemscore.DEClash>
0.9862

> <Gold.Chemscore.DEInternal>
0.2275

> <Gold.Chemscore.Rot>
1.8607

> <Gold.Chemscore.Internal.Correction>
   9.000000E+99

> <Gold.Chemscore.Hbonds>
donor molecule, donor type, donor heavy atom, donor atom, acceptor molecule, acceptor atom, score
      L1  H     7    26       P1 10747  0.96
      P1  H 10785 10796       L1    14  0.69

> <Gold.Chemscore.Hbond.Weighted>
-6.2991

> <Gold.Chemscore.Metal.Weighted>
-0.0000

> <Gold.Chemscore.Lipo.Weighted>
-9.8791

> <Gold.Chemscore.Internal_Hbond.Weighted>
0.0000

> <Gold.Chemscore.DEClash.Weighted>
0.9862

> <Gold.Chemscore.DEInternal.Weighted>
0.2275

> <Gold.Chemscore.Rot.Weighted>
4.7633

> <Gold.Chemscore.Internal.Correction.Weighted>
   9.000000E+99

> <Gold.Protein.RotatedTorsions>
[ 6907 6896 6895 6894 ] final  -28.20 input  -60.11 | X-H torsion
[ 7974 7965 7964 7962 ] final  -22.22 input  175.53 | X-H torsion
[ 8008 7997 7996 7995 ] final   82.68 input   59.86 | X-H torsion
[ 10167 10162 10161 10158 ] final    9.52 input  -65.29 | X-H torsion
[ 10718 10713 10712 10709 ] final  -85.69 input   66.30 | X-H torsion
[ 10763 10752 10751 10750 ] final   -7.59 input  -60.55 | X-H torsion
[ 11005 11000 10999 10996 ] final  150.01 input  -57.11 | X-H torsion

> <Gold.Protein.ActiveResidues>
 VAL166  LYS551  ARG553  GLY616  TRP617  ASP618  TYR619  PRO620  LYS621  CYS622 
 ASP623  PHE694  ASN695  SER759  ASP760  ASP761  ALA762  ILE779  LEU786  VAL792 
 PHE793  MET794  SER795  GLU796  ALA797  LYS798  CYS799  TRP800  GLU811  SER814 

> <Gold.Protein.RotatedAtoms>
  151.1363  135.0156  159.8605 H   0  0  0  0  0  0  0  0  0  0  0  0  # atno 6907 bound_to 6896
  152.5452  134.1551  159.8545 H   0  0  0  0  0  0  0  0  0  0  0  0  # atno 6908 bound_to 6896
  151.1622  133.4792  159.2627 H   0  0  0  0  0  0  0  0  0  0  0  0  # atno 6909 bound_to 6896
  146.1688  140.4449  142.8541 H   0  0  0  0  0  0  0  0  0  0  0  0  # atno 7974 bound_to 7965
  155.9139  140.3425  155.6120 H   0  0  0  0  0  0  0  0  0  0  0  0  # atno 8008 bound_to 7997
  155.7355  140.0801  157.2288 H   0  0  0  0  0  0  0  0  0  0  0  0  # atno 8009 bound_to 7997
  154.4059  140.1580  156.2544 H   0  0  0  0  0  0  0  0  0  0  0  0  # atno 8010 bound_to 7997
  140.6250  143.8121  150.7222 H   0  0  0  0  0  0  0  0  0  0  0  0  # atno 10167 bound_to 10162
  155.9995  130.4739  150.4600 H   0  0  0  0  0  0  0  0  0  0  0  0  # atno 10718 bound_to 10713
  153.4284  135.7011  153.6247 H   0  0  0  0  0  0  0  0  0  0  0  0  # atno 10763 bound_to 10752
  153.4672  135.3723  155.2371 H   0  0  0  0  0  0  0  0  0  0  0  0  # atno 10764 bound_to 10752
  154.8724  135.4034  154.3664 H   0  0  0  0  0  0  0  0  0  0  0  0  # atno 10765 bound_to 10752
  140.1094  134.8933  157.1914 H   0  0  0  0  0  0  0  0  0  0  0  0  # atno 11005 bound_to 11000
  144.8132  140.6422  143.6401 LP  0  0  0  0  0  0  0  0  0  0  0  0  # atno 17320 bound_to 7965
  145.4395  139.1537  143.3978 LP  0  0  0  0  0  0  0  0  0  0  0  0  # atno 17321 bound_to 7965
  140.1719  143.4187  152.1994 LP  0  0  0  0  0  0  0  0  0  0  0  0  # atno 17342 bound_to 10162
  139.5472  144.7308  151.4547 LP  0  0  0  0  0  0  0  0  0  0  0  0  # atno 17343 bound_to 10162
  157.2626  131.0570  151.2311 LP  0  0  0  0  0  0  0  0  0  0  0  0  # atno 17370 bound_to 10713
  157.3420  130.7038  149.6387 LP  0  0  0  0  0  0  0  0  0  0  0  0  # atno 17371 bound_to 10713
  140.3111  134.3022  155.7266 LP  0  0  0  0  0  0  0  0  0  0  0  0  # atno 17394 bound_to 11000
  141.2126  133.7651  156.9778 LP  0  0  0  0  0  0  0  0  0  0  0  0  # atno 17395 bound_to 11000

$$$$
