AV-unprocessed.smi:1488|AV-procd|sdf|6023|dock5
  -GOLD-   22720 6123D 1   1.00000     0.00000
 Structure written by MMmdl.
 36 37  0  0  0  0  0  0  0  0  1 V2000
  156.9991  133.8372  157.4296 C   0  0  0  0  0  0  0  0  0  0  0  0
  156.0147  134.5687  158.2759 C   0  0  0  0  0  0  0  0  0  0  0  0
  155.5691  135.8607  158.2793 C   0  0  0  0  0  0  0  0  0  0  0  0
  154.6349  135.8740  159.3490 C   0  0  0  0  0  0  0  0  0  0  0  0
  153.9334  137.0589  159.6881 N   0  0  0  0  0  0  0  0  0  0  0  0
  154.0141  138.2582  159.0866 C   0  0  0  0  0  0  0  0  0  0  0  0
  154.7341  138.5207  158.1229 O   0  0  0  0  0  0  0  0  0  0  0  0
  153.2082  139.1544  159.6751 N   0  0  0  0  0  0  0  0  0  0  0  0
  153.0725  140.5523  159.2767 C   0  0  2  0  0  0  0  0  0  0  0  0
  153.5841  141.4860  160.3912 C   0  0  0  0  0  0  0  0  0  0  0  0
  153.3829  142.9645  160.0224 C   0  0  0  0  0  0  0  0  0  0  0  0
  151.9080  143.2786  159.6932 C   0  0  1  0  0  0  0  0  0  0  0  0
  151.6989  144.7646  159.3351 C   0  0  0  0  0  0  0  0  0  0  0  0
  152.0728  145.5529  160.3434 F   0  0  0  0  0  0  0  0  0  0  0  0
  152.4135  145.0787  158.2546 F   0  0  0  0  0  0  0  0  0  0  0  0
  150.4137  144.9924  159.0639 F   0  0  0  0  0  0  0  0  0  0  0  0
  151.4044  142.3378  158.5779 C   0  0  0  0  0  0  0  0  0  0  0  0
  151.6004  140.8588  158.9488 C   0  0  0  0  0  0  0  0  0  0  0  0
  154.5223  134.6972  159.9461 N   0  0  0  0  0  0  0  0  0  0  0  0
  155.4065  133.8550  159.2618 O   0  0  0  0  0  0  0  0  0  0  0  0
  157.2608  134.4185  156.5454 H   0  0  0  0  0  0  0  0  0  0  0  0
  156.5908  132.8827  157.0971 H   0  0  0  0  0  0  0  0  0  0  0  0
  157.9142  133.6386  157.9874 H   0  0  0  0  0  0  0  0  0  0  0  0
  155.8645  136.6636  157.6200 H   0  0  0  0  0  0  0  0  0  0  0  0
  153.3082  136.9870  160.4770 H   0  0  0  0  0  0  0  0  0  0  0  0
  152.6512  138.8503  160.4601 H   0  0  0  0  0  0  0  0  0  0  0  0
  153.6620  140.7241  158.3738 H   0  0  0  0  0  0  0  0  0  0  0  0
  153.0603  141.2713  161.3239 H   0  0  0  0  0  0  0  0  0  0  0  0
  154.6417  141.3001  160.5820 H   0  0  0  0  0  0  0  0  0  0  0  0
  153.7247  143.5908  160.8468 H   0  0  0  0  0  0  0  0  0  0  0  0
  154.0131  143.2117  159.1673 H   0  0  0  0  0  0  0  0  0  0  0  0
  151.3191  143.0741  160.5887 H   0  0  0  0  0  0  0  0  0  0  0  0
  150.3484  142.5224  158.3794 H   0  0  0  0  0  0  0  0  0  0  0  0
  151.9334  142.5503  157.6482 H   0  0  0  0  0  0  0  0  0  0  0  0
  151.2619  140.2273  158.1263 H   0  0  0  0  0  0  0  0  0  0  0  0
  150.9702  140.6149  159.8054 H   0  0  0  0  0  0  0  0  0  0  0  0
  1  2  1  0  0  0  0
  1 21  1  0  0  0  0
  1 22  1  0  0  0  0
  1 23  1  0  0  0  0
  2 20  1  0  0  0  0
  2  3  2  0  0  0  0
  3  4  1  0  0  0  0
  3 24  1  0  0  0  0
  4  5  1  0  0  0  0
  4 19  2  0  0  0  0
  5  6  1  0  0  0  0
  5 25  1  0  0  0  0
  6  7  2  0  0  0  0
  6  8  1  0  0  0  0
  8  9  1  0  0  0  0
  8 26  1  0  0  0  0
  9 18  1  0  0  0  0
  9 10  1  0  0  0  0
  9 27  1  0  0  0  0
 10 11  1  0  0  0  0
 10 28  1  0  0  0  0
 10 29  1  0  0  0  0
 11 12  1  0  0  0  0
 11 30  1  0  0  0  0
 11 31  1  0  0  0  0
 12 13  1  0  0  0  0
 12 17  1  0  0  0  0
 12 32  1  0  0  0  0
 13 14  1  0  0  0  0
 13 15  1  0  0  0  0
 13 16  1  0  0  0  0
 17 18  1  0  0  0  0
 17 33  1  0  0  0  0
 17 34  1  0  0  0  0
 18 35  1  0  0  0  0
 18 36  1  0  0  0  0
 19 20  1  0  0  0  0
M  END
> <s_m_source_file>
AV-unprocessed.smi

> <i_m_source_file_index>
1488

> <i_lp_mmshare_version>
43012

> <i_f3d_flags>
0

> <s_epik_input>
W0NIM11jMVtjSF1jKG5vMSlbTkhdQyg9TylbTkhdW0NAQEhdMltDSDJdW0NIMl1bQ0BASF0oQyhGKShGKUYpW0NIMl1bQ0gyXTI=

> <s_epik_cmdline>
J2VwaWtfcHl0aG9uJywgJy1waCcsICc3LjAnLCAnLXRuJywgJzgnLCAnLW1hJywgJzIwMCcsICctbWV0YWxfYmluZGluZycsICctaW1hZScsICc8aW5maWxlLm1hZT4nLCAnLW9tYWUnLCAnPG91dGZpbGUubWFlPic=

> <r_lp_tautomer_probability>
1

> <r_epik_Ionization_Penalty>
2.30349e-05

> <r_epik_Ionization_Penalty_Charging>
0

> <r_epik_Ionization_Penalty_Neutral>
2.30349e-05

> <r_epik_State_Penalty>
-0

> <r_epik_Charging_Adjusted_Penalty>
0

> <i_epik_Tot_Q>
0

> <i_epik_Tot_abs_Q>
0

> <r_epik_Metal_State_Penalty>
-0

> <b_epik_Metal_Only>
0

> <s_lp_Force_Field>
OPLS_2005

> <r_lp_Energy>
8.97319

> <b_lp_Chiralities_Consistent>
1

> <s_lp_Variant>
AV-unprocessed.smi:1488-1

> <Gold.Version>
5.8.1

> <Gold.Id.Protein>
6NUR|6NUR_protein|mol2

> <Gold.PLP.Fitness>
42.7439

> <Gold.PLP.PLP>
-36.9981

> <Gold.PLP.part.hbond>
-2.0000

> <Gold.PLP.part.metal>
0.0000

> <Gold.PLP.part.buried>
-5.6514

> <Gold.PLP.part.nonpolar>
-29.2187

> <Gold.PLP.part.repulsive>
0.1517

> <Gold.PLP.ligand.clash>
0.0000

> <Gold.PLP.ligand.torsion>
0.0282

> <Gold.PLP.Chemscore.Hbond>
1.9280

> <Gold.PLP.Chemscore.CHOScore>
0.0000

> <Gold.PLP.Chemscore.Metal>
0.0000

> <Gold.Chemscore.Hbonds>
donor molecule, donor type, donor heavy atom, donor atom, acceptor molecule, acceptor atom, score
      P1  H  6896  6907       L1    19  1.00
      P1  H  7997  8008       L1     7  0.99

> <Gold.PLP.Chemscore.Internal.Correction>
0.0183

> <Gold.Rescore>
     Score         DG    S(hbond)    S(metal)    S(lipo)     H(rot)  DE(clash)    DE(int)     intcor
     16.30     -17.88       1.90        0.00      73.52       1.00       0.15       1.43       ----

> <Gold.Chemscore.Fitness>
16.3040

> <Gold.Chemscore.DG>
-17.8836

> <Gold.Chemscore.ZeroCoef>
-5.4800

> <Gold.Chemscore.Hbond>
1.9048

> <Gold.Chemscore.Metal>
0.0000

> <Gold.Chemscore.Lipo>
73.5173

> <Gold.Chemscore.Internal_Hbond>
0.0000

> <Gold.Chemscore.DEClash>
0.1492

> <Gold.Chemscore.DEInternal>
1.4304

> <Gold.Chemscore.Rot>
1.0000

> <Gold.Chemscore.Internal.Correction>
   9.000000E+99

> <Gold.Chemscore.Hbonds>
donor molecule, donor type, donor heavy atom, donor atom, acceptor molecule, acceptor atom, score
      P1  H  6896  6907       L1    19  0.48
      P1  H  7997  8008       L1     7  0.94

> <Gold.Chemscore.Hbond.Weighted>
-6.3621

> <Gold.Chemscore.Metal.Weighted>
-0.0000

> <Gold.Chemscore.Lipo.Weighted>
-8.6015

> <Gold.Chemscore.Internal_Hbond.Weighted>
0.0000

> <Gold.Chemscore.DEClash.Weighted>
0.1492

> <Gold.Chemscore.DEInternal.Weighted>
1.4304

> <Gold.Chemscore.Rot.Weighted>
2.5600

> <Gold.Chemscore.Internal.Correction.Weighted>
   9.000000E+99

> <Gold.Protein.RotatedTorsions>
[ 6907 6896 6895 6894 ] final   84.12 input  -60.11 | X-H torsion
[ 7974 7965 7964 7962 ] final  -32.20 input  175.53 | X-H torsion
[ 8008 7997 7996 7995 ] final -111.73 input   59.86 | X-H torsion
[ 10167 10162 10161 10158 ] final -128.25 input  -65.29 | X-H torsion
[ 10718 10713 10712 10709 ] final  -23.62 input   66.30 | X-H torsion
[ 10763 10752 10751 10750 ] final   82.75 input  -60.55 | X-H torsion
[ 11005 11000 10999 10996 ] final   89.56 input  -57.11 | X-H torsion

> <Gold.Protein.ActiveResidues>
 VAL166  LYS551  ARG553  GLY616  TRP617  ASP618  TYR619  PRO620  LYS621  CYS622 
 ASP623  PHE694  ASN695  SER759  ASP760  ASP761  ALA762  ILE779  LEU786  VAL792 
 PHE793  MET794  SER795  GLU796  ALA797  LYS798  CYS799  TRP800  GLU811  SER814 

> <Gold.Protein.RotatedAtoms>
  152.5344  134.2789  159.8999 H   0  0  0  0  0  0  0  0  0  0  0  0  # atno 6907 bound_to 6896
  151.2744  133.4233  159.2631 H   0  0  0  0  0  0  0  0  0  0  0  0  # atno 6908 bound_to 6896
  151.0339  134.9574  159.8182 H   0  0  0  0  0  0  0  0  0  0  0  0  # atno 6909 bound_to 6896
  146.1008  140.5763  142.8822 H   0  0  0  0  0  0  0  0  0  0  0  0  # atno 7974 bound_to 7965
  154.9943  140.0395  157.2333 H   0  0  0  0  0  0  0  0  0  0  0  0  # atno 8008 bound_to 7997
  154.7601  140.2783  155.6199 H   0  0  0  0  0  0  0  0  0  0  0  0  # atno 8009 bound_to 7997
  156.2902  140.2630  156.2377 H   0  0  0  0  0  0  0  0  0  0  0  0  # atno 8010 bound_to 7997
  139.9523  143.6042  152.2471 H   0  0  0  0  0  0  0  0  0  0  0  0  # atno 10167 bound_to 10162
  156.4885  130.4561  149.6769 H   0  0  0  0  0  0  0  0  0  0  0  0  # atno 10718 bound_to 10713
  153.1230  135.4717  154.9226 H   0  0  0  0  0  0  0  0  0  0  0  0  # atno 10763 bound_to 10752
  154.7593  135.3127  154.8411 H   0  0  0  0  0  0  0  0  0  0  0  0  # atno 10764 bound_to 10752
  153.8971  135.6879  153.4811 H   0  0  0  0  0  0  0  0  0  0  0  0  # atno 10765 bound_to 10752
  139.8873  134.8559  156.3159 H   0  0  0  0  0  0  0  0  0  0  0  0  # atno 11005 bound_to 11000
  144.7431  140.4997  143.6855 LP  0  0  0  0  0  0  0  0  0  0  0  0  # atno 17320 bound_to 7965
  145.5857  139.1492  143.3210 LP  0  0  0  0  0  0  0  0  0  0  0  0  # atno 17321 bound_to 7965
  139.6619  144.7662  151.1947 LP  0  0  0  0  0  0  0  0  0  0  0  0  # atno 17342 bound_to 10162
  140.7579  143.5997  150.8712 LP  0  0  0  0  0  0  0  0  0  0  0  0  # atno 17343 bound_to 10162
  156.3450  130.7402  151.2353 LP  0  0  0  0  0  0  0  0  0  0  0  0  # atno 17370 bound_to 10713
  157.7476  131.0393  150.4544 LP  0  0  0  0  0  0  0  0  0  0  0  0  # atno 17371 bound_to 10713
  140.9819  133.7262  156.0685 LP  0  0  0  0  0  0  0  0  0  0  0  0  # atno 17394 bound_to 11000
  140.7738  134.3803  157.5502 LP  0  0  0  0  0  0  0  0  0  0  0  0  # atno 17395 bound_to 11000

$$$$
