AV-unprocessed.smi:55|AV-procd|sdf|564|dock2
  -GOLD-   2262016463D 1   1.00000     0.00000
 Structure written by MMmdl.
 31 32  0  0  0  0  0  0  0  0  1 V2000
  150.6831  143.7351  158.3222 C   0  0  0  0  0  0  0  0  0  0  0  0
  151.1281  142.4289  157.6851 C   0  0  0  0  0  0  0  0  0  0  0  0
  150.6299  141.9898  156.5005 C   0  0  0  0  0  0  0  0  0  0  0  0
  151.0144  140.7978  155.8961 N   0  0  0  0  0  0  0  0  0  0  0  0
  150.4530  140.3298  154.5657 C   0  0  1  0  0  0  0  0  0  0  0  0
  149.7384  138.9726  154.7168 C   0  0  0  0  0  0  0  0  0  0  0  0
  148.3476  139.2442  154.1687 C   0  0  2  0  0  0  0  0  0  0  0  0
  148.2717  138.8889  152.8002 O   0  0  0  0  0  0  0  0  0  0  0  0
  148.1908  140.7536  154.3798 C   0  0  2  0  0  0  0  0  0  0  0  0
  147.1386  141.4448  153.4963 C   0  0  0  0  0  0  0  0  0  0  0  0
  145.8484  141.2322  154.0282 O   0  0  0  0  0  0  0  0  0  0  0  0
  149.4994  141.2388  154.0998 O   0  0  0  0  0  0  0  0  0  0  0  0
  151.9957  139.9983  156.5186 C   0  0  0  0  0  0  0  0  0  0  0  0
  152.4020  138.9442  156.0310 O   0  0  0  0  0  0  0  0  0  0  0  0
  152.5044  140.4468  157.7355 N   0  0  0  0  0  0  0  0  0  0  0  0
  152.1341  141.6260  158.3854 C   0  0  0  0  0  0  0  0  0  0  0  0
  152.6535  141.9148  159.4622 O   0  0  0  0  0  0  0  0  0  0  0  0
  151.3020  140.3133  153.8798 H   0  0  0  0  0  0  0  0  0  0  0  0
  147.5854  138.6823  154.7095 H   0  0  0  0  0  0  0  0  0  0  0  0
  147.9632  140.9233  155.4339 H   0  0  0  0  0  0  0  0  0  0  0  0
  153.2023  139.8720  158.1847 H   0  0  0  0  0  0  0  0  0  0  0  0
  149.9636  144.2660  157.6982 H   0  0  0  0  0  0  0  0  0  0  0  0
  151.5376  144.3941  158.4798 H   0  0  0  0  0  0  0  0  0  0  0  0
  150.2135  143.5458  159.2879 H   0  0  0  0  0  0  0  0  0  0  0  0
  149.8973  142.6170  156.0162 H   0  0  0  0  0  0  0  0  0  0  0  0
  150.2746  138.1852  154.1855 H   0  0  0  0  0  0  0  0  0  0  0  0
  149.6765  138.6979  155.7710 H   0  0  0  0  0  0  0  0  0  0  0  0
  148.6009  138.0091  152.6976 H   0  0  0  0  0  0  0  0  0  0  0  0
  147.3371  142.5126  153.4003 H   0  0  0  0  0  0  0  0  0  0  0  0
  147.1517  141.0179  152.4930 H   0  0  0  0  0  0  0  0  0  0  0  0
  145.2297  141.2023  153.3144 H   0  0  0  0  0  0  0  0  0  0  0  0
  1  2  1  0  0  0  0
  1 22  1  0  0  0  0
  1 23  1  0  0  0  0
  1 24  1  0  0  0  0
  2 16  1  0  0  0  0
  2  3  2  0  0  0  0
  3  4  1  0  0  0  0
  3 25  1  0  0  0  0
  4  5  1  0  0  0  0
  4 13  1  0  0  0  0
  5 18  1  0  0  0  0
  5 12  1  0  0  0  0
  5  6  1  0  0  0  0
  6  7  1  0  0  0  0
  6 26  1  0  0  0  0
  6 27  1  0  0  0  0
  7 19  1  0  0  0  0
  7  8  1  0  0  0  0
  7  9  1  0  0  0  0
  8 28  1  0  0  0  0
  9 20  1  0  0  0  0
  9 10  1  0  0  0  0
  9 12  1  0  0  0  0
 10 11  1  0  0  0  0
 10 29  1  0  0  0  0
 10 30  1  0  0  0  0
 11 31  1  0  0  0  0
 13 14  2  0  0  0  0
 13 15  1  0  0  0  0
 15 21  1  0  0  0  0
 15 16  1  0  0  0  0
 16 17  2  0  0  0  0
M  END
> <s_m_source_file>
AV-unprocessed.smi

> <i_m_source_file_index>
55

> <i_lp_mmshare_version>
43012

> <i_f3d_flags>
0

> <s_epik_input>
Tz1jMVtuSF1jKD1PKW4oW2NIXWMxW0NIM10pW0NAQEhdMltDSDJdW0NAQEhdKFtPSF0pW0NAQEhdKE8yKVtDSDJdW09IXQ==

> <s_epik_cmdline>
J2VwaWtfcHl0aG9uJywgJy1waCcsICc3LjAnLCAnLXRuJywgJzgnLCAnLW1hJywgJzIwMCcsICctbWV0YWxfYmluZGluZycsICctaW1hZScsICc8aW5maWxlLm1hZT4nLCAnLW9tYWUnLCAnPG91dGZpbGUubWFlPic=

> <r_lp_tautomer_probability>
0.999537

> <r_epik_Ionization_Penalty>
0.00121888

> <r_epik_Ionization_Penalty_Charging>
0.00121876

> <r_epik_Ionization_Penalty_Neutral>
1.19946e-07

> <r_epik_State_Penalty>
0.000805124

> <r_epik_Charging_Adjusted_Penalty>
0.00202389

> <i_epik_Tot_Q>
0

> <i_epik_Tot_abs_Q>
0

> <r_epik_Metal_State_Penalty>
0.662472

> <b_epik_Metal_Only>
0

> <s_epik_Chemistry_Notes>
This compound contains an acetal/aminal-like group ( X-CH(R)-Y where X, Y are N, S, or O) that may be acid/base labile, releasing an aldehyde.

> <s_lp_Force_Field>
OPLS_2005

> <r_lp_Energy>
28.0991

> <b_lp_Chiralities_Consistent>
1

> <s_lp_Variant>
AV-unprocessed.smi:55-4

> <Gold.Version>
5.8.1

> <Gold.Id.Protein>
6NUR|6NUR_protein|mol2

> <Gold.PLP.Fitness>
40.3525

> <Gold.PLP.PLP>
-29.9331

> <Gold.PLP.part.hbond>
-4.7067

> <Gold.PLP.part.metal>
0.0000

> <Gold.PLP.part.buried>
-1.4763

> <Gold.PLP.part.nonpolar>
-23.3767

> <Gold.PLP.part.repulsive>
0.7693

> <Gold.PLP.ligand.clash>
0.0000

> <Gold.PLP.ligand.torsion>
0.1565

> <Gold.PLP.Chemscore.Hbond>
2.5738

> <Gold.PLP.Chemscore.CHOScore>
1.0000

> <Gold.PLP.Chemscore.Metal>
0.0000

> <Gold.Chemscore.Hbonds>
donor molecule, donor type, donor heavy atom, donor atom, acceptor molecule, acceptor atom, score
      L1  H     8    28       P1  7948  1.00
      L1  H    11    31       P1 10175  1.00
      P1  H  7997  8009       L1    14  0.01
      P1  H  8011  8017       L1    12  0.56
      L1  C     3    25       P1  8028  1.00

> <Gold.PLP.Chemscore.Internal.Correction>
0.0111

> <Gold.Rescore>
     Score         DG    S(hbond)    S(metal)    S(lipo)     H(rot)  DE(clash)    DE(int)     intcor
      9.29     -12.05       2.35        0.00      48.83       2.73       1.54       1.22       ----

> <Gold.Chemscore.Fitness>
9.2898

> <Gold.Chemscore.DG>
-12.0488

> <Gold.Chemscore.ZeroCoef>
-5.4800

> <Gold.Chemscore.Hbond>
2.3450

> <Gold.Chemscore.Metal>
0.0000

> <Gold.Chemscore.Lipo>
48.8320

> <Gold.Chemscore.Internal_Hbond>
0.0000

> <Gold.Chemscore.DEClash>
1.5406

> <Gold.Chemscore.DEInternal>
1.2184

> <Gold.Chemscore.Rot>
2.7253

> <Gold.Chemscore.Internal.Correction>
   9.000000E+99

> <Gold.Chemscore.Hbonds>
donor molecule, donor type, donor heavy atom, donor atom, acceptor molecule, acceptor atom, score
      L1  H     8    28       P1  7948  0.98
      L1  H    11    31       P1 10175  0.25
      P1  H  8011  8017       L1    12  0.53

> <Gold.Chemscore.Hbond.Weighted>
-7.8323

> <Gold.Chemscore.Metal.Weighted>
-0.0000

> <Gold.Chemscore.Lipo.Weighted>
-5.7133

> <Gold.Chemscore.Internal_Hbond.Weighted>
0.0000

> <Gold.Chemscore.DEClash.Weighted>
1.5406

> <Gold.Chemscore.DEInternal.Weighted>
1.2184

> <Gold.Chemscore.Rot.Weighted>
6.9769

> <Gold.Chemscore.Internal.Correction.Weighted>
   9.000000E+99

> <Gold.Protein.RotatedTorsions>
[ 6907 6896 6895 6894 ] final  146.24 input  -60.11 | X-H torsion
[ 7974 7965 7964 7962 ] final   60.41 input  175.53 | X-H torsion
[ 8008 7997 7996 7995 ] final -143.39 input   59.86 | X-H torsion
[ 10167 10162 10161 10158 ] final -119.22 input  -65.29 | X-H torsion
[ 10718 10713 10712 10709 ] final -123.78 input   66.30 | X-H torsion
[ 10763 10752 10751 10750 ] final -164.46 input  -60.55 | X-H torsion
[ 11005 11000 10999 10996 ] final   50.33 input  -57.11 | X-H torsion

> <Gold.Protein.ActiveResidues>
 VAL166  LYS551  ARG553  GLY616  TRP617  ASP618  TYR619  PRO620  LYS621  CYS622 
 ASP623  PHE694  ASN695  SER759  ASP760  ASP761  ALA762  ILE779  LEU786  VAL792 
 PHE793  MET794  SER795  GLU796  ALA797  LYS798  CYS799  TRP800  GLU811  SER814 

> <Gold.Protein.RotatedAtoms>
  152.1704  133.4640  159.4906 H   0  0  0  0  0  0  0  0  0  0  0  0  # atno 6907 bound_to 6896
  150.6919  134.1960  159.4312 H   0  0  0  0  0  0  0  0  0  0  0  0  # atno 6908 bound_to 6896
  151.9867  135.0000  160.0610 H   0  0  0  0  0  0  0  0  0  0  0  0  # atno 6909 bound_to 6896
  145.8963  139.3548  143.0619 H   0  0  0  0  0  0  0  0  0  0  0  0  # atno 7974 bound_to 7965
  155.5098  140.0582  157.2925 H   0  0  0  0  0  0  0  0  0  0  0  0  # atno 8008 bound_to 7997
  154.4556  140.1971  156.0338 H   0  0  0  0  0  0  0  0  0  0  0  0  # atno 8009 bound_to 7997
  156.0792  140.3249  155.7676 H   0  0  0  0  0  0  0  0  0  0  0  0  # atno 8010 bound_to 7997
  140.0490  143.5079  152.2091 H   0  0  0  0  0  0  0  0  0  0  0  0  # atno 10167 bound_to 10162
  156.1531  130.6548  150.9942 H   0  0  0  0  0  0  0  0  0  0  0  0  # atno 10718 bound_to 10713
  154.7026  135.2991  154.9319 H   0  0  0  0  0  0  0  0  0  0  0  0  # atno 10763 bound_to 10752
  154.0246  135.6678  153.4779 H   0  0  0  0  0  0  0  0  0  0  0  0  # atno 10764 bound_to 10752
  153.0692  135.5070  154.8178 H   0  0  0  0  0  0  0  0  0  0  0  0  # atno 10765 bound_to 10752
  140.1027  134.5060  155.8748 H   0  0  0  0  0  0  0  0  0  0  0  0  # atno 11005 bound_to 11000
  145.8846  140.9342  143.0583 LP  0  0  0  0  0  0  0  0  0  0  0  0  # atno 17320 bound_to 7965
  144.6733  140.0825  143.7468 LP  0  0  0  0  0  0  0  0  0  0  0  0  # atno 17321 bound_to 7965
  139.5965  144.7568  151.3274 LP  0  0  0  0  0  0  0  0  0  0  0  0  # atno 17342 bound_to 10162
  140.7225  143.7095  150.7781 LP  0  0  0  0  0  0  0  0  0  0  0  0  # atno 17343 bound_to 10162
  157.6673  131.0869  150.7698 LP  0  0  0  0  0  0  0  0  0  0  0  0  # atno 17370 bound_to 10713
  156.7765  130.4845  149.5409 LP  0  0  0  0  0  0  0  0  0  0  0  0  # atno 17371 bound_to 10713
  141.2110  133.6701  156.6549 LP  0  0  0  0  0  0  0  0  0  0  0  0  # atno 17394 bound_to 11000
  140.3198  134.8017  157.4244 LP  0  0  0  0  0  0  0  0  0  0  0  0  # atno 17395 bound_to 11000

$$$$
