AV-unprocessed.smi:236|AV-procd|sdf|1813|dock6
  -GOLD-   2262020403D 1   1.00000     0.00000
 Structure written by MMmdl.
 58 62  0  0  0  0  0  0  0  0  1 V2000
  142.4440  134.6048  152.8009 C   0  0  0  0  0  0  0  0  0  0  0  0
  143.4971  135.1352  151.8166 C   0  0  2  0  0  0  0  0  0  0  0  0
  144.4831  134.1421  151.5462 O   0  0  0  0  0  0  0  0  0  0  0  0
  145.7568  134.7522  151.3552 C   0  0  0  0  0  0  0  0  0  0  0  0
  145.4964  136.2554  151.3403 C   0  0  0  0  0  0  0  0  0  0  0  0
  144.2813  136.3885  152.2503 C   0  0  1  0  0  0  0  0  0  0  0  0
  143.5688  137.5598  151.8981 O   0  0  0  0  0  0  0  0  0  0  0  0
  144.6282  136.4280  153.7636 C   0  0  0  0  0  0  0  0  0  0  0  0
  145.9026  137.0649  154.0570 N   0  0  0  0  0  0  0  0  0  0  0  0
  146.2781  138.3491  153.7345 C   0  0  0  0  0  0  0  0  0  0  0  0
  147.4838  138.6850  154.1039 N   0  0  0  0  0  0  0  0  0  0  0  0
  147.9741  137.5524  154.7445 C   0  0  0  0  0  0  0  0  0  0  0  0
  149.2081  137.2227  155.3759 C   0  0  0  0  0  0  0  0  0  0  0  0
  150.2446  138.0955  155.4769 N   0  0  0  0  0  0  0  0  0  0  0  0
  151.5159  137.7303  154.8557 C   0  0  0  0  0  0  0  0  0  0  0  0
  152.4541  138.9466  154.8162 C   0  0  0  0  0  0  0  0  0  0  0  0
  152.6047  139.4727  156.1304 O   0  0  0  0  0  0  0  0  0  0  0  0
  151.3687  139.9320  156.6727 C   0  0  2  0  0  0  0  0  0  0  0  0
  151.6475  140.5641  158.0419 C   0  0  0  0  0  0  0  0  0  0  0  0
  150.5518  141.3892  158.4018 O   0  0  0  0  0  0  0  0  0  0  0  0
  150.6606  142.7009  157.8773 C   0  0  0  0  0  0  0  0  0  0  0  0
  151.8972  143.3608  158.4491 C   0  0  0  0  0  0  0  0  0  0  0  0
  151.7708  144.5341  159.3945 C   0  0  0  0  0  0  0  0  0  0  0  0
  152.3094  144.7452  158.0022 C   0  0  0  0  0  0  0  0  0  0  0  0
  150.4075  138.7319  156.7808 C   0  0  0  0  0  0  0  0  0  0  0  0
  149.3296  135.9665  155.8846 N   0  0  0  0  0  0  0  0  0  0  0  0
  148.3189  135.0973  155.7948 C   0  0  0  0  0  0  0  0  0  0  0  0
  147.1175  135.2700  155.2419 N   0  0  0  0  0  0  0  0  0  0  0  0
  146.9896  136.5236  154.7211 C   0  0  0  0  0  0  0  0  0  0  0  0
  141.7089  135.3732  153.0405 H   0  0  0  0  0  0  0  0  0  0  0  0
  142.8959  134.2651  153.7328 H   0  0  0  0  0  0  0  0  0  0  0  0
  141.9093  133.7573  152.3716 H   0  0  0  0  0  0  0  0  0  0  0  0
  143.0069  135.3410  150.8629 H   0  0  0  0  0  0  0  0  0  0  0  0
  146.4028  134.4824  152.1912 H   0  0  0  0  0  0  0  0  0  0  0  0
  146.2307  134.4054  150.4369 H   0  0  0  0  0  0  0  0  0  0  0  0
  146.3622  136.8445  151.6407 H   0  0  0  0  0  0  0  0  0  0  0  0
  145.2400  136.5577  150.3232 H   0  0  0  0  0  0  0  0  0  0  0  0
  144.0609  138.3103  152.1942 H   0  0  0  0  0  0  0  0  0  0  0  0
  143.8535  136.9585  154.3184 H   0  0  0  0  0  0  0  0  0  0  0  0
  144.6532  135.4174  154.1726 H   0  0  0  0  0  0  0  0  0  0  0  0
  145.6279  139.0312  153.2062 H   0  0  0  0  0  0  0  0  0  0  0  0
  151.9791  136.9227  155.4243 H   0  0  0  0  0  0  0  0  0  0  0  0
  151.3504  137.3640  153.8417 H   0  0  0  0  0  0  0  0  0  0  0  0
  153.4329  138.6554  154.4351 H   0  0  0  0  0  0  0  0  0  0  0  0
  152.0663  139.7158  154.1464 H   0  0  0  0  0  0  0  0  0  0  0  0
  150.9331  140.6872  156.0155 H   0  0  0  0  0  0  0  0  0  0  0  0
  151.7647  139.7799  158.7915 H   0  0  0  0  0  0  0  0  0  0  0  0
  152.5752  141.1382  158.0185 H   0  0  0  0  0  0  0  0  0  0  0  0
  150.7269  142.6713  156.7884 H   0  0  0  0  0  0  0  0  0  0  0  0
  149.7859  143.2950  158.1459 H   0  0  0  0  0  0  0  0  0  0  0  0
  152.7084  142.6660  158.6585 H   0  0  0  0  0  0  0  0  0  0  0  0
  150.7716  144.9095  159.6074 H   0  0  0  0  0  0  0  0  0  0  0  0
  152.4764  144.5913  160.2207 H   0  0  0  0  0  0  0  0  0  0  0  0
  153.3746  144.9421  157.8991 H   0  0  0  0  0  0  0  0  0  0  0  0
  151.6694  145.2582  157.2872 H   0  0  0  0  0  0  0  0  0  0  0  0
  149.4544  139.0690  157.1851 H   0  0  0  0  0  0  0  0  0  0  0  0
  150.8041  137.9972  157.4829 H   0  0  0  0  0  0  0  0  0  0  0  0
  148.4990  134.1241  156.2271 H   0  0  0  0  0  0  0  0  0  0  0  0
  1  2  1  0  0  0  0
  1 30  1  0  0  0  0
  1 31  1  0  0  0  0
  1 32  1  0  0  0  0
  2  6  1  0  0  0  0
  2  3  1  0  0  0  0
  2 33  1  0  0  0  0
  3  4  1  0  0  0  0
  4  5  1  0  0  0  0
  4 34  1  0  0  0  0
  4 35  1  0  0  0  0
  5  6  1  0  0  0  0
  5 36  1  0  0  0  0
  5 37  1  0  0  0  0
  6  7  1  0  0  0  0
  6  8  1  0  0  0  0
  7 38  1  0  0  0  0
  8  9  1  0  0  0  0
  8 39  1  0  0  0  0
  8 40  1  0  0  0  0
  9 29  1  0  0  0  0
  9 10  1  0  0  0  0
 10 11  2  0  0  0  0
 10 41  1  0  0  0  0
 11 12  1  0  0  0  0
 12 29  2  0  0  0  0
 12 13  1  0  0  0  0
 13 14  1  0  0  0  0
 13 26  2  0  0  0  0
 14 25  1  0  0  0  0
 14 15  1  0  0  0  0
 15 16  1  0  0  0  0
 15 42  1  0  0  0  0
 15 43  1  0  0  0  0
 16 17  1  0  0  0  0
 16 44  1  0  0  0  0
 16 45  1  0  0  0  0
 17 18  1  0  0  0  0
 18 19  1  0  0  0  0
 18 25  1  0  0  0  0
 18 46  1  0  0  0  0
 19 20  1  0  0  0  0
 19 47  1  0  0  0  0
 19 48  1  0  0  0  0
 20 21  1  0  0  0  0
 21 22  1  0  0  0  0
 21 49  1  0  0  0  0
 21 50  1  0  0  0  0
 22 24  1  0  0  0  0
 22 23  1  0  0  0  0
 22 51  1  0  0  0  0
 23 24  1  0  0  0  0
 23 52  1  0  0  0  0
 23 53  1  0  0  0  0
 24 54  1  0  0  0  0
 24 55  1  0  0  0  0
 25 56  1  0  0  0  0
 25 57  1  0  0  0  0
 26 27  1  0  0  0  0
 27 28  2  0  0  0  0
 27 58  1  0  0  0  0
 28 29  1  0  0  0  0
M  END
> <s_m_source_file>
AV-unprocessed.smi

> <i_m_source_file_index>
236

> <i_lp_mmshare_version>
43012

> <i_f3d_flags>
0

> <s_epik_input>
W0NIMl0xW0NIMl1PW0NAQEhdKFtDSDNdKVtDQEBdMShbT0hdKVtDSDJdbihbY0hdbjIpYyhjMjMpbltjSF1uYzNONFtDSDJdW0NIMl1PW0NASF0oW0NIMl00KVtDSDJdT1tDSDJdW0NIXTVbQ0gyXVtDSDJdNQ==

> <s_epik_cmdline>
J2VwaWtfcHl0aG9uJywgJy1waCcsICc3LjAnLCAnLXRuJywgJzgnLCAnLW1hJywgJzIwMCcsICctbWV0YWxfYmluZGluZycsICctaW1hZScsICc8aW5maWxlLm1hZT4nLCAnLW9tYWUnLCAnPG91dGZpbGUubWFlPic=

> <r_lp_tautomer_probability>
1

> <r_epik_Ionization_Penalty>
7.21838e-05

> <r_epik_Ionization_Penalty_Charging>
0

> <r_epik_Ionization_Penalty_Neutral>
7.21838e-05

> <r_epik_State_Penalty>
-0

> <r_epik_Charging_Adjusted_Penalty>
0

> <i_epik_Tot_Q>
0

> <i_epik_Tot_abs_Q>
0

> <r_epik_Metal_State_Penalty>
-0

> <b_epik_Metal_Only>
0

> <s_lp_Force_Field>
OPLS_2005

> <r_lp_Energy>
47.7421

> <b_lp_Chiralities_Consistent>
1

> <s_lp_Variant>
AV-unprocessed.smi:236-5

> <Gold.Version>
5.8.1

> <Gold.Id.Protein>
6NUR|6NUR_protein|mol2

> <Gold.PLP.Fitness>
49.3535

> <Gold.PLP.PLP>
-43.4259

> <Gold.PLP.part.hbond>
-2.8199

> <Gold.PLP.part.metal>
0.0000

> <Gold.PLP.part.buried>
-6.1936

> <Gold.PLP.part.nonpolar>
-34.8583

> <Gold.PLP.part.repulsive>
0.4800

> <Gold.PLP.ligand.clash>
0.0000

> <Gold.PLP.ligand.torsion>
1.5055

> <Gold.PLP.Chemscore.Hbond>
1.6240

> <Gold.PLP.Chemscore.CHOScore>
0.9887

> <Gold.PLP.Chemscore.Metal>
0.0000

> <Gold.Chemscore.Hbonds>
donor molecule, donor type, donor heavy atom, donor atom, acceptor molecule, acceptor atom, score
      L1  H     7    38       P1 10175  0.45
      P1  H  7997  8008       L1    17  1.00
      L1  C    10    41       P1 10175  1.00

> <Gold.PLP.Chemscore.Internal.Correction>
1.1005

> <Gold.Rescore>
     Score         DG    S(hbond)    S(metal)    S(lipo)     H(rot)  DE(clash)    DE(int)     intcor
     14.97     -16.54       1.62        0.00     110.96       2.87       0.12       1.45       ----

> <Gold.Chemscore.Fitness>
14.9732

> <Gold.Chemscore.DG>
-16.5382

> <Gold.Chemscore.ZeroCoef>
-5.4800

> <Gold.Chemscore.Hbond>
1.6202

> <Gold.Chemscore.Metal>
0.0000

> <Gold.Chemscore.Lipo>
110.9600

> <Gold.Chemscore.Internal_Hbond>
0.0000

> <Gold.Chemscore.DEClash>
0.1174

> <Gold.Chemscore.DEInternal>
1.4476

> <Gold.Chemscore.Rot>
2.8655

> <Gold.Chemscore.Internal.Correction>
   9.000000E+99

> <Gold.Chemscore.Hbonds>
donor molecule, donor type, donor heavy atom, donor atom, acceptor molecule, acceptor atom, score
      L1  H     7    38       P1 10175  0.44
      P1  H  7997  8008       L1    17  0.55

> <Gold.Chemscore.Hbond.Weighted>
-5.4116

> <Gold.Chemscore.Metal.Weighted>
-0.0000

> <Gold.Chemscore.Lipo.Weighted>
-12.9823

> <Gold.Chemscore.Internal_Hbond.Weighted>
0.0000

> <Gold.Chemscore.DEClash.Weighted>
0.1174

> <Gold.Chemscore.DEInternal.Weighted>
1.4476

> <Gold.Chemscore.Rot.Weighted>
7.3358

> <Gold.Chemscore.Internal.Correction.Weighted>
   9.000000E+99

> <Gold.Protein.RotatedTorsions>
[ 6907 6896 6895 6894 ] final  -76.91 input  -60.11 | X-H torsion
[ 7974 7965 7964 7962 ] final  171.16 input  175.53 | X-H torsion
[ 8008 7997 7996 7995 ] final  -36.61 input   59.86 | X-H torsion
[ 10167 10162 10161 10158 ] final  107.56 input  -65.29 | X-H torsion
[ 10718 10713 10712 10709 ] final -131.93 input   66.30 | X-H torsion
[ 10763 10752 10751 10750 ] final  158.42 input  -60.55 | X-H torsion
[ 11005 11000 10999 10996 ] final  -26.78 input  -57.11 | X-H torsion

> <Gold.Protein.ActiveResidues>
 VAL166  LYS551  ARG553  GLY616  TRP617  ASP618  TYR619  PRO620  LYS621  CYS622 
 ASP623  PHE694  ASN695  SER759  ASP760  ASP761  ALA762  ILE779  LEU786  VAL792 
 PHE793  MET794  SER795  GLU796  ALA797  LYS798  CYS799  TRP800  GLU811  SER814 

> <Gold.Protein.RotatedAtoms>
  150.7013  134.4501  159.5332 H   0  0  0  0  0  0  0  0  0  0  0  0  # atno 6907 bound_to 6896
  152.2195  134.8423  160.0497 H   0  0  0  0  0  0  0  0  0  0  0  0  # atno 6908 bound_to 6896
  151.9279  133.3568  159.3957 H   0  0  0  0  0  0  0  0  0  0  0  0  # atno 6909 bound_to 6896
  144.7302  139.9309  143.6424 H   0  0  0  0  0  0  0  0  0  0  0  0  # atno 7974 bound_to 7965
  154.4069  140.1626  156.2401 H   0  0  0  0  0  0  0  0  0  0  0  0  # atno 8008 bound_to 7997
  155.9208  140.3421  155.6149 H   0  0  0  0  0  0  0  0  0  0  0  0  # atno 8009 bound_to 7997
  155.7224  140.0770  157.2315 H   0  0  0  0  0  0  0  0  0  0  0  0  # atno 8010 bound_to 7997
  139.6917  144.7107  151.1337 H   0  0  0  0  0  0  0  0  0  0  0  0  # atno 10167 bound_to 10162
  156.2294  130.7028  151.0842 H   0  0  0  0  0  0  0  0  0  0  0  0  # atno 10718 bound_to 10713
  154.2158  135.2784  155.2942 H   0  0  0  0  0  0  0  0  0  0  0  0  # atno 10763 bound_to 10752
  154.5742  135.5609  153.7126 H   0  0  0  0  0  0  0  0  0  0  0  0  # atno 10764 bound_to 10752
  153.0053  135.6328  154.2298 H   0  0  0  0  0  0  0  0  0  0  0  0  # atno 10765 bound_to 10752
  140.9060  133.7492  156.0607 H   0  0  0  0  0  0  0  0  0  0  0  0  # atno 11005 bound_to 11000
  146.0858  139.3846  143.0436 LP  0  0  0  0  0  0  0  0  0  0  0  0  # atno 17320 bound_to 7965
  145.7779  140.9869  143.1115 LP  0  0  0  0  0  0  0  0  0  0  0  0  # atno 17321 bound_to 7965
  140.7684  143.5550  150.9162 LP  0  0  0  0  0  0  0  0  0  0  0  0  # atno 17342 bound_to 10162
  139.9227  143.6586  152.3093 LP  0  0  0  0  0  0  0  0  0  0  0  0  # atno 17343 bound_to 10162
  157.7126  131.0726  150.6446 LP  0  0  0  0  0  0  0  0  0  0  0  0  # atno 17370 bound_to 10713
  156.6513  130.4486  149.5718 LP  0  0  0  0  0  0  0  0  0  0  0  0  # atno 17371 bound_to 10713
  140.8170  134.3333  157.5394 LP  0  0  0  0  0  0  0  0  0  0  0  0  # atno 17394 bound_to 11000
  139.8749  134.9287  156.3458 LP  0  0  0  0  0  0  0  0  0  0  0  0  # atno 17395 bound_to 11000

$$$$
