#       Name:                AV-unprocessed.smi:407
#       Creating user name   scv26
#       Creation time:       Thu Mar 26 22:44:54 2020


#       File generated by GOLD software.
#

@<TRIPOS>MOLECULE
AV-unprocessed.smi:407
    53    55     1
SMALL
NO_CHARGES


@<TRIPOS>ATOM
      1 ****        -8.0424   1.0629   0.5580 C.3            1 S1                 0.0000
      2 ****        -7.0539   2.2070   0.7776 C.2            1 S1                 0.0000
      3 ****        -7.4929   3.3199   1.0663 O.2            1 S1                 0.0000
      4 ****        -5.6012   1.9100   0.6251 C.ar           1 S1                 0.0000
      5 ****        -4.6591   2.9514   0.7783 C.ar           1 S1                 0.0000
      6 ****        -3.2815   2.6977   0.6384 C.ar           1 S1                 0.0000
      7 ****        -2.8112   1.4033   0.3435 C.ar           1 S1                 0.0000
      8 ****        -1.4476   1.2453   0.2202 O.3            1 S1                 0.0000
      9 ****        -0.9449  -0.0427  -0.1109 C.3            1 S1                 0.0000
     10 ****         0.5861   0.0396  -0.2293 C.3            1 S1                 0.0000
     11 ****         0.8808   0.5601  -1.5106 O.3            1 S1                 0.0000
     12 ****         1.2457  -1.3505  -0.1237 C.3            1 S1                 0.0000
     13 ****         2.6832  -1.2519   0.1275 N.am           1 S1                 0.0000
     14 ****         3.2781  -1.0149   1.3210 C.2            1 S1                 0.0000
     15 ****         2.6996  -0.8474   2.3944 O.2            1 S1                 0.0000
     16 ****         4.6171  -0.9927   1.1251 N.am           1 S1                 0.0000
     17 ****         5.6472  -0.7700   2.1323 C.3            1 S1                 0.0000
     18 ****         4.8877  -1.2255  -0.2291 C.ar           1 S1                 0.0000
     19 ****         6.1055  -1.3010  -0.9264 C.ar           1 S1                 0.0000
     20 ****         6.0387  -1.5485  -2.3176 C.ar           1 S1                 0.0000
     21 ****         4.7876  -1.7108  -2.9676 C.ar           1 S1                 0.0000
     22 ****         3.5767  -1.6309  -2.2405 C.ar           1 S1                 0.0000
     23 ****         3.6714  -1.3865  -0.8590 C.ar           1 S1                 0.0000
     24 ****        -3.7533   0.3561   0.1938 C.ar           1 S1                 0.0000
     25 ****        -5.1321   0.6080   0.3335 C.ar           1 S1                 0.0000
     26 ****        -7.9311   0.6487  -0.4442 H              1 S1                 0.0000
     27 ****        -9.0673   1.4185   0.6669 H              1 S1                 0.0000
     28 ****        -7.8778   0.2699   1.2878 H              1 S1                 0.0000
     29 ****        -4.9821   3.9578   1.0032 H              1 S1                 0.0000
     30 ****        -2.5773   3.5081   0.7573 H              1 S1                 0.0000
     31 ****        -1.2121  -0.7280   0.6952 H              1 S1                 0.0000
     32 ****        -1.3851  -0.4257  -1.0336 H              1 S1                 0.0000
     33 ****         0.9758   0.7035   0.5438 H              1 S1                 0.0000
     34 ****         1.8174   0.6603  -1.5847 H              1 S1                 0.0000
     35 ****         0.8061  -1.9035   0.7078 H              1 S1                 0.0000
     36 ****         1.0427  -1.9506  -1.0113 H              1 S1                 0.0000
     37 ****         6.3626  -0.0238   1.7856 H              1 S1                 0.0000
     38 ****         6.1867  -1.6969   2.3281 H              1 S1                 0.0000
     39 ****         5.2271  -0.4155   3.0745 H              1 S1                 0.0000
     40 ****         7.0535  -1.1749  -0.4245 H              1 S1                 0.0000
     41 ****         6.9508  -1.6139  -2.8924 H              1 S1                 0.0000
     42 ****         4.7595  -1.8976  -4.0310 H              1 S1                 0.0000
     43 ****         2.6230  -1.7521  -2.7322 H              1 S1                 0.0000
     44 ****        -3.4440  -0.6537  -0.0289 H              1 S1                 0.0000
     45 ****        -5.8150  -0.2194   0.2119 H              1 S1                 0.0000
     46 ****        -8.4790   3.4614   1.1529 LP             1 S1                 0.0000
     47 ****        -6.8634   4.0827   1.2143 LP             1 S1                 0.0000
     48 ****        -1.0391   1.5066   1.0948 LP             1 S1                 0.0000
     49 ****        -1.1399   1.8754  -0.4928 LP             1 S1                 0.0000
     50 ****         0.4363   1.4486  -1.6243 LP             1 S1                 0.0000
     51 ****         0.5521  -0.0696  -2.2144 LP             1 S1                 0.0000
     52 ****         1.7010  -0.8811   2.4348 LP             1 S1                 0.0000
     53 ****         3.2282  -0.6776   3.2261 LP             1 S1                 0.0000
@<TRIPOS>BOND
    1    1    2 1     
    2    1   26 1     
    3    1   27 1     
    4    1   28 1     
    5    2    3 2     
    6    2    4 1     
    7    4   25 ar    
    8    4    5 ar    
    9    5    6 ar    
   10    5   29 1     
   11    6    7 ar    
   12    6   30 1     
   13    7    8 1     
   14    7   24 ar    
   15    8    9 1     
   16    9   10 1     
   17    9   31 1     
   18    9   32 1     
   19   10   11 1     
   20   10   12 1     
   21   10   33 1     
   22   11   34 1     
   23   12   13 1     
   24   12   35 1     
   25   12   36 1     
   26   13   23 1     
   27   13   14 am    
   28   14   15 2     
   29   14   16 am    
   30   16   17 1     
   31   16   18 1     
   32   17   37 1     
   33   17   38 1     
   34   17   39 1     
   35   18   23 ar    
   36   18   19 ar    
   37   19   20 ar    
   38   19   40 1     
   39   20   21 ar    
   40   20   41 1     
   41   21   22 ar    
   42   21   42 1     
   43   22   23 ar    
   44   22   43 1     
   45   24   25 ar    
   46   24   44 1     
   47   25   45 1     
   48    3   46 1     
   49    3   47 1     
   50    8   48 1     
   51    8   49 1     
   52   11   50 1     
   53   11   51 1     
   54   15   52 1     
   55   15   53 1     
@<TRIPOS>SUBSTRUCTURE
      1 S1             1
@<TRIPOS>SET
LONE_PAIRS      STATIC     ATOMS    <user>   **** ""
8 46 47 48 49 50 51 52 53
DONOR_HYDROGENS      STATIC     ATOMS    <user>   **** ""
1 34
ATOM$BLUE        STATIC     ATOMS    COLORGROUP SYSTEM
8 46 47 48 49 50 51 52 53
ATOM$RED        STATIC     ATOMS    COLORGROUP SYSTEM
1 34
