#       Name:                AV-unprocessed.smi:2933
#       Creating user name   scv26
#       Creation time:       Fri Mar 27 16:14:38 2020


#       File generated by GOLD software.
#

@<TRIPOS>MOLECULE
AV-unprocessed.smi:2933
    55    57     1
SMALL
NO_CHARGES


@<TRIPOS>ATOM
      1 ****        -0.4398  -2.7574  -0.5916 C.3            1 S1                 0.0000
      2 ****        -1.2265  -1.4973  -0.2769 C.ar           1 S1                 0.0000
      3 ****        -2.5686  -1.6468  -0.2379 N.ar           1 S1                 0.0000
      4 ****        -3.3488  -0.5739   0.0391 C.ar           1 S1                 0.0000
      5 ****        -4.7485  -0.7538   0.0704 N.3            1 S1                 0.0000
      6 ****        -5.2917  -2.0062  -0.4518 C.3            1 S1                 0.0000
      7 ****        -6.8173  -1.8999  -0.6137 C.3            1 S1                 0.0000
      8 ****        -7.4045  -1.5248   0.6279 O.3            1 S1                 0.0000
      9 ****        -6.9444  -0.2511   1.0678 C.3            1 S1                 0.0000
     10 ****        -5.4211  -0.2895   1.2812 C.3            1 S1                 0.0000
     11 ****        -2.7897   0.7003   0.2884 C.ar           1 S1                 0.0000
     12 ****        -1.3921   0.8584   0.2465 C.ar           1 S1                 0.0000
     13 ****        -0.5797  -0.2592  -0.0549 C.ar           1 S1                 0.0000
     14 ****         0.8407  -0.1958  -0.1032 N.am           1 S1                 0.0000
     15 ****         1.6109   0.8558  -0.4299 C.2            1 S1                 0.0000
     16 ****         1.1936   1.9710  -0.7423 O.2            1 S1                 0.0000
     17 ****         2.9117   0.5326  -0.3979 N.am           1 S1                 0.0000
     18 ****         4.0152   1.4328  -0.7212 C.3            1 S1                 0.0000
     19 ****         4.2709   1.4357  -2.2369 C.3            1 S1                 0.0000
     20 ****         5.2528   1.0150   0.0701 C.3            1 S1                 0.0000
     21 ****         5.2692   1.1602   1.5997 C.3            1 S1                 0.0000
     22 ****         6.7596   1.4984   1.5060 C.3            1 S1                 0.0000
     23 ****         6.5121   1.8949   0.0480 C.3            1 S1                 0.0000
     24 ****         0.1510  -2.6186  -1.4975 H              1 S1                 0.0000
     25 ****        -1.0978  -3.6133  -0.7474 H              1 S1                 0.0000
     26 ****         0.2370  -2.9978   0.2287 H              1 S1                 0.0000
     27 ****        -4.8408  -2.2403  -1.4169 H              1 S1                 0.0000
     28 ****        -5.0443  -2.8205   0.2307 H              1 S1                 0.0000
     29 ****        -7.0775  -1.1739  -1.3858 H              1 S1                 0.0000
     30 ****        -7.2294  -2.8590  -0.9274 H              1 S1                 0.0000
     31 ****        -7.2155   0.5163   0.3408 H              1 S1                 0.0000
     32 ****        -7.4468   0.0042   2.0009 H              1 S1                 0.0000
     33 ****        -5.1768  -0.9671   2.1001 H              1 S1                 0.0000
     34 ****        -5.0802   0.7012   1.5783 H              1 S1                 0.0000
     35 ****        -3.4125   1.5570   0.4980 H              1 S1                 0.0000
     36 ****        -0.9701   1.8294   0.4552 H              1 S1                 0.0000
     37 ****         1.3203  -1.0724   0.0395 H              1 S1                 0.0000
     38 ****         3.1600  -0.4093  -0.1330 H              1 S1                 0.0000
     39 ****         3.7407   2.4466  -0.4236 H              1 S1                 0.0000
     40 ****         5.0768   2.1220  -2.4979 H              1 S1                 0.0000
     41 ****         3.3839   1.7512  -2.7874 H              1 S1                 0.0000
     42 ****         4.5497   0.4438  -2.5944 H              1 S1                 0.0000
     43 ****         5.5456  -0.0067  -0.1831 H              1 S1                 0.0000
     44 ****         4.6682   2.0002   1.9525 H              1 S1                 0.0000
     45 ****         5.0404   0.2449   2.1463 H              1 S1                 0.0000
     46 ****         7.0853   2.3139   2.1523 H              1 S1                 0.0000
     47 ****         7.4002   0.6204   1.6034 H              1 S1                 0.0000
     48 ****         7.2827   1.5707  -0.6520 H              1 S1                 0.0000
     49 ****         6.2865   2.9565  -0.0660 H              1 S1                 0.0000
     50 ****        -2.9823  -2.5404  -0.4118 LP             1 S1                 0.0000
     51 ****        -5.0018  -0.1004  -0.6430 LP             1 S1                 0.0000
     52 ****        -7.1689  -2.2097   1.3173 LP             1 S1                 0.0000
     53 ****        -8.3979  -1.4899   0.5186 LP             1 S1                 0.0000
     54 ****         0.2097   2.1480  -0.7666 LP             1 S1                 0.0000
     55 ****         1.8385   2.7000  -0.9719 LP             1 S1                 0.0000
@<TRIPOS>BOND
    1    1    2 1     
    2    1   24 1     
    3    1   25 1     
    4    1   26 1     
    5    2   13 ar    
    6    2    3 ar    
    7    3    4 ar    
    8    4    5 1     
    9    4   11 ar    
   10    5   10 1     
   11    5    6 1     
   12    6    7 1     
   13    6   27 1     
   14    6   28 1     
   15    7    8 1     
   16    7   29 1     
   17    7   30 1     
   18    8    9 1     
   19    9   10 1     
   20    9   31 1     
   21    9   32 1     
   22   10   33 1     
   23   10   34 1     
   24   11   12 ar    
   25   11   35 1     
   26   12   13 ar    
   27   12   36 1     
   28   13   14 1     
   29   14   15 am    
   30   14   37 1     
   31   15   16 2     
   32   15   17 am    
   33   17   18 1     
   34   17   38 1     
   35   18   19 1     
   36   18   20 1     
   37   18   39 1     
   38   19   40 1     
   39   19   41 1     
   40   19   42 1     
   41   20   23 1     
   42   20   21 1     
   43   20   43 1     
   44   21   22 1     
   45   21   44 1     
   46   21   45 1     
   47   22   23 1     
   48   22   46 1     
   49   22   47 1     
   50   23   48 1     
   51   23   49 1     
   52    3   50 1     
   53    5   51 1     
   54    8   52 1     
   55    8   53 1     
   56   16   54 1     
   57   16   55 1     
@<TRIPOS>SUBSTRUCTURE
      1 S1             1
@<TRIPOS>SET
LONE_PAIRS      STATIC     ATOMS    <user>   **** ""
6 50 51 52 53 54 55
DONOR_HYDROGENS      STATIC     ATOMS    <user>   **** ""
2 37 38
ATOM$BLUE        STATIC     ATOMS    COLORGROUP SYSTEM
6 50 51 52 53 54 55
ATOM$RED        STATIC     ATOMS    COLORGROUP SYSTEM
2 37 38
