AV-unprocessed.smi:2078|AV-procd|sdf|8464|dock3
  -GOLD-   2272011163D 1   1.00000     0.00000
 Structure written by MMmdl.
 42 43  0  0  0  0  0  0  0  0  2 V2000
  152.0323  139.9383  156.0772 C   0  0  0  0  0  0  0  0  0  0  0  0
  151.6260  138.5399  155.7573 C   0  0  0  0  0  0  0  0  0  0  0  0
  150.6778  138.0167  154.9235 C   0  0  0  0  0  0  0  0  0  0  0  0
  150.8284  136.6165  155.1069 C   0  0  0  0  0  0  0  0  0  0  0  0
  150.0085  135.6978  154.4032 N   0  0  0  0  0  0  0  0  0  0  0  0
  149.7119  134.4339  154.7504 C   0  0  0  0  0  0  0  0  0  0  0  0
  150.1189  133.8592  155.7605 O   0  0  0  0  0  0  0  0  0  0  0  0
  148.9054  133.8547  153.8489 N   0  0  0  0  0  0  0  0  0  0  0  0
  148.3957  132.4919  153.9448 C   0  0  0  0  0  0  0  0  0  0  0  0
  146.9115  132.4689  154.3596 C   0  0  0  0  0  0  0  0  0  0  0  0
  146.0166  132.1291  153.2254 N   0  3  2  0  0  0  0  0  0  0  0  0
  146.3188  130.8043  152.6209 C   0  0  0  0  0  0  0  0  0  0  0  0
  145.2766  130.4331  151.5543 C   0  0  0  0  0  0  0  0  0  0  0  0
  145.1804  131.5215  150.4758 C   0  0  0  0  0  0  0  0  0  0  0  0
  144.9319  132.9072  151.1004 C   0  0  1  0  0  0  0  0  0  0  0  0
  143.4903  133.0822  151.6096 C   0  0  0  0  0  0  0  0  0  0  0  0
  145.9770  133.2022  152.1967 C   0  0  0  0  0  0  0  0  0  0  0  0
  151.7829  136.3118  155.9725 N   0  0  0  0  0  0  0  0  0  0  0  0
  152.2987  137.5429  156.3943 O   0  0  0  0  0  0  0  0  0  0  0  0
  152.1869  140.5140  155.1646 H   0  0  0  0  0  0  0  0  0  0  0  0
  152.9611  139.9571  156.6481 H   0  0  0  0  0  0  0  0  0  0  0  0
  151.2634  140.4375  156.6668 H   0  0  0  0  0  0  0  0  0  0  0  0
  149.9890  138.5527  154.2871 H   0  0  0  0  0  0  0  0  0  0  0  0
  149.6035  136.0419  153.5452 H   0  0  0  0  0  0  0  0  0  0  0  0
  148.6153  134.3974  153.0483 H   0  0  0  0  0  0  0  0  0  0  0  0
  148.5555  131.9847  152.9929 H   0  0  0  0  0  0  0  0  0  0  0  0
  148.9947  131.9583  154.6834 H   0  0  0  0  0  0  0  0  0  0  0  0
  146.7966  131.7237  155.1483 H   0  0  0  0  0  0  0  0  0  0  0  0
  146.6046  133.4223  154.7925 H   0  0  0  0  0  0  0  0  0  0  0  0
  147.3166  130.8239  152.1794 H   0  0  0  0  0  0  0  0  0  0  0  0
  146.3299  130.0285  153.3855 H   0  0  0  0  0  0  0  0  0  0  0  0
  145.5403  129.4800  151.0944 H   0  0  0  0  0  0  0  0  0  0  0  0
  144.3040  130.2854  152.0247 H   0  0  0  0  0  0  0  0  0  0  0  0
  146.1133  131.5451  149.9109 H   0  0  0  0  0  0  0  0  0  0  0  0
  144.3959  131.2772  149.7586 H   0  0  0  0  0  0  0  0  0  0  0  0
  145.0695  133.6473  150.3108 H   0  0  0  0  0  0  0  0  0  0  0  0
  143.2597  132.3982  152.4264 H   0  0  0  0  0  0  0  0  0  0  0  0
  142.7683  132.9018  150.8126 H   0  0  0  0  0  0  0  0  0  0  0  0
  143.3262  134.0966  151.9749 H   0  0  0  0  0  0  0  0  0  0  0  0
  145.7494  134.1610  152.6647 H   0  0  0  0  0  0  0  0  0  0  0  0
  146.9675  133.3019  151.7492 H   0  0  0  0  0  0  0  0  0  0  0  0
  145.0827  132.0745  153.6062 H   0  0  0  0  0  0  0  0  0  0  0  0
  1  2  1  0  0  0  0
  1 20  1  0  0  0  0
  1 21  1  0  0  0  0
  1 22  1  0  0  0  0
  2 19  1  0  0  0  0
  2  3  2  0  0  0  0
  3  4  1  0  0  0  0
  3 23  1  0  0  0  0
  4  5  1  0  0  0  0
  4 18  2  0  0  0  0
  5  6  1  0  0  0  0
  5 24  1  0  0  0  0
  6  7  2  0  0  0  0
  6  8  1  0  0  0  0
  8  9  1  0  0  0  0
  8 25  1  0  0  0  0
  9 10  1  0  0  0  0
  9 26  1  0  0  0  0
  9 27  1  0  0  0  0
 10 11  1  0  0  0  0
 10 28  1  0  0  0  0
 10 29  1  0  0  0  0
 11 17  1  0  0  0  0
 11 12  1  0  0  0  0
 11 42  1  0  0  0  0
 12 13  1  0  0  0  0
 12 30  1  0  0  0  0
 12 31  1  0  0  0  0
 13 14  1  0  0  0  0
 13 32  1  0  0  0  0
 13 33  1  0  0  0  0
 14 15  1  0  0  0  0
 14 34  1  0  0  0  0
 14 35  1  0  0  0  0
 15 16  1  0  0  0  0
 15 17  1  0  0  0  0
 15 36  1  0  0  0  0
 16 37  1  0  0  0  0
 16 38  1  0  0  0  0
 16 39  1  0  0  0  0
 17 40  1  0  0  0  0
 17 41  1  0  0  0  0
 18 19  1  0  0  0  0
M  CHG  1  11   1
M  END
> <s_m_source_file>
AV-unprocessed.smi

> <i_m_source_file_index>
2078

> <i_lp_mmshare_version>
43012

> <i_f3d_flags>
0

> <s_epik_input>
W0NIM11jMVtjSF1jKG5vMSlbTkhdQyg9TylbTkhdW0NIMl1bQ0gyXU4yW0NIMl1bQ0gyXVtDSDJdW0NAQEhdKFtDSDNdKVtDSDJdMg==

> <s_epik_cmdline>
J2VwaWtfcHl0aG9uJywgJy1waCcsICc3LjAnLCAnLXRuJywgJzgnLCAnLW1hJywgJzIwMCcsICctbWV0YWxfYmluZGluZycsICctaW1hZScsICc8aW5maWxlLm1hZT4nLCAnLW9tYWUnLCAnPG91dGZpbGUubWFlPic=

> <r_epik_Ionization_Penalty>
0.00216453

> <r_epik_Ionization_Penalty_Charging>
0.00212879

> <r_epik_Ionization_Penalty_Neutral>
3.57418e-05

> <r_epik_State_Penalty>
0.00146033

> <r_epik_Charging_Adjusted_Penalty>
0.00358912

> <i_epik_Tot_Q>
1

> <i_epik_Tot_abs_Q>
1

> <r_epik_Metal_State_Penalty>
0.0215827

> <b_epik_Metal_Only>
0

> <s_lp_Force_Field>
OPLS_2005

> <r_lp_Energy>
15.3902

> <b_lp_Chiralities_Consistent>
1

> <s_lp_Variant>
AV-unprocessed.smi:2078-2

> <Gold.Version>
5.8.1

> <Gold.Id.Protein>
6NUR|6NUR_protein|mol2

> <Gold.PLP.Fitness>
39.5792

> <Gold.PLP.PLP>
-32.2621

> <Gold.PLP.part.hbond>
-4.2881

> <Gold.PLP.part.metal>
0.0000

> <Gold.PLP.part.buried>
-2.7580

> <Gold.PLP.part.nonpolar>
-25.3964

> <Gold.PLP.part.repulsive>
0.1415

> <Gold.PLP.ligand.clash>
0.0000

> <Gold.PLP.ligand.torsion>
0.5590

> <Gold.PLP.Chemscore.Hbond>
2.8064

> <Gold.PLP.Chemscore.CHOScore>
0.0000

> <Gold.PLP.Chemscore.Metal>
0.0000

> <Gold.Chemscore.Hbonds>
donor molecule, donor type, donor heavy atom, donor atom, acceptor molecule, acceptor atom, score
      L1  H     5    24       P1  7948  1.00
      L1  H     8    25       P1  7948  0.52
      P1  H 10752 10764       L1    18  1.00

> <Gold.PLP.Chemscore.Internal.Correction>
0.0158

> <Gold.Rescore>
     Score         DG    S(hbond)    S(metal)    S(lipo)     H(rot)  DE(clash)    DE(int)     intcor
     15.26     -17.18       2.04        0.00      76.22       1.57       0.26       1.66       ----

> <Gold.Chemscore.Fitness>
15.2596

> <Gold.Chemscore.DG>
-17.1809

> <Gold.Chemscore.ZeroCoef>
-5.4800

> <Gold.Chemscore.Hbond>
2.0366

> <Gold.Chemscore.Metal>
0.0000

> <Gold.Chemscore.Lipo>
76.2154

> <Gold.Chemscore.Internal_Hbond>
0.0000

> <Gold.Chemscore.DEClash>
0.2601

> <Gold.Chemscore.DEInternal>
1.6612

> <Gold.Chemscore.Rot>
1.5697

> <Gold.Chemscore.Internal.Correction>
   9.000000E+99

> <Gold.Chemscore.Hbonds>
donor molecule, donor type, donor heavy atom, donor atom, acceptor molecule, acceptor atom, score
      L1  H     5    24       P1  7948  0.30
      L1  H     8    25       P1  7948  0.09
      P1  H 10752 10764       L1    18  0.30

> <Gold.Chemscore.Hbond.Weighted>
-6.8021

> <Gold.Chemscore.Metal.Weighted>
-0.0000

> <Gold.Chemscore.Lipo.Weighted>
-8.9172

> <Gold.Chemscore.Internal_Hbond.Weighted>
0.0000

> <Gold.Chemscore.DEClash.Weighted>
0.2601

> <Gold.Chemscore.DEInternal.Weighted>
1.6612

> <Gold.Chemscore.Rot.Weighted>
4.0185

> <Gold.Chemscore.Internal.Correction.Weighted>
   9.000000E+99

> <Gold.Protein.RotatedTorsions>
[ 6907 6896 6895 6894 ] final   81.23 input  -60.11 | X-H torsion
[ 7974 7965 7964 7962 ] final   66.48 input  175.53 | X-H torsion
[ 8008 7997 7996 7995 ] final -105.00 input   59.86 | X-H torsion
[ 10167 10162 10161 10158 ] final  -94.42 input  -65.29 | X-H torsion
[ 10718 10713 10712 10709 ] final -136.85 input   66.30 | X-H torsion
[ 10763 10752 10751 10750 ] final  -36.37 input  -60.55 | X-H torsion
[ 11005 11000 10999 10996 ] final   -0.94 input  -57.11 | X-H torsion

> <Gold.Protein.ActiveResidues>
 VAL166  LYS551  ARG553  GLY616  TRP617  ASP618  TYR619  PRO620  LYS621  CYS622 
 ASP623  PHE694  ASN695  SER759  ASP760  ASP761  ALA762  ILE779  LEU786  VAL792 
 PHE793  MET794  SER795  GLU796  ALA797  LYS798  CYS799  TRP800  GLU811  SER814 

> <Gold.Protein.RotatedAtoms>
  152.5261  134.3236  159.9156 H   0  0  0  0  0  0  0  0  0  0  0  0  # atno 6907 bound_to 6896
  151.3185  133.4044  159.2660 H   0  0  0  0  0  0  0  0  0  0  0  0  # atno 6908 bound_to 6896
  150.9979  134.9315  159.7994 H   0  0  0  0  0  0  0  0  0  0  0  0  # atno 6909 bound_to 6896
  145.8261  139.3112  143.1015 H   0  0  0  0  0  0  0  0  0  0  0  0  # atno 7974 bound_to 7965
  154.8935  140.0415  157.1852 H   0  0  0  0  0  0  0  0  0  0  0  0  # atno 8008 bound_to 7997
  154.8516  140.2930  155.5573 H   0  0  0  0  0  0  0  0  0  0  0  0  # atno 8009 bound_to 7997
  156.2996  140.2463  156.3476 H   0  0  0  0  0  0  0  0  0  0  0  0  # atno 8010 bound_to 7997
  140.3146  143.3085  152.0112 H   0  0  0  0  0  0  0  0  0  0  0  0  # atno 10167 bound_to 10162
  156.2815  130.7323  151.1322 H   0  0  0  0  0  0  0  0  0  0  0  0  # atno 10718 bound_to 10713
  153.8786  135.6824  153.4768 H   0  0  0  0  0  0  0  0  0  0  0  0  # atno 10763 bound_to 10752
  153.1246  135.4724  154.9250 H   0  0  0  0  0  0  0  0  0  0  0  0  # atno 10764 bound_to 10752
  154.7680  135.3230  154.8199 H   0  0  0  0  0  0  0  0  0  0  0  0  # atno 10765 bound_to 10752
  140.6418  133.9483  155.8330 H   0  0  0  0  0  0  0  0  0  0  0  0  # atno 11005 bound_to 11000
  145.9622  140.8826  143.0205 LP  0  0  0  0  0  0  0  0  0  0  0  0  # atno 17320 bound_to 7965
  144.6743  140.1829  143.7404 LP  0  0  0  0  0  0  0  0  0  0  0  0  # atno 17321 bound_to 7965
  139.4886  144.6358  151.6978 LP  0  0  0  0  0  0  0  0  0  0  0  0  # atno 17342 bound_to 10162
  140.5538  144.0382  150.6138 LP  0  0  0  0  0  0  0  0  0  0  0  0  # atno 17343 bound_to 10162
  157.7316  131.0607  150.5670 LP  0  0  0  0  0  0  0  0  0  0  0  0  # atno 17370 bound_to 10713
  156.5777  130.4296  149.5991 LP  0  0  0  0  0  0  0  0  0  0  0  0  # atno 17371 bound_to 10713
  141.0601  134.0359  157.3670 LP  0  0  0  0  0  0  0  0  0  0  0  0  # atno 17394 bound_to 11000
  139.9077  135.0183  156.7559 LP  0  0  0  0  0  0  0  0  0  0  0  0  # atno 17395 bound_to 11000

$$$$
