AV-unprocessed.smi:1673|AV-procd|sdf|6711|dock6
  -GOLD-   22720 7453D 1   1.00000     0.00000
 Structure written by MMmdl.
 39 40  0  0  0  0  0  0  0  0  1 V2000
  153.6275  138.2973  155.1211 C   0  0  0  0  0  0  0  0  0  0  0  0
  152.1293  138.1695  155.1314 C   0  0  0  0  0  0  0  0  0  0  0  0
  151.5704  137.1147  154.5563 N   0  0  0  0  0  0  0  0  0  0  0  0
  150.1814  137.2900  154.6543 O   0  0  0  0  0  0  0  0  0  0  0  0
  149.9302  138.4609  155.2958 C   0  0  0  0  0  0  0  0  0  0  0  0
  148.4997  138.8381  155.4844 C   0  0  0  0  0  0  0  0  0  0  0  0
  151.1175  139.0361  155.6403 C   0  0  0  0  0  0  0  0  0  0  0  0
  151.2458  140.2848  156.2981 N   0  0  0  0  0  0  0  0  0  0  0  0
  150.8638  140.5789  157.5498 C   0  0  0  0  0  0  0  0  0  0  0  0
  150.2746  139.8060  158.3047 O   0  0  0  0  0  0  0  0  0  0  0  0
  151.1925  141.8373  157.8745 N   0  0  0  0  0  0  0  0  0  0  0  0
  150.9376  142.4918  159.1595 C   0  0  2  0  0  0  0  0  0  0  0  0
  150.2275  143.8401  158.9252 C   0  0  0  0  0  0  0  0  0  0  0  0
  151.1557  144.8827  158.2777 C   0  0  0  0  0  0  0  0  0  0  0  0
  152.4410  145.0691  159.0977 C   0  0  0  0  0  0  0  0  0  0  0  0
  153.1654  143.7313  159.3175 C   0  0  0  0  0  0  0  0  0  0  0  0
  152.2409  142.6873  159.9774 C   0  0  2  0  0  0  0  0  0  0  0  0
  152.9851  141.3705  160.2586 C   0  0  0  0  0  0  0  0  0  0  0  0
  153.9354  139.3411  155.0606 H   0  0  0  0  0  0  0  0  0  0  0  0
  154.0662  137.7808  154.2669 H   0  0  0  0  0  0  0  0  0  0  0  0
  154.0626  137.8693  156.0243 H   0  0  0  0  0  0  0  0  0  0  0  0
  148.4096  139.8448  155.8923 H   0  0  0  0  0  0  0  0  0  0  0  0
  148.0079  138.1504  156.1719 H   0  0  0  0  0  0  0  0  0  0  0  0
  147.9642  138.8096  154.5355 H   0  0  0  0  0  0  0  0  0  0  0  0
  151.5999  141.0465  155.7382 H   0  0  0  0  0  0  0  0  0  0  0  0
  151.6716  142.3909  157.1796 H   0  0  0  0  0  0  0  0  0  0  0  0
  150.2590  141.8709  159.7471 H   0  0  0  0  0  0  0  0  0  0  0  0
  149.3387  143.6971  158.3094 H   0  0  0  0  0  0  0  0  0  0  0  0
  149.8724  144.2273  159.8812 H   0  0  0  0  0  0  0  0  0  0  0  0
  151.4102  144.5734  157.2633 H   0  0  0  0  0  0  0  0  0  0  0  0
  150.6339  145.8356  158.1851 H   0  0  0  0  0  0  0  0  0  0  0  0
  153.1039  145.7727  158.5936 H   0  0  0  0  0  0  0  0  0  0  0  0
  152.1967  145.5138  160.0632 H   0  0  0  0  0  0  0  0  0  0  0  0
  153.5327  143.3532  158.3625 H   0  0  0  0  0  0  0  0  0  0  0  0
  154.0455  143.8946  159.9400 H   0  0  0  0  0  0  0  0  0  0  0  0
  151.9468  143.0889  160.9485 H   0  0  0  0  0  0  0  0  0  0  0  0
  153.3844  140.9275  159.3462 H   0  0  0  0  0  0  0  0  0  0  0  0
  152.3243  140.6383  160.7237 H   0  0  0  0  0  0  0  0  0  0  0  0
  153.8232  141.5338  160.9364 H   0  0  0  0  0  0  0  0  0  0  0  0
  1  2  1  0  0  0  0
  1 19  1  0  0  0  0
  1 20  1  0  0  0  0
  1 21  1  0  0  0  0
  2  7  1  0  0  0  0
  2  3  2  0  0  0  0
  3  4  1  0  0  0  0
  4  5  1  0  0  0  0
  5  6  1  0  0  0  0
  5  7  2  0  0  0  0
  6 22  1  0  0  0  0
  6 23  1  0  0  0  0
  6 24  1  0  0  0  0
  7  8  1  0  0  0  0
  8  9  1  0  0  0  0
  8 25  1  0  0  0  0
  9 10  2  0  0  0  0
  9 11  1  0  0  0  0
 11 12  1  0  0  0  0
 11 26  1  0  0  0  0
 12 17  1  0  0  0  0
 12 13  1  0  0  0  0
 12 27  1  0  0  0  0
 13 14  1  0  0  0  0
 13 28  1  0  0  0  0
 13 29  1  0  0  0  0
 14 15  1  0  0  0  0
 14 30  1  0  0  0  0
 14 31  1  0  0  0  0
 15 16  1  0  0  0  0
 15 32  1  0  0  0  0
 15 33  1  0  0  0  0
 16 17  1  0  0  0  0
 16 34  1  0  0  0  0
 16 35  1  0  0  0  0
 17 18  1  0  0  0  0
 17 36  1  0  0  0  0
 18 37  1  0  0  0  0
 18 38  1  0  0  0  0
 18 39  1  0  0  0  0
M  END
> <s_m_source_file>
AV-unprocessed.smi

> <i_m_source_file_index>
1673

> <i_lp_mmshare_version>
43012

> <i_f3d_flags>
0

> <s_epik_input>
W0NIM11jMW5vYyhbQ0gzXSljMVtOSF1DKD1PKVtOSF1bQ0BASF0yW0NIMl1bQ0gyXVtDSDJdW0NIMl1bQ0BIXTJbQ0gzXQ==

> <s_epik_cmdline>
J2VwaWtfcHl0aG9uJywgJy1waCcsICc3LjAnLCAnLXRuJywgJzgnLCAnLW1hJywgJzIwMCcsICctbWV0YWxfYmluZGluZycsICctaW1hZScsICc8aW5maWxlLm1hZT4nLCAnLW9tYWUnLCAnPG91dGZpbGUubWFlPic=

> <r_lp_tautomer_probability>
1

> <r_epik_Ionization_Penalty>
4.01865e-05

> <r_epik_Ionization_Penalty_Charging>
0

> <r_epik_Ionization_Penalty_Neutral>
4.01865e-05

> <r_epik_State_Penalty>
-0

> <r_epik_Charging_Adjusted_Penalty>
0

> <i_epik_Tot_Q>
0

> <i_epik_Tot_abs_Q>
0

> <r_epik_Metal_State_Penalty>
-0

> <b_epik_Metal_Only>
0

> <s_lp_Force_Field>
OPLS_2005

> <r_lp_Energy>
11.4641

> <b_lp_Chiralities_Consistent>
1

> <s_lp_Variant>
AV-unprocessed.smi:1673-3

> <Gold.Version>
5.8.1

> <Gold.Id.Protein>
6NUR|6NUR_protein|mol2

> <Gold.PLP.Fitness>
36.4610

> <Gold.PLP.PLP>
-34.8534

> <Gold.PLP.part.hbond>
-1.0000

> <Gold.PLP.part.metal>
0.0000

> <Gold.PLP.part.buried>
-4.2747

> <Gold.PLP.part.nonpolar>
-32.4165

> <Gold.PLP.part.repulsive>
1.5060

> <Gold.PLP.ligand.clash>
0.0000

> <Gold.PLP.ligand.torsion>
0.7094

> <Gold.PLP.Chemscore.Hbond>
0.9280

> <Gold.PLP.Chemscore.CHOScore>
0.0000

> <Gold.PLP.Chemscore.Metal>
0.0000

> <Gold.Chemscore.Hbonds>
donor molecule, donor type, donor heavy atom, donor atom, acceptor molecule, acceptor atom, score
      P1  H 10752 10763       L1     3  1.00

> <Gold.PLP.Chemscore.Internal.Correction>
0.2424

> <Gold.Rescore>
     Score         DG    S(hbond)    S(metal)    S(lipo)     H(rot)  DE(clash)    DE(int)     intcor
     16.97     -18.37       0.83        0.00     108.24       1.00       0.85       0.55       ----

> <Gold.Chemscore.Fitness>
16.9661

> <Gold.Chemscore.DG>
-18.3726

> <Gold.Chemscore.ZeroCoef>
-5.4800

> <Gold.Chemscore.Hbond>
0.8348

> <Gold.Chemscore.Metal>
0.0000

> <Gold.Chemscore.Lipo>
108.2422

> <Gold.Chemscore.Internal_Hbond>
0.0000

> <Gold.Chemscore.DEClash>
0.8518

> <Gold.Chemscore.DEInternal>
0.5546

> <Gold.Chemscore.Rot>
1.0000

> <Gold.Chemscore.Internal.Correction>
   9.000000E+99

> <Gold.Chemscore.Hbonds>
donor molecule, donor type, donor heavy atom, donor atom, acceptor molecule, acceptor atom, score
      P1  H 10752 10763       L1     3  0.68

> <Gold.Chemscore.Hbond.Weighted>
-2.7883

> <Gold.Chemscore.Metal.Weighted>
-0.0000

> <Gold.Chemscore.Lipo.Weighted>
-12.6643

> <Gold.Chemscore.Internal_Hbond.Weighted>
0.0000

> <Gold.Chemscore.DEClash.Weighted>
0.8518

> <Gold.Chemscore.DEInternal.Weighted>
0.5546

> <Gold.Chemscore.Rot.Weighted>
2.5600

> <Gold.Chemscore.Internal.Correction.Weighted>
   9.000000E+99

> <Gold.Protein.RotatedTorsions>
[ 6907 6896 6895 6894 ] final -149.59 input  -60.11 | X-H torsion
[ 7974 7965 7964 7962 ] final   54.73 input  175.53 | X-H torsion
[ 8008 7997 7996 7995 ] final  -56.67 input   59.86 | X-H torsion
[ 10167 10162 10161 10158 ] final    2.41 input  -65.29 | X-H torsion
[ 10718 10713 10712 10709 ] final   22.17 input   66.30 | X-H torsion
[ 10763 10752 10751 10750 ] final   35.93 input  -60.55 | X-H torsion
[ 11005 11000 10999 10996 ] final    2.06 input  -57.11 | X-H torsion

> <Gold.Protein.ActiveResidues>
 VAL166  LYS551  ARG553  GLY616  TRP617  ASP618  TYR619  PRO620  LYS621  CYS622 
 ASP623  PHE694  ASN695  SER759  ASP760  ASP761  ALA762  ILE779  LEU786  VAL792 
 PHE793  MET794  SER795  GLU796  ALA797  LYS798  CYS799  TRP800  GLU811  SER814 

> <Gold.Protein.RotatedAtoms>
  151.1862  133.4694  159.2594 H   0  0  0  0  0  0  0  0  0  0  0  0  # atno 6907 bound_to 6896
  151.1209  135.0078  159.8548 H   0  0  0  0  0  0  0  0  0  0  0  0  # atno 6908 bound_to 6896
  152.5456  134.1774  159.8674 H   0  0  0  0  0  0  0  0  0  0  0  0  # atno 6909 bound_to 6896
  145.9578  139.4031  143.0267 H   0  0  0  0  0  0  0  0  0  0  0  0  # atno 7974 bound_to 7965
  154.4238  140.1124  156.5674 H   0  0  0  0  0  0  0  0  0  0  0  0  # atno 8008 bound_to 7997
  155.6248  140.3495  155.4644 H   0  0  0  0  0  0  0  0  0  0  0  0  # atno 8009 bound_to 7997
  155.9995  140.1196  157.0550 H   0  0  0  0  0  0  0  0  0  0  0  0  # atno 8010 bound_to 7997
  140.6636  143.7238  150.7785 H   0  0  0  0  0  0  0  0  0  0  0  0  # atno 10167 bound_to 10162
  157.1485  130.6664  149.6004 H   0  0  0  0  0  0  0  0  0  0  0  0  # atno 10718 bound_to 10713
  153.0098  135.6320  154.1905 H   0  0  0  0  0  0  0  0  0  0  0  0  # atno 10763 bound_to 10752
  154.1648  135.2821  155.3100 H   0  0  0  0  0  0  0  0  0  0  0  0  # atno 10764 bound_to 10752
  154.5954  135.5604  153.7381 H   0  0  0  0  0  0  0  0  0  0  0  0  # atno 10765 bound_to 10752
  140.6086  133.9770  155.8166 H   0  0  0  0  0  0  0  0  0  0  0  0  # atno 11005 bound_to 11000
  145.8082  140.9738  143.0962 LP  0  0  0  0  0  0  0  0  0  0  0  0  # atno 17320 bound_to 7965
  144.6808  139.9888  143.7484 LP  0  0  0  0  0  0  0  0  0  0  0  0  # atno 17321 bound_to 7965
  140.0911  143.4876  152.2478 LP  0  0  0  0  0  0  0  0  0  0  0  0  # atno 17342 bound_to 10162
  139.5878  144.7538  151.3477 LP  0  0  0  0  0  0  0  0  0  0  0  0  # atno 17343 bound_to 10162
  155.9775  130.4752  150.6596 LP  0  0  0  0  0  0  0  0  0  0  0  0  # atno 17370 bound_to 10713
  157.4242  131.0841  151.1102 LP  0  0  0  0  0  0  0  0  0  0  0  0  # atno 17371 bound_to 10713
  141.0824  134.0042  157.3366 LP  0  0  0  0  0  0  0  0  0  0  0  0  # atno 17394 bound_to 11000
  139.9202  135.0200  156.8034 LP  0  0  0  0  0  0  0  0  0  0  0  0  # atno 17395 bound_to 11000

$$$$
