#       Name:                AV-unprocessed.smi:2987
#       Creating user name   scv26
#       Creation time:       Fri Mar 27 16:31:06 2020


#       File generated by GOLD software.
#

@<TRIPOS>MOLECULE
AV-unprocessed.smi:2987
    28    29     1
SMALL
NO_CHARGES


@<TRIPOS>ATOM
      1 ****         0.0411   3.0068  -0.3837 C.3            1 S1                 0.0000
      2 ****        -0.4312   1.5921  -0.3535 C.2            1 S1                 0.0000
      3 ****        -1.7299   1.1784  -0.3579 N.pl3          1 S1                 1.0000
      4 ****        -1.7817  -0.2160  -0.3214 C.ar           1 S1                 0.0000
      5 ****        -2.8654  -1.0888  -0.3112 C.ar           1 S1                 0.0000
      6 ****        -2.5673  -2.4668  -0.2683 C.ar           1 S1                 0.0000
      7 ****        -1.2358  -2.9300  -0.2362 C.ar           1 S1                 0.0000
      8 ****        -0.1451  -2.0356  -0.2469 C.ar           1 S1                 0.0000
      9 ****        -0.4488  -0.6752  -0.2915 C.ar           1 S1                 0.0000
     10 ****         0.3484   0.4742  -0.3145 N.pl3          1 S1                 0.0000
     11 ****         1.8098   0.3357  -0.2890 C.3            1 S1                 0.0000
     12 ****         2.3432   0.1757   1.1413 C.3            1 S1                 0.0000
     13 ****         3.7475   0.0497   1.1110 O.3            1 S1                 0.0000
     14 ****        -0.8033   3.6948  -0.3348 H              1 S1                 0.0000
     15 ****         0.5925   3.1991  -1.3042 H              1 S1                 0.0000
     16 ****         0.6977   3.2027   0.4643 H              1 S1                 0.0000
     17 ****        -3.8864  -0.7368  -0.3344 H              1 S1                 0.0000
     18 ****        -3.3763  -3.1829  -0.2588 H              1 S1                 0.0000
     19 ****        -1.0464  -3.9932  -0.2025 H              1 S1                 0.0000
     20 ****         0.8715  -2.3998  -0.2210 H              1 S1                 0.0000
     21 ****         2.0940  -0.5103  -0.9161 H              1 S1                 0.0000
     22 ****         2.2369   1.2244  -0.7555 H              1 S1                 0.0000
     23 ****         2.0757   1.0393   1.7508 H              1 S1                 0.0000
     24 ****         1.9187  -0.7073   1.6197 H              1 S1                 0.0000
     25 ****         4.0622  -0.0367   1.9981 H              1 S1                 0.0000
     26 ****        -2.5224   1.8072  -0.3831 H              1 S1                 0.0000
     27 ****         4.1495   0.8621   0.6887 LP             1 S1                 0.0000
     28 ****         4.0016  -0.7607   0.5831 LP             1 S1                 0.0000
@<TRIPOS>BOND
    1    1    2 1     
    2    1   14 1     
    3    1   15 1     
    4    1   16 1     
    5    2   10 1     
    6    2    3 2     
    7    3    4 1     
    8    3   26 1     
    9    4    9 ar    
   10    4    5 ar    
   11    5    6 ar    
   12    5   17 1     
   13    6    7 ar    
   14    6   18 1     
   15    7    8 ar    
   16    7   19 1     
   17    8    9 ar    
   18    8   20 1     
   19    9   10 1     
   20   10   11 1     
   21   11   12 1     
   22   11   21 1     
   23   11   22 1     
   24   12   13 1     
   25   12   23 1     
   26   12   24 1     
   27   13   25 1     
   28   13   27 1     
   29   13   28 1     
@<TRIPOS>SUBSTRUCTURE
      1 S1             1
@<TRIPOS>SET
LONE_PAIRS      STATIC     ATOMS    <user>   **** ""
2 27 28
DONOR_HYDROGENS      STATIC     ATOMS    <user>   **** ""
2 26 25
ATOM$BLUE        STATIC     ATOMS    COLORGROUP SYSTEM
2 27 28
ATOM$RED        STATIC     ATOMS    COLORGROUP SYSTEM
2 26 25
