AV-unprocessed.smi:2438|AV-procd|sdf|9602|dock1
  -GOLD-   2272013233D 1   1.00000     0.00000
 Structure written by MMmdl.
 44 45  0  0  0  0  0  0  0  0  2 V2000
  143.7181  135.1183  154.7806 C   0  0  0  0  0  0  0  0  0  0  0  0
  143.3539  135.9533  153.6436 N   0  0  0  0  0  0  0  0  0  0  0  0
  141.9379  136.2720  153.5090 C   0  0  0  0  0  0  0  0  0  0  0  0
  144.0461  135.6341  152.4579 C   0  0  0  0  0  0  0  0  0  0  0  0
  143.6588  134.5349  151.7705 N   0  0  0  0  0  0  0  0  0  0  0  0
  144.3038  134.1885  150.6517 C   0  0  0  0  0  0  0  0  0  0  0  0
  145.3326  134.8900  150.1585 N   0  3  0  0  0  0  0  0  0  0  0  0
  145.7571  136.0011  150.8059 C   0  0  0  0  0  0  0  0  0  0  0  0
  145.1305  136.4218  152.0026 C   0  0  0  0  0  0  0  0  0  0  0  0
  145.5037  137.6010  152.7073 N   0  0  0  0  0  0  0  0  0  0  0  0
  146.2982  138.5995  152.2890 C   0  0  0  0  0  0  0  0  0  0  0  0
  146.8017  138.6832  151.1691 O   0  0  0  0  0  0  0  0  0  0  0  0
  146.4994  139.4972  153.2632 N   0  0  0  0  0  0  0  0  0  0  0  0
  147.3583  140.6767  153.1664 C   0  0  1  0  0  0  0  0  0  0  0  0
  146.6584  141.8979  153.7924 C   0  0  0  0  0  0  0  0  0  0  0  0
  146.5633  141.7899  155.3241 C   0  0  0  0  0  0  0  0  0  0  0  0
  147.9432  141.5510  155.9575 C   0  0  0  0  0  0  0  0  0  0  0  0
  148.6338  140.3037  155.3670 C   0  0  2  0  0  0  0  0  0  0  0  0
  150.0093  140.0403  156.0124 C   0  0  0  0  0  0  0  0  0  0  0  0
  150.6301  139.0254  155.4105 F   0  0  0  0  0  0  0  0  0  0  0  0
  150.7725  141.1293  155.9192 F   0  0  0  0  0  0  0  0  0  0  0  0
  149.8582  139.7489  157.3044 F   0  0  0  0  0  0  0  0  0  0  0  0
  148.7317  140.4332  153.8303 C   0  0  0  0  0  0  0  0  0  0  0  0
  144.7926  134.9434  154.8364 H   0  0  0  0  0  0  0  0  0  0  0  0
  143.2208  134.1500  154.7137 H   0  0  0  0  0  0  0  0  0  0  0  0
  143.4091  135.5950  155.7112 H   0  0  0  0  0  0  0  0  0  0  0  0
  141.7695  136.9586  152.6784 H   0  0  0  0  0  0  0  0  0  0  0  0
  141.5718  136.7510  154.4173 H   0  0  0  0  0  0  0  0  0  0  0  0
  141.3488  135.3697  153.3396 H   0  0  0  0  0  0  0  0  0  0  0  0
  144.0007  133.3128  150.0968 H   0  0  0  0  0  0  0  0  0  0  0  0
  146.5738  136.5157  150.3230 H   0  0  0  0  0  0  0  0  0  0  0  0
  145.2195  137.6340  153.6759 H   0  0  0  0  0  0  0  0  0  0  0  0
  146.0421  139.3453  154.1505 H   0  0  0  0  0  0  0  0  0  0  0  0
  147.5162  140.8892  152.1075 H   0  0  0  0  0  0  0  0  0  0  0  0
  147.2170  142.7987  153.5351 H   0  0  0  0  0  0  0  0  0  0  0  0
  145.6641  142.0266  153.3630 H   0  0  0  0  0  0  0  0  0  0  0  0
  146.1227  142.7004  155.7313 H   0  0  0  0  0  0  0  0  0  0  0  0
  145.8901  140.9764  155.5967 H   0  0  0  0  0  0  0  0  0  0  0  0
  148.5703  142.4295  155.8008 H   0  0  0  0  0  0  0  0  0  0  0  0
  147.8307  141.4426  157.0365 H   0  0  0  0  0  0  0  0  0  0  0  0
  148.0058  139.4402  155.5923 H   0  0  0  0  0  0  0  0  0  0  0  0
  149.2003  139.5447  153.4064 H   0  0  0  0  0  0  0  0  0  0  0  0
  149.3938  141.2635  153.5823 H   0  0  0  0  0  0  0  0  0  0  0  0
  145.7961  134.6007  149.2969 H   0  0  0  0  0  0  0  0  0  0  0  0
  1  2  1  0  0  0  0
  1 24  1  0  0  0  0
  1 25  1  0  0  0  0
  1 26  1  0  0  0  0
  2  3  1  0  0  0  0
  2  4  1  0  0  0  0
  3 27  1  0  0  0  0
  3 28  1  0  0  0  0
  3 29  1  0  0  0  0
  4  9  1  0  0  0  0
  4  5  2  0  0  0  0
  5  6  1  0  0  0  0
  6  7  2  0  0  0  0
  6 30  1  0  0  0  0
  7  8  1  0  0  0  0
  7 44  1  0  0  0  0
  8  9  2  0  0  0  0
  8 31  1  0  0  0  0
  9 10  1  0  0  0  0
 10 11  1  0  0  0  0
 10 32  1  0  0  0  0
 11 12  2  0  0  0  0
 11 13  1  0  0  0  0
 13 14  1  0  0  0  0
 13 33  1  0  0  0  0
 14 23  1  0  0  0  0
 14 15  1  0  0  0  0
 14 34  1  0  0  0  0
 15 16  1  0  0  0  0
 15 35  1  0  0  0  0
 15 36  1  0  0  0  0
 16 17  1  0  0  0  0
 16 37  1  0  0  0  0
 16 38  1  0  0  0  0
 17 18  1  0  0  0  0
 17 39  1  0  0  0  0
 17 40  1  0  0  0  0
 18 19  1  0  0  0  0
 18 23  1  0  0  0  0
 18 41  1  0  0  0  0
 19 20  1  0  0  0  0
 19 21  1  0  0  0  0
 19 22  1  0  0  0  0
 23 42  1  0  0  0  0
 23 43  1  0  0  0  0
M  CHG  1   7   1
M  END
> <s_m_source_file>
AV-unprocessed.smi

> <i_m_source_file_index>
2438

> <i_lp_mmshare_version>
43012

> <i_f3d_flags>
0

> <s_epik_input>
W0NIM11OKFtDSDNdKWMxbltjSF1uW2NIXWMxW05IXUMoPU8pW05IXVtDQEBIXTJbQ0gyXVtDSDJdW0NIMl1bQ0BASF0oQyhGKShGKUYpW0NIMl0y

> <s_epik_cmdline>
J2VwaWtfcHl0aG9uJywgJy1waCcsICc3LjAnLCAnLXRuJywgJzgnLCAnLW1hJywgJzIwMCcsICctbWV0YWxfYmluZGluZycsICctaW1hZScsICc8aW5maWxlLm1hZT4nLCAnLW9tYWUnLCAnPG91dGZpbGUubWFlPic=

> <r_lp_tautomer_probability>
0.999336

> <r_epik_Ionization_Penalty>
2.11643

> <r_epik_Ionization_Penalty_Charging>
2.11639

> <r_epik_Ionization_Penalty_Neutral>
4.47523e-05

> <r_epik_State_Penalty>
2.25369

> <r_epik_Charging_Adjusted_Penalty>
4.37008

> <i_epik_Tot_Q>
1

> <i_epik_Tot_abs_Q>
1

> <r_epik_Metal_State_Penalty>
2.27019

> <b_epik_Metal_Only>
0

> <s_lp_Force_Field>
OPLS_2005

> <r_lp_Energy>
15.0245

> <b_lp_Chiralities_Consistent>
1

> <s_lp_Variant>
AV-unprocessed.smi:2438-8

> <Gold.Version>
5.8.1

> <Gold.Id.Protein>
6NUR|6NUR_protein|mol2

> <Gold.PLP.Fitness>
40.0076

> <Gold.PLP.PLP>
-34.8271

> <Gold.PLP.part.hbond>
-2.7852

> <Gold.PLP.part.metal>
0.0000

> <Gold.PLP.part.buried>
-4.5643

> <Gold.PLP.part.nonpolar>
-29.7179

> <Gold.PLP.part.repulsive>
1.0777

> <Gold.PLP.ligand.clash>
0.0000

> <Gold.PLP.ligand.torsion>
0.6155

> <Gold.PLP.Chemscore.Hbond>
2.0000

> <Gold.PLP.Chemscore.CHOScore>
0.0000

> <Gold.PLP.Chemscore.Metal>
0.0000

> <Gold.Chemscore.Hbonds>
donor molecule, donor type, donor heavy atom, donor atom, acceptor molecule, acceptor atom, score
      L1  H     7    44       P1  7921  1.00
      P1  H  7954  7966       L1    12  0.99

> <Gold.PLP.Chemscore.Internal.Correction>
0.4115

> <Gold.Rescore>
     Score         DG    S(hbond)    S(metal)    S(lipo)     H(rot)  DE(clash)    DE(int)     intcor
     13.08     -15.22       1.89        0.00      57.94       1.31       0.59       1.56       ----

> <Gold.Chemscore.Fitness>
13.0754

> <Gold.Chemscore.DG>
-15.2177

> <Gold.Chemscore.ZeroCoef>
-5.4800

> <Gold.Chemscore.Hbond>
1.8881

> <Gold.Chemscore.Metal>
0.0000

> <Gold.Chemscore.Lipo>
57.9438

> <Gold.Chemscore.Internal_Hbond>
0.0000

> <Gold.Chemscore.DEClash>
0.5870

> <Gold.Chemscore.DEInternal>
1.5553

> <Gold.Chemscore.Rot>
1.3078

> <Gold.Chemscore.Internal.Correction>
   9.000000E+99

> <Gold.Chemscore.Hbonds>
donor molecule, donor type, donor heavy atom, donor atom, acceptor molecule, acceptor atom, score
      L1  H     7    44       P1  7921  0.81
      P1  H  7954  7966       L1    12  0.88

> <Gold.Chemscore.Hbond.Weighted>
-6.3064

> <Gold.Chemscore.Metal.Weighted>
-0.0000

> <Gold.Chemscore.Lipo.Weighted>
-6.7794

> <Gold.Chemscore.Internal_Hbond.Weighted>
0.0000

> <Gold.Chemscore.DEClash.Weighted>
0.5870

> <Gold.Chemscore.DEInternal.Weighted>
1.5553

> <Gold.Chemscore.Rot.Weighted>
3.3481

> <Gold.Chemscore.Internal.Correction.Weighted>
   9.000000E+99

> <Gold.Protein.RotatedTorsions>
[ 6907 6896 6895 6894 ] final  -48.18 input  -60.11 | X-H torsion
[ 7974 7965 7964 7962 ] final -105.60 input  175.53 | X-H torsion
[ 8008 7997 7996 7995 ] final -156.00 input   59.86 | X-H torsion
[ 10167 10162 10161 10158 ] final -104.55 input  -65.29 | X-H torsion
[ 10718 10713 10712 10709 ] final   71.57 input   66.30 | X-H torsion
[ 10763 10752 10751 10750 ] final  171.51 input  -60.55 | X-H torsion
[ 11005 11000 10999 10996 ] final -101.51 input  -57.11 | X-H torsion

> <Gold.Protein.ActiveResidues>
 VAL166  LYS551  ARG553  GLY616  TRP617  ASP618  TYR619  PRO620  LYS621  CYS622 
 ASP623  PHE694  ASN695  SER759  ASP760  ASP761  ALA762  ILE779  LEU786  VAL792 
 PHE793  MET794  SER795  GLU796  ALA797  LYS798  CYS799  TRP800  GLU811  SER814 

> <Gold.Protein.RotatedAtoms>
  150.8932  134.8338  159.7307 H   0  0  0  0  0  0  0  0  0  0  0  0  # atno 6907 bound_to 6896
  152.4849  134.4616  159.9617 H   0  0  0  0  0  0  0  0  0  0  0  0  # atno 6908 bound_to 6896
  151.4676  133.3538  159.2854 H   0  0  0  0  0  0  0  0  0  0  0  0  # atno 6909 bound_to 6896
  145.2285  140.9161  143.3218 H   0  0  0  0  0  0  0  0  0  0  0  0  # atno 7974 bound_to 7965
  155.7105  140.0777  157.2373 H   0  0  0  0  0  0  0  0  0  0  0  0  # atno 8008 bound_to 7997
  154.4059  140.1631  156.2344 H   0  0  0  0  0  0  0  0  0  0  0  0  # atno 8009 bound_to 7997
  155.9287  140.3393  155.6234 H   0  0  0  0  0  0  0  0  0  0  0  0  # atno 8010 bound_to 7997
  140.2081  143.3768  152.1074 H   0  0  0  0  0  0  0  0  0  0  0  0  # atno 10167 bound_to 10162
  157.6458  130.9535  150.0808 H   0  0  0  0  0  0  0  0  0  0  0  0  # atno 10718 bound_to 10713
  154.4129  135.2756  155.2025 H   0  0  0  0  0  0  0  0  0  0  0  0  # atno 10763 bound_to 10752
  154.4003  135.6046  153.5897 H   0  0  0  0  0  0  0  0  0  0  0  0  # atno 10764 bound_to 10752
  152.9831  135.5925  154.4413 H   0  0  0  0  0  0  0  0  0  0  0  0  # atno 10765 bound_to 10752
  141.1228  133.8484  157.1241 H   0  0  0  0  0  0  0  0  0  0  0  0  # atno 11005 bound_to 11000
  144.9699  139.3891  143.6314 LP  0  0  0  0  0  0  0  0  0  0  0  0  # atno 17320 bound_to 7965
  146.3359  139.8792  142.8827 LP  0  0  0  0  0  0  0  0  0  0  0  0  # atno 17321 bound_to 7965
  139.5191  144.7014  151.5481 LP  0  0  0  0  0  0  0  0  0  0  0  0  # atno 17342 bound_to 10162
  140.6343  143.9014  150.6633 LP  0  0  0  0  0  0  0  0  0  0  0  0  # atno 17343 bound_to 10162
  156.1785  130.3649  149.9068 LP  0  0  0  0  0  0  0  0  0  0  0  0  # atno 17370 bound_to 10713
  156.7026  130.8939  151.3601 LP  0  0  0  0  0  0  0  0  0  0  0  0  # atno 17371 bound_to 10713
  140.0199  134.9950  157.0570 LP  0  0  0  0  0  0  0  0  0  0  0  0  # atno 17394 bound_to 11000
  140.4457  134.1634  155.7177 LP  0  0  0  0  0  0  0  0  0  0  0  0  # atno 17395 bound_to 11000

$$$$
