AV-unprocessed.smi:3031|AV-procd|sdf|11552|dock2
  -GOLD-   2272016513D 1   1.00000     0.00000
 Structure written by MMmdl.
 48 49  0  0  0  0  0  0  0  0  3 V2000
  151.1013  142.1194  157.6898 C   0  0  0  0  0  0  0  0  0  0  0  0
  150.7721  141.3366  156.4515 C   0  0  0  0  0  0  0  0  0  0  0  0
  151.4235  140.1710  155.9592 C   0  0  0  0  0  0  0  0  0  0  0  0
  150.8869  139.7184  154.8382 N   0  0  0  0  0  0  0  0  0  0  0  0
  149.8842  140.5822  154.5669 N   0  0  0  0  0  0  0  0  0  0  0  0
  149.0428  140.3849  153.3967 C   0  0  0  0  0  0  0  0  0  0  0  0
  147.5294  140.2529  153.7065 C   0  0  1  0  0  0  0  0  0  0  0  0
  147.0097  141.5357  154.3702 C   0  0  0  0  0  0  0  0  0  0  0  0
  146.7106  139.9785  152.5002 N   0  3  0  0  0  0  0  0  0  0  0  0
  146.8776  138.6449  151.8816 C   0  0  0  0  0  0  0  0  0  0  0  0
  146.1013  137.5575  152.6459 C   0  0  1  0  0  0  0  0  0  0  0  0
  144.9539  138.1503  153.2205 O   0  0  0  0  0  0  0  0  0  0  0  0
  145.6204  136.4186  151.7213 C   0  0  0  0  0  0  0  0  0  0  0  0
  146.3564  135.1447  151.9299 N   0  3  0  0  0  0  0  0  0  0  0  0
  146.3076  134.6491  153.3279 C   0  0  0  0  0  0  0  0  0  0  0  0
  147.1161  133.3473  153.4670 C   0  0  0  0  0  0  0  0  0  0  0  0
  146.6222  132.3767  152.5527 O   0  0  0  0  0  0  0  0  0  0  0  0
  146.7506  132.8040  151.2027 C   0  0  0  0  0  0  0  0  0  0  0  0
  145.9255  134.0839  150.9883 C   0  0  0  0  0  0  0  0  0  0  0  0
  149.7810  141.5571  155.5373 C   0  0  0  0  0  0  0  0  0  0  0  0
  151.2851  141.4646  158.5420 H   0  0  0  0  0  0  0  0  0  0  0  0
  150.2916  142.7925  157.9729 H   0  0  0  0  0  0  0  0  0  0  0  0
  151.9943  142.7297  157.5539 H   0  0  0  0  0  0  0  0  0  0  0  0
  152.2645  139.6422  156.3827 H   0  0  0  0  0  0  0  0  0  0  0  0
  149.2108  141.2414  152.7423 H   0  0  0  0  0  0  0  0  0  0  0  0
  149.3962  139.5094  152.8501 H   0  0  0  0  0  0  0  0  0  0  0  0
  147.3656  139.4458  154.4216 H   0  0  0  0  0  0  0  0  0  0  0  0
  147.5478  141.7466  155.2950 H   0  0  0  0  0  0  0  0  0  0  0  0
  145.9522  141.4492  154.6217 H   0  0  0  0  0  0  0  0  0  0  0  0
  147.1267  142.3991  153.7140 H   0  0  0  0  0  0  0  0  0  0  0  0
  145.7436  140.0548  152.7814 H   0  0  0  0  0  0  0  0  0  0  0  0
  146.5429  138.6735  150.8453 H   0  0  0  0  0  0  0  0  0  0  0  0
  147.9388  138.3944  151.8725 H   0  0  0  0  0  0  0  0  0  0  0  0
  146.7119  137.1607  153.4571 H   0  0  0  0  0  0  0  0  0  0  0  0
  144.8298  139.0080  152.8419 H   0  0  0  0  0  0  0  0  0  0  0  0
  144.5514  136.2406  151.8525 H   0  0  0  0  0  0  0  0  0  0  0  0
  145.7490  136.7408  150.6864 H   0  0  0  0  0  0  0  0  0  0  0  0
  146.7088  135.3960  154.0123 H   0  0  0  0  0  0  0  0  0  0  0  0
  145.2705  134.4731  153.6185 H   0  0  0  0  0  0  0  0  0  0  0  0
  148.1777  133.5257  153.2883 H   0  0  0  0  0  0  0  0  0  0  0  0
  147.0256  132.9550  154.4802 H   0  0  0  0  0  0  0  0  0  0  0  0
  147.8009  132.9714  150.9588 H   0  0  0  0  0  0  0  0  0  0  0  0
  146.3932  132.0118  150.5448 H   0  0  0  0  0  0  0  0  0  0  0  0
  144.8644  133.8741  151.1326 H   0  0  0  0  0  0  0  0  0  0  0  0
  146.0484  134.4282  149.9606 H   0  0  0  0  0  0  0  0  0  0  0  0
  149.0225  142.3253  155.4946 H   0  0  0  0  0  0  0  0  0  0  0  0
  146.8907  140.6886  151.8042 H   0  0  0  0  0  0  0  0  0  0  0  0
  147.3259  135.3285  151.7148 H   0  0  0  0  0  0  0  0  0  0  0  0
  1  2  1  0  0  0  0
  1 21  1  0  0  0  0
  1 22  1  0  0  0  0
  1 23  1  0  0  0  0
  2 20  2  0  0  0  0
  2  3  1  0  0  0  0
  3  4  2  0  0  0  0
  3 24  1  0  0  0  0
  4  5  1  0  0  0  0
  5  6  1  0  0  0  0
  5 20  1  0  0  0  0
  6  7  1  0  0  0  0
  6 25  1  0  0  0  0
  6 26  1  0  0  0  0
  7  8  1  0  0  0  0
  7  9  1  0  0  0  0
  7 27  1  0  0  0  0
  8 28  1  0  0  0  0
  8 29  1  0  0  0  0
  8 30  1  0  0  0  0
  9 10  1  0  0  0  0
  9 31  1  0  0  0  0
  9 47  1  0  0  0  0
 10 11  1  0  0  0  0
 10 32  1  0  0  0  0
 10 33  1  0  0  0  0
 11 12  1  0  0  0  0
 11 13  1  0  0  0  0
 11 34  1  0  0  0  0
 12 35  1  0  0  0  0
 13 14  1  0  0  0  0
 13 36  1  0  0  0  0
 13 37  1  0  0  0  0
 14 19  1  0  0  0  0
 14 15  1  0  0  0  0
 14 48  1  0  0  0  0
 15 16  1  0  0  0  0
 15 38  1  0  0  0  0
 15 39  1  0  0  0  0
 16 17  1  0  0  0  0
 16 40  1  0  0  0  0
 16 41  1  0  0  0  0
 17 18  1  0  0  0  0
 18 19  1  0  0  0  0
 18 42  1  0  0  0  0
 18 43  1  0  0  0  0
 19 44  1  0  0  0  0
 19 45  1  0  0  0  0
 20 46  1  0  0  0  0
M  CHG  1   9   1
M  CHG  1  14   1
M  END
> <s_m_source_file>
AV-unprocessed.smi

> <i_m_source_file_index>
3031

> <i_lp_mmshare_version>
43012

> <i_f3d_flags>
0

> <s_epik_input>
W0NIM11jMVtjSF1ubihbY0hdMSlbQ0gyXVtDQEhdKFtDSDNdKVtOSF1bQ0gyXVtDQEhdKFtPSF0pW0NIMl1OMltDSDJdW0NIMl1PW0NIMl1bQ0gyXTI=

> <s_epik_cmdline>
J2VwaWtfcHl0aG9uJywgJy1waCcsICc3LjAnLCAnLXRuJywgJzgnLCAnLW1hJywgJzIwMCcsICctbWV0YWxfYmluZGluZycsICctaW1hZScsICc8aW5maWxlLm1hZT4nLCAnLW9tYWUnLCAnPG91dGZpbGUubWFlPic=

> <r_lp_tautomer_probability>
1

> <r_epik_Ionization_Penalty>
1.76542

> <r_epik_Ionization_Penalty_Charging>
1.76348

> <r_epik_Ionization_Penalty_Neutral>
0.00194017

> <r_epik_State_Penalty>
1.49348

> <r_epik_Charging_Adjusted_Penalty>
3.25696

> <i_epik_Tot_Q>
2

> <i_epik_Tot_abs_Q>
2

> <r_epik_Metal_State_Penalty>
1.49349

> <b_epik_Metal_Only>
0

> <s_lp_Force_Field>
OPLS_2005

> <r_lp_Energy>
29.0022

> <b_lp_Chiralities_Consistent>
1

> <s_lp_Variant>
AV-unprocessed.smi:3031-12

> <Gold.Version>
5.8.1

> <Gold.Id.Protein>
6NUR|6NUR_protein|mol2

> <Gold.PLP.Fitness>
53.1632

> <Gold.PLP.PLP>
-35.9425

> <Gold.PLP.part.hbond>
-4.0000

> <Gold.PLP.part.metal>
0.0000

> <Gold.PLP.part.buried>
5.1794

> <Gold.PLP.part.nonpolar>
-37.5250

> <Gold.PLP.part.repulsive>
0.2733

> <Gold.PLP.ligand.clash>
0.0000

> <Gold.PLP.ligand.torsion>
1.2253

> <Gold.PLP.Chemscore.Hbond>
5.4000

> <Gold.PLP.Chemscore.CHOScore>
1.0000

> <Gold.PLP.Chemscore.Metal>
0.0000

> <Gold.Chemscore.Hbonds>
donor molecule, donor type, donor heavy atom, donor atom, acceptor molecule, acceptor atom, score
      L1  H     9    31       P1 10175  1.53
      L1  H    12    35       P1 10175  0.98
      L1  H    14    48       P1  7948  2.00
      L1  C    20    46       P1  8028  1.00

> <Gold.PLP.Chemscore.Internal.Correction>
0.4714

> <Gold.Rescore>
     Score         DG    S(hbond)    S(metal)    S(lipo)     H(rot)  DE(clash)    DE(int)     intcor
     15.66     -18.58       2.88        0.00      89.71       2.74       1.82       1.10       ----

> <Gold.Chemscore.Fitness>
15.6627

> <Gold.Chemscore.DG>
-18.5839

> <Gold.Chemscore.ZeroCoef>
-5.4800

> <Gold.Chemscore.Hbond>
2.8836

> <Gold.Chemscore.Metal>
0.0000

> <Gold.Chemscore.Lipo>
89.7070

> <Gold.Chemscore.Internal_Hbond>
0.0000

> <Gold.Chemscore.DEClash>
1.8219

> <Gold.Chemscore.DEInternal>
1.0993

> <Gold.Chemscore.Rot>
2.7434

> <Gold.Chemscore.Internal.Correction>
   9.000000E+99

> <Gold.Chemscore.Hbonds>
donor molecule, donor type, donor heavy atom, donor atom, acceptor molecule, acceptor atom, score
      L1  H     9    31       P1 10175  0.72
      L1  H    12    35       P1 10175  0.93
      L1  H    14    48       P1  7948  0.96

> <Gold.Chemscore.Hbond.Weighted>
-9.6313

> <Gold.Chemscore.Metal.Weighted>
-0.0000

> <Gold.Chemscore.Lipo.Weighted>
-10.4957

> <Gold.Chemscore.Internal_Hbond.Weighted>
0.0000

> <Gold.Chemscore.DEClash.Weighted>
1.8219

> <Gold.Chemscore.DEInternal.Weighted>
1.0993

> <Gold.Chemscore.Rot.Weighted>
7.0231

> <Gold.Chemscore.Internal.Correction.Weighted>
   9.000000E+99

> <Gold.Protein.RotatedTorsions>
[ 6907 6896 6895 6894 ] final -131.51 input  -60.11 | X-H torsion
[ 7974 7965 7964 7962 ] final -165.59 input  175.53 | X-H torsion
[ 8008 7997 7996 7995 ] final  117.40 input   59.86 | X-H torsion
[ 10167 10162 10161 10158 ] final -178.30 input  -65.29 | X-H torsion
[ 10718 10713 10712 10709 ] final  105.88 input   66.30 | X-H torsion
[ 10763 10752 10751 10750 ] final  171.51 input  -60.55 | X-H torsion
[ 11005 11000 10999 10996 ] final   95.68 input  -57.11 | X-H torsion

> <Gold.Protein.ActiveResidues>
 VAL166  LYS551  ARG553  GLY616  TRP617  ASP618  TYR619  PRO620  LYS621  CYS622 
 ASP623  PHE694  ASN695  SER759  ASP760  ASP761  ALA762  ILE779  LEU786  VAL792 
 PHE793  MET794  SER795  GLU796  ALA797  LYS798  CYS799  TRP800  GLU811  SER814 

> <Gold.Protein.RotatedAtoms>
  150.9518  133.6541  159.2770 H   0  0  0  0  0  0  0  0  0  0  0  0  # atno 6907 bound_to 6896
  151.3894  135.0952  159.9531 H   0  0  0  0  0  0  0  0  0  0  0  0  # atno 6908 bound_to 6896
  152.5113  133.9035  159.7507 H   0  0  0  0  0  0  0  0  0  0  0  0  # atno 6909 bound_to 6896
  144.7266  140.2791  143.6239 H   0  0  0  0  0  0  0  0  0  0  0  0  # atno 7974 bound_to 7965
  156.2492  140.2897  156.0673 H   0  0  0  0  0  0  0  0  0  0  0  0  # atno 8008 bound_to 7997
  155.1709  140.0402  157.2880 H   0  0  0  0  0  0  0  0  0  0  0  0  # atno 8009 bound_to 7997
  154.6326  140.2503  155.7422 H   0  0  0  0  0  0  0  0  0  0  0  0  # atno 8010 bound_to 7997
  139.5439  144.2288  152.0949 H   0  0  0  0  0  0  0  0  0  0  0  0  # atno 10167 bound_to 10162
  157.6689  131.0838  150.5922 H   0  0  0  0  0  0  0  0  0  0  0  0  # atno 10718 bound_to 10713
  154.4129  135.2756  155.2025 H   0  0  0  0  0  0  0  0  0  0  0  0  # atno 10763 bound_to 10752
  154.4003  135.6046  153.5897 H   0  0  0  0  0  0  0  0  0  0  0  0  # atno 10764 bound_to 10752
  152.9831  135.5925  154.4414 H   0  0  0  0  0  0  0  0  0  0  0  0  # atno 10765 bound_to 10752
  139.8787  134.8912  156.4047 H   0  0  0  0  0  0  0  0  0  0  0  0  # atno 11005 bound_to 11000
  145.7967  139.1948  143.2071 LP  0  0  0  0  0  0  0  0  0  0  0  0  # atno 17320 bound_to 7965
  146.0710  140.7868  142.9688 LP  0  0  0  0  0  0  0  0  0  0  0  0  # atno 17321 bound_to 7965
  140.1772  144.4880  150.6548 LP  0  0  0  0  0  0  0  0  0  0  0  0  # atno 17342 bound_to 10162
  140.6680  143.2275  151.5696 LP  0  0  0  0  0  0  0  0  0  0  0  0  # atno 17343 bound_to 10162
  156.6223  130.4409  149.5817 LP  0  0  0  0  0  0  0  0  0  0  0  0  # atno 17370 bound_to 10713
  156.2346  130.6815  151.1497 LP  0  0  0  0  0  0  0  0  0  0  0  0  # atno 17371 bound_to 10713
  140.9242  133.7624  155.9944 LP  0  0  0  0  0  0  0  0  0  0  0  0  # atno 17394 bound_to 11000
  140.8405  134.3072  157.5315 LP  0  0  0  0  0  0  0  0  0  0  0  0  # atno 17395 bound_to 11000

$$$$
