AV-unprocessed.smi:2125|AV-procd|sdf|8674|dock4
  -GOLD-   2272011423D 1   1.00000     0.00000
 Structure written by MMmdl.
 32 33  0  0  0  0  0  0  0  0  1 V2000
  151.3471  137.5135  155.1639 C   0  0  0  0  0  0  0  0  0  0  0  0
  150.5659  138.7316  155.2149 N   0  0  0  0  0  0  0  0  0  0  0  0
  149.2416  138.7269  154.7132 C   0  0  0  0  0  0  0  0  0  0  0  0
  148.7161  137.7233  154.2309 O   0  0  0  0  0  0  0  0  0  0  0  0
  148.5543  140.0087  154.8161 C   0  0  0  0  0  0  0  0  0  0  0  0
  149.1684  141.0853  155.3539 C   0  0  0  0  0  0  0  0  0  0  0  0
  150.4638  141.0617  155.8373 N   0  0  0  0  0  0  0  0  0  0  0  0
  151.0555  142.2849  156.3944 C   0  0  0  0  0  0  0  0  0  0  0  0
  150.6732  142.5265  157.8613 C   0  0  0  0  0  0  0  0  0  0  0  0
  151.0830  141.7798  158.7512 O   0  0  0  0  0  0  0  0  0  0  0  0
  149.8984  143.5954  158.0979 N   0  0  0  0  0  0  0  0  0  0  0  0
  149.4383  144.0182  159.4141 C   0  0  0  0  0  0  0  0  0  0  0  0
  150.5163  144.5941  160.3130 C   0  0  0  0  0  0  0  0  0  0  0  0
  151.5200  145.5961  159.7897 C   0  0  0  0  0  0  0  0  0  0  0  0
  151.9607  144.1925  160.1257 C   0  0  0  0  0  0  0  0  0  0  0  0
  151.2027  139.8612  155.7738 C   0  0  0  0  0  0  0  0  0  0  0  0
  152.3620  139.8113  156.1931 O   0  0  0  0  0  0  0  0  0  0  0  0
  150.7792  136.6940  154.7251 H   0  0  0  0  0  0  0  0  0  0  0  0
  151.6231  137.2632  156.1899 H   0  0  0  0  0  0  0  0  0  0  0  0
  152.2280  137.7206  154.5538 H   0  0  0  0  0  0  0  0  0  0  0  0
  147.5399  140.0974  154.4558 H   0  0  0  0  0  0  0  0  0  0  0  0
  148.6171  142.0132  155.4040 H   0  0  0  0  0  0  0  0  0  0  0  0
  152.1431  142.2316  156.3316 H   0  0  0  0  0  0  0  0  0  0  0  0
  150.7687  143.1486  155.7915 H   0  0  0  0  0  0  0  0  0  0  0  0
  149.6087  144.1568  157.3101 H   0  0  0  0  0  0  0  0  0  0  0  0
  148.6773  144.7845  159.2649 H   0  0  0  0  0  0  0  0  0  0  0  0
  148.9401  143.1891  159.9201 H   0  0  0  0  0  0  0  0  0  0  0  0
  150.2010  144.7218  161.3470 H   0  0  0  0  0  0  0  0  0  0  0  0
  151.4659  145.8671  158.7371 H   0  0  0  0  0  0  0  0  0  0  0  0
  151.8261  146.3958  160.4611 H   0  0  0  0  0  0  0  0  0  0  0  0
  152.5641  144.0557  161.0208 H   0  0  0  0  0  0  0  0  0  0  0  0
  152.2003  143.5305  159.2957 H   0  0  0  0  0  0  0  0  0  0  0  0
  1  2  1  0  0  0  0
  1 18  1  0  0  0  0
  1 19  1  0  0  0  0
  1 20  1  0  0  0  0
  2 16  1  0  0  0  0
  2  3  1  0  0  0  0
  3  4  2  0  0  0  0
  3  5  1  0  0  0  0
  5  6  2  0  0  0  0
  5 21  1  0  0  0  0
  6  7  1  0  0  0  0
  6 22  1  0  0  0  0
  7  8  1  0  0  0  0
  7 16  1  0  0  0  0
  8  9  1  0  0  0  0
  8 23  1  0  0  0  0
  8 24  1  0  0  0  0
  9 10  2  0  0  0  0
  9 11  1  0  0  0  0
 11 12  1  0  0  0  0
 11 25  1  0  0  0  0
 12 13  1  0  0  0  0
 12 26  1  0  0  0  0
 12 27  1  0  0  0  0
 13 15  1  0  0  0  0
 13 14  1  0  0  0  0
 13 28  1  0  0  0  0
 14 15  1  0  0  0  0
 14 29  1  0  0  0  0
 14 30  1  0  0  0  0
 15 31  1  0  0  0  0
 15 32  1  0  0  0  0
 16 17  2  0  0  0  0
M  END
> <s_m_source_file>
AV-unprocessed.smi

> <i_m_source_file_index>
2125

> <i_lp_mmshare_version>
43012

> <i_f3d_flags>
0

> <s_epik_input>
W0NIM11uMWMoPU8pW2NIXVtjSF1uKGMxPU8pW0NIMl1DKD1PKVtOSF1bQ0gyXVtDSF0yW0NIMl1bQ0gyXTI=

> <s_epik_cmdline>
J2VwaWtfcHl0aG9uJywgJy1waCcsICc3LjAnLCAnLXRuJywgJzgnLCAnLW1hJywgJzIwMCcsICctbWV0YWxfYmluZGluZycsICctaW1hZScsICc8aW5maWxlLm1hZT4nLCAnLW9tYWUnLCAnPG91dGZpbGUubWFlPic=

> <r_lp_tautomer_probability>
1

> <r_epik_Ionization_Penalty>
3.09839e-08

> <r_epik_Ionization_Penalty_Charging>
1.16822e-08

> <r_epik_Ionization_Penalty_Neutral>
1.93017e-08

> <r_epik_State_Penalty>
-0

> <r_epik_Charging_Adjusted_Penalty>
1.16822e-08

> <i_epik_Tot_Q>
0

> <i_epik_Tot_abs_Q>
0

> <r_epik_Metal_State_Penalty>
-0

> <b_epik_Metal_Only>
0

> <s_lp_Force_Field>
OPLS_2005

> <r_lp_Energy>
19.7621

> <b_lp_Chiralities_Consistent>
1

> <s_lp_Variant>
AV-unprocessed.smi:2125-1

> <Gold.Version>
5.8.1

> <Gold.Id.Protein>
6NUR|6NUR_protein|mol2

> <Gold.PLP.Fitness>
42.0180

> <Gold.PLP.PLP>
-33.8947

> <Gold.PLP.part.hbond>
-2.2730

> <Gold.PLP.part.metal>
0.0000

> <Gold.PLP.part.buried>
-5.0213

> <Gold.PLP.part.nonpolar>
-28.4084

> <Gold.PLP.part.repulsive>
2.4842

> <Gold.PLP.ligand.clash>
0.0000

> <Gold.PLP.ligand.torsion>
0.7089

> <Gold.PLP.Chemscore.Hbond>
2.0000

> <Gold.PLP.Chemscore.CHOScore>
1.0000

> <Gold.PLP.Chemscore.Metal>
0.0000

> <Gold.Chemscore.Hbonds>
donor molecule, donor type, donor heavy atom, donor atom, acceptor molecule, acceptor atom, score
      L1  H    11    25       P1  8028  1.00
      P1  H  7997  8010       L1    17  0.99
      L1  C     6    22       P1  8028  0.52

> <Gold.PLP.Chemscore.Internal.Correction>
0.5411

> <Gold.Rescore>
     Score         DG    S(hbond)    S(metal)    S(lipo)     H(rot)  DE(clash)    DE(int)     intcor
     10.91     -14.64       1.61        0.00      71.84       1.81       1.53       2.20       ----

> <Gold.Chemscore.Fitness>
10.9062

> <Gold.Chemscore.DG>
-14.6402

> <Gold.Chemscore.ZeroCoef>
-5.4800

> <Gold.Chemscore.Hbond>
1.6144

> <Gold.Chemscore.Metal>
0.0000

> <Gold.Chemscore.Lipo>
71.8353

> <Gold.Chemscore.Internal_Hbond>
0.0000

> <Gold.Chemscore.DEClash>
1.5320

> <Gold.Chemscore.DEInternal>
2.2019

> <Gold.Chemscore.Rot>
1.8112

> <Gold.Chemscore.Internal.Correction>
   9.000000E+99

> <Gold.Chemscore.Hbonds>
donor molecule, donor type, donor heavy atom, donor atom, acceptor molecule, acceptor atom, score
      L1  H    11    25       P1  8028  0.35
      P1  H  7997  8010       L1    17  0.92

> <Gold.Chemscore.Hbond.Weighted>
-5.3922

> <Gold.Chemscore.Metal.Weighted>
-0.0000

> <Gold.Chemscore.Lipo.Weighted>
-8.4047

> <Gold.Chemscore.Internal_Hbond.Weighted>
0.0000

> <Gold.Chemscore.DEClash.Weighted>
1.5320

> <Gold.Chemscore.DEInternal.Weighted>
2.2019

> <Gold.Chemscore.Rot.Weighted>
4.6367

> <Gold.Chemscore.Internal.Correction.Weighted>
   9.000000E+99

> <Gold.Protein.RotatedTorsions>
[ 6907 6896 6895 6894 ] final  -30.23 input  -60.11 | X-H torsion
[ 7974 7965 7964 7962 ] final  141.37 input  175.53 | X-H torsion
[ 8008 7997 7996 7995 ] final   90.71 input   59.86 | X-H torsion
[ 10167 10162 10161 10158 ] final -123.99 input  -65.29 | X-H torsion
[ 10718 10713 10712 10709 ] final   59.10 input   66.30 | X-H torsion
[ 10763 10752 10751 10750 ] final  -30.09 input  -60.55 | X-H torsion
[ 11005 11000 10999 10996 ] final -107.94 input  -57.11 | X-H torsion

> <Gold.Protein.ActiveResidues>
 VAL166  LYS551  ARG553  GLY616  TRP617  ASP618  TYR619  PRO620  LYS621  CYS622 
 ASP623  PHE694  ASN695  SER759  ASP760  ASP761  ALA762  ILE779  LEU786  VAL792 
 PHE793  MET794  SER795  GLU796  ALA797  LYS798  CYS799  TRP800  GLU811  SER814 

> <Gold.Protein.RotatedAtoms>
  151.1084  135.0012  159.8481 H   0  0  0  0  0  0  0  0  0  0  0  0  # atno 6907 bound_to 6896
  152.5441  134.1866  159.8667 H   0  0  0  0  0  0  0  0  0  0  0  0  # atno 6908 bound_to 6896
  151.1914  133.4620  159.2628 H   0  0  0  0  0  0  0  0  0  0  0  0  # atno 6909 bound_to 6896
  144.9102  139.5303  143.5712 H   0  0  0  0  0  0  0  0  0  0  0  0  # atno 7974 bound_to 7965
  156.0152  140.3346  155.6982 H   0  0  0  0  0  0  0  0  0  0  0  0  # atno 8008 bound_to 7997
  155.6101  140.0664  157.2726 H   0  0  0  0  0  0  0  0  0  0  0  0  # atno 8009 bound_to 7997
  154.4296  140.1795  156.1251 H   0  0  0  0  0  0  0  0  0  0  0  0  # atno 8010 bound_to 7997
  139.9976  143.5574  152.2317 H   0  0  0  0  0  0  0  0  0  0  0  0  # atno 10167 bound_to 10162
  157.5649  130.8863  149.9171 H   0  0  0  0  0  0  0  0  0  0  0  0  # atno 10718 bound_to 10713
  153.7753  135.6909  153.4898 H   0  0  0  0  0  0  0  0  0  0  0  0  # atno 10763 bound_to 10752
  153.1847  135.4493  155.0072 H   0  0  0  0  0  0  0  0  0  0  0  0  # atno 10764 bound_to 10752
  154.8102  135.3374  154.7259 H   0  0  0  0  0  0  0  0  0  0  0  0  # atno 10765 bound_to 10752
  141.0928  133.9025  157.2035 H   0  0  0  0  0  0  0  0  0  0  0  0  # atno 11005 bound_to 11000
  146.3155  139.7903  142.8987 LP  0  0  0  0  0  0  0  0  0  0  0  0  # atno 17320 bound_to 7965
  145.3466  141.0299  143.3362 LP  0  0  0  0  0  0  0  0  0  0  0  0  # atno 17321 bound_to 7965
  139.6295  144.7642  151.2567 LP  0  0  0  0  0  0  0  0  0  0  0  0  # atno 17342 bound_to 10162
  140.7431  143.6505  150.8253 LP  0  0  0  0  0  0  0  0  0  0  0  0  # atno 17343 bound_to 10162
  156.0698  130.3687  150.0800 LP  0  0  0  0  0  0  0  0  0  0  0  0  # atno 17370 bound_to 10713
  156.8960  130.9604  151.3582 LP  0  0  0  0  0  0  0  0  0  0  0  0  # atno 17371 bound_to 10713
  139.9757  135.0114  156.9626 LP  0  0  0  0  0  0  0  0  0  0  0  0  # atno 17394 bound_to 11000
  140.5212  134.0906  155.7292 LP  0  0  0  0  0  0  0  0  0  0  0  0  # atno 17395 bound_to 11000

$$$$
