AV-unprocessed.smi:2449|AV-procd|sdf|9663|dock10
  -GOLD-   2272013303D 1   1.00000     0.00000
 Structure written by MMmdl.
 37 37  0  0  0  0  0  0  0  0  1 V2000
  153.6388  141.2641  160.5913 C   0  0  0  0  0  0  0  0  0  0  0  0
  153.3103  142.3050  159.5160 C   0  0  0  0  0  0  0  0  0  0  0  0
  151.8654  142.8326  159.6335 C   0  0  0  0  0  0  0  0  0  0  0  0
  151.4014  143.7988  158.5071 C   0  0  0  0  0  0  0  0  0  0  0  0
  150.3379  144.7754  159.0467 C   0  0  0  0  0  0  0  0  0  0  0  0
  152.6016  144.6309  158.0050 C   0  0  0  0  0  0  0  0  0  0  0  0
  150.7875  143.0720  157.3880 N   0  0  0  0  0  0  0  0  0  0  0  0
  151.0158  141.8084  156.9875 C   0  0  0  0  0  0  0  0  0  0  0  0
  151.8439  141.0624  157.5111 O   0  0  0  0  0  0  0  0  0  0  0  0
  150.1784  141.3201  155.7975 C   0  0  0  0  0  0  0  0  0  0  0  0
  150.2983  139.8711  155.5792 N   0  0  0  0  0  0  0  0  0  0  0  0
  149.1653  139.0713  155.5321 C   0  0  0  0  0  0  0  0  0  0  0  0
  149.2052  137.7342  155.3212 C   0  0  0  0  0  0  0  0  0  0  0  0
  150.4814  137.0543  155.1271 C   0  0  0  0  0  0  0  0  0  0  0  0
  150.6206  135.8492  154.9312 O   0  0  0  0  0  0  0  0  0  0  0  0
  151.5978  137.8933  155.1793 N   0  0  0  0  0  0  0  0  0  0  0  0
  151.5639  139.2715  155.3960 C   0  0  0  0  0  0  0  0  0  0  0  0
  152.6099  139.9195  155.4209 O   0  0  0  0  0  0  0  0  0  0  0  0
  152.5037  137.4673  155.0470 H   0  0  0  0  0  0  0  0  0  0  0  0
  154.6625  140.9052  160.4829 H   0  0  0  0  0  0  0  0  0  0  0  0
  152.9742  140.4025  160.5219 H   0  0  0  0  0  0  0  0  0  0  0  0
  153.5387  141.6866  161.5915 H   0  0  0  0  0  0  0  0  0  0  0  0
  154.0224  143.1260  159.5990 H   0  0  0  0  0  0  0  0  0  0  0  0
  153.4687  141.8565  158.5358 H   0  0  0  0  0  0  0  0  0  0  0  0
  151.1840  141.9816  159.6728 H   0  0  0  0  0  0  0  0  0  0  0  0
  151.7586  143.3248  160.6006 H   0  0  0  0  0  0  0  0  0  0  0  0
  150.7077  145.3279  159.9112 H   0  0  0  0  0  0  0  0  0  0  0  0
  149.4262  144.2608  159.3502 H   0  0  0  0  0  0  0  0  0  0  0  0
  150.0538  145.5074  158.2895 H   0  0  0  0  0  0  0  0  0  0  0  0
  153.0088  145.2524  158.8033 H   0  0  0  0  0  0  0  0  0  0  0  0
  152.3127  145.2950  157.1895 H   0  0  0  0  0  0  0  0  0  0  0  0
  153.4165  144.0032  157.6442 H   0  0  0  0  0  0  0  0  0  0  0  0
  150.0885  143.5860  156.8717 H   0  0  0  0  0  0  0  0  0  0  0  0
  149.1291  141.5880  155.9382 H   0  0  0  0  0  0  0  0  0  0  0  0
  150.5005  141.8688  154.9115 H   0  0  0  0  0  0  0  0  0  0  0  0
  148.1970  139.5322  155.6659 H   0  0  0  0  0  0  0  0  0  0  0  0
  148.2874  137.1646  155.2945 H   0  0  0  0  0  0  0  0  0  0  0  0
  1  2  1  0  0  0  0
  1 20  1  0  0  0  0
  1 21  1  0  0  0  0
  1 22  1  0  0  0  0
  2  3  1  0  0  0  0
  2 23  1  0  0  0  0
  2 24  1  0  0  0  0
  3  4  1  0  0  0  0
  3 25  1  0  0  0  0
  3 26  1  0  0  0  0
  4  5  1  0  0  0  0
  4  6  1  0  0  0  0
  4  7  1  0  0  0  0
  5 27  1  0  0  0  0
  5 28  1  0  0  0  0
  5 29  1  0  0  0  0
  6 30  1  0  0  0  0
  6 31  1  0  0  0  0
  6 32  1  0  0  0  0
  7  8  1  0  0  0  0
  7 33  1  0  0  0  0
  8  9  2  0  0  0  0
  8 10  1  0  0  0  0
 10 11  1  0  0  0  0
 10 34  1  0  0  0  0
 10 35  1  0  0  0  0
 11 17  1  0  0  0  0
 11 12  1  0  0  0  0
 12 13  2  0  0  0  0
 12 36  1  0  0  0  0
 13 14  1  0  0  0  0
 13 37  1  0  0  0  0
 14 15  2  0  0  0  0
 14 16  1  0  0  0  0
 16 19  1  0  0  0  0
 16 17  1  0  0  0  0
 17 18  2  0  0  0  0
M  END
> <s_m_source_file>
AV-unprocessed.smi

> <i_m_source_file_index>
2449

> <i_lp_mmshare_version>
43012

> <i_f3d_flags>
0

> <s_epik_input>
W0NIM11bQ0gyXVtDSDJdQyhbQ0gzXSkoW0NIM10pW05IXUMoPU8pW0NIMl1uMVtjSF1bY0hdYyg9TylbbkhdYzE9Tw==

> <s_epik_cmdline>
J2VwaWtfcHl0aG9uJywgJy1waCcsICc3LjAnLCAnLXRuJywgJzgnLCAnLW1hJywgJzIwMCcsICctbWV0YWxfYmluZGluZycsICctaW1hZScsICc8aW5maWxlLm1hZT4nLCAnLW9tYWUnLCAnPG91dGZpbGUubWFlPic=

> <r_lp_tautomer_probability>
0.999537

> <r_epik_Ionization_Penalty>
0.00292856

> <r_epik_Ionization_Penalty_Charging>
0.00292854

> <r_epik_Ionization_Penalty_Neutral>
1.95902e-08

> <r_epik_State_Penalty>
0.00205284

> <r_epik_Charging_Adjusted_Penalty>
0.00498138

> <i_epik_Tot_Q>
0

> <i_epik_Tot_abs_Q>
0

> <r_epik_Metal_State_Penalty>
0.360056

> <b_epik_Metal_Only>
0

> <s_lp_Force_Field>
OPLS_2005

> <r_lp_Energy>
5.67084

> <b_lp_Chiralities_Consistent>
1

> <s_lp_Variant>
AV-unprocessed.smi:2449-1

> <Gold.Version>
5.8.1

> <Gold.Id.Protein>
6NUR|6NUR_protein|mol2

> <Gold.PLP.Fitness>
43.7105

> <Gold.PLP.PLP>
-37.1373

> <Gold.PLP.part.hbond>
-3.9728

> <Gold.PLP.part.metal>
0.0000

> <Gold.PLP.part.buried>
-1.4432

> <Gold.PLP.part.nonpolar>
-31.9914

> <Gold.PLP.part.repulsive>
0.3428

> <Gold.PLP.ligand.clash>
0.0000

> <Gold.PLP.ligand.torsion>
1.2187

> <Gold.PLP.Chemscore.Hbond>
2.9913

> <Gold.PLP.Chemscore.CHOScore>
0.0000

> <Gold.PLP.Chemscore.Metal>
0.0000

> <Gold.Chemscore.Hbonds>
donor molecule, donor type, donor heavy atom, donor atom, acceptor molecule, acceptor atom, score
      L1  H     7    33       P1  8028  0.98
      P1  H  7989  7998       L1    18  0.01
      P1  H  7997  8008       L1    18  1.00
      P1  H 10752 10765       L1    15  0.18

> <Gold.PLP.Chemscore.Internal.Correction>
0.0370

> <Gold.Rescore>
     Score         DG    S(hbond)    S(metal)    S(lipo)     H(rot)  DE(clash)    DE(int)     intcor
      9.04     -19.14       2.81        0.00      83.25       2.14       1.76       8.34       ----

> <Gold.Chemscore.Fitness>
9.0441

> <Gold.Chemscore.DG>
-19.1440

> <Gold.Chemscore.ZeroCoef>
-5.4800

> <Gold.Chemscore.Hbond>
2.8147

> <Gold.Chemscore.Metal>
0.0000

> <Gold.Chemscore.Lipo>
83.2542

> <Gold.Chemscore.Internal_Hbond>
0.0000

> <Gold.Chemscore.DEClash>
1.7582

> <Gold.Chemscore.DEInternal>
8.3417

> <Gold.Chemscore.Rot>
2.1397

> <Gold.Chemscore.Internal.Correction>
   9.000000E+99

> <Gold.Chemscore.Hbonds>
donor molecule, donor type, donor heavy atom, donor atom, acceptor molecule, acceptor atom, score
      L1  H     7    33       P1  8028  0.92
      P1  H  7997  8008       L1    18  1.00
      P1  H 10752 10765       L1    15  0.09

> <Gold.Chemscore.Hbond.Weighted>
-9.4010

> <Gold.Chemscore.Metal.Weighted>
-0.0000

> <Gold.Chemscore.Lipo.Weighted>
-9.7407

> <Gold.Chemscore.Internal_Hbond.Weighted>
0.0000

> <Gold.Chemscore.DEClash.Weighted>
1.7582

> <Gold.Chemscore.DEInternal.Weighted>
8.3417

> <Gold.Chemscore.Rot.Weighted>
5.4777

> <Gold.Chemscore.Internal.Correction.Weighted>
   9.000000E+99

> <Gold.Protein.RotatedTorsions>
[ 6907 6896 6895 6894 ] final   14.64 input  -60.11 | X-H torsion
[ 7974 7965 7964 7962 ] final  -69.96 input  175.53 | X-H torsion
[ 8008 7997 7996 7995 ] final  -19.79 input   59.86 | X-H torsion
[ 10167 10162 10161 10158 ] final  100.99 input  -65.29 | X-H torsion
[ 10718 10713 10712 10709 ] final -105.77 input   66.30 | X-H torsion
[ 10763 10752 10751 10750 ] final  170.51 input  -60.55 | X-H torsion
[ 11005 11000 10999 10996 ] final   45.20 input  -57.11 | X-H torsion

> <Gold.Protein.ActiveResidues>
 VAL166  LYS551  ARG553  GLY616  TRP617  ASP618  TYR619  PRO620  LYS621  CYS622 
 ASP623  PHE694  ASN695  SER759  ASP760  ASP761  ALA762  ILE779  LEU786  VAL792 
 PHE793  MET794  SER795  GLU796  ALA797  LYS798  CYS799  TRP800  GLU811  SER814 

> <Gold.Protein.RotatedAtoms>
  151.8055  135.0696  160.0405 H   0  0  0  0  0  0  0  0  0  0  0  0  # atno 6907 bound_to 6896
  152.3058  133.5697  159.5656 H   0  0  0  0  0  0  0  0  0  0  0  0  # atno 6908 bound_to 6896
  150.7295  134.0141  159.3721 H   0  0  0  0  0  0  0  0  0  0  0  0  # atno 6909 bound_to 6896
  145.6971  140.9131  143.0751 H   0  0  0  0  0  0  0  0  0  0  0  0  # atno 7974 bound_to 7965
  154.4813  140.2079  155.9757 H   0  0  0  0  0  0  0  0  0  0  0  0  # atno 8008 bound_to 7997
  156.1169  140.3220  155.8122 H   0  0  0  0  0  0  0  0  0  0  0  0  # atno 8009 bound_to 7997
  155.4536  140.0519  157.2989 H   0  0  0  0  0  0  0  0  0  0  0  0  # atno 8010 bound_to 7997
  139.7477  144.6993  151.0479 H   0  0  0  0  0  0  0  0  0  0  0  0  # atno 10167 bound_to 10162
  156.0360  130.5580  150.7586 H   0  0  0  0  0  0  0  0  0  0  0  0  # atno 10718 bound_to 10713
  154.3987  135.2755  155.2110 H   0  0  0  0  0  0  0  0  0  0  0  0  # atno 10763 bound_to 10752
  154.4145  135.6014  153.5976 H   0  0  0  0  0  0  0  0  0  0  0  0  # atno 10764 bound_to 10752
  152.9831  135.5957  154.4252 H   0  0  0  0  0  0  0  0  0  0  0  0  # atno 10765 bound_to 10752
  140.1481  134.4496  155.8401 H   0  0  0  0  0  0  0  0  0  0  0  0  # atno 11005 bound_to 11000
  144.6979  139.8898  143.7452 LP  0  0  0  0  0  0  0  0  0  0  0  0  # atno 17320 bound_to 7965
  146.0831  139.3819  143.0452 LP  0  0  0  0  0  0  0  0  0  0  0  0  # atno 17321 bound_to 7965
  140.7794  143.4846  150.9972 LP  0  0  0  0  0  0  0  0  0  0  0  0  # atno 17342 bound_to 10162
  139.8534  143.7408  152.3177 LP  0  0  0  0  0  0  0  0  0  0  0  0  # atno 17343 bound_to 10162
  157.5111  131.0925  151.0197 LP  0  0  0  0  0  0  0  0  0  0  0  0  # atno 17370 bound_to 10713
  157.0552  130.5803  149.5376 LP  0  0  0  0  0  0  0  0  0  0  0  0  # atno 17371 bound_to 10713
  141.2195  133.6861  156.7372 LP  0  0  0  0  0  0  0  0  0  0  0  0  # atno 17394 bound_to 11000
  140.2638  134.8446  157.3783 LP  0  0  0  0  0  0  0  0  0  0  0  0  # atno 17395 bound_to 11000

$$$$
