AV-unprocessed.smi:2304|AV-procd|sdf|9244|dock4
  -GOLD-   2272012463D 1   1.00000     0.00000
 Structure written by MMmdl.
 37 38  0  0  0  0  0  0  0  0  1 V2000
  151.5959  138.2592  155.1185 C   0  0  0  0  0  0  0  0  0  0  0  0
  150.9527  139.2891  154.3890 O   0  0  0  0  0  0  0  0  0  0  0  0
  149.8152  139.8057  155.0609 C   0  0  0  0  0  0  0  0  0  0  0  0
  149.4676  141.2085  154.5325 C   0  0  2  0  0  0  0  0  0  0  0  0
  149.5174  142.1480  155.6490 N   0  0  0  0  0  0  0  0  0  0  0  0
  150.4593  142.1763  156.6031 C   0  0  0  0  0  0  0  0  0  0  0  0
  151.4038  141.3877  156.6509 O   0  0  0  0  0  0  0  0  0  0  0  0
  150.2298  143.1688  157.4810 N   0  0  0  0  0  0  0  0  0  0  0  0
  150.9962  143.5262  158.6223 C   0  0  0  0  0  0  0  0  0  0  0  0
  150.8817  144.8769  159.0220 C   0  0  0  0  0  0  0  0  0  0  0  0
  151.6020  145.3308  160.1438 C   0  0  0  0  0  0  0  0  0  0  0  0
  152.4193  144.4219  160.8392 C   0  0  0  0  0  0  0  0  0  0  0  0
  152.4778  143.0930  160.3756 C   0  0  0  0  0  0  0  0  0  0  0  0
  153.3382  142.0611  161.0741 C   0  0  0  0  0  0  0  0  0  0  0  0
  151.7879  142.6576  159.2995 N   0  0  0  0  0  0  0  0  0  0  0  0
  148.1374  141.2231  153.7934 C   0  0  0  0  0  0  0  0  0  0  0  0
  147.0895  142.2761  154.0707 C   0  0  0  0  0  0  0  0  0  0  0  0
  146.8495  140.8434  154.4864 C   0  0  0  0  0  0  0  0  0  0  0  0
  152.4590  137.8996  154.5583 H   0  0  0  0  0  0  0  0  0  0  0  0
  150.9258  137.4144  155.2834 H   0  0  0  0  0  0  0  0  0  0  0  0
  151.9487  138.6213  156.0850 H   0  0  0  0  0  0  0  0  0  0  0  0
  148.9699  139.1322  154.9086 H   0  0  0  0  0  0  0  0  0  0  0  0
  150.0070  139.8491  156.1345 H   0  0  0  0  0  0  0  0  0  0  0  0
  150.2455  141.4788  153.8152 H   0  0  0  0  0  0  0  0  0  0  0  0
  148.7789  142.8347  155.6926 H   0  0  0  0  0  0  0  0  0  0  0  0
  149.4126  143.7362  157.3124 H   0  0  0  0  0  0  0  0  0  0  0  0
  150.2490  145.5625  158.4769 H   0  0  0  0  0  0  0  0  0  0  0  0
  151.5280  146.3594  160.4645 H   0  0  0  0  0  0  0  0  0  0  0  0
  152.9844  144.7387  161.7034 H   0  0  0  0  0  0  0  0  0  0  0  0
  153.7665  142.4600  161.9942 H   0  0  0  0  0  0  0  0  0  0  0  0
  154.1562  141.7488  160.4243 H   0  0  0  0  0  0  0  0  0  0  0  0
  152.7463  141.1816  161.3292 H   0  0  0  0  0  0  0  0  0  0  0  0
  148.2207  140.9117  152.7538 H   0  0  0  0  0  0  0  0  0  0  0  0
  147.2906  142.9988  154.8592 H   0  0  0  0  0  0  0  0  0  0  0  0
  146.5245  142.6566  153.2223 H   0  0  0  0  0  0  0  0  0  0  0  0
  146.1246  140.2668  153.9156 H   0  0  0  0  0  0  0  0  0  0  0  0
  146.8879  140.6210  155.5509 H   0  0  0  0  0  0  0  0  0  0  0  0
  1  2  1  0  0  0  0
  1 19  1  0  0  0  0
  1 20  1  0  0  0  0
  1 21  1  0  0  0  0
  2  3  1  0  0  0  0
  3  4  1  0  0  0  0
  3 22  1  0  0  0  0
  3 23  1  0  0  0  0
  4  5  1  0  0  0  0
  4 16  1  0  0  0  0
  4 24  1  0  0  0  0
  5  6  1  0  0  0  0
  5 25  1  0  0  0  0
  6  7  2  0  0  0  0
  6  8  1  0  0  0  0
  8  9  1  0  0  0  0
  8 26  1  0  0  0  0
  9 15  1  0  0  0  0
  9 10  2  0  0  0  0
 10 11  1  0  0  0  0
 10 27  1  0  0  0  0
 11 12  2  0  0  0  0
 11 28  1  0  0  0  0
 12 13  1  0  0  0  0
 12 29  1  0  0  0  0
 13 14  1  0  0  0  0
 13 15  2  0  0  0  0
 14 30  1  0  0  0  0
 14 31  1  0  0  0  0
 14 32  1  0  0  0  0
 16 18  1  0  0  0  0
 16 17  1  0  0  0  0
 16 33  1  0  0  0  0
 17 18  1  0  0  0  0
 17 34  1  0  0  0  0
 17 35  1  0  0  0  0
 18 36  1  0  0  0  0
 18 37  1  0  0  0  0
M  END
> <s_m_source_file>
AV-unprocessed.smi

> <i_m_source_file_index>
2304

> <i_lp_mmshare_version>
43012

> <i_f3d_flags>
0

> <s_epik_input>
W0NIM11PW0NIMl1bQ0BASF0oW0NIXTFbQ0gyXVtDSDJdMSlbTkhdQyg9TylbTkhdYzJbY0hdW2NIXVtjSF1jKG4yKVtDSDNd

> <s_epik_cmdline>
J2VwaWtfcHl0aG9uJywgJy1waCcsICc3LjAnLCAnLXRuJywgJzgnLCAnLW1hJywgJzIwMCcsICctbWV0YWxfYmluZGluZycsICctaW1hZScsICc8aW5maWxlLm1hZT4nLCAnLW9tYWUnLCAnPG91dGZpbGUubWFlPic=

> <r_lp_tautomer_probability>
1

> <r_epik_Ionization_Penalty>
8.58396e-05

> <r_epik_Ionization_Penalty_Charging>
0

> <r_epik_Ionization_Penalty_Neutral>
8.58396e-05

> <r_epik_State_Penalty>
-0

> <r_epik_Charging_Adjusted_Penalty>
0

> <i_epik_Tot_Q>
0

> <i_epik_Tot_abs_Q>
0

> <r_epik_Metal_State_Penalty>
-0

> <b_epik_Metal_Only>
0

> <s_lp_Force_Field>
OPLS_2005

> <r_lp_Energy>
16.2574

> <b_lp_Chiralities_Consistent>
1

> <s_lp_Variant>
AV-unprocessed.smi:2304-1

> <Gold.Version>
5.8.1

> <Gold.Id.Protein>
6NUR|6NUR_protein|mol2

> <Gold.PLP.Fitness>
45.7523

> <Gold.PLP.PLP>
-41.6108

> <Gold.PLP.part.hbond>
-3.0000

> <Gold.PLP.part.metal>
0.0000

> <Gold.PLP.part.buried>
-4.3227

> <Gold.PLP.part.nonpolar>
-33.9984

> <Gold.PLP.part.repulsive>
0.3483

> <Gold.PLP.ligand.clash>
0.0536

> <Gold.PLP.ligand.torsion>
1.8577

> <Gold.PLP.Chemscore.Hbond>
2.2800

> <Gold.PLP.Chemscore.CHOScore>
0.0000

> <Gold.PLP.Chemscore.Metal>
0.0000

> <Gold.Chemscore.Hbonds>
donor molecule, donor type, donor heavy atom, donor atom, acceptor molecule, acceptor atom, score
      L1  H     5    25       P1  8028  0.61
      L1  H     8    26       P1  8028  0.59
      P1  H  7989  7998       L1     2  1.00

> <Gold.PLP.Chemscore.Internal.Correction>
1.0706

> <Gold.Rescore>
     Score         DG    S(hbond)    S(metal)    S(lipo)     H(rot)  DE(clash)    DE(int)     intcor
     12.52     -17.33       1.31        0.00      99.09       1.61       0.16       4.65       ----

> <Gold.Chemscore.Fitness>
12.5231

> <Gold.Chemscore.DG>
-17.3294

> <Gold.Chemscore.ZeroCoef>
-5.4800

> <Gold.Chemscore.Hbond>
1.3138

> <Gold.Chemscore.Metal>
0.0000

> <Gold.Chemscore.Lipo>
99.0916

> <Gold.Chemscore.Internal_Hbond>
0.0000

> <Gold.Chemscore.DEClash>
0.1611

> <Gold.Chemscore.DEInternal>
4.6452

> <Gold.Chemscore.Rot>
1.6142

> <Gold.Chemscore.Internal.Correction>
   9.000000E+99

> <Gold.Chemscore.Hbonds>
donor molecule, donor type, donor heavy atom, donor atom, acceptor molecule, acceptor atom, score
      L1  H     5    25       P1  8028  0.60
      L1  H     8    26       P1  8028  0.32
      P1  H  7989  7998       L1     2  0.34

> <Gold.Chemscore.Hbond.Weighted>
-4.3880

> <Gold.Chemscore.Metal.Weighted>
-0.0000

> <Gold.Chemscore.Lipo.Weighted>
-11.5937

> <Gold.Chemscore.Internal_Hbond.Weighted>
0.0000

> <Gold.Chemscore.DEClash.Weighted>
0.1611

> <Gold.Chemscore.DEInternal.Weighted>
4.6452

> <Gold.Chemscore.Rot.Weighted>
4.1323

> <Gold.Chemscore.Internal.Correction.Weighted>
   9.000000E+99

> <Gold.Protein.RotatedTorsions>
[ 6907 6896 6895 6894 ] final -126.31 input  -60.11 | X-H torsion
[ 7974 7965 7964 7962 ] final   94.92 input  175.53 | X-H torsion
[ 8008 7997 7996 7995 ] final  -60.84 input   59.86 | X-H torsion
[ 10167 10162 10161 10158 ] final -116.16 input  -65.29 | X-H torsion
[ 10718 10713 10712 10709 ] final -160.90 input   66.30 | X-H torsion
[ 10763 10752 10751 10750 ] final -173.15 input  -60.55 | X-H torsion
[ 11005 11000 10999 10996 ] final   63.50 input  -57.11 | X-H torsion

> <Gold.Protein.ActiveResidues>
 VAL166  LYS551  ARG553  GLY616  TRP617  ASP618  TYR619  PRO620  LYS621  CYS622 
 ASP623  PHE694  ASN695  SER759  ASP760  ASP761  ALA762  ILE779  LEU786  VAL792 
 PHE793  MET794  SER795  GLU796  ALA797  LYS798  CYS799  TRP800  GLU811  SER814 

> <Gold.Protein.RotatedAtoms>
  150.8956  133.7185  159.2892 H   0  0  0  0  0  0  0  0  0  0  0  0  # atno 6907 bound_to 6896
  151.4721  135.1045  159.9764 H   0  0  0  0  0  0  0  0  0  0  0  0  # atno 6908 bound_to 6896
  152.4846  133.8293  159.7150 H   0  0  0  0  0  0  0  0  0  0  0  0  # atno 6909 bound_to 6896
  145.4591  139.2288  143.2997 H   0  0  0  0  0  0  0  0  0  0  0  0  # atno 7974 bound_to 7965
  154.4418  140.1030  156.6338 H   0  0  0  0  0  0  0  0  0  0  0  0  # atno 8008 bound_to 7997
  155.5576  140.3487  155.4465 H   0  0  0  0  0  0  0  0  0  0  0  0  # atno 8009 bound_to 7997
  156.0483  140.1298  157.0068 H   0  0  0  0  0  0  0  0  0  0  0  0  # atno 8010 bound_to 7997
  140.0823  143.4776  152.1919 H   0  0  0  0  0  0  0  0  0  0  0  0  # atno 10167 bound_to 10162
  156.5886  130.8760  151.2884 H   0  0  0  0  0  0  0  0  0  0  0  0  # atno 10718 bound_to 10713
  154.6111  135.2864  155.0431 H   0  0  0  0  0  0  0  0  0  0  0  0  # atno 10763 bound_to 10752
  154.1660  135.6480  153.5001 H   0  0  0  0  0  0  0  0  0  0  0  0  # atno 10764 bound_to 10752
  153.0195  135.5389  154.6865 H   0  0  0  0  0  0  0  0  0  0  0  0  # atno 10765 bound_to 10752
  140.0020  134.6427  155.9915 H   0  0  0  0  0  0  0  0  0  0  0  0  # atno 11005 bound_to 11000
  146.2461  140.5358  142.8913 LP  0  0  0  0  0  0  0  0  0  0  0  0  # atno 17320 bound_to 7965
  144.8014  140.6220  143.6476 LP  0  0  0  0  0  0  0  0  0  0  0  0  # atno 17321 bound_to 7965
  139.5772  144.7493  151.3733 LP  0  0  0  0  0  0  0  0  0  0  0  0  # atno 17342 bound_to 10162
  140.7071  143.7485  150.7502 LP  0  0  0  0  0  0  0  0  0  0  0  0  # atno 17343 bound_to 10162
  157.7309  130.9692  150.1855 LP  0  0  0  0  0  0  0  0  0  0  0  0  # atno 17370 bound_to 10713
  156.2569  130.3706  149.8172 LP  0  0  0  0  0  0  0  0  0  0  0  0  # atno 17371 bound_to 10713
  141.1649  133.6537  156.4446 LP  0  0  0  0  0  0  0  0  0  0  0  0  # atno 17394 bound_to 11000
  140.4710  134.6754  157.5129 LP  0  0  0  0  0  0  0  0  0  0  0  0  # atno 17395 bound_to 11000

$$$$
