AV-unprocessed.smi:777|AV-procd|sdf|3701|dock8
  -GOLD-   22720 1123D 1   1.00000     0.00000
 Structure written by MMmdl.
 37 38  0  0  0  0  0  0  0  0  2 V2000
  151.8680  145.2659  159.0186 C   0  0  0  0  0  0  0  0  0  0  0  0
  152.1604  143.7528  159.1042 C   0  0  2  0  0  0  0  0  0  0  0  0
  151.0347  142.8965  158.5042 C   0  0  0  0  0  0  0  0  0  0  0  0
  149.8764  143.0409  158.8944 O   0  0  0  0  0  0  0  0  0  0  0  0
  151.4296  142.0124  157.5678 N   0  0  0  0  0  0  0  0  0  0  0  0
  150.7085  140.9741  156.8153 C   0  0  0  0  0  0  0  0  0  0  0  0
  151.8046  139.9526  156.4156 C   0  0  0  0  0  0  0  0  0  0  0  0
  152.5318  139.4859  157.3208 O   0  0  0  0  0  0  0  0  0  0  0  0
  151.9394  139.6871  155.1998 O   0  5  0  0  0  0  0  0  0  0  0  0
  149.5482  140.2798  157.5986 C   0  0  0  0  0  0  0  0  0  0  0  0
  148.7241  139.3103  156.7287 C   0  0  0  0  0  0  0  0  0  0  0  0
  148.1529  140.0237  155.4947 C   0  0  0  0  0  0  0  0  0  0  0  0
  149.2640  140.7050  154.6829 C   0  0  0  0  0  0  0  0  0  0  0  0
  150.0941  141.6614  155.5622 C   0  0  0  0  0  0  0  0  0  0  0  0
  152.4532  143.3052  160.4624 N   0  0  0  0  0  0  0  0  0  0  0  0
  152.2065  143.9765  161.6436 C   0  0  0  0  0  0  0  0  0  0  0  0
  152.6926  143.2100  162.6633 C   0  0  0  0  0  0  0  0  0  0  0  0
  153.2443  142.0790  162.0008 C   0  0  0  0  0  0  0  0  0  0  0  0
  153.1087  142.1419  160.6865 N   0  0  0  0  0  0  0  0  0  0  0  0
  151.7171  145.5766  157.9844 H   0  0  0  0  0  0  0  0  0  0  0  0
  152.7024  145.8455  159.4143 H   0  0  0  0  0  0  0  0  0  0  0  0
  150.9754  145.5464  159.5794 H   0  0  0  0  0  0  0  0  0  0  0  0
  153.0598  143.5722  158.5129 H   0  0  0  0  0  0  0  0  0  0  0  0
  152.4199  142.0231  157.3723 H   0  0  0  0  0  0  0  0  0  0  0  0
  149.9221  139.7520  158.4771 H   0  0  0  0  0  0  0  0  0  0  0  0
  148.8588  141.0372  157.9732 H   0  0  0  0  0  0  0  0  0  0  0  0
  149.3387  138.4658  156.4154 H   0  0  0  0  0  0  0  0  0  0  0  0
  147.9099  138.8894  157.3192 H   0  0  0  0  0  0  0  0  0  0  0  0
  147.6152  139.3121  154.8678 H   0  0  0  0  0  0  0  0  0  0  0  0
  147.4235  140.7703  155.8114 H   0  0  0  0  0  0  0  0  0  0  0  0
  149.9097  139.9477  154.2372 H   0  0  0  0  0  0  0  0  0  0  0  0
  148.8257  141.2570  153.8512 H   0  0  0  0  0  0  0  0  0  0  0  0
  149.4478  142.4782  155.8875 H   0  0  0  0  0  0  0  0  0  0  0  0
  150.8673  142.1340  154.9546 H   0  0  0  0  0  0  0  0  0  0  0  0
  151.7135  144.9376  161.6589 H   0  0  0  0  0  0  0  0  0  0  0  0
  152.6675  143.4297  163.7201 H   0  0  0  0  0  0  0  0  0  0  0  0
  153.7415  141.2229  162.4323 H   0  0  0  0  0  0  0  0  0  0  0  0
  1  2  1  0  0  0  0
  1 20  1  0  0  0  0
  1 21  1  0  0  0  0
  1 22  1  0  0  0  0
  2  3  1  0  0  0  0
  2 15  1  0  0  0  0
  2 23  1  0  0  0  0
  3  4  2  0  0  0  0
  3  5  1  0  0  0  0
  5  6  1  0  0  0  0
  5 24  1  0  0  0  0
  6 14  1  0  0  0  0
  6  7  1  0  0  0  0
  6 10  1  0  0  0  0
  7  8  2  0  0  0  0
  7  9  1  0  0  0  0
 10 11  1  0  0  0  0
 10 25  1  0  0  0  0
 10 26  1  0  0  0  0
 11 12  1  0  0  0  0
 11 27  1  0  0  0  0
 11 28  1  0  0  0  0
 12 13  1  0  0  0  0
 12 29  1  0  0  0  0
 12 30  1  0  0  0  0
 13 14  1  0  0  0  0
 13 31  1  0  0  0  0
 13 32  1  0  0  0  0
 14 33  1  0  0  0  0
 14 34  1  0  0  0  0
 15 19  1  0  0  0  0
 15 16  1  0  0  0  0
 16 17  2  0  0  0  0
 16 35  1  0  0  0  0
 17 18  1  0  0  0  0
 17 36  1  0  0  0  0
 18 19  2  0  0  0  0
 18 37  1  0  0  0  0
M  CHG  1   9  -1
M  END
> <s_m_source_file>
AV-unprocessed.smi

> <i_m_source_file_index>
777

> <i_lp_mmshare_version>
43012

> <i_f3d_flags>
0

> <s_epik_input>
bjFbY0hdW2NIXVtjSF1uMVtDQEhdKFtDSDNdKUMoPU8pW05IXUMyKEMoPU8pW09IXSlbQ0gyXVtDSDJdW0NIMl1bQ0gyXVtDSDJdMg==

> <s_epik_cmdline>
J2VwaWtfcHl0aG9uJywgJy1waCcsICc3LjAnLCAnLXRuJywgJzgnLCAnLW1hJywgJzIwMCcsICctbWV0YWxfYmluZGluZycsICctaW1hZScsICc8aW5maWxlLm1hZT4nLCAnLW9tYWUnLCAnPG91dGZpbGUubWFlPic=

> <r_lp_tautomer_probability>
1

> <r_epik_Ionization_Penalty>
0.000371068

> <r_epik_Ionization_Penalty_Charging>
0.000323848

> <r_epik_Ionization_Penalty_Neutral>
4.72198e-05

> <r_epik_State_Penalty>
0.000195685

> <r_epik_Charging_Adjusted_Penalty>
0.000519533

> <i_epik_Tot_Q>
-1

> <i_epik_Tot_abs_Q>
1

> <r_epik_Metal_State_Penalty>
-0

> <b_epik_Metal_Only>
0

> <s_lp_Force_Field>
OPLS_2005

> <r_lp_Energy>
8.44032

> <b_lp_Chiralities_Consistent>
1

> <s_lp_Variant>
AV-unprocessed.smi:777-1

> <Gold.Version>
5.8.1

> <Gold.Id.Protein>
6NUR|6NUR_protein|mol2

> <Gold.PLP.Fitness>
50.2709

> <Gold.PLP.PLP>
-43.9593

> <Gold.PLP.part.hbond>
-2.7452

> <Gold.PLP.part.metal>
0.0000

> <Gold.PLP.part.buried>
-6.4320

> <Gold.PLP.part.nonpolar>
-33.5694

> <Gold.PLP.part.repulsive>
0.1914

> <Gold.PLP.ligand.clash>
0.0000

> <Gold.PLP.ligand.torsion>
1.2929

> <Gold.PLP.Chemscore.Hbond>
2.9120

> <Gold.PLP.Chemscore.CHOScore>
0.0000

> <Gold.PLP.Chemscore.Metal>
0.0000

> <Gold.Chemscore.Hbonds>
donor molecule, donor type, donor heavy atom, donor atom, acceptor molecule, acceptor atom, score
      P1  H  7989  7998       L1     9  0.81
      P1  H  7997  8008       L1     8  1.05

> <Gold.PLP.Chemscore.Internal.Correction>
0.1614

> <Gold.Rescore>
     Score         DG    S(hbond)    S(metal)    S(lipo)     H(rot)  DE(clash)    DE(int)     intcor
     15.43     -17.80       1.96        0.00      92.76       1.98       0.13       2.24       ----

> <Gold.Chemscore.Fitness>
15.4299

> <Gold.Chemscore.DG>
-17.8013

> <Gold.Chemscore.ZeroCoef>
-5.4800

> <Gold.Chemscore.Hbond>
1.9552

> <Gold.Chemscore.Metal>
0.0000

> <Gold.Chemscore.Lipo>
92.7600

> <Gold.Chemscore.Internal_Hbond>
0.0000

> <Gold.Chemscore.DEClash>
0.1315

> <Gold.Chemscore.DEInternal>
2.2400

> <Gold.Chemscore.Rot>
1.9774

> <Gold.Chemscore.Internal.Correction>
   9.000000E+99

> <Gold.Chemscore.Hbonds>
donor molecule, donor type, donor heavy atom, donor atom, acceptor molecule, acceptor atom, score
      P1  H  7989  7998       L1     9  0.78
      P1  H  7997  8008       L1     8  0.05

> <Gold.Chemscore.Hbond.Weighted>
-6.5304

> <Gold.Chemscore.Metal.Weighted>
-0.0000

> <Gold.Chemscore.Lipo.Weighted>
-10.8529

> <Gold.Chemscore.Internal_Hbond.Weighted>
0.0000

> <Gold.Chemscore.DEClash.Weighted>
0.1315

> <Gold.Chemscore.DEInternal.Weighted>
2.2400

> <Gold.Chemscore.Rot.Weighted>
5.0620

> <Gold.Chemscore.Internal.Correction.Weighted>
   9.000000E+99

> <Gold.Protein.RotatedTorsions>
[ 6907 6896 6895 6894 ] final -174.26 input  -60.11 | X-H torsion
[ 7974 7965 7964 7962 ] final   89.83 input  175.53 | X-H torsion
[ 8008 7997 7996 7995 ] final  -43.84 input   59.86 | X-H torsion
[ 10167 10162 10161 10158 ] final -167.29 input  -65.29 | X-H torsion
[ 10718 10713 10712 10709 ] final -120.58 input   66.30 | X-H torsion
[ 10763 10752 10751 10750 ] final -156.92 input  -60.55 | X-H torsion
[ 11005 11000 10999 10996 ] final   96.51 input  -57.11 | X-H torsion

> <Gold.Protein.ActiveResidues>
 VAL166  LYS551  ARG553  GLY616  TRP617  ASP618  TYR619  PRO620  LYS621  CYS622 
 ASP623  PHE694  ASN695  SER759  ASP760  ASP761  ALA762  ILE779  LEU786  VAL792 
 PHE793  MET794  SER795  GLU796  ALA797  LYS798  CYS799  TRP800  GLU811  SER814 

> <Gold.Protein.RotatedAtoms>
  151.5694  133.3392  159.2986 H   0  0  0  0  0  0  0  0  0  0  0  0  # atno 6907 bound_to 6896
  150.8376  134.7658  159.6917 H   0  0  0  0  0  0  0  0  0  0  0  0  # atno 6908 bound_to 6896
  152.4450  134.5521  159.9921 H   0  0  0  0  0  0  0  0  0  0  0  0  # atno 6909 bound_to 6896
  145.5271  139.2281  143.2639 H   0  0  0  0  0  0  0  0  0  0  0  0  # atno 7974 bound_to 7965
  154.3997  140.1437  156.3584 H   0  0  0  0  0  0  0  0  0  0  0  0  # atno 8008 bound_to 7997
  155.8203  140.3469  155.5489 H   0  0  0  0  0  0  0  0  0  0  0  0  # atno 8009 bound_to 7997
  155.8294  140.0910  157.1792 H   0  0  0  0  0  0  0  0  0  0  0  0  # atno 8010 bound_to 7997
  139.6059  144.0914  152.1792 H   0  0  0  0  0  0  0  0  0  0  0  0  # atno 10167 bound_to 10162
  156.1269  130.6366  150.9558 H   0  0  0  0  0  0  0  0  0  0  0  0  # atno 10718 bound_to 10713
  154.7676  135.3135  154.8255 H   0  0  0  0  0  0  0  0  0  0  0  0  # atno 10763 bound_to 10752
  153.8999  135.6817  153.4760 H   0  0  0  0  0  0  0  0  0  0  0  0  # atno 10764 bound_to 10752
  153.1284  135.4791  154.9243 H   0  0  0  0  0  0  0  0  0  0  0  0  # atno 10765 bound_to 10752
  139.8781  134.8954  156.4170 H   0  0  0  0  0  0  0  0  0  0  0  0  # atno 11005 bound_to 11000
  146.2068  140.6086  142.9077 LP  0  0  0  0  0  0  0  0  0  0  0  0  # atno 17320 bound_to 7965
  144.7645  140.5499  143.6712 LP  0  0  0  0  0  0  0  0  0  0  0  0  # atno 17321 bound_to 7965
  140.0521  144.5924  150.7328 LP  0  0  0  0  0  0  0  0  0  0  0  0  # atno 17342 bound_to 10162
  140.7284  143.2661  151.4039 LP  0  0  0  0  0  0  0  0  0  0  0  0  # atno 17343 bound_to 10162
  157.6450  131.0905  150.8172 LP  0  0  0  0  0  0  0  0  0  0  0  0  # atno 17370 bound_to 10713
  156.8261  130.5000  149.5337 LP  0  0  0  0  0  0  0  0  0  0  0  0  # atno 17371 bound_to 10713
  140.9160  133.7678  155.9849 LP  0  0  0  0  0  0  0  0  0  0  0  0  # atno 17394 bound_to 11000
  140.8493  134.2973  157.5282 LP  0  0  0  0  0  0  0  0  0  0  0  0  # atno 17395 bound_to 11000

$$$$
