AV-unprocessed.smi:2681|AV-procd|sdf|10373|dock5
  -GOLD-   2272014403D 1   1.00000     0.00000
 Structure written by MMmdl.
 42 43  0  0  0  0  0  0  0  0  1 V2000
  144.0121  145.4328  153.2371 N   0  0  0  0  0  0  0  0  0  0  0  0
  144.5307  144.5557  153.7852 C   0  0  0  0  0  0  0  0  0  0  0  0
  145.1838  143.4509  154.4748 C   0  0  0  0  0  0  0  0  0  0  0  0
  146.4036  142.9506  153.9729 C   0  0  0  0  0  0  0  0  0  0  0  0
  147.0469  141.8927  154.6465 C   0  0  0  0  0  0  0  0  0  0  0  0
  148.3175  141.3885  154.1465 C   0  0  0  0  0  0  0  0  0  0  0  0
  149.3280  140.9882  153.7496 N   0  0  0  0  0  0  0  0  0  0  0  0
  146.4236  141.3747  155.8065 C   0  0  0  0  0  0  0  0  0  0  0  0
  147.1349  140.0640  156.7636 S   0  0  0  0  0  0  0  0  0  0  0  0
  148.4672  140.8071  157.7535 C   0  0  0  0  0  0  0  0  0  0  0  0
  149.6022  141.3647  156.8832 C   0  0  0  0  0  0  0  0  0  0  0  0
  150.8372  141.2277  157.5717 O   0  0  0  0  0  0  0  0  0  0  0  0
  151.1178  142.2437  158.5260 C   0  0  0  0  0  0  0  0  0  0  0  0
  151.0957  143.6204  157.8236 C   0  0  0  0  0  0  0  0  0  0  0  0
  151.8780  144.7616  158.4983 C   0  0  0  0  0  0  0  0  0  0  0  0
  151.7960  144.8051  160.0323 C   0  0  0  0  0  0  0  0  0  0  0  0
  152.8644  143.9286  160.7072 C   0  0  0  0  0  0  0  0  0  0  0  0
  152.6118  142.4173  160.6089 C   0  0  0  0  0  0  0  0  0  0  0  0
  152.4640  141.8750  159.1768 C   0  0  0  0  0  0  0  0  0  0  0  0
  145.2497  141.8361  156.2891 N   0  0  0  0  0  0  0  0  0  0  0  0
  144.6443  142.8550  155.6436 C   0  0  0  0  0  0  0  0  0  0  0  0
  143.4433  143.2881  156.2089 N   0  0  0  0  0  0  0  0  0  0  0  0
  146.8470  143.3819  153.0860 H   0  0  0  0  0  0  0  0  0  0  0  0
  148.0589  141.5842  158.4000 H   0  0  0  0  0  0  0  0  0  0  0  0
  148.8627  140.0307  158.4084 H   0  0  0  0  0  0  0  0  0  0  0  0
  149.6392  140.8179  155.9410 H   0  0  0  0  0  0  0  0  0  0  0  0
  149.4056  142.4114  156.6462 H   0  0  0  0  0  0  0  0  0  0  0  0
  150.3504  142.2151  159.3014 H   0  0  0  0  0  0  0  0  0  0  0  0
  151.4806  143.5121  156.8087 H   0  0  0  0  0  0  0  0  0  0  0  0
  150.0567  143.9309  157.7106 H   0  0  0  0  0  0  0  0  0  0  0  0
  152.9240  144.7178  158.1925 H   0  0  0  0  0  0  0  0  0  0  0  0
  151.5040  145.7045  158.0976 H   0  0  0  0  0  0  0  0  0  0  0  0
  151.9663  145.8347  160.3490 H   0  0  0  0  0  0  0  0  0  0  0  0
  150.7948  144.5480  160.3803 H   0  0  0  0  0  0  0  0  0  0  0  0
  153.8470  144.1633  160.2960 H   0  0  0  0  0  0  0  0  0  0  0  0
  152.9173  144.1953  161.7633 H   0  0  0  0  0  0  0  0  0  0  0  0
  153.4449  141.9032  161.0892 H   0  0  0  0  0  0  0  0  0  0  0  0
  151.7300  142.1539  161.1942 H   0  0  0  0  0  0  0  0  0  0  0  0
  152.5204  140.7889  159.2465 H   0  0  0  0  0  0  0  0  0  0  0  0
  153.3031  142.1733  158.5472 H   0  0  0  0  0  0  0  0  0  0  0  0
  142.9102  144.0454  155.8058 H   0  0  0  0  0  0  0  0  0  0  0  0
  143.0687  142.8548  157.0408 H   0  0  0  0  0  0  0  0  0  0  0  0
  1  2  3  0  0  0  0
  2  3  1  0  0  0  0
  3 21  1  0  0  0  0
  3  4  2  0  0  0  0
  4  5  1  0  0  0  0
  4 23  1  0  0  0  0
  5  6  1  0  0  0  0
  5  8  2  0  0  0  0
  6  7  3  0  0  0  0
  8  9  1  0  0  0  0
  8 20  1  0  0  0  0
  9 10  1  0  0  0  0
 10 11  1  0  0  0  0
 10 24  1  0  0  0  0
 10 25  1  0  0  0  0
 11 12  1  0  0  0  0
 11 26  1  0  0  0  0
 11 27  1  0  0  0  0
 12 13  1  0  0  0  0
 13 19  1  0  0  0  0
 13 14  1  0  0  0  0
 13 28  1  0  0  0  0
 14 15  1  0  0  0  0
 14 29  1  0  0  0  0
 14 30  1  0  0  0  0
 15 16  1  0  0  0  0
 15 31  1  0  0  0  0
 15 32  1  0  0  0  0
 16 17  1  0  0  0  0
 16 33  1  0  0  0  0
 16 34  1  0  0  0  0
 17 18  1  0  0  0  0
 17 35  1  0  0  0  0
 17 36  1  0  0  0  0
 18 19  1  0  0  0  0
 18 37  1  0  0  0  0
 18 38  1  0  0  0  0
 19 39  1  0  0  0  0
 19 40  1  0  0  0  0
 20 21  2  0  0  0  0
 21 22  1  0  0  0  0
 22 41  1  0  0  0  0
 22 42  1  0  0  0  0
M  END
> <s_m_source_file>
AV-unprocessed.smi

> <i_m_source_file_index>
2681

> <i_lp_mmshare_version>
43012

> <i_f3d_flags>
0

> <s_epik_input>
TiNDYzFbY0hdYyhDI04pYyhuYzFbTkgyXSlTW0NIMl1bQ0gyXU9bQ0hdMltDSDJdW0NIMl1bQ0gyXVtDSDJdW0NIMl1bQ0gyXTI=

> <s_epik_cmdline>
J2VwaWtfcHl0aG9uJywgJy1waCcsICc3LjAnLCAnLXRuJywgJzgnLCAnLW1hJywgJzIwMCcsICctbWV0YWxfYmluZGluZycsICctaW1hZScsICc8aW5maWxlLm1hZT4nLCAnLW9tYWUnLCAnPG91dGZpbGUubWFlPic=

> <r_epik_Ionization_Penalty>
0.00177186

> <r_epik_Ionization_Penalty_Charging>
0

> <r_epik_Ionization_Penalty_Neutral>
0.00177186

> <r_epik_State_Penalty>
0.00120048

> <r_epik_Charging_Adjusted_Penalty>
0.00120048

> <i_epik_Tot_Q>
0

> <i_epik_Tot_abs_Q>
0

> <r_epik_Metal_State_Penalty>
-0

> <b_epik_Metal_Only>
0

> <s_lp_Force_Field>
OPLS_2005

> <r_lp_Energy>
17.568

> <b_lp_Chiralities_Consistent>
1

> <s_lp_Variant>
AV-unprocessed.smi:2681-1

> <Gold.Version>
5.8.1

> <Gold.Id.Protein>
6NUR|6NUR_protein|mol2

> <Gold.PLP.Fitness>
46.9157

> <Gold.PLP.PLP>
-44.5701

> <Gold.PLP.part.hbond>
-3.0567

> <Gold.PLP.part.metal>
0.0000

> <Gold.PLP.part.buried>
-7.6080

> <Gold.PLP.part.nonpolar>
-35.9428

> <Gold.PLP.part.repulsive>
2.5916

> <Gold.PLP.ligand.clash>
0.0000

> <Gold.PLP.ligand.torsion>
0.5693

> <Gold.PLP.Chemscore.Hbond>
1.1527

> <Gold.PLP.Chemscore.CHOScore>
0.0000

> <Gold.PLP.Chemscore.Metal>
0.0000

> <Gold.Chemscore.Hbonds>
donor molecule, donor type, donor heavy atom, donor atom, acceptor molecule, acceptor atom, score
      P1  H  7989  7998       L1     7  0.13
      P1  H  8011  8017       L1     7  0.90

> <Gold.PLP.Chemscore.Internal.Correction>
0.0262

> <Gold.Rescore>
     Score         DG    S(hbond)    S(metal)    S(lipo)     H(rot)  DE(clash)    DE(int)     intcor
     13.46     -14.15       0.77        0.00      98.44       2.12       0.10       0.59       ----

> <Gold.Chemscore.Fitness>
13.4600

> <Gold.Chemscore.DG>
-14.1491

> <Gold.Chemscore.ZeroCoef>
-5.4800

> <Gold.Chemscore.Hbond>
0.7685

> <Gold.Chemscore.Metal>
0.0000

> <Gold.Chemscore.Lipo>
98.4378

> <Gold.Chemscore.Internal_Hbond>
0.0000

> <Gold.Chemscore.DEClash>
0.0998

> <Gold.Chemscore.DEInternal>
0.5894

> <Gold.Chemscore.Rot>
2.1152

> <Gold.Chemscore.Internal.Correction>
   9.000000E+99

> <Gold.Chemscore.Hbonds>
donor molecule, donor type, donor heavy atom, donor atom, acceptor molecule, acceptor atom, score
      P1  H  7989  7998       L1     7  0.13
      P1  H  8011  8017       L1     7  0.25

> <Gold.Chemscore.Hbond.Weighted>
-2.5668

> <Gold.Chemscore.Metal.Weighted>
-0.0000

> <Gold.Chemscore.Lipo.Weighted>
-11.5172

> <Gold.Chemscore.Internal_Hbond.Weighted>
0.0000

> <Gold.Chemscore.DEClash.Weighted>
0.0998

> <Gold.Chemscore.DEInternal.Weighted>
0.5894

> <Gold.Chemscore.Rot.Weighted>
5.4149

> <Gold.Chemscore.Internal.Correction.Weighted>
   9.000000E+99

> <Gold.Protein.RotatedTorsions>
[ 6907 6896 6895 6894 ] final  161.72 input  -60.11 | X-H torsion
[ 7974 7965 7964 7962 ] final  -64.45 input  175.53 | X-H torsion
[ 8008 7997 7996 7995 ] final  -82.05 input   59.86 | X-H torsion
[ 10167 10162 10161 10158 ] final   70.98 input  -65.29 | X-H torsion
[ 10718 10713 10712 10709 ] final   22.72 input   66.30 | X-H torsion
[ 10763 10752 10751 10750 ] final -174.35 input  -60.55 | X-H torsion
[ 11005 11000 10999 10996 ] final -147.08 input  -57.11 | X-H torsion

> <Gold.Protein.ActiveResidues>
 VAL166  LYS551  ARG553  GLY616  TRP617  ASP618  TYR619  PRO620  LYS621  CYS622 
 ASP623  PHE694  ASN695  SER759  ASP760  ASP761  ALA762  ILE779  LEU786  VAL792 
 PHE793  MET794  SER795  GLU796  ALA797  LYS798  CYS799  TRP800  GLU811  SER814 

> <Gold.Protein.RotatedAtoms>
  151.9514  133.3667  159.4001 H   0  0  0  0  0  0  0  0  0  0  0  0  # atno 6907 bound_to 6896
  150.6980  134.4336  159.5269 H   0  0  0  0  0  0  0  0  0  0  0  0  # atno 6908 bound_to 6896
  152.2010  134.8588  160.0558 H   0  0  0  0  0  0  0  0  0  0  0  0  # atno 6909 bound_to 6896
  145.7666  140.8834  143.0402 H   0  0  0  0  0  0  0  0  0  0  0  0  # atno 7974 bound_to 7965
  154.6046  140.0639  156.9414 H   0  0  0  0  0  0  0  0  0  0  0  0  # atno 8008 bound_to 7997
  155.2074  140.3320  155.4315 H   0  0  0  0  0  0  0  0  0  0  0  0  # atno 8009 bound_to 7997
  156.2340  140.1854  156.7153 H   0  0  0  0  0  0  0  0  0  0  0  0  # atno 8010 bound_to 7997
  140.0510  144.5311  150.7363 H   0  0  0  0  0  0  0  0  0  0  0  0  # atno 10167 bound_to 10162
  157.1562  130.6696  149.6028 H   0  0  0  0  0  0  0  0  0  0  0  0  # atno 10718 bound_to 10713
  154.5973  135.2851  155.0573 H   0  0  0  0  0  0  0  0  0  0  0  0  # atno 10763 bound_to 10752
  154.1851  135.6450  153.5048 H   0  0  0  0  0  0  0  0  0  0  0  0  # atno 10764 bound_to 10752
  153.0143  135.5433  154.6679 H   0  0  0  0  0  0  0  0  0  0  0  0  # atno 10765 bound_to 10752
  140.7753  134.3141  157.5062 H   0  0  0  0  0  0  0  0  0  0  0  0  # atno 11005 bound_to 11000
  144.6820  139.9797  143.7483 LP  0  0  0  0  0  0  0  0  0  0  0  0  # atno 17320 bound_to 7965
  146.0211  139.3252  143.0812 LP  0  0  0  0  0  0  0  0  0  0  0  0  # atno 17321 bound_to 7965
  140.7216  143.2595  151.4258 LP  0  0  0  0  0  0  0  0  0  0  0  0  # atno 17342 bound_to 10162
  139.5953  144.1411  152.2136 LP  0  0  0  0  0  0  0  0  0  0  0  0  # atno 17343 bound_to 10162
  155.9761  130.4727  150.6509 LP  0  0  0  0  0  0  0  0  0  0  0  0  # atno 17370 bound_to 10713
  157.4175  131.0832  151.1163 LP  0  0  0  0  0  0  0  0  0  0  0  0  # atno 17371 bound_to 10713
  139.8750  134.9286  156.3454 LP  0  0  0  0  0  0  0  0  0  0  0  0  # atno 17394 bound_to 11000
  140.9534  133.7436  156.0303 LP  0  0  0  0  0  0  0  0  0  0  0  0  # atno 17395 bound_to 11000

$$$$
