AV-unprocessed.smi:961|AV-procd|sdf|4274|dock4
  -GOLD-   22720 2183D 1   1.00000     0.00000
 Structure written by MMmdl.
 37 38  0  0  0  0  0  0  0  0  1 V2000
  151.9593  144.6912  157.8306 C   0  0  0  0  0  0  0  0  0  0  0  0
  151.5156  144.3740  159.2723 C   0  0  0  0  0  0  0  0  0  0  0  0
  151.8460  145.5623  160.1968 C   0  0  0  0  0  0  0  0  0  0  0  0
  149.9831  144.1861  159.2685 C   0  0  0  0  0  0  0  0  0  0  0  0
  152.2184  143.1246  159.7652 C   0  0  0  0  0  0  0  0  0  0  0  0
  153.0686  142.9973  160.8402 C   0  0  0  0  0  0  0  0  0  0  0  0
  153.6504  141.3672  161.0358 S   0  0  0  0  0  0  0  0  0  0  0  0
  152.6955  140.8937  159.6394 C   0  0  0  0  0  0  0  0  0  0  0  0
  152.6859  139.5081  159.0882 C   0  0  0  0  0  0  0  0  0  0  0  0
  152.5967  139.4909  157.5539 C   0  0  0  0  0  0  0  0  0  0  0  0
  151.2621  139.8501  157.0885 N   0  0  0  0  0  0  0  0  0  0  0  0
  150.9059  139.9884  155.8025 C   0  0  0  0  0  0  0  0  0  0  0  0
  151.6906  139.8220  154.8675 O   0  0  0  0  0  0  0  0  0  0  0  0
  149.4718  140.3577  155.6068 C   0  0  0  0  0  0  0  0  0  0  0  0
  148.9184  140.2943  154.1976 C   0  0  0  0  0  0  0  0  0  0  0  0
  149.1701  141.6328  154.8455 C   0  0  0  0  0  0  0  0  0  0  0  0
  152.0274  141.9108  159.0910 N   0  0  0  0  0  0  0  0  0  0  0  0
  151.4567  145.5793  157.4458 H   0  0  0  0  0  0  0  0  0  0  0  0
  151.7312  143.8656  157.1554 H   0  0  0  0  0  0  0  0  0  0  0  0
  153.0324  144.8762  157.7710 H   0  0  0  0  0  0  0  0  0  0  0  0
  152.9148  145.7789  160.2073 H   0  0  0  0  0  0  0  0  0  0  0  0
  151.5425  145.3603  161.2247 H   0  0  0  0  0  0  0  0  0  0  0  0
  151.3354  146.4707  159.8752 H   0  0  0  0  0  0  0  0  0  0  0  0
  149.4744  145.0836  158.9148 H   0  0  0  0  0  0  0  0  0  0  0  0
  149.6031  143.9728  160.2684 H   0  0  0  0  0  0  0  0  0  0  0  0
  149.6811  143.3657  158.6162 H   0  0  0  0  0  0  0  0  0  0  0  0
  153.3933  143.7609  161.5310 H   0  0  0  0  0  0  0  0  0  0  0  0
  153.5910  139.0002  159.4234 H   0  0  0  0  0  0  0  0  0  0  0  0
  151.8450  138.9639  159.5205 H   0  0  0  0  0  0  0  0  0  0  0  0
  153.3057  140.2044  157.1334 H   0  0  0  0  0  0  0  0  0  0  0  0
  152.8759  138.5098  157.1657 H   0  0  0  0  0  0  0  0  0  0  0  0
  150.5582  140.0043  157.7958 H   0  0  0  0  0  0  0  0  0  0  0  0
  148.7872  140.0960  156.4125 H   0  0  0  0  0  0  0  0  0  0  0  0
  149.5850  139.9965  153.3897 H   0  0  0  0  0  0  0  0  0  0  0  0
  147.8875  139.9646  154.0872 H   0  0  0  0  0  0  0  0  0  0  0  0
  148.3094  142.2115  155.1746 H   0  0  0  0  0  0  0  0  0  0  0  0
  150.0025  142.2232  154.4660 H   0  0  0  0  0  0  0  0  0  0  0  0
  1  2  1  0  0  0  0
  1 18  1  0  0  0  0
  1 19  1  0  0  0  0
  1 20  1  0  0  0  0
  2  3  1  0  0  0  0
  2  4  1  0  0  0  0
  2  5  1  0  0  0  0
  3 21  1  0  0  0  0
  3 22  1  0  0  0  0
  3 23  1  0  0  0  0
  4 24  1  0  0  0  0
  4 25  1  0  0  0  0
  4 26  1  0  0  0  0
  5 17  1  0  0  0  0
  5  6  2  0  0  0  0
  6  7  1  0  0  0  0
  6 27  1  0  0  0  0
  7  8  1  0  0  0  0
  8  9  1  0  0  0  0
  8 17  2  0  0  0  0
  9 10  1  0  0  0  0
  9 28  1  0  0  0  0
  9 29  1  0  0  0  0
 10 11  1  0  0  0  0
 10 30  1  0  0  0  0
 10 31  1  0  0  0  0
 11 12  1  0  0  0  0
 11 32  1  0  0  0  0
 12 13  2  0  0  0  0
 12 14  1  0  0  0  0
 14 16  1  0  0  0  0
 14 15  1  0  0  0  0
 14 33  1  0  0  0  0
 15 16  1  0  0  0  0
 15 34  1  0  0  0  0
 15 35  1  0  0  0  0
 16 36  1  0  0  0  0
 16 37  1  0  0  0  0
M  END
> <s_m_source_file>
AV-unprocessed.smi

> <i_m_source_file_index>
961

> <i_lp_mmshare_version>
43012

> <i_f3d_flags>
0

> <s_epik_input>
W0NIM11DKFtDSDNdKShbQ0gzXSljMVtjSF1zYyhuMSlbQ0gyXVtDSDJdW05IXUMoPU8pW0NIXTJbQ0gyXVtDSDJdMg==

> <s_epik_cmdline>
J2VwaWtfcHl0aG9uJywgJy1waCcsICc3LjAnLCAnLXRuJywgJzgnLCAnLW1hJywgJzIwMCcsICctbWV0YWxfYmluZGluZycsICctaW1hZScsICc8aW5maWxlLm1hZT4nLCAnLW9tYWUnLCAnPG91dGZpbGUubWFlPic=

> <r_epik_Ionization_Penalty>
0.000842111

> <r_epik_Ionization_Penalty_Charging>
0

> <r_epik_Ionization_Penalty_Neutral>
0.000842111

> <r_epik_State_Penalty>
0.000542609

> <r_epik_Charging_Adjusted_Penalty>
0.000542609

> <i_epik_Tot_Q>
0

> <i_epik_Tot_abs_Q>
0

> <r_epik_Metal_State_Penalty>
-0

> <b_epik_Metal_Only>
0

> <s_lp_Force_Field>
OPLS_2005

> <r_lp_Energy>
-3.24501

> <b_lp_Chiralities_Consistent>
1

> <s_lp_Variant>
AV-unprocessed.smi:961-1

> <Gold.Version>
5.8.1

> <Gold.Id.Protein>
6NUR|6NUR_protein|mol2

> <Gold.PLP.Fitness>
43.2877

> <Gold.PLP.PLP>
-41.1901

> <Gold.PLP.part.hbond>
-1.0000

> <Gold.PLP.part.metal>
0.0000

> <Gold.PLP.part.buried>
-3.0257

> <Gold.PLP.part.nonpolar>
-36.9482

> <Gold.PLP.part.repulsive>
0.0930

> <Gold.PLP.ligand.clash>
0.0000

> <Gold.PLP.ligand.torsion>
0.5107

> <Gold.PLP.Chemscore.Hbond>
1.0000

> <Gold.PLP.Chemscore.CHOScore>
0.0000

> <Gold.PLP.Chemscore.Metal>
0.0000

> <Gold.Chemscore.Hbonds>
donor molecule, donor type, donor heavy atom, donor atom, acceptor molecule, acceptor atom, score
      P1  H  7989  7998       L1    13  1.00

> <Gold.PLP.Chemscore.Internal.Correction>
0.1189

> <Gold.Rescore>
     Score         DG    S(hbond)    S(metal)    S(lipo)     H(rot)  DE(clash)    DE(int)     intcor
     17.58     -18.14       0.99        0.00     113.65       1.54       0.01       0.55       ----

> <Gold.Chemscore.Fitness>
17.5794

> <Gold.Chemscore.DG>
-18.1411

> <Gold.Chemscore.ZeroCoef>
-5.4800

> <Gold.Chemscore.Hbond>
0.9872

> <Gold.Chemscore.Metal>
0.0000

> <Gold.Chemscore.Lipo>
113.6503

> <Gold.Chemscore.Internal_Hbond>
0.0000

> <Gold.Chemscore.DEClash>
0.0149

> <Gold.Chemscore.DEInternal>
0.5468

> <Gold.Chemscore.Rot>
1.5364

> <Gold.Chemscore.Internal.Correction>
   9.000000E+99

> <Gold.Chemscore.Hbonds>
donor molecule, donor type, donor heavy atom, donor atom, acceptor molecule, acceptor atom, score
      P1  H  7989  7998       L1    13  0.96

> <Gold.Chemscore.Hbond.Weighted>
-3.2972

> <Gold.Chemscore.Metal.Weighted>
-0.0000

> <Gold.Chemscore.Lipo.Weighted>
-13.2971

> <Gold.Chemscore.Internal_Hbond.Weighted>
0.0000

> <Gold.Chemscore.DEClash.Weighted>
0.0149

> <Gold.Chemscore.DEInternal.Weighted>
0.5468

> <Gold.Chemscore.Rot.Weighted>
3.9332

> <Gold.Chemscore.Internal.Correction.Weighted>
   9.000000E+99

> <Gold.Protein.RotatedTorsions>
[ 6907 6896 6895 6894 ] final  172.31 input  -60.11 | X-H torsion
[ 7974 7965 7964 7962 ] final   16.49 input  175.53 | X-H torsion
[ 8008 7997 7996 7995 ] final  107.11 input   59.86 | X-H torsion
[ 10167 10162 10161 10158 ] final  -90.55 input  -65.29 | X-H torsion
[ 10718 10713 10712 10709 ] final  -18.11 input   66.30 | X-H torsion
[ 10763 10752 10751 10750 ] final -141.31 input  -60.55 | X-H torsion
[ 11005 11000 10999 10996 ] final   60.71 input  -57.11 | X-H torsion

> <Gold.Protein.ActiveResidues>
 VAL166  LYS551  ARG553  GLY616  TRP617  ASP618  TYR619  PRO620  LYS621  CYS622 
 ASP623  PHE694  ASN695  SER759  ASP760  ASP761  ALA762  ILE779  LEU786  VAL792 
 PHE793  MET794  SER795  GLU796  ALA797  LYS798  CYS799  TRP800  GLU811  SER814 

> <Gold.Protein.RotatedAtoms>
  151.7863  133.3354  159.3485 H   0  0  0  0  0  0  0  0  0  0  0  0  # atno 6907 bound_to 6896
  150.7408  134.5884  159.5984 H   0  0  0  0  0  0  0  0  0  0  0  0  # atno 6908 bound_to 6896
  152.3241  134.7344  160.0357 H   0  0  0  0  0  0  0  0  0  0  0  0  # atno 6909 bound_to 6896
  146.2248  139.8740  142.8582 H   0  0  0  0  0  0  0  0  0  0  0  0  # atno 7974 bound_to 7965
  156.1797  140.3101  155.9126 H   0  0  0  0  0  0  0  0  0  0  0  0  # atno 8008 bound_to 7997
  155.3410  140.0466  157.3062 H   0  0  0  0  0  0  0  0  0  0  0  0  # atno 8009 bound_to 7997
  154.5329  140.2236  155.8783 H   0  0  0  0  0  0  0  0  0  0  0  0  # atno 8010 bound_to 7997
  140.3538  143.2877  151.9695 H   0  0  0  0  0  0  0  0  0  0  0  0  # atno 10167 bound_to 10162
  156.5641  130.4733  149.6393 H   0  0  0  0  0  0  0  0  0  0  0  0  # atno 10718 bound_to 10713
  154.8549  135.3528  154.5847 H   0  0  0  0  0  0  0  0  0  0  0  0  # atno 10763 bound_to 10752
  153.6457  135.6996  153.5230 H   0  0  0  0  0  0  0  0  0  0  0  0  # atno 10764 bound_to 10752
  153.2934  135.4228  155.1146 H   0  0  0  0  0  0  0  0  0  0  0  0  # atno 10765 bound_to 10752
  140.0213  134.6149  155.9636 H   0  0  0  0  0  0  0  0  0  0  0  0  # atno 11005 bound_to 11000
  145.2579  141.0067  143.3843 LP  0  0  0  0  0  0  0  0  0  0  0  0  # atno 17320 bound_to 7965
  144.9322  139.4285  143.6489 LP  0  0  0  0  0  0  0  0  0  0  0  0  # atno 17321 bound_to 7965
  139.4823  144.6053  151.7532 LP  0  0  0  0  0  0  0  0  0  0  0  0  # atno 17342 bound_to 10162
  140.5194  144.0903  150.6018 LP  0  0  0  0  0  0  0  0  0  0  0  0  # atno 17343 bound_to 10162
  156.2773  130.7051  151.1865 LP  0  0  0  0  0  0  0  0  0  0  0  0  # atno 17370 bound_to 10713
  157.7362  131.0564  150.5425 LP  0  0  0  0  0  0  0  0  0  0  0  0  # atno 17371 bound_to 10713
  141.1775  133.6542  156.4887 LP  0  0  0  0  0  0  0  0  0  0  0  0  # atno 17394 bound_to 11000
  140.4383  134.7039  157.4978 LP  0  0  0  0  0  0  0  0  0  0  0  0  # atno 17395 bound_to 11000

$$$$
