AV-unprocessed.smi:1355|AV-procd|sdf|5539|dock5
  -GOLD-   22720 5133D 1   1.00000     0.00000
 Structure written by MMmdl.
 33 34  0  0  0  0  0  0  0  0  2 V2000
  151.1368  137.5182  154.4028 C   0  0  0  0  0  0  0  0  0  0  0  0
  152.1911  137.4521  155.3463 O   0  0  0  0  0  0  0  0  0  0  0  0
  152.3648  138.6682  156.0554 C   0  0  0  0  0  0  0  0  0  0  0  0
  151.0354  139.0964  156.6933 C   0  0  0  0  0  0  0  0  0  0  0  0
  150.8458  140.5548  156.6600 N   0  0  0  0  0  0  0  0  0  0  0  0
  150.0552  141.3212  155.8542 C   0  0  0  0  0  0  0  0  0  0  0  0
  149.1369  140.8391  154.7745 C   0  0  1  0  0  0  0  0  0  0  0  0
  147.7745  141.5379  154.8654 C   0  0  0  0  0  0  0  0  0  0  0  0
  149.6707  141.0541  153.4844 O   0  0  0  0  0  0  0  0  0  0  0  0
  150.2340  142.6191  156.2326 N   0  3  0  0  0  0  0  0  0  0  0  0
  151.1589  142.6860  157.2745 C   0  0  0  0  0  0  0  0  0  0  0  0
  151.6645  143.7772  157.9743 C   0  0  0  0  0  0  0  0  0  0  0  0
  152.6051  143.4982  158.9876 C   0  0  0  0  0  0  0  0  0  0  0  0
  153.0085  142.1772  159.2709 C   0  0  0  0  0  0  0  0  0  0  0  0
  152.4886  141.0794  158.5541 C   0  0  0  0  0  0  0  0  0  0  0  0
  151.5575  141.3632  157.5550 C   0  0  0  0  0  0  0  0  0  0  0  0
  151.0448  136.5610  153.8898 H   0  0  0  0  0  0  0  0  0  0  0  0
  151.3281  138.2856  153.6515 H   0  0  0  0  0  0  0  0  0  0  0  0
  150.1844  137.7328  154.8893 H   0  0  0  0  0  0  0  0  0  0  0  0
  153.1227  138.5414  156.8300 H   0  0  0  0  0  0  0  0  0  0  0  0
  152.7179  139.4474  155.3785 H   0  0  0  0  0  0  0  0  0  0  0  0
  150.2008  138.6399  156.1605 H   0  0  0  0  0  0  0  0  0  0  0  0
  150.9651  138.7471  157.7234 H   0  0  0  0  0  0  0  0  0  0  0  0
  148.9947  139.7643  154.8890 H   0  0  0  0  0  0  0  0  0  0  0  0
  147.3060  141.3582  155.8334 H   0  0  0  0  0  0  0  0  0  0  0  0
  147.0926  141.1718  154.0972 H   0  0  0  0  0  0  0  0  0  0  0  0
  147.8714  142.6166  154.7377 H   0  0  0  0  0  0  0  0  0  0  0  0
  149.3686  140.3625  152.9153 H   0  0  0  0  0  0  0  0  0  0  0  0
  151.3582  144.7899  157.7570 H   0  0  0  0  0  0  0  0  0  0  0  0
  153.0265  144.3136  159.5575 H   0  0  0  0  0  0  0  0  0  0  0  0
  153.7330  142.0016  160.0530 H   0  0  0  0  0  0  0  0  0  0  0  0
  152.8107  140.0727  158.7755 H   0  0  0  0  0  0  0  0  0  0  0  0
  149.7557  143.3997  155.8013 H   0  0  0  0  0  0  0  0  0  0  0  0
  1  2  1  0  0  0  0
  1 17  1  0  0  0  0
  1 18  1  0  0  0  0
  1 19  1  0  0  0  0
  2  3  1  0  0  0  0
  3  4  1  0  0  0  0
  3 20  1  0  0  0  0
  3 21  1  0  0  0  0
  4  5  1  0  0  0  0
  4 22  1  0  0  0  0
  4 23  1  0  0  0  0
  5 16  1  0  0  0  0
  5  6  1  0  0  0  0
  6  7  1  0  0  0  0
  6 10  2  0  0  0  0
  7  8  1  0  0  0  0
  7  9  1  0  0  0  0
  7 24  1  0  0  0  0
  8 25  1  0  0  0  0
  8 26  1  0  0  0  0
  8 27  1  0  0  0  0
  9 28  1  0  0  0  0
 10 11  1  0  0  0  0
 10 33  1  0  0  0  0
 11 16  2  0  0  0  0
 11 12  1  0  0  0  0
 12 13  2  0  0  0  0
 12 29  1  0  0  0  0
 13 14  1  0  0  0  0
 13 30  1  0  0  0  0
 14 15  2  0  0  0  0
 14 31  1  0  0  0  0
 15 16  1  0  0  0  0
 15 32  1  0  0  0  0
M  CHG  1  10   1
M  END
> <s_m_source_file>
AV-unprocessed.smi

> <i_m_source_file_index>
1355

> <i_lp_mmshare_version>
43012

> <i_f3d_flags>
0

> <s_epik_input>
W0NIM11PW0NIMl1bQ0gyXW4oYyhuMSlbQ0BIXShbQ0gzXSlbT0hdKWMoYzEyKVtjSF1bY0hdW2NIXVtjSF0y

> <s_epik_cmdline>
J2VwaWtfcHl0aG9uJywgJy1waCcsICc3LjAnLCAnLXRuJywgJzgnLCAnLW1hJywgJzIwMCcsICctbWV0YWxfYmluZGluZycsICctaW1hZScsICc8aW5maWxlLm1hZT4nLCAnLW9tYWUnLCAnPG91dGZpbGUubWFlPic=

> <r_epik_Ionization_Penalty>
1.43426

> <r_epik_Ionization_Penalty_Charging>
1.43423

> <r_epik_Ionization_Penalty_Neutral>
2.92192e-05

> <r_epik_State_Penalty>
1.51908

> <r_epik_Charging_Adjusted_Penalty>
2.95331

> <i_epik_Tot_Q>
1

> <i_epik_Tot_abs_Q>
1

> <r_epik_Metal_State_Penalty>
5.5644

> <b_epik_Metal_Only>
0

> <s_lp_Force_Field>
OPLS_2005

> <r_lp_Energy>
11.2179

> <b_lp_Chiralities_Consistent>
1

> <s_lp_Variant>
AV-unprocessed.smi:1355-4

> <Gold.Version>
5.8.1

> <Gold.Id.Protein>
6NUR|6NUR_protein|mol2

> <Gold.PLP.Fitness>
49.3174

> <Gold.PLP.PLP>
-37.6549

> <Gold.PLP.part.hbond>
-4.8843

> <Gold.PLP.part.metal>
0.0000

> <Gold.PLP.part.buried>
-4.2950

> <Gold.PLP.part.nonpolar>
-29.7891

> <Gold.PLP.part.repulsive>
0.1501

> <Gold.PLP.ligand.clash>
0.0000

> <Gold.PLP.ligand.torsion>
0.8764

> <Gold.PLP.Chemscore.Hbond>
4.4666

> <Gold.PLP.Chemscore.CHOScore>
0.0000

> <Gold.PLP.Chemscore.Metal>
0.0000

> <Gold.Chemscore.Hbonds>
donor molecule, donor type, donor heavy atom, donor atom, acceptor molecule, acceptor atom, score
      L1  H     9    28       P1  7957  0.64
      L1  H    10    33       P1  8028  2.00
      P1  H  7989  7998       L1     9  0.24
      P1  H  8011  8017       L1     9  1.00
      P1  H 10752 10765       L1     2  0.56

> <Gold.PLP.Chemscore.Internal.Correction>
0.0156

> <Gold.Rescore>
     Score         DG    S(hbond)    S(metal)    S(lipo)     H(rot)  DE(clash)    DE(int)     intcor
     19.96     -21.13       3.13        0.00      90.50       2.10       0.03       1.15       ----

> <Gold.Chemscore.Fitness>
19.9584

> <Gold.Chemscore.DG>
-21.1305

> <Gold.Chemscore.ZeroCoef>
-5.4800

> <Gold.Chemscore.Hbond>
3.1264

> <Gold.Chemscore.Metal>
0.0000

> <Gold.Chemscore.Lipo>
90.5023

> <Gold.Chemscore.Internal_Hbond>
0.0000

> <Gold.Chemscore.DEClash>
0.0267

> <Gold.Chemscore.DEInternal>
1.1455

> <Gold.Chemscore.Rot>
2.1017

> <Gold.Chemscore.Internal.Correction>
   9.000000E+99

> <Gold.Chemscore.Hbonds>
donor molecule, donor type, donor heavy atom, donor atom, acceptor molecule, acceptor atom, score
      L1  H     9    28       P1  7957  0.64
      L1  H    10    33       P1  8028  0.97
      P1  H  7989  7998       L1     9  0.10
      P1  H  8011  8017       L1     9  0.29
      P1  H 10752 10765       L1     2  0.13

> <Gold.Chemscore.Hbond.Weighted>
-10.4421

> <Gold.Chemscore.Metal.Weighted>
-0.0000

> <Gold.Chemscore.Lipo.Weighted>
-10.5888

> <Gold.Chemscore.Internal_Hbond.Weighted>
0.0000

> <Gold.Chemscore.DEClash.Weighted>
0.0267

> <Gold.Chemscore.DEInternal.Weighted>
1.1455

> <Gold.Chemscore.Rot.Weighted>
5.3803

> <Gold.Chemscore.Internal.Correction.Weighted>
   9.000000E+99

> <Gold.Protein.RotatedTorsions>
[ 6907 6896 6895 6894 ] final   38.32 input  -60.11 | X-H torsion
[ 7974 7965 7964 7962 ] final   -2.41 input  175.53 | X-H torsion
[ 8008 7997 7996 7995 ] final   62.53 input   59.86 | X-H torsion
[ 10167 10162 10161 10158 ] final -124.54 input  -65.29 | X-H torsion
[ 10718 10713 10712 10709 ] final  132.76 input   66.30 | X-H torsion
[ 10763 10752 10751 10750 ] final -167.74 input  -60.55 | X-H torsion
[ 11005 11000 10999 10996 ] final   66.39 input  -57.11 | X-H torsion

> <Gold.Protein.ActiveResidues>
 VAL166  LYS551  ARG553  GLY616  TRP617  ASP618  TYR619  PRO620  LYS621  CYS622 
 ASP623  PHE694  ASN695  SER759  ASP760  ASP761  ALA762  ILE779  LEU786  VAL792 
 PHE793  MET794  SER795  GLU796  ALA797  LYS798  CYS799  TRP800  GLU811  SER814 

> <Gold.Protein.RotatedAtoms>
  152.1549  134.8958  160.0545 H   0  0  0  0  0  0  0  0  0  0  0  0  # atno 6907 bound_to 6896
  151.9976  133.3808  159.4177 H   0  0  0  0  0  0  0  0  0  0  0  0  # atno 6908 bound_to 6896
  150.6880  134.3791  159.5070 H   0  0  0  0  0  0  0  0  0  0  0  0  # atno 6909 bound_to 6896
  146.2405  140.1566  142.8333 H   0  0  0  0  0  0  0  0  0  0  0  0  # atno 7974 bound_to 7965
  155.6158  140.3495  155.4636 H   0  0  0  0  0  0  0  0  0  0  0  0  # atno 8008 bound_to 7997
  156.0118  140.1235  157.0470 H   0  0  0  0  0  0  0  0  0  0  0  0  # atno 8009 bound_to 7997
  154.4283  140.1080  156.5826 H   0  0  0  0  0  0  0  0  0  0  0  0  # atno 8010 bound_to 7997
  139.9917  143.5633  152.2339 H   0  0  0  0  0  0  0  0  0  0  0  0  # atno 10167 bound_to 10162
  157.4840  131.1087  150.9645 H   0  0  0  0  0  0  0  0  0  0  0  0  # atno 10718 bound_to 10713
  154.6701  135.2938  154.9753 H   0  0  0  0  0  0  0  0  0  0  0  0  # atno 10763 bound_to 10752
  154.0783  135.6608  153.4838 H   0  0  0  0  0  0  0  0  0  0  0  0  # atno 10764 bound_to 10752
  153.0481  135.5191  154.7693 H   0  0  0  0  0  0  0  0  0  0  0  0  # atno 10765 bound_to 10752
  139.9835  134.6706  156.0219 H   0  0  0  0  0  0  0  0  0  0  0  0  # atno 11005 bound_to 11000
  145.0123  140.8725  143.5216 LP  0  0  0  0  0  0  0  0  0  0  0  0  # atno 17320 bound_to 7965
  145.1602  139.2463  143.5395 LP  0  0  0  0  0  0  0  0  0  0  0  0  # atno 17321 bound_to 7965
  139.6335  144.7647  151.2486 LP  0  0  0  0  0  0  0  0  0  0  0  0  # atno 17342 bound_to 10162
  140.7452  143.6438  150.8310 LP  0  0  0  0  0  0  0  0  0  0  0  0  # atno 17343 bound_to 10162
  157.0368  130.5733  149.5350 LP  0  0  0  0  0  0  0  0  0  0  0  0  # atno 17370 bound_to 10713
  156.0136  130.5230  150.8067 LP  0  0  0  0  0  0  0  0  0  0  0  0  # atno 17371 bound_to 10713
  141.1503  133.6549  156.3994 LP  0  0  0  0  0  0  0  0  0  0  0  0  # atno 17394 bound_to 11000
  140.5049  134.6450  157.5263 LP  0  0  0  0  0  0  0  0  0  0  0  0  # atno 17395 bound_to 11000

$$$$
