AV-unprocessed.smi:3064|AV-procd|sdf|11690|dock4
  -GOLD-   2272017 93D 1   1.00000     0.00000
 Structure written by MMmdl.
 21 22  0  0  0  0  0  0  0  0  1 V2000
  154.0250  140.0185  160.1060 C   0  0  0  0  0  0  0  0  0  0  0  0
  154.0379  140.3987  161.4237 C   0  0  0  0  0  0  0  0  0  0  0  0
  153.4732  142.0343  161.6284 S   0  0  0  0  0  0  0  0  0  0  0  0
  153.2189  142.1349  159.8884 C   0  0  0  0  0  0  0  0  0  0  0  0
  152.7270  143.3751  159.2120 C   0  0  1  0  0  0  0  0  0  0  0  0
  151.5553  143.0924  158.2519 C   0  0  0  0  0  0  0  0  0  0  0  0
  151.0608  144.3418  157.6756 N   0  0  0  0  0  0  0  0  0  0  0  0
  150.6971  145.2976  158.7206 C   0  0  0  0  0  0  0  0  0  0  0  0
  151.8830  145.5240  159.6757 C   0  0  0  0  0  0  0  0  0  0  0  0
  152.2978  144.2790  160.2280 O   0  0  0  0  0  0  0  0  0  0  0  0
  153.5680  141.0169  159.2426 N   0  0  0  0  0  0  0  0  0  0  0  0
  154.3249  139.0656  159.6959 H   0  0  0  0  0  0  0  0  0  0  0  0
  154.3470  139.8203  162.2814 H   0  0  0  0  0  0  0  0  0  0  0  0
  153.5635  143.8147  158.6655 H   0  0  0  0  0  0  0  0  0  0  0  0
  151.8727  142.4152  157.4588 H   0  0  0  0  0  0  0  0  0  0  0  0
  150.7505  142.5899  158.7900 H   0  0  0  0  0  0  0  0  0  0  0  0
  150.2521  144.1509  157.0927 H   0  0  0  0  0  0  0  0  0  0  0  0
  150.3902  146.2430  158.2729 H   0  0  0  0  0  0  0  0  0  0  0  0
  149.8404  144.9246  159.2834 H   0  0  0  0  0  0  0  0  0  0  0  0
  152.7155  146.0035  159.1583 H   0  0  0  0  0  0  0  0  0  0  0  0
  151.5882  146.1892  160.4874 H   0  0  0  0  0  0  0  0  0  0  0  0
  1 11  1  0  0  0  0
  1  2  2  0  0  0  0
  1 12  1  0  0  0  0
  2  3  1  0  0  0  0
  2 13  1  0  0  0  0
  3  4  1  0  0  0  0
  4  5  1  0  0  0  0
  4 11  2  0  0  0  0
  5 10  1  0  0  0  0
  5  6  1  0  0  0  0
  5 14  1  0  0  0  0
  6  7  1  0  0  0  0
  6 15  1  0  0  0  0
  6 16  1  0  0  0  0
  7  8  1  0  0  0  0
  7 17  1  0  0  0  0
  8  9  1  0  0  0  0
  8 18  1  0  0  0  0
  8 19  1  0  0  0  0
  9 10  1  0  0  0  0
  9 20  1  0  0  0  0
  9 21  1  0  0  0  0
M  END
> <s_m_source_file>
AV-unprocessed.smi

> <i_m_source_file_index>
3064

> <i_lp_mmshare_version>
43012

> <i_f3d_flags>
0

> <s_epik_input>
bjFbY0hdW2NIXXNjMVtDQEBIXTJbQ0gyXVtOSF1bQ0gyXVtDSDJdTzI=

> <s_epik_cmdline>
J2VwaWtfcHl0aG9uJywgJy1waCcsICc3LjAnLCAnLXRuJywgJzgnLCAnLW1hJywgJzIwMCcsICctbWV0YWxfYmluZGluZycsICctaW1hZScsICc8aW5maWxlLm1hZT4nLCAnLW9tYWUnLCAnPG91dGZpbGUubWFlPic=

> <r_epik_Ionization_Penalty>
0.980767

> <r_epik_Ionization_Penalty_Charging>
0

> <r_epik_Ionization_Penalty_Neutral>
0.980767

> <r_epik_State_Penalty>
1.0271

> <r_epik_Charging_Adjusted_Penalty>
1.0271

> <i_epik_Tot_Q>
0

> <i_epik_Tot_abs_Q>
0

> <r_epik_Metal_State_Penalty>
1.02673

> <b_epik_Metal_Only>
0

> <s_lp_Force_Field>
OPLS_2005

> <r_lp_Energy>
8.04051

> <b_lp_Chiralities_Consistent>
1

> <s_lp_Variant>
AV-unprocessed.smi:3064-4

> <Gold.Version>
5.8.1

> <Gold.Id.Protein>
6NUR|6NUR_protein|mol2

> <Gold.PLP.Fitness>
30.2509

> <Gold.PLP.PLP>
-27.5836

> <Gold.PLP.part.hbond>
-1.0882

> <Gold.PLP.part.metal>
0.0000

> <Gold.PLP.part.buried>
-2.5705

> <Gold.PLP.part.nonpolar>
-23.9833

> <Gold.PLP.part.repulsive>
0.0528

> <Gold.PLP.ligand.clash>
0.0000

> <Gold.PLP.ligand.torsion>
0.1585

> <Gold.PLP.Chemscore.Hbond>
0.9913

> <Gold.PLP.Chemscore.CHOScore>
0.0000

> <Gold.PLP.Chemscore.Metal>
0.0000

> <Gold.Chemscore.Hbonds>
donor molecule, donor type, donor heavy atom, donor atom, acceptor molecule, acceptor atom, score
      L1  H     7    17       P1  8028  0.98

> <Gold.PLP.Chemscore.Internal.Correction>
0.0106

> <Gold.Rescore>
     Score         DG    S(hbond)    S(metal)    S(lipo)     H(rot)  DE(clash)    DE(int)     intcor
     15.88     -15.94       0.89        0.00      85.98       1.00       0.03       0.02       ----

> <Gold.Chemscore.Fitness>
15.8783

> <Gold.Chemscore.DG>
-15.9374

> <Gold.Chemscore.ZeroCoef>
-5.4800

> <Gold.Chemscore.Hbond>
0.8856

> <Gold.Chemscore.Metal>
0.0000

> <Gold.Chemscore.Lipo>
85.9789

> <Gold.Chemscore.Internal_Hbond>
0.0000

> <Gold.Chemscore.DEClash>
0.0341

> <Gold.Chemscore.DEInternal>
0.0249

> <Gold.Chemscore.Rot>
1.0000

> <Gold.Chemscore.Internal.Correction>
   9.000000E+99

> <Gold.Chemscore.Hbonds>
donor molecule, donor type, donor heavy atom, donor atom, acceptor molecule, acceptor atom, score
      L1  H     7    17       P1  8028  0.79

> <Gold.Chemscore.Hbond.Weighted>
-2.9579

> <Gold.Chemscore.Metal.Weighted>
-0.0000

> <Gold.Chemscore.Lipo.Weighted>
-10.0595

> <Gold.Chemscore.Internal_Hbond.Weighted>
0.0000

> <Gold.Chemscore.DEClash.Weighted>
0.0341

> <Gold.Chemscore.DEInternal.Weighted>
0.0249

> <Gold.Chemscore.Rot.Weighted>
2.5600

> <Gold.Chemscore.Internal.Correction.Weighted>
   9.000000E+99

> <Gold.Protein.RotatedTorsions>
[ 6907 6896 6895 6894 ] final  143.32 input  -60.11 | X-H torsion
[ 7974 7965 7964 7962 ] final   43.51 input  175.53 | X-H torsion
[ 8008 7997 7996 7995 ] final  -37.25 input   59.86 | X-H torsion
[ 10167 10162 10161 10158 ] final  149.04 input  -65.29 | X-H torsion
[ 10718 10713 10712 10709 ] final  -60.13 input   66.30 | X-H torsion
[ 10763 10752 10751 10750 ] final  175.80 input  -60.55 | X-H torsion
[ 11005 11000 10999 10996 ] final   57.19 input  -57.11 | X-H torsion

> <Gold.Protein.ActiveResidues>
 VAL166  LYS551  ARG553  GLY616  TRP617  ASP618  TYR619  PRO620  LYS621  CYS622 
 ASP623  PHE694  ASN695  SER759  ASP760  ASP761  ALA762  ILE779  LEU786  VAL792 
 PHE793  MET794  SER795  GLU796  ALA797  LYS798  CYS799  TRP800  GLU811  SER814 

> <Gold.Protein.RotatedAtoms>
  152.2078  133.4888  159.5092 H   0  0  0  0  0  0  0  0  0  0  0  0  # atno 6907 bound_to 6896
  150.6983  134.1507  159.4148 H   0  0  0  0  0  0  0  0  0  0  0  0  # atno 6908 bound_to 6896
  151.9426  135.0206  160.0587 H   0  0  0  0  0  0  0  0  0  0  0  0  # atno 6909 bound_to 6896
  146.0649  139.5179  142.9634 H   0  0  0  0  0  0  0  0  0  0  0  0  # atno 7974 bound_to 7965
  154.4057  140.1609  156.2507 H   0  0  0  0  0  0  0  0  0  0  0  0  # atno 8008 bound_to 7997
  155.9121  140.3426  155.6084 H   0  0  0  0  0  0  0  0  0  0  0  0  # atno 8009 bound_to 7997
  155.7323  140.0782  157.2274 H   0  0  0  0  0  0  0  0  0  0  0  0  # atno 8010 bound_to 7997
  139.4866  144.5632  151.7192 H   0  0  0  0  0  0  0  0  0  0  0  0  # atno 10167 bound_to 10162
  156.1012  130.4186  150.0811 H   0  0  0  0  0  0  0  0  0  0  0  0  # atno 10718 bound_to 10713
  154.4725  135.2771  155.1631 H   0  0  0  0  0  0  0  0  0  0  0  0  # atno 10763 bound_to 10752
  154.3374  135.6177  153.5584 H   0  0  0  0  0  0  0  0  0  0  0  0  # atno 10764 bound_to 10752
  152.9866  135.5780  154.5110 H   0  0  0  0  0  0  0  0  0  0  0  0  # atno 10765 bound_to 10752
  140.0471  134.5789  155.9308 H   0  0  0  0  0  0  0  0  0  0  0  0  # atno 11005 bound_to 11000
  145.6494  141.0266  143.1768 LP  0  0  0  0  0  0  0  0  0  0  0  0  # atno 17320 bound_to 7965
  144.7196  139.8074  143.7386 LP  0  0  0  0  0  0  0  0  0  0  0  0  # atno 17321 bound_to 7965
  140.5206  144.0885  150.6021 LP  0  0  0  0  0  0  0  0  0  0  0  0  # atno 17342 bound_to 10162
  140.3841  143.2787  152.0136 LP  0  0  0  0  0  0  0  0  0  0  0  0  # atno 17343 bound_to 10162
  156.8798  130.9552  151.3600 LP  0  0  0  0  0  0  0  0  0  0  0  0  # atno 17370 bound_to 10713
  157.6183  130.8635  149.9065 LP  0  0  0  0  0  0  0  0  0  0  0  0  # atno 17371 bound_to 10713
  141.1912  133.6571  156.5448 LP  0  0  0  0  0  0  0  0  0  0  0  0  # atno 17394 bound_to 11000
  140.3975  134.7386  157.4760 LP  0  0  0  0  0  0  0  0  0  0  0  0  # atno 17395 bound_to 11000

$$$$
