AV-unprocessed.smi:900|AV-procd|sdf|4089|dock5
  -GOLD-   22720 1573D 1   1.00000     0.00000
 Structure written by MMmdl.
 33 34  0  0  0  0  0  0  0  0  1 V2000
  146.9152  139.1913  152.6979 C   0  0  0  0  0  0  0  0  0  0  0  0
  147.7004  140.2560  153.3026 N   0  0  0  0  0  0  0  0  0  0  0  0
  148.6689  140.0587  154.2094 C   0  0  0  0  0  0  0  0  0  0  0  0
  149.0035  138.9438  154.6096 O   0  0  0  0  0  0  0  0  0  0  0  0
  149.3688  141.3078  154.7486 C   0  0  0  0  0  0  0  0  0  0  0  0
  150.4886  140.9273  155.6632 C   0  0  0  0  0  0  0  0  0  0  0  0
  151.4986  140.1742  155.2427 N   0  0  0  0  0  0  0  0  0  0  0  0
  152.2971  140.0349  156.3867 O   0  0  0  0  0  0  0  0  0  0  0  0
  151.6781  140.7466  157.3587 C   0  0  0  0  0  0  0  0  0  0  0  0
  152.2578  140.7427  158.7344 C   0  0  0  0  0  0  0  0  0  0  0  0
  152.6140  142.1522  159.2389 C   0  0  0  0  0  0  0  0  0  0  0  0
  152.5562  142.3192  160.7608 C   0  0  0  0  0  0  0  0  0  0  0  0
  152.4394  143.8298  160.9907 C   0  0  0  0  0  0  0  0  0  0  0  0
  151.8678  144.4209  159.6924 C   0  0  0  0  0  0  0  0  0  0  0  0
  151.6670  143.2425  158.7333 C   0  0  0  0  0  0  0  0  0  0  0  0
  150.5423  141.3188  156.9670 N   0  0  0  0  0  0  0  0  0  0  0  0
  146.2655  139.6020  151.9250 H   0  0  0  0  0  0  0  0  0  0  0  0
  146.2895  138.7029  153.4458 H   0  0  0  0  0  0  0  0  0  0  0  0
  147.5595  138.4405  152.2380 H   0  0  0  0  0  0  0  0  0  0  0  0
  147.4846  141.2036  153.0273 H   0  0  0  0  0  0  0  0  0  0  0  0
  149.7541  141.9028  153.9190 H   0  0  0  0  0  0  0  0  0  0  0  0
  148.6537  141.9353  155.2825 H   0  0  0  0  0  0  0  0  0  0  0  0
  151.5364  140.2801  159.4089 H   0  0  0  0  0  0  0  0  0  0  0  0
  153.1408  140.1027  158.7397 H   0  0  0  0  0  0  0  0  0  0  0  0
  153.6230  142.4024  158.9059 H   0  0  0  0  0  0  0  0  0  0  0  0
  151.6683  141.8229  161.1549 H   0  0  0  0  0  0  0  0  0  0  0  0
  153.4236  141.8895  161.2633 H   0  0  0  0  0  0  0  0  0  0  0  0
  151.8104  144.0531  161.8531 H   0  0  0  0  0  0  0  0  0  0  0  0
  153.4239  144.2563  161.1863 H   0  0  0  0  0  0  0  0  0  0  0  0
  150.9333  144.9560  159.8646 H   0  0  0  0  0  0  0  0  0  0  0  0
  152.5772  145.1332  159.2690 H   0  0  0  0  0  0  0  0  0  0  0  0
  151.8595  143.5141  157.6950 H   0  0  0  0  0  0  0  0  0  0  0  0
  150.6344  142.8963  158.7973 H   0  0  0  0  0  0  0  0  0  0  0  0
  1  2  1  0  0  0  0
  1 17  1  0  0  0  0
  1 18  1  0  0  0  0
  1 19  1  0  0  0  0
  2  3  1  0  0  0  0
  2 20  1  0  0  0  0
  3  4  2  0  0  0  0
  3  5  1  0  0  0  0
  5  6  1  0  0  0  0
  5 21  1  0  0  0  0
  5 22  1  0  0  0  0
  6 16  1  0  0  0  0
  6  7  2  0  0  0  0
  7  8  1  0  0  0  0
  8  9  1  0  0  0  0
  9 10  1  0  0  0  0
  9 16  2  0  0  0  0
 10 11  1  0  0  0  0
 10 23  1  0  0  0  0
 10 24  1  0  0  0  0
 11 15  1  0  0  0  0
 11 12  1  0  0  0  0
 11 25  1  0  0  0  0
 12 13  1  0  0  0  0
 12 26  1  0  0  0  0
 12 27  1  0  0  0  0
 13 14  1  0  0  0  0
 13 28  1  0  0  0  0
 13 29  1  0  0  0  0
 14 15  1  0  0  0  0
 14 30  1  0  0  0  0
 14 31  1  0  0  0  0
 15 32  1  0  0  0  0
 15 33  1  0  0  0  0
M  END
> <s_m_source_file>
AV-unprocessed.smi

> <i_m_source_file_index>
900

> <i_lp_mmshare_version>
43012

> <i_f3d_flags>
0

> <s_epik_input>
W0NIM11bTkhdQyg9TylbQ0gyXWMxbm9jKG4xKVtDSDJdW0NIXTJbQ0gyXVtDSDJdW0NIMl1bQ0gyXTI=

> <s_epik_cmdline>
J2VwaWtfcHl0aG9uJywgJy1waCcsICc3LjAnLCAnLXRuJywgJzgnLCAnLW1hJywgJzIwMCcsICctbWV0YWxfYmluZGluZycsICctaW1hZScsICc8aW5maWxlLm1hZT4nLCAnLW9tYWUnLCAnPG91dGZpbGUubWFlPic=

> <r_lp_tautomer_probability>
1

> <r_epik_Ionization_Penalty>
1.02915e-07

> <r_epik_Ionization_Penalty_Charging>
0

> <r_epik_Ionization_Penalty_Neutral>
1.02915e-07

> <r_epik_State_Penalty>
-0

> <r_epik_Charging_Adjusted_Penalty>
0

> <i_epik_Tot_Q>
0

> <i_epik_Tot_abs_Q>
0

> <r_epik_Metal_State_Penalty>
-0

> <b_epik_Metal_Only>
0

> <s_lp_Force_Field>
OPLS_2005

> <r_lp_Energy>
19.3932

> <b_lp_Chiralities_Consistent>
1

> <s_lp_Variant>
AV-unprocessed.smi:900-1

> <Gold.Version>
5.8.1

> <Gold.Id.Protein>
6NUR|6NUR_protein|mol2

> <Gold.PLP.Fitness>
41.2101

> <Gold.PLP.PLP>
-35.9122

> <Gold.PLP.part.hbond>
-3.0000

> <Gold.PLP.part.metal>
0.0000

> <Gold.PLP.part.buried>
-2.6378

> <Gold.PLP.part.nonpolar>
-29.9580

> <Gold.PLP.part.repulsive>
0.3027

> <Gold.PLP.ligand.clash>
0.0000

> <Gold.PLP.ligand.torsion>
0.3482

> <Gold.PLP.Chemscore.Hbond>
1.9920

> <Gold.PLP.Chemscore.CHOScore>
0.0000

> <Gold.PLP.Chemscore.Metal>
0.0000

> <Gold.Chemscore.Hbonds>
donor molecule, donor type, donor heavy atom, donor atom, acceptor molecule, acceptor atom, score
      P1  H  7989  7998       L1     7  0.89
      P1  H  7997  8009       L1     8  0.99

> <Gold.PLP.Chemscore.Internal.Correction>
0.0183

> <Gold.Rescore>
     Score         DG    S(hbond)    S(metal)    S(lipo)     H(rot)  DE(clash)    DE(int)     intcor
     13.17     -15.19       1.54        0.00      79.98       1.87       0.12       1.90       ----

> <Gold.Chemscore.Fitness>
13.1725

> <Gold.Chemscore.DG>
-15.1858

> <Gold.Chemscore.ZeroCoef>
-5.4800

> <Gold.Chemscore.Hbond>
1.5396

> <Gold.Chemscore.Metal>
0.0000

> <Gold.Chemscore.Lipo>
79.9796

> <Gold.Chemscore.Internal_Hbond>
0.0000

> <Gold.Chemscore.DEClash>
0.1162

> <Gold.Chemscore.DEInternal>
1.8972

> <Gold.Chemscore.Rot>
1.8727

> <Gold.Chemscore.Internal.Correction>
   9.000000E+99

> <Gold.Chemscore.Hbonds>
donor molecule, donor type, donor heavy atom, donor atom, acceptor molecule, acceptor atom, score
      P1  H  7989  7998       L1     7  0.17
      P1  H  7997  8009       L1     8  0.86

> <Gold.Chemscore.Hbond.Weighted>
-5.1422

> <Gold.Chemscore.Metal.Weighted>
-0.0000

> <Gold.Chemscore.Lipo.Weighted>
-9.3576

> <Gold.Chemscore.Internal_Hbond.Weighted>
0.0000

> <Gold.Chemscore.DEClash.Weighted>
0.1162

> <Gold.Chemscore.DEInternal.Weighted>
1.8972

> <Gold.Chemscore.Rot.Weighted>
4.7940

> <Gold.Chemscore.Internal.Correction.Weighted>
   9.000000E+99

> <Gold.Protein.RotatedTorsions>
[ 6907 6896 6895 6894 ] final  149.38 input  -60.11 | X-H torsion
[ 7974 7965 7964 7962 ] final  -44.62 input  175.53 | X-H torsion
[ 8008 7997 7996 7995 ] final -161.50 input   59.86 | X-H torsion
[ 10167 10162 10161 10158 ] final  131.81 input  -65.29 | X-H torsion
[ 10718 10713 10712 10709 ] final  -27.11 input   66.30 | X-H torsion
[ 10763 10752 10751 10750 ] final -170.00 input  -60.55 | X-H torsion
[ 11005 11000 10999 10996 ] final   11.91 input  -57.11 | X-H torsion

> <Gold.Protein.ActiveResidues>
 VAL166  LYS551  ARG553  GLY616  TRP617  ASP618  TYR619  PRO620  LYS621  CYS622 
 ASP623  PHE694  ASN695  SER759  ASP760  ASP761  ALA762  ILE779  LEU786  VAL792 
 PHE793  MET794  SER795  GLU796  ALA797  LYS798  CYS799  TRP800  GLU811  SER814 

> <Gold.Protein.RotatedAtoms>
  152.1288  133.4396  159.4710 H   0  0  0  0  0  0  0  0  0  0  0  0  # atno 6907 bound_to 6896
  150.6877  134.2445  159.4495 H   0  0  0  0  0  0  0  0  0  0  0  0  # atno 6908 bound_to 6896
  152.0328  134.9757  160.0623 H   0  0  0  0  0  0  0  0  0  0  0  0  # atno 6909 bound_to 6896
  145.9902  140.7189  142.9320 H   0  0  0  0  0  0  0  0  0  0  0  0  # atno 7974 bound_to 7965
  155.7931  140.0881  157.1998 H   0  0  0  0  0  0  0  0  0  0  0  0  # atno 8008 bound_to 7997
  154.3984  140.1486  156.3244 H   0  0  0  0  0  0  0  0  0  0  0  0  # atno 8009 bound_to 7997
  155.8539  140.3433  155.5714 H   0  0  0  0  0  0  0  0  0  0  0  0  # atno 8010 bound_to 7997
  139.5367  144.6690  151.4761 H   0  0  0  0  0  0  0  0  0  0  0  0  # atno 10167 bound_to 10162
  156.4425  130.4467  149.7043 H   0  0  0  0  0  0  0  0  0  0  0  0  # atno 10718 bound_to 10713
  154.6463  135.2905  155.0043 H   0  0  0  0  0  0  0  0  0  0  0  0  # atno 10763 bound_to 10752
  154.1151  135.6556  153.4896 H   0  0  0  0  0  0  0  0  0  0  0  0  # atno 10764 bound_to 10752
  153.0352  135.5274  154.7351 H   0  0  0  0  0  0  0  0  0  0  0  0  # atno 10765 bound_to 10752
  140.4979  134.0775  155.7786 H   0  0  0  0  0  0  0  0  0  0  0  0  # atno 11005 bound_to 11000
  144.6887  140.3057  143.7256 LP  0  0  0  0  0  0  0  0  0  0  0  0  # atno 17320 bound_to 7965
  145.7641  139.1834  143.2250 LP  0  0  0  0  0  0  0  0  0  0  0  0  # atno 17321 bound_to 7965
  140.6577  143.8564  150.6853 LP  0  0  0  0  0  0  0  0  0  0  0  0  # atno 17342 bound_to 10162
  140.1949  143.4006  152.1836 LP  0  0  0  0  0  0  0  0  0  0  0  0  # atno 17343 bound_to 10162
  156.3902  130.7623  151.2624 LP  0  0  0  0  0  0  0  0  0  0  0  0  # atno 17370 bound_to 10713
  157.7506  131.0270  150.3986 LP  0  0  0  0  0  0  0  0  0  0  0  0  # atno 17371 bound_to 10713
  141.1451  133.9070  157.2236 LP  0  0  0  0  0  0  0  0  0  0  0  0  # atno 17394 bound_to 11000
  139.9730  135.0122  156.9561 LP  0  0  0  0  0  0  0  0  0  0  0  0  # atno 17395 bound_to 11000

$$$$
