#       Name:                AV-unprocessed.smi:2368
#       Creating user name   scv26
#       Creation time:       Fri Mar 27 13:06:30 2020


#       File generated by GOLD software.
#

@<TRIPOS>MOLECULE
AV-unprocessed.smi:2368
    40    41     1
SMALL
NO_CHARGES


@<TRIPOS>ATOM
      1 ****        -5.8689   0.7652   1.6951 C.3            1 S1                 0.0000
      2 ****        -4.5168   1.2724   1.2321 C.ar           1 S1                 0.0000
      3 ****        -4.4142   2.5795   0.9054 N.pl3          1 S1                 1.0000
      4 ****        -3.2662   3.1412   0.4731 C.ar           1 S1                 0.0000
      5 ****        -2.1025   2.3572   0.3520 C.ar           1 S1                 0.0000
      6 ****        -2.1484   0.9828   0.6988 C.ar           1 S1                 0.0000
      7 ****        -1.0242   0.1165   0.5912 N.am           1 S1                 0.0000
      8 ****         0.2819   0.4289   0.6432 C.2            1 S1                 0.0000
      9 ****         0.7362   1.5638   0.7859 O.2            1 S1                 0.0000
     10 ****         1.0480  -0.6657   0.5354 N.am           1 S1                 0.0000
     11 ****         2.5066  -0.6653   0.5593 C.3            1 S1                 0.0000
     12 ****         3.0338  -2.0645   0.7209 C.2            1 S1                 0.0000
     13 ****         3.8903  -2.4050  -0.2395 C.2            1 S1                 0.0000
     14 ****         4.1066  -1.3073  -1.2479 C.3            1 S1                 0.0000
     15 ****         3.8642  -1.7900  -2.6877 C.3            1 S1                 0.0000
     16 ****         4.1587  -0.7579  -3.6047 O.3            1 S1                 0.0000
     17 ****         3.1287  -0.1966  -0.7824 C.3            1 S1                 0.0000
     18 ****        -3.3813   0.4342   1.1316 C.ar           1 S1                 0.0000
     19 ****        -3.5022  -1.2438   1.5425 Cl             1 S1                 0.0000
     20 ****         2.8742  -0.0629   1.3919 H              1 S1                 0.0000
     21 ****         5.1370  -0.9657  -1.1415 H              1 S1                 0.0000
     22 ****        -5.8004   0.3735   2.7103 H              1 S1                 0.0000
     23 ****        -6.2186  -0.0335   1.0404 H              1 S1                 0.0000
     24 ****        -6.6166   1.5590   1.6882 H              1 S1                 0.0000
     25 ****        -3.3139   4.1932   0.2323 H              1 S1                 0.0000
     26 ****        -1.2012   2.8227  -0.0167 H              1 S1                 0.0000
     27 ****        -1.2413  -0.8690   0.5540 H              1 S1                 0.0000
     28 ****         0.5953  -1.5614   0.4257 H              1 S1                 0.0000
     29 ****         2.7456  -2.6967   1.5479 H              1 S1                 0.0000
     30 ****         4.3987  -3.3556  -0.3081 H              1 S1                 0.0000
     31 ****         4.5024  -2.6447  -2.9147 H              1 S1                 0.0000
     32 ****         2.8311  -2.1119  -2.8242 H              1 S1                 0.0000
     33 ****         4.0204  -1.0848  -4.4806 H              1 S1                 0.0000
     34 ****         2.3537  -0.0311  -1.5327 H              1 S1                 0.0000
     35 ****         3.6488   0.7539  -0.6588 H              1 S1                 0.0000
     36 ****        -5.2442   3.1677   0.9838 H              1 S1                 0.0000
     37 ****         0.1159   2.3433   0.8738 LP             1 S1                 0.0000
     38 ****         1.7255   1.7065   0.8138 LP             1 S1                 0.0000
     39 ****         5.1114  -0.4736  -3.4976 LP             1 S1                 0.0000
     40 ****         3.5570   0.0232  -3.4376 LP             1 S1                 0.0000
@<TRIPOS>BOND
    1    1    2 1     
    2    1   22 1     
    3    1   23 1     
    4    1   24 1     
    5    2   18 ar    
    6    2    3 ar    
    7    3    4 ar    
    8    3   36 1     
    9    4    5 ar    
   10    4   25 1     
   11    5    6 ar    
   12    5   26 1     
   13    6    7 1     
   14    6   18 ar    
   15    7    8 am    
   16    7   27 1     
   17    8    9 2     
   18    8   10 am    
   19   10   11 1     
   20   10   28 1     
   21   11   20 1     
   22   11   17 1     
   23   11   12 1     
   24   12   13 2     
   25   12   29 1     
   26   13   14 1     
   27   13   30 1     
   28   14   21 1     
   29   14   15 1     
   30   14   17 1     
   31   15   16 1     
   32   15   31 1     
   33   15   32 1     
   34   16   33 1     
   35   17   34 1     
   36   17   35 1     
   37   18   19 1     
   38    9   37 1     
   39    9   38 1     
   40   16   39 1     
   41   16   40 1     
@<TRIPOS>SUBSTRUCTURE
      1 S1             1
@<TRIPOS>SET
LONE_PAIRS      STATIC     ATOMS    <user>   **** ""
4 37 38 39 40
DONOR_HYDROGENS      STATIC     ATOMS    <user>   **** ""
4 36 27 28 33
ATOM$BLUE        STATIC     ATOMS    COLORGROUP SYSTEM
4 37 38 39 40
ATOM$RED        STATIC     ATOMS    COLORGROUP SYSTEM
4 36 27 28 33
