AV-unprocessed.smi:658|AV-procd|sdf|3236|dock2
  -GOLD-   22720 0183D 1   1.00000     0.00000
 Structure written by MMmdl.
 37 37  0  0  0  0  0  0  0  0  3 V2000
  145.9059  136.1105  150.3091 C   0  0  0  0  0  0  0  0  0  0  0  0
  145.5950  135.8841  151.7998 C   0  0  2  0  0  0  0  0  0  0  0  0
  146.3958  136.8351  152.6036 N   0  3  0  0  0  0  0  0  0  0  0  0
  146.0276  138.2547  152.4313 C   0  0  0  0  0  0  0  0  0  0  0  0
  147.2543  139.1596  152.5813 C   0  0  0  0  0  0  0  0  0  0  0  0
  147.6352  139.3848  154.0492 C   0  0  0  0  0  0  0  0  0  0  0  0
  149.0257  140.5822  154.1891 S   0  0  0  0  0  0  0  0  0  0  0  0
  148.6409  141.6310  153.0262 N   0  5  0  0  0  0  0  0  0  0  0  0
  148.9164  141.1632  155.5360 O   0  0  0  0  0  0  0  0  0  0  0  0
  150.2449  139.8207  153.8790 O   0  0  0  0  0  0  0  0  0  0  0  0
  145.8574  134.4232  152.2569 C   0  0  1  0  0  0  0  0  0  0  0  0
  145.4186  134.1557  153.7097 C   0  0  0  0  0  0  0  0  0  0  0  0
  145.2361  133.4546  151.3625 N   0  0  0  0  0  0  0  0  0  0  0  0
  145.8349  132.4184  150.6754 C   0  0  0  0  0  0  0  0  0  0  0  0
  144.8582  131.7816  149.9648 C   0  0  0  0  0  0  0  0  0  0  0  0
  143.6779  132.5083  150.2844 C   0  0  0  0  0  0  0  0  0  0  0  0
  143.9069  133.5095  151.1184 N   0  0  0  0  0  0  0  0  0  0  0  0
  145.2586  135.5153  149.6645 H   0  0  0  0  0  0  0  0  0  0  0  0
  146.9389  135.8507  150.0753 H   0  0  0  0  0  0  0  0  0  0  0  0
  145.7559  137.1550  150.0332 H   0  0  0  0  0  0  0  0  0  0  0  0
  144.5355  136.1074  151.9397 H   0  0  0  0  0  0  0  0  0  0  0  0
  146.3036  136.5902  153.5790 H   0  0  0  0  0  0  0  0  0  0  0  0
  145.5810  138.3908  151.4455 H   0  0  0  0  0  0  0  0  0  0  0  0
  145.2727  138.5303  153.1684 H   0  0  0  0  0  0  0  0  0  0  0  0
  148.0995  138.7176  152.0523 H   0  0  0  0  0  0  0  0  0  0  0  0
  147.0600  140.1219  152.1060 H   0  0  0  0  0  0  0  0  0  0  0  0
  146.7910  139.7806  154.6143 H   0  0  0  0  0  0  0  0  0  0  0  0
  147.9451  138.4519  154.5206 H   0  0  0  0  0  0  0  0  0  0  0  0
  148.8146  141.1808  152.1197 H   0  0  0  0  0  0  0  0  0  0  0  0
  146.9330  134.2459  152.2054 H   0  0  0  0  0  0  0  0  0  0  0  0
  145.9914  134.7543  154.4177 H   0  0  0  0  0  0  0  0  0  0  0  0
  145.5727  133.1100  153.9779 H   0  0  0  0  0  0  0  0  0  0  0  0
  144.3628  134.3841  153.8590 H   0  0  0  0  0  0  0  0  0  0  0  0
  146.8945  132.2223  150.7477 H   0  0  0  0  0  0  0  0  0  0  0  0
  144.9691  130.9252  149.3162 H   0  0  0  0  0  0  0  0  0  0  0  0
  142.6693  132.3393  149.9376 H   0  0  0  0  0  0  0  0  0  0  0  0
  147.3658  136.7351  152.3403 H   0  0  0  0  0  0  0  0  0  0  0  0
  1  2  1  0  0  0  0
  1 18  1  0  0  0  0
  1 19  1  0  0  0  0
  1 20  1  0  0  0  0
  2  3  1  0  0  0  0
  2 11  1  0  0  0  0
  2 21  1  0  0  0  0
  3  4  1  0  0  0  0
  3 22  1  0  0  0  0
  3 37  1  0  0  0  0
  4  5  1  0  0  0  0
  4 23  1  0  0  0  0
  4 24  1  0  0  0  0
  5  6  1  0  0  0  0
  5 25  1  0  0  0  0
  5 26  1  0  0  0  0
  6  7  1  0  0  0  0
  6 27  1  0  0  0  0
  6 28  1  0  0  0  0
  7  8  1  0  0  0  0
  7  9  2  0  0  0  0
  7 10  2  0  0  0  0
  8 29  1  0  0  0  0
 11 12  1  0  0  0  0
 11 13  1  0  0  0  0
 11 30  1  0  0  0  0
 12 31  1  0  0  0  0
 12 32  1  0  0  0  0
 12 33  1  0  0  0  0
 13 17  1  0  0  0  0
 13 14  1  0  0  0  0
 14 15  2  0  0  0  0
 14 34  1  0  0  0  0
 15 16  1  0  0  0  0
 15 35  1  0  0  0  0
 16 17  2  0  0  0  0
 16 36  1  0  0  0  0
M  CHG  1   3   1
M  CHG  1   8  -1
M  END
> <s_m_source_file>
AV-unprocessed.smi

> <i_m_source_file_index>
658

> <i_lp_mmshare_version>
43012

> <i_f3d_flags>
0

> <s_epik_input>
bjFbY0hdW2NIXVtjSF1uMVtDQEBIXShbQ0gzXSlbQ0BIXShbQ0gzXSlbTkhdW0NIMl1bQ0gyXVtDSDJdUyg9TykoPU8pW05IMl0=

> <s_epik_cmdline>
J2VwaWtfcHl0aG9uJywgJy1waCcsICc3LjAnLCAnLXRuJywgJzgnLCAnLW1hJywgJzIwMCcsICctbWV0YWxfYmluZGluZycsICctaW1hZScsICc8aW5maWxlLm1hZT4nLCAnLW9tYWUnLCAnPG91dGZpbGUubWFlPic=

> <r_lp_tautomer_probability>
1

> <r_epik_Ionization_Penalty>
4.63642

> <r_epik_Ionization_Penalty_Charging>
4.63641

> <r_epik_Ionization_Penalty_Neutral>
1.08396e-05

> <r_epik_State_Penalty>
4.63466

> <r_epik_Charging_Adjusted_Penalty>
9.27106

> <i_epik_Tot_Q>
0

> <i_epik_Tot_abs_Q>
2

> <r_epik_Metal_State_Penalty>
0.890424

> <b_epik_Metal_Only>
1

> <s_lp_Force_Field>
OPLS_2005

> <r_lp_Energy>
-1.73265

> <b_lp_Chiralities_Consistent>
1

> <s_lp_Variant>
AV-unprocessed.smi:658-7

> <Gold.Version>
5.8.1

> <Gold.Id.Protein>
6NUR|6NUR_protein|mol2

> <Gold.PLP.Fitness>
44.8730

> <Gold.PLP.PLP>
-28.5249

> <Gold.PLP.part.hbond>
-4.0178

> <Gold.PLP.part.metal>
0.0000

> <Gold.PLP.part.buried>
-3.1570

> <Gold.PLP.part.nonpolar>
-21.9998

> <Gold.PLP.part.repulsive>
0.6955

> <Gold.PLP.ligand.clash>
0.0000

> <Gold.PLP.ligand.torsion>
0.9678

> <Gold.PLP.Chemscore.Hbond>
4.0000

> <Gold.PLP.Chemscore.CHOScore>
2.0487

> <Gold.PLP.Chemscore.Metal>
0.0000

> <Gold.Chemscore.Hbonds>
donor molecule, donor type, donor heavy atom, donor atom, acceptor molecule, acceptor atom, score
      L1  H     3    37       P1  7948  2.00
      L1  H     8    29       P1  7957  1.00
      P1  H  7989  7998       L1    10  0.98
      L1  C    14    34       P1 10747  1.00
      L1  C    16    36       P1 10186  0.50
      L1  C    16    36       P1 10952  0.49

> <Gold.PLP.Chemscore.Internal.Correction>
0.1377

> <Gold.Rescore>
     Score         DG    S(hbond)    S(metal)    S(lipo)     H(rot)  DE(clash)    DE(int)     intcor
     13.57     -14.87       2.84        0.00      65.63       3.04       0.13       1.17       ----

> <Gold.Chemscore.Fitness>
13.5709

> <Gold.Chemscore.DG>
-14.8675

> <Gold.Chemscore.ZeroCoef>
-5.4800

> <Gold.Chemscore.Hbond>
2.8422

> <Gold.Chemscore.Metal>
0.0000

> <Gold.Chemscore.Lipo>
65.6339

> <Gold.Chemscore.Internal_Hbond>
0.0000

> <Gold.Chemscore.DEClash>
0.1313

> <Gold.Chemscore.DEInternal>
1.1653

> <Gold.Chemscore.Rot>
3.0409

> <Gold.Chemscore.Internal.Correction>
   9.000000E+99

> <Gold.Chemscore.Hbonds>
donor molecule, donor type, donor heavy atom, donor atom, acceptor molecule, acceptor atom, score
      L1  H     3    37       P1  7948  1.00
      L1  H     8    29       P1  7957  0.97
      P1  H  7989  7998       L1    10  0.79

> <Gold.Chemscore.Hbond.Weighted>
-9.4931

> <Gold.Chemscore.Metal.Weighted>
-0.0000

> <Gold.Chemscore.Lipo.Weighted>
-7.6792

> <Gold.Chemscore.Internal_Hbond.Weighted>
0.0000

> <Gold.Chemscore.DEClash.Weighted>
0.1313

> <Gold.Chemscore.DEInternal.Weighted>
1.1653

> <Gold.Chemscore.Rot.Weighted>
7.7848

> <Gold.Chemscore.Internal.Correction.Weighted>
   9.000000E+99

> <Gold.Protein.RotatedTorsions>
[ 6907 6896 6895 6894 ] final  -84.57 input  -60.11 | X-H torsion
[ 7974 7965 7964 7962 ] final  156.78 input  175.53 | X-H torsion
[ 8008 7997 7996 7995 ] final  -52.35 input   59.86 | X-H torsion
[ 10167 10162 10161 10158 ] final  113.87 input  -65.29 | X-H torsion
[ 10718 10713 10712 10709 ] final  -41.66 input   66.30 | X-H torsion
[ 10763 10752 10751 10750 ] final   57.81 input  -60.55 | X-H torsion
[ 11005 11000 10999 10996 ] final -119.60 input  -57.11 | X-H torsion

> <Gold.Protein.ActiveResidues>
 VAL166  LYS551  ARG553  GLY616  TRP617  ASP618  TYR619  PRO620  LYS621  CYS622 
 ASP623  PHE694  ASN695  SER759  ASP760  ASP761  ALA762  ILE779  LEU786  VAL792 
 PHE793  MET794  SER795  GLU796  ALA797  LYS798  CYS799  TRP800  GLU811  SER814 

> <Gold.Protein.RotatedAtoms>
  150.6875  134.3338  159.4838 H   0  0  0  0  0  0  0  0  0  0  0  0  # atno 6907 bound_to 6896
  152.1200  134.9210  160.0572 H   0  0  0  0  0  0  0  0  0  0  0  0  # atno 6908 bound_to 6896
  152.0420  133.3947  159.4378 H   0  0  0  0  0  0  0  0  0  0  0  0  # atno 6909 bound_to 6896
  144.7942  139.7251  143.6209 H   0  0  0  0  0  0  0  0  0  0  0  0  # atno 7974 bound_to 7965
  154.4104  140.1226  156.4977 H   0  0  0  0  0  0  0  0  0  0  0  0  # atno 8008 bound_to 7997
  155.6927  140.3495  155.4880 H   0  0  0  0  0  0  0  0  0  0  0  0  # atno 8009 bound_to 7997
  155.9455  140.1095  157.1010 H   0  0  0  0  0  0  0  0  0  0  0  0  # atno 8010 bound_to 7997
  139.6430  144.7125  151.2199 H   0  0  0  0  0  0  0  0  0  0  0  0  # atno 10167 bound_to 10162
  156.2680  130.4203  149.8469 H   0  0  0  0  0  0  0  0  0  0  0  0  # atno 10718 bound_to 10713
  152.9857  135.5628  154.5451 H   0  0  0  0  0  0  0  0  0  0  0  0  # atno 10763 bound_to 10752
  154.4898  135.2792  155.1507 H   0  0  0  0  0  0  0  0  0  0  0  0  # atno 10764 bound_to 10752
  154.2982  135.6313  153.5466 H   0  0  0  0  0  0  0  0  0  0  0  0  # atno 10765 bound_to 10752
  141.0204  134.0133  157.3291 H   0  0  0  0  0  0  0  0  0  0  0  0  # atno 11005 bound_to 11000
  146.2205  139.5627  142.9621 LP  0  0  0  0  0  0  0  0  0  0  0  0  # atno 17320 bound_to 7965
  145.5715  141.0393  143.2171 LP  0  0  0  0  0  0  0  0  0  0  0  0  # atno 17321 bound_to 7965
  140.7500  143.6279  150.8451 LP  0  0  0  0  0  0  0  0  0  0  0  0  # atno 17342 bound_to 10162
  139.9919  143.5838  152.2907 LP  0  0  0  0  0  0  0  0  0  0  0  0  # atno 17343 bound_to 10162
  156.5961  130.8527  151.3420 LP  0  0  0  0  0  0  0  0  0  0  0  0  # atno 17370 bound_to 10713
  157.7274  130.9642  150.1697 LP  0  0  0  0  0  0  0  0  0  0  0  0  # atno 17371 bound_to 10713
  139.9142  135.0194  156.7816 LP  0  0  0  0  0  0  0  0  0  0  0  0  # atno 17394 bound_to 11000
  140.6583  133.9668  155.7791 LP  0  0  0  0  0  0  0  0  0  0  0  0  # atno 17395 bound_to 11000

$$$$
