#       Name:                AV-unprocessed.smi:2698
#       Creating user name   scv26
#       Creation time:       Fri Mar 27 14:46:07 2020


#       File generated by GOLD software.
#

@<TRIPOS>MOLECULE
AV-unprocessed.smi:2698
    40    40     1
SMALL
NO_CHARGES


@<TRIPOS>ATOM
      1 ****        -3.8216  -0.0643  -0.4939 C.3            1 S1                 0.0000
      2 ****        -2.2978   0.0887  -0.6139 C.3            1 S1                 0.0000
      3 ****        -1.9450   1.0180  -1.7901 C.3            1 S1                 0.0000
      4 ****        -1.6184  -1.2977  -0.7032 C.3            1 S1                 0.0000
      5 ****        -0.0958  -1.2388  -0.5541 C.2            1 S1                 0.0000
      6 ****         0.6075  -0.9290  -1.5159 O.2            1 S1                 0.0000
      7 ****         0.3952  -1.5423   0.6583 N.am           1 S1                 0.0000
      8 ****         1.8023  -1.5029   1.0573 C.3            1 S1                 0.0000
      9 ****         2.1670  -0.1477   1.7024 C.3            1 S1                 0.0000
     10 ****         1.9677   1.0585   0.8178 C.2            1 S1                 0.0000
     11 ****         2.7770   1.5241  -0.1982 C.2            1 S1                 0.0000
     12 ****         2.1432   2.6378  -0.7195 N.pl3          1 S1                 0.0000
     13 ****         1.0158   2.8050  -0.0278 C.2            1 S1                 0.0000
     14 ****         0.8458   1.8903   0.9172 N.2            1 S1                 0.0000
     15 ****         2.1271  -2.7029   1.9525 C.2            1 S1                 0.0000
     16 ****         1.4450  -2.8449   2.9921 O.co2          1 S1                 0.0000
     17 ****         3.0549  -3.4574   1.5867 O.co2          1 S1                -1.0000
     18 ****         2.4686   3.2112  -1.4842 H              1 S1                 0.0000
     19 ****        -4.2430  -0.5368  -1.3816 H              1 S1                 0.0000
     20 ****        -4.3057   0.9048  -0.3703 H              1 S1                 0.0000
     21 ****        -4.0896  -0.6754   0.3684 H              1 S1                 0.0000
     22 ****        -1.9532   0.5738   0.3010 H              1 S1                 0.0000
     23 ****        -2.2228   0.5703  -2.7447 H              1 S1                 0.0000
     24 ****        -0.8796   1.2438  -1.8245 H              1 S1                 0.0000
     25 ****        -2.4683   1.9706  -1.7058 H              1 S1                 0.0000
     26 ****        -2.0175  -1.9557   0.0704 H              1 S1                 0.0000
     27 ****        -1.8598  -1.7725  -1.6551 H              1 S1                 0.0000
     28 ****        -0.2597  -1.8066   1.3800 H              1 S1                 0.0000
     29 ****         2.4189  -1.6134   0.1629 H              1 S1                 0.0000
     30 ****         1.5978  -0.0005   2.6216 H              1 S1                 0.0000
     31 ****         3.2166  -0.1644   1.9985 H              1 S1                 0.0000
     32 ****         3.7154   1.1566  -0.5859 H              1 S1                 0.0000
     33 ****         0.3112   3.6010  -0.2190 H              1 S1                 0.0000
     34 ****         0.1845  -0.7153  -2.3964 LP             1 S1                 0.0000
     35 ****         1.6019  -0.8911  -1.4166 LP             1 S1                 0.0000
     36 ****         0.0836   1.8118   1.5598 LP             1 S1                 0.0000
     37 ****         1.6254  -3.6122   3.6075 LP             1 S1                 0.0000
     38 ****         0.7196  -2.1911   3.2074 LP             1 S1                 0.0000
     39 ****         3.3032  -4.2506   2.1429 LP             1 S1                 0.0000
     40 ****         3.5486  -3.2676   0.7380 LP             1 S1                 0.0000
@<TRIPOS>BOND
    1    1    2 1     
    2    1   19 1     
    3    1   20 1     
    4    1   21 1     
    5    2    3 1     
    6    2    4 1     
    7    2   22 1     
    8    3   23 1     
    9    3   24 1     
   10    3   25 1     
   11    4    5 1     
   12    4   26 1     
   13    4   27 1     
   14    5    6 2     
   15    5    7 am    
   16    7    8 1     
   17    7   28 1     
   18    8    9 1     
   19    8   15 1     
   20    8   29 1     
   21    9   10 1     
   22    9   30 1     
   23    9   31 1     
   24   10   14 1     
   25   10   11 2     
   26   11   12 1     
   27   11   32 1     
   28   12   18 1     
   29   12   13 1     
   30   13   14 2     
   31   13   33 1     
   32   15   16 ar    
   33   15   17 ar    
   34    6   34 1     
   35    6   35 1     
   36   14   36 1     
   37   16   37 1     
   38   16   38 1     
   39   17   39 1     
   40   17   40 1     
@<TRIPOS>SUBSTRUCTURE
      1 S1             1
@<TRIPOS>SET
LONE_PAIRS      STATIC     ATOMS    <user>   **** ""
7 34 35 36 37 38 39 40
DONOR_HYDROGENS      STATIC     ATOMS    <user>   **** ""
2 28 18
ATOM$BLUE        STATIC     ATOMS    COLORGROUP SYSTEM
7 34 35 36 37 38 39 40
ATOM$RED        STATIC     ATOMS    COLORGROUP SYSTEM
2 28 18
