AV-unprocessed.smi:232|AV-procd|sdf|1775|dock10
  -GOLD-   2262020323D 1   1.00000     0.00000
 Structure written by MMmdl.
 52 55  0  0  0  0  0  0  0  0  1 V2000
  146.8617  140.0834  151.8299 C   0  0  0  0  0  0  0  0  0  0  0  0
  147.0291  138.8848  152.7733 C   0  0  0  0  0  0  0  0  0  0  0  0
  147.5232  139.2696  154.1802 C   0  0  2  0  0  0  0  0  0  0  0  0
  146.6201  140.3032  154.8728 C   0  0  0  0  0  0  0  0  0  0  0  0
  147.5926  141.1277  155.7086 C   0  0  0  0  0  0  0  0  0  0  0  0
  148.8120  141.1762  154.7928 C   0  0  1  0  0  0  0  0  0  0  0  0
  150.1014  141.6777  155.4749 C   0  0  0  0  0  0  0  0  0  0  0  0
  148.8694  139.8548  154.1605 N   0  0  0  0  0  0  0  0  0  0  0  0
  149.9008  139.0371  154.4818 C   0  0  0  0  0  0  0  0  0  0  0  0
  151.1855  139.4308  154.2748 N   0  0  0  0  0  0  0  0  0  0  0  0
  152.1934  138.6065  154.5779 C   0  0  0  0  0  0  0  0  0  0  0  0
  152.1401  137.3712  155.0818 N   0  0  0  0  0  0  0  0  0  0  0  0
  150.8506  136.9740  155.2818 C   0  0  0  0  0  0  0  0  0  0  0  0
  149.6823  137.7378  155.0098 C   0  0  0  0  0  0  0  0  0  0  0  0
  148.5465  137.0077  155.3358 N   0  0  0  0  0  0  0  0  0  0  0  0
  149.0174  135.8725  155.7761 C   0  0  0  0  0  0  0  0  0  0  0  0
  150.3903  135.7672  155.7758 N   0  0  0  0  0  0  0  0  0  0  0  0
  151.1796  134.6260  156.2031 C   0  0  0  0  0  0  0  0  0  0  0  0
  150.3139  133.3738  156.4457 C   0  0  2  0  0  0  0  0  0  0  0  0
  150.9655  132.5351  157.3814 O   0  0  0  0  0  0  0  0  0  0  0  0
  150.0596  132.5762  155.1532 C   0  0  1  0  0  0  0  0  0  0  0  0
  149.1088  131.3884  155.3238 C   0  0  0  0  0  0  0  0  0  0  0  0
  148.5489  131.2355  153.9289 C   0  0  0  0  0  0  0  0  0  0  0  0
  148.3958  132.6909  153.5027 C   0  0  0  0  0  0  0  0  0  0  0  0
  149.4339  133.4020  154.1716 O   0  0  0  0  0  0  0  0  0  0  0  0
  146.5802  139.7520  150.8303 H   0  0  0  0  0  0  0  0  0  0  0  0
  147.7896  140.6495  151.7439 H   0  0  0  0  0  0  0  0  0  0  0  0
  146.0844  140.7625  152.1801 H   0  0  0  0  0  0  0  0  0  0  0  0
  146.0868  138.3402  152.8450 H   0  0  0  0  0  0  0  0  0  0  0  0
  147.7456  138.1955  152.3255 H   0  0  0  0  0  0  0  0  0  0  0  0
  147.5106  138.3707  154.7975 H   0  0  0  0  0  0  0  0  0  0  0  0
  146.1430  140.9493  154.1340 H   0  0  0  0  0  0  0  0  0  0  0  0
  145.8331  139.8425  155.4703 H   0  0  0  0  0  0  0  0  0  0  0  0
  147.2073  142.1169  155.9577 H   0  0  0  0  0  0  0  0  0  0  0  0
  147.8293  140.6052  156.6367 H   0  0  0  0  0  0  0  0  0  0  0  0
  148.5920  141.8732  153.9827 H   0  0  0  0  0  0  0  0  0  0  0  0
  149.9616  142.6862  155.8644 H   0  0  0  0  0  0  0  0  0  0  0  0
  150.9348  141.7135  154.7727 H   0  0  0  0  0  0  0  0  0  0  0  0
  150.3912  141.0440  156.3136 H   0  0  0  0  0  0  0  0  0  0  0  0
  153.1845  138.9903  154.3860 H   0  0  0  0  0  0  0  0  0  0  0  0
  148.3714  135.0737  156.1104 H   0  0  0  0  0  0  0  0  0  0  0  0
  151.9275  134.4286  155.4343 H   0  0  0  0  0  0  0  0  0  0  0  0
  151.7267  134.8961  157.1075 H   0  0  0  0  0  0  0  0  0  0  0  0
  149.3569  133.6758  156.8732 H   0  0  0  0  0  0  0  0  0  0  0  0
  150.6434  131.6540  157.2695 H   0  0  0  0  0  0  0  0  0  0  0  0
  151.0029  132.2231  154.7329 H   0  0  0  0  0  0  0  0  0  0  0  0
  149.6105  130.4897  155.6835 H   0  0  0  0  0  0  0  0  0  0  0  0
  148.3062  131.6333  156.0211 H   0  0  0  0  0  0  0  0  0  0  0  0
  149.2707  130.7276  153.2877 H   0  0  0  0  0  0  0  0  0  0  0  0
  147.6110  130.6804  153.8991 H   0  0  0  0  0  0  0  0  0  0  0  0
  148.4558  132.8176  152.4216 H   0  0  0  0  0  0  0  0  0  0  0  0
  147.4363  133.0866  153.8379 H   0  0  0  0  0  0  0  0  0  0  0  0
  1  2  1  0  0  0  0
  1 26  1  0  0  0  0
  1 27  1  0  0  0  0
  1 28  1  0  0  0  0
  2  3  1  0  0  0  0
  2 29  1  0  0  0  0
  2 30  1  0  0  0  0
  3  8  1  0  0  0  0
  3  4  1  0  0  0  0
  3 31  1  0  0  0  0
  4  5  1  0  0  0  0
  4 32  1  0  0  0  0
  4 33  1  0  0  0  0
  5  6  1  0  0  0  0
  5 34  1  0  0  0  0
  5 35  1  0  0  0  0
  6  7  1  0  0  0  0
  6  8  1  0  0  0  0
  6 36  1  0  0  0  0
  7 37  1  0  0  0  0
  7 38  1  0  0  0  0
  7 39  1  0  0  0  0
  8  9  1  0  0  0  0
  9 14  1  0  0  0  0
  9 10  2  0  0  0  0
 10 11  1  0  0  0  0
 11 12  2  0  0  0  0
 11 40  1  0  0  0  0
 12 13  1  0  0  0  0
 13 17  1  0  0  0  0
 13 14  2  0  0  0  0
 14 15  1  0  0  0  0
 15 16  2  0  0  0  0
 16 17  1  0  0  0  0
 16 41  1  0  0  0  0
 17 18  1  0  0  0  0
 18 19  1  0  0  0  0
 18 42  1  0  0  0  0
 18 43  1  0  0  0  0
 19 20  1  0  0  0  0
 19 21  1  0  0  0  0
 19 44  1  0  0  0  0
 20 45  1  0  0  0  0
 21 25  1  0  0  0  0
 21 22  1  0  0  0  0
 21 46  1  0  0  0  0
 22 23  1  0  0  0  0
 22 47  1  0  0  0  0
 22 48  1  0  0  0  0
 23 24  1  0  0  0  0
 23 49  1  0  0  0  0
 23 50  1  0  0  0  0
 24 25  1  0  0  0  0
 24 51  1  0  0  0  0
 24 52  1  0  0  0  0
M  END
> <s_m_source_file>
AV-unprocessed.smi

> <i_m_source_file_index>
232

> <i_lp_mmshare_version>
43012

> <i_f3d_flags>
0

> <s_epik_input>
W0NIM11bQ0gyXVtDQEBIXTFbQ0gyXVtDSDJdW0NAQEhdKFtDSDNdKU4xYyhuW2NIXW4yKWMoYzIzKW5bY0hdbjNbQ0gyXVtDQEhdKFtPSF0pW0NAQEhdNFtDSDJdW0NIMl1bQ0gyXU80

> <s_epik_cmdline>
J2VwaWtfcHl0aG9uJywgJy1waCcsICc3LjAnLCAnLXRuJywgJzgnLCAnLW1hJywgJzIwMCcsICctbWV0YWxfYmluZGluZycsICctaW1hZScsICc8aW5maWxlLm1hZT4nLCAnLW9tYWUnLCAnPG91dGZpbGUubWFlPic=

> <r_lp_tautomer_probability>
1

> <r_epik_Ionization_Penalty>
0.00258048

> <r_epik_Ionization_Penalty_Charging>
0

> <r_epik_Ionization_Penalty_Neutral>
0.00258048

> <r_epik_State_Penalty>
0.00168551

> <r_epik_Charging_Adjusted_Penalty>
0.00168551

> <i_epik_Tot_Q>
0

> <i_epik_Tot_abs_Q>
0

> <r_epik_Metal_State_Penalty>
-0

> <b_epik_Metal_Only>
0

> <s_lp_Force_Field>
OPLS_2005

> <r_lp_Energy>
56.7631

> <b_lp_Chiralities_Consistent>
1

> <s_lp_Variant>
AV-unprocessed.smi:232-9

> <Gold.Version>
5.8.1

> <Gold.Id.Protein>
6NUR|6NUR_protein|mol2

> <Gold.PLP.Fitness>
43.7166

> <Gold.PLP.PLP>
-37.2585

> <Gold.PLP.part.hbond>
-3.0000

> <Gold.PLP.part.metal>
0.0000

> <Gold.PLP.part.buried>
-1.7430

> <Gold.PLP.part.nonpolar>
-33.4655

> <Gold.PLP.part.repulsive>
0.6212

> <Gold.PLP.ligand.clash>
0.4236

> <Gold.PLP.ligand.torsion>
0.5101

> <Gold.PLP.Chemscore.Hbond>
2.5581

> <Gold.PLP.Chemscore.CHOScore>
0.0000

> <Gold.PLP.Chemscore.Metal>
0.0000

> <Gold.Chemscore.Hbonds>
donor molecule, donor type, donor heavy atom, donor atom, acceptor molecule, acceptor atom, score
      P1  H  6896  6909       L1    20  0.89
      P1  H  7989  7998       L1    10  1.00
      P1  H 10752 10764       L1    12  0.72

> <Gold.PLP.Chemscore.Internal.Correction>
0.2277

> <Gold.Rescore>
     Score         DG    S(hbond)    S(metal)    S(lipo)     H(rot)  DE(clash)    DE(int)     intcor
     10.13     -15.11       2.07        0.00      76.36       2.43       1.42       3.55       ----

> <Gold.Chemscore.Fitness>
10.1336

> <Gold.Chemscore.DG>
-15.1056

> <Gold.Chemscore.ZeroCoef>
-5.4800

> <Gold.Chemscore.Hbond>
2.0664

> <Gold.Chemscore.Metal>
0.0000

> <Gold.Chemscore.Lipo>
76.3639

> <Gold.Chemscore.Internal_Hbond>
0.0000

> <Gold.Chemscore.DEClash>
1.4180

> <Gold.Chemscore.DEInternal>
3.5540

> <Gold.Chemscore.Rot>
2.4260

> <Gold.Chemscore.Internal.Correction>
   9.000000E+99

> <Gold.Chemscore.Hbonds>
donor molecule, donor type, donor heavy atom, donor atom, acceptor molecule, acceptor atom, score
      P1  H  6896  6909       L1    20  0.79
      P1  H  7989  7998       L1    10  0.90
      P1  H 10752 10764       L1    12  0.17

> <Gold.Chemscore.Hbond.Weighted>
-6.9017

> <Gold.Chemscore.Metal.Weighted>
-0.0000

> <Gold.Chemscore.Lipo.Weighted>
-8.9346

> <Gold.Chemscore.Internal_Hbond.Weighted>
0.0000

> <Gold.Chemscore.DEClash.Weighted>
1.4180

> <Gold.Chemscore.DEInternal.Weighted>
3.5540

> <Gold.Chemscore.Rot.Weighted>
6.2107

> <Gold.Chemscore.Internal.Correction.Weighted>
   9.000000E+99

> <Gold.Protein.RotatedTorsions>
[ 6907 6896 6895 6894 ] final  -50.50 input  -60.11 | X-H torsion
[ 7974 7965 7964 7962 ] final  -80.61 input  175.53 | X-H torsion
[ 8008 7997 7996 7995 ] final   19.09 input   59.86 | X-H torsion
[ 10167 10162 10161 10158 ] final   29.84 input  -65.29 | X-H torsion
[ 10718 10713 10712 10709 ] final  -24.83 input   66.30 | X-H torsion
[ 10763 10752 10751 10750 ] final  -44.77 input  -60.55 | X-H torsion
[ 11005 11000 10999 10996 ] final -139.07 input  -57.11 | X-H torsion

> <Gold.Protein.ActiveResidues>
 VAL166  LYS551  ARG553  GLY616  TRP617  ASP618  TYR619  PRO620  LYS621  CYS622 
 ASP623  PHE694  ASN695  SER759  ASP760  ASP761  ALA762  ILE779  LEU786  VAL792 
 PHE793  MET794  SER795  GLU796  ALA797  LYS798  CYS799  TRP800  GLU811  SER814 

> <Gold.Protein.RotatedAtoms>
  150.8701  134.8073  159.7148 H   0  0  0  0  0  0  0  0  0  0  0  0  # atno 6907 bound_to 6896
  152.4709  134.4960  159.9720 H   0  0  0  0  0  0  0  0  0  0  0  0  # atno 6908 bound_to 6896
  151.5050  133.3458  159.2911 H   0  0  0  0  0  0  0  0  0  0  0  0  # atno 6909 bound_to 6896
  145.5577  140.9487  143.1464 H   0  0  0  0  0  0  0  0  0  0  0  0  # atno 7974 bound_to 7965
  154.9156  140.3020  155.5243 H   0  0  0  0  0  0  0  0  0  0  0  0  # atno 8008 bound_to 7997
  156.3012  140.2381  156.4136 H   0  0  0  0  0  0  0  0  0  0  0  0  # atno 8009 bound_to 7997
  154.8382  140.0415  157.1512 H   0  0  0  0  0  0  0  0  0  0  0  0  # atno 8010 bound_to 7997
  140.4731  144.0732  150.6243 H   0  0  0  0  0  0  0  0  0  0  0  0  # atno 10167 bound_to 10162
  156.4724  130.4527  149.6861 H   0  0  0  0  0  0  0  0  0  0  0  0  # atno 10718 bound_to 10713
  154.0176  135.6673  153.4770 H   0  0  0  0  0  0  0  0  0  0  0  0  # atno 10763 bound_to 10752
  153.0594  135.5037  154.8054 H   0  0  0  0  0  0  0  0  0  0  0  0  # atno 10764 bound_to 10752
  154.6957  135.3069  154.9379 H   0  0  0  0  0  0  0  0  0  0  0  0  # atno 10765 bound_to 10752
  140.8555  134.2233  157.4737 H   0  0  0  0  0  0  0  0  0  0  0  0  # atno 11005 bound_to 11000
  144.7498  139.7224  143.7277 LP  0  0  0  0  0  0  0  0  0  0  0  0  # atno 17320 bound_to 7965
  146.1873  139.5095  142.9828 LP  0  0  0  0  0  0  0  0  0  0  0  0  # atno 17321 bound_to 7965
  140.3953  143.2731  152.0012 LP  0  0  0  0  0  0  0  0  0  0  0  0  # atno 17342 bound_to 10162
  139.4821  144.6043  151.7549 LP  0  0  0  0  0  0  0  0  0  0  0  0  # atno 17343 bound_to 10162
  156.3605  130.7479  151.2450 LP  0  0  0  0  0  0  0  0  0  0  0  0  # atno 17370 bound_to 10713
  157.7490  131.0352  150.4350 LP  0  0  0  0  0  0  0  0  0  0  0  0  # atno 17371 bound_to 10713
  139.8705  134.9704  156.4701 LP  0  0  0  0  0  0  0  0  0  0  0  0  # atno 17394 bound_to 11000
  140.8742  133.7966  155.9396 LP  0  0  0  0  0  0  0  0  0  0  0  0  # atno 17395 bound_to 11000

$$$$
