AV-unprocessed.smi:102|AV-procd|sdf|967|dock10
  -GOLD-   2262017513D 1   1.00000     0.00000
 Structure written by MMmdl.
 43 44  0  0  0  0  0  0  0  0  2 V2000
  145.9108  137.1344  152.5063 C   0  0  0  0  0  0  0  0  0  0  0  0
  146.5978  138.4224  152.0721 C   0  0  0  0  0  0  0  0  0  0  0  0
  146.9453  138.6051  150.9051 O   0  0  0  0  0  0  0  0  0  0  0  0
  146.7629  139.2796  153.0882 O   0  0  0  0  0  0  0  0  0  0  0  0
  146.9447  140.6619  152.8255 C   0  0  0  0  0  0  0  0  0  0  0  0
  148.0296  141.2363  153.7467 C   0  0  2  0  0  0  0  0  0  0  0  0
  149.2501  140.5289  153.5916 O   0  0  0  0  0  0  0  0  0  0  0  0
  150.0019  140.6318  154.7634 C   0  0  2  0  0  0  0  0  0  0  0  0
  150.5130  139.2493  155.1130 N   0  0  0  0  0  0  0  0  0  0  0  0
  149.6192  138.2091  155.3019 C   0  0  0  0  0  0  0  0  0  0  0  0
  150.0438  136.9724  155.6296 C   0  0  0  0  0  0  0  0  0  0  0  0
  149.1506  135.9842  155.8100 F   0  0  0  0  0  0  0  0  0  0  0  0
  151.4743  136.7196  155.7915 C   0  0  0  0  0  0  0  0  0  0  0  0
  151.8574  135.5872  156.0809 O   0  0  0  0  0  0  0  0  0  0  0  0
  152.3314  137.7670  155.6146 N   0  5  0  0  0  0  0  0  0  0  0  0
  151.9052  139.0237  155.2926 C   0  0  0  0  0  0  0  0  0  0  0  0
  152.6709  139.9786  155.1626 O   0  0  0  0  0  0  0  0  0  0  0  0
  149.1033  141.2283  155.8713 C   0  0  2  0  0  0  0  0  0  0  0  0
  149.1460  140.4661  157.0740 O   0  0  0  0  0  0  0  0  0  0  0  0
  150.2769  140.3880  157.7920 C   0  0  0  0  0  0  0  0  0  0  0  0
  150.3890  139.0719  158.5496 C   0  0  0  0  0  0  0  0  0  0  0  0
  151.1509  141.2517  157.8683 O   0  0  0  0  0  0  0  0  0  0  0  0
  147.7192  141.1732  155.2435 C   0  0  1  0  0  0  0  0  0  0  0  0
  146.9566  142.2967  155.6635 O   0  0  0  0  0  0  0  0  0  0  0  0
  145.6240  142.3122  155.4924 C   0  0  0  0  0  0  0  0  0  0  0  0
  145.0308  143.7009  155.6887 C   0  0  0  0  0  0  0  0  0  0  0  0
  144.9169  141.3463  155.2054 O   0  0  0  0  0  0  0  0  0  0  0  0
  145.1645  137.3378  153.2749 H   0  0  0  0  0  0  0  0  0  0  0  0
  146.6428  136.4356  152.9115 H   0  0  0  0  0  0  0  0  0  0  0  0
  145.4131  136.6629  151.6588 H   0  0  0  0  0  0  0  0  0  0  0  0
  147.2192  140.8070  151.7801 H   0  0  0  0  0  0  0  0  0  0  0  0
  146.0070  141.1938  152.9930 H   0  0  0  0  0  0  0  0  0  0  0  0
  148.2298  142.2714  153.4647 H   0  0  0  0  0  0  0  0  0  0  0  0
  150.8727  141.2520  154.5496 H   0  0  0  0  0  0  0  0  0  0  0  0
  148.5601  138.3867  155.1951 H   0  0  0  0  0  0  0  0  0  0  0  0
  149.4223  142.2605  156.0258 H   0  0  0  0  0  0  0  0  0  0  0  0
  149.6392  139.0265  159.3394 H   0  0  0  0  0  0  0  0  0  0  0  0
  151.3759  138.9722  159.0018 H   0  0  0  0  0  0  0  0  0  0  0  0
  150.2320  138.2310  157.8734 H   0  0  0  0  0  0  0  0  0  0  0  0
  147.2501  140.2226  155.5025 H   0  0  0  0  0  0  0  0  0  0  0  0
  145.2392  144.3263  154.8206 H   0  0  0  0  0  0  0  0  0  0  0  0
  145.4590  144.1770  156.5710 H   0  0  0  0  0  0  0  0  0  0  0  0
  143.9501  143.6399  155.8198 H   0  0  0  0  0  0  0  0  0  0  0  0
  1  2  1  0  0  0  0
  1 28  1  0  0  0  0
  1 29  1  0  0  0  0
  1 30  1  0  0  0  0
  2  3  2  0  0  0  0
  2  4  1  0  0  0  0
  4  5  1  0  0  0  0
  5  6  1  0  0  0  0
  5 31  1  0  0  0  0
  5 32  1  0  0  0  0
  6 23  1  0  0  0  0
  6  7  1  0  0  0  0
  6 33  1  0  0  0  0
  7  8  1  0  0  0  0
  8  9  1  0  0  0  0
  8 18  1  0  0  0  0
  8 34  1  0  0  0  0
  9 16  1  0  0  0  0
  9 10  1  0  0  0  0
 10 11  2  0  0  0  0
 10 35  1  0  0  0  0
 11 12  1  0  0  0  0
 11 13  1  0  0  0  0
 13 14  2  0  0  0  0
 13 15  1  0  0  0  0
 15 16  1  0  0  0  0
 16 17  2  0  0  0  0
 18 19  1  0  0  0  0
 18 23  1  0  0  0  0
 18 36  1  0  0  0  0
 19 20  1  0  0  0  0
 20 21  1  0  0  0  0
 20 22  2  0  0  0  0
 21 37  1  0  0  0  0
 21 38  1  0  0  0  0
 21 39  1  0  0  0  0
 23 24  1  0  0  0  0
 23 40  1  0  0  0  0
 24 25  1  0  0  0  0
 25 26  1  0  0  0  0
 25 27  2  0  0  0  0
 26 41  1  0  0  0  0
 26 42  1  0  0  0  0
 26 43  1  0  0  0  0
M  CHG  1  15  -1
M  END
> <s_m_source_file>
AV-unprocessed.smi

> <i_m_source_file_index>
102

> <i_lp_mmshare_version>
43012

> <i_f3d_flags>
0

> <s_epik_input>
W0NIM11DKD1PKU9bQ0gyXVtDQEBIXTFPW0NASF0oW0NAQEhdKE9DKD1PKVtDSDNdKVtDQEhdMU9DKD1PKVtDSDNdKW4yW2NIXWMoRiljKD1PKVtuSF1jMj1P

> <s_epik_cmdline>
J2VwaWtfcHl0aG9uJywgJy1waCcsICc3LjAnLCAnLXRuJywgJzgnLCAnLW1hJywgJzIwMCcsICctbWV0YWxfYmluZGluZycsICctaW1hZScsICc8aW5maWxlLm1hZT4nLCAnLW9tYWUnLCAnPG91dGZpbGUubWFlPic=

> <r_epik_Ionization_Penalty>
1.40304

> <r_epik_Ionization_Penalty_Charging>
1.43915e-08

> <r_epik_Ionization_Penalty_Neutral>
1.40304

> <r_epik_State_Penalty>
1.48536

> <r_epik_Charging_Adjusted_Penalty>
1.48536

> <i_epik_Tot_Q>
-1

> <i_epik_Tot_abs_Q>
1

> <r_epik_Metal_State_Penalty>
0.00663881

> <b_epik_Metal_Only>
0

> <s_epik_Chemistry_Notes>
This compound has an ester and may undergo hydrolysis at high or low pH. This compound contains an acetal/aminal-like group ( X-CH(R)-Y where X, Y are N, S, or O) that may be acid/base labile, releasing an aldehyde.

> <s_lp_Force_Field>
OPLS_2005

> <r_lp_Energy>
21.6407

> <b_lp_Chiralities_Consistent>
1

> <s_lp_Variant>
AV-unprocessed.smi:102-23

> <Gold.Version>
5.8.1

> <Gold.Id.Protein>
6NUR|6NUR_protein|mol2

> <Gold.PLP.Fitness>
38.3316

> <Gold.PLP.PLP>
-30.4779

> <Gold.PLP.part.hbond>
-5.3866

> <Gold.PLP.part.metal>
0.0000

> <Gold.PLP.part.buried>
-3.6750

> <Gold.PLP.part.nonpolar>
-28.1382

> <Gold.PLP.part.repulsive>
5.9688

> <Gold.PLP.ligand.clash>
0.0000

> <Gold.PLP.ligand.torsion>
1.3415

> <Gold.PLP.Chemscore.Hbond>
3.4804

> <Gold.PLP.Chemscore.CHOScore>
0.0000

> <Gold.PLP.Chemscore.Metal>
0.0000

> <Gold.Chemscore.Hbonds>
donor molecule, donor type, donor heavy atom, donor atom, acceptor molecule, acceptor atom, score
      P1  H  7954  7966       L1     3  0.96
      P1  H  7989  7998       L1    17  0.33
      P1  H  7997  8009       L1    17  1.00
      P1  H  8011  8017       L1     7  0.02
      P1  H 10752 10764       L1    14  0.85

> <Gold.PLP.Chemscore.Internal.Correction>
0.0955

> <Gold.Rescore>
     Score         DG    S(hbond)    S(metal)    S(lipo)     H(rot)  DE(clash)    DE(int)     intcor
      2.15      -7.50       2.13        0.00      43.91       4.00       2.06       3.29       ----

> <Gold.Chemscore.Fitness>
2.1522

> <Gold.Chemscore.DG>
-7.5030

> <Gold.Chemscore.ZeroCoef>
-5.4800

> <Gold.Chemscore.Hbond>
2.1297

> <Gold.Chemscore.Metal>
0.0000

> <Gold.Chemscore.Lipo>
43.9062

> <Gold.Chemscore.Internal_Hbond>
0.0000

> <Gold.Chemscore.DEClash>
2.0609

> <Gold.Chemscore.DEInternal>
3.2898

> <Gold.Chemscore.Rot>
3.9951

> <Gold.Chemscore.Internal.Correction>
   9.000000E+99

> <Gold.Chemscore.Hbonds>
donor molecule, donor type, donor heavy atom, donor atom, acceptor molecule, acceptor atom, score
      P1  H  7954  7966       L1     3  0.92
      P1  H  7989  7998       L1    17  0.06
      P1  H  7997  8009       L1    17  0.99
      P1  H 10752 10764       L1    14  0.15

> <Gold.Chemscore.Hbond.Weighted>
-7.1134

> <Gold.Chemscore.Metal.Weighted>
-0.0000

> <Gold.Chemscore.Lipo.Weighted>
-5.1370

> <Gold.Chemscore.Internal_Hbond.Weighted>
0.0000

> <Gold.Chemscore.DEClash.Weighted>
2.0609

> <Gold.Chemscore.DEInternal.Weighted>
3.2898

> <Gold.Chemscore.Rot.Weighted>
10.2274

> <Gold.Chemscore.Internal.Correction.Weighted>
   9.000000E+99

> <Gold.Protein.RotatedTorsions>
[ 6907 6896 6895 6894 ] final  -51.68 input  -60.11 | X-H torsion
[ 7974 7965 7964 7962 ] final   36.82 input  175.53 | X-H torsion
[ 8008 7997 7996 7995 ] final -143.80 input   59.86 | X-H torsion
[ 10167 10162 10161 10158 ] final  -68.55 input  -65.29 | X-H torsion
[ 10718 10713 10712 10709 ] final   -5.47 input   66.30 | X-H torsion
[ 10763 10752 10751 10750 ] final  -37.84 input  -60.55 | X-H torsion
[ 11005 11000 10999 10996 ] final  115.79 input  -57.11 | X-H torsion

> <Gold.Protein.ActiveResidues>
 VAL166  LYS551  ARG553  GLY616  TRP617  ASP618  TYR619  PRO620  LYS621  CYS622 
 ASP623  PHE694  ASN695  SER759  ASP760  ASP761  ALA762  ILE779  LEU786  VAL792 
 PHE793  MET794  SER795  GLU796  ALA797  LYS798  CYS799  TRP800  GLU811  SER814 

> <Gold.Protein.RotatedAtoms>
  150.8589  134.7935  159.7066 H   0  0  0  0  0  0  0  0  0  0  0  0  # atno 6907 bound_to 6896
  152.4632  134.5133  159.9770 H   0  0  0  0  0  0  0  0  0  0  0  0  # atno 6908 bound_to 6896
  151.5240  133.3423  159.2942 H   0  0  0  0  0  0  0  0  0  0  0  0  # atno 6909 bound_to 6896
  146.1183  139.5970  142.9306 H   0  0  0  0  0  0  0  0  0  0  0  0  # atno 7974 bound_to 7965
  155.5165  140.0588  157.2914 H   0  0  0  0  0  0  0  0  0  0  0  0  # atno 8008 bound_to 7997
  154.4533  140.1960  156.0401 H   0  0  0  0  0  0  0  0  0  0  0  0  # atno 8009 bound_to 7997
  156.0748  140.3255  155.7624 H   0  0  0  0  0  0  0  0  0  0  0  0  # atno 8010 bound_to 7997
  140.5499  143.2312  151.6931 H   0  0  0  0  0  0  0  0  0  0  0  0  # atno 10167 bound_to 10162
  156.7461  130.5225  149.5814 H   0  0  0  0  0  0  0  0  0  0  0  0  # atno 10718 bound_to 10713
  153.9030  135.6800  153.4754 H   0  0  0  0  0  0  0  0  0  0  0  0  # atno 10763 bound_to 10752
  153.1119  135.4779  154.9047 H   0  0  0  0  0  0  0  0  0  0  0  0  # atno 10764 bound_to 10752
  154.7565  135.3199  154.8414 H   0  0  0  0  0  0  0  0  0  0  0  0  # atno 10765 bound_to 10752
  139.9021  134.9589  156.7098 H   0  0  0  0  0  0  0  0  0  0  0  0  # atno 11005 bound_to 11000
  145.5519  141.0412  143.2273 LP  0  0  0  0  0  0  0  0  0  0  0  0  # atno 17320 bound_to 7965
  144.7573  139.7042  143.7248 LP  0  0  0  0  0  0  0  0  0  0  0  0  # atno 17321 bound_to 7965
  139.5023  144.3835  152.0352 LP  0  0  0  0  0  0  0  0  0  0  0  0  # atno 17342 bound_to 10162
  140.2951  144.3710  150.6077 LP  0  0  0  0  0  0  0  0  0  0  0  0  # atno 17343 bound_to 10162
  156.1432  130.6259  151.0496 LP  0  0  0  0  0  0  0  0  0  0  0  0  # atno 17370 bound_to 10713
  157.6797  131.0841  150.7401 LP  0  0  0  0  0  0  0  0  0  0  0  0  # atno 17371 bound_to 10713
  140.7084  133.9244  155.8069 LP  0  0  0  0  0  0  0  0  0  0  0  0  # atno 17394 bound_to 11000
  141.0319  134.0744  157.4004 LP  0  0  0  0  0  0  0  0  0  0  0  0  # atno 17395 bound_to 11000

$$$$
