#       Name:                AV-unprocessed.smi:1283
#       Creating user name   scv26
#       Creation time:       Fri Mar 27 04:50:09 2020


#       File generated by GOLD software.
#

@<TRIPOS>MOLECULE
AV-unprocessed.smi:1283
    35    36     1
SMALL
NO_CHARGES


@<TRIPOS>ATOM
      1 ****        -5.3131  -0.9227   0.1758 C.3            1 S1                 0.0000
      2 ****        -3.8651  -0.9012   0.3789 N.am           1 S1                 0.0000
      3 ****        -3.3338   0.3539   0.5883 N.2            1 S1                 0.0000
      4 ****        -2.0658   0.4810   0.7783 C.2            1 S1                 0.0000
      5 ****        -1.1503  -0.6507   0.7769 C.2            1 S1                 0.0000
      6 ****         0.2176  -0.5162   0.9810 N.pl3          1 S1                 0.0000
      7 ****         0.9897   0.6931   1.2242 C.3            1 S1                 0.0000
      8 ****         2.2267   0.7509   0.3189 C.3            1 S1                 0.0000
      9 ****         3.1559   1.9252   0.6214 C.3            1 S1                 0.0000
     10 ****         3.8594   2.1780  -0.7038 C.3            1 S1                 0.0000
     11 ****         3.0334   1.3873  -1.7224 C.3            1 S1                 0.0000
     12 ****         1.8553   1.0081  -1.0258 O.3            1 S1                 0.0000
     13 ****        -1.7050  -1.8771   0.5771 C.2            1 S1                 0.0000
     14 ****        -0.7099  -3.2952   0.5629 Cl             1 S1                 0.0000
     15 ****        -3.1474  -2.0608   0.3593 C.2            1 S1                 0.0000
     16 ****        -3.6755  -3.1580   0.1739 O.2            1 S1                 0.0000
     17 ****        -5.8007  -1.5146   0.9517 H              1 S1                 0.0000
     18 ****        -5.5594  -1.3589  -0.7932 H              1 S1                 0.0000
     19 ****        -5.7466   0.0784   0.2044 H              1 S1                 0.0000
     20 ****        -1.6230   1.4598   0.9568 H              1 S1                 0.0000
     21 ****         0.7792  -1.3257   0.7575 H              1 S1                 0.0000
     22 ****         0.3894   1.5888   1.0691 H              1 S1                 0.0000
     23 ****         1.2959   0.6909   2.2706 H              1 S1                 0.0000
     24 ****         2.7866  -0.1853   0.3687 H              1 S1                 0.0000
     25 ****         2.5737   2.8056   0.8972 H              1 S1                 0.0000
     26 ****         3.8483   1.7128   1.4363 H              1 S1                 0.0000
     27 ****         3.8733   3.2431  -0.9375 H              1 S1                 0.0000
     28 ****         4.8909   1.8247  -0.6860 H              1 S1                 0.0000
     29 ****         2.7947   1.9695  -2.6126 H              1 S1                 0.0000
     30 ****         3.5681   0.4897  -2.0361 H              1 S1                 0.0000
     31 ****        -3.9276   1.1586   0.5926 LP             1 S1                 0.0000
     32 ****         1.1839   1.7484  -1.0600 LP             1 S1                 0.0000
     33 ****         1.4645   0.1845  -1.4368 LP             1 S1                 0.0000
     34 ****        -4.6634  -3.2197   0.0310 LP             1 S1                 0.0000
     35 ****        -3.1165  -3.9871   0.1662 LP             1 S1                 0.0000
@<TRIPOS>BOND
    1    1    2 1     
    2    1   17 1     
    3    1   18 1     
    4    1   19 1     
    5    2   15 am    
    6    2    3 1     
    7    3    4 2     
    8    4    5 1     
    9    4   20 1     
   10    5    6 1     
   11    5   13 2     
   12    6    7 1     
   13    6   21 1     
   14    7    8 1     
   15    7   22 1     
   16    7   23 1     
   17    8   12 1     
   18    8    9 1     
   19    8   24 1     
   20    9   10 1     
   21    9   25 1     
   22    9   26 1     
   23   10   11 1     
   24   10   27 1     
   25   10   28 1     
   26   11   12 1     
   27   11   29 1     
   28   11   30 1     
   29   13   14 1     
   30   13   15 1     
   31   15   16 2     
   32    3   31 1     
   33   12   32 1     
   34   12   33 1     
   35   16   34 1     
   36   16   35 1     
@<TRIPOS>SUBSTRUCTURE
      1 S1             1
@<TRIPOS>SET
LONE_PAIRS      STATIC     ATOMS    <user>   **** ""
5 31 32 33 34 35
DONOR_HYDROGENS      STATIC     ATOMS    <user>   **** ""
1 21
ATOM$BLUE        STATIC     ATOMS    COLORGROUP SYSTEM
5 31 32 33 34 35
ATOM$RED        STATIC     ATOMS    COLORGROUP SYSTEM
1 21
