AV-unprocessed.smi:1244|AV-procd|sdf|5223|dock1
  -GOLD-   22720 4323D 1   1.00000     0.00000
 Structure written by MMmdl.
 54 56  0  0  0  0  0  0  0  0  1 V2000
  150.8754  141.8765  155.9843 C   0  0  0  0  0  0  0  0  0  0  0  0
  150.3371  140.5313  155.4859 C   0  0  1  0  0  0  0  0  0  0  0  0
  149.1195  140.7022  154.5603 C   0  0  0  0  0  0  0  0  0  0  0  0
  148.6572  139.4272  154.0276 N   0  0  0  0  0  0  0  0  0  0  0  0
  147.4725  139.6082  153.1916 C   0  0  0  0  0  0  0  0  0  0  0  0
  146.3258  138.6184  153.4712 C   0  0  0  0  0  0  0  0  0  0  0  0
  146.6216  137.2961  152.9332 N   0  0  0  0  0  0  0  0  0  0  0  0
  145.7090  136.4381  152.4558 C   0  0  0  0  0  0  0  0  0  0  0  0
  144.5015  136.6759  152.4270 O   0  0  0  0  0  0  0  0  0  0  0  0
  146.2857  135.2987  152.0383 N   0  0  0  0  0  0  0  0  0  0  0  0
  145.6653  134.1494  151.4702 C   0  0  0  0  0  0  0  0  0  0  0  0
  144.5818  134.2612  150.5642 C   0  0  0  0  0  0  0  0  0  0  0  0
  143.9913  133.0959  150.0458 C   0  0  0  0  0  0  0  0  0  0  0  0
  144.5079  131.8540  150.4496 C   0  0  0  0  0  0  0  0  0  0  0  0
  145.5512  131.7303  151.2941 N   0  0  0  0  0  0  0  0  0  0  0  0
  146.1421  132.8452  151.7907 C   0  0  0  0  0  0  0  0  0  0  0  0
  147.2442  132.6489  152.6548 N   0  0  0  0  0  0  0  0  0  0  0  0
  148.5971  132.9753  152.2159 C   0  0  0  0  0  0  0  0  0  0  0  0
  149.4321  132.9967  153.4928 C   0  0  0  0  0  0  0  0  0  0  0  0
  148.4501  133.5628  154.5141 C   0  0  0  0  0  0  0  0  0  0  0  0
  147.0957  133.0061  154.0624 C   0  0  0  0  0  0  0  0  0  0  0  0
  149.7576  138.7851  153.3117 C   0  0  0  0  0  0  0  0  0  0  0  0
  151.0196  138.6210  154.1830 C   0  0  2  0  0  0  0  0  0  0  0  0
  150.8900  137.5072  155.2360 C   0  0  0  0  0  0  0  0  0  0  0  0
  151.3819  139.8701  154.7747 O   0  0  0  0  0  0  0  0  0  0  0  0
  150.1152  142.4184  156.5475 H   0  0  0  0  0  0  0  0  0  0  0  0
  151.1907  142.5082  155.1532 H   0  0  0  0  0  0  0  0  0  0  0  0
  151.7352  141.7337  156.6390 H   0  0  0  0  0  0  0  0  0  0  0  0
  150.0543  139.9336  156.3529 H   0  0  0  0  0  0  0  0  0  0  0  0
  148.3134  141.1826  155.1163 H   0  0  0  0  0  0  0  0  0  0  0  0
  149.3749  141.3743  153.7393 H   0  0  0  0  0  0  0  0  0  0  0  0
  147.0889  140.6170  153.3494 H   0  0  0  0  0  0  0  0  0  0  0  0
  147.7527  139.5574  152.1383 H   0  0  0  0  0  0  0  0  0  0  0  0
  146.1657  138.5032  154.5426 H   0  0  0  0  0  0  0  0  0  0  0  0
  145.3890  138.9906  153.0529 H   0  0  0  0  0  0  0  0  0  0  0  0
  147.5911  137.0151  152.9238 H   0  0  0  0  0  0  0  0  0  0  0  0
  147.2731  135.2061  152.2264 H   0  0  0  0  0  0  0  0  0  0  0  0
  144.1985  135.2205  150.2519 H   0  0  0  0  0  0  0  0  0  0  0  0
  143.1616  133.1542  149.3573 H   0  0  0  0  0  0  0  0  0  0  0  0
  144.0788  130.9352  150.0785 H   0  0  0  0  0  0  0  0  0  0  0  0
  148.9703  132.2434  151.4989 H   0  0  0  0  0  0  0  0  0  0  0  0
  148.6255  133.9604  151.7481 H   0  0  0  0  0  0  0  0  0  0  0  0
  149.7160  131.9809  153.7715 H   0  0  0  0  0  0  0  0  0  0  0  0
  150.3411  133.5909  153.3966 H   0  0  0  0  0  0  0  0  0  0  0  0
  148.6981  133.2911  155.5406 H   0  0  0  0  0  0  0  0  0  0  0  0
  148.4405  134.6516  154.4476 H   0  0  0  0  0  0  0  0  0  0  0  0
  146.2942  133.7288  154.2220 H   0  0  0  0  0  0  0  0  0  0  0  0
  146.8595  132.1055  154.6291 H   0  0  0  0  0  0  0  0  0  0  0  0
  149.4557  137.8058  152.9422 H   0  0  0  0  0  0  0  0  0  0  0  0
  150.0121  139.3804  152.4333 H   0  0  0  0  0  0  0  0  0  0  0  0
  151.8452  138.3428  153.5275 H   0  0  0  0  0  0  0  0  0  0  0  0
  150.7296  136.5403  154.7587 H   0  0  0  0  0  0  0  0  0  0  0  0
  150.0529  137.6782  155.9124 H   0  0  0  0  0  0  0  0  0  0  0  0
  151.7962  137.4327  155.8371 H   0  0  0  0  0  0  0  0  0  0  0  0
  1  2  1  0  0  0  0
  1 26  1  0  0  0  0
  1 27  1  0  0  0  0
  1 28  1  0  0  0  0
  2 25  1  0  0  0  0
  2  3  1  0  0  0  0
  2 29  1  0  0  0  0
  3  4  1  0  0  0  0
  3 30  1  0  0  0  0
  3 31  1  0  0  0  0
  4  5  1  0  0  0  0
  4 22  1  0  0  0  0
  5  6  1  0  0  0  0
  5 32  1  0  0  0  0
  5 33  1  0  0  0  0
  6  7  1  0  0  0  0
  6 34  1  0  0  0  0
  6 35  1  0  0  0  0
  7  8  1  0  0  0  0
  7 36  1  0  0  0  0
  8  9  2  0  0  0  0
  8 10  1  0  0  0  0
 10 11  1  0  0  0  0
 10 37  1  0  0  0  0
 11 16  1  0  0  0  0
 11 12  2  0  0  0  0
 12 13  1  0  0  0  0
 12 38  1  0  0  0  0
 13 14  2  0  0  0  0
 13 39  1  0  0  0  0
 14 15  1  0  0  0  0
 14 40  1  0  0  0  0
 15 16  2  0  0  0  0
 16 17  1  0  0  0  0
 17 21  1  0  0  0  0
 17 18  1  0  0  0  0
 18 19  1  0  0  0  0
 18 41  1  0  0  0  0
 18 42  1  0  0  0  0
 19 20  1  0  0  0  0
 19 43  1  0  0  0  0
 19 44  1  0  0  0  0
 20 21  1  0  0  0  0
 20 45  1  0  0  0  0
 20 46  1  0  0  0  0
 21 47  1  0  0  0  0
 21 48  1  0  0  0  0
 22 23  1  0  0  0  0
 22 49  1  0  0  0  0
 22 50  1  0  0  0  0
 23 24  1  0  0  0  0
 23 25  1  0  0  0  0
 23 51  1  0  0  0  0
 24 52  1  0  0  0  0
 24 53  1  0  0  0  0
 24 54  1  0  0  0  0
M  END
> <s_m_source_file>
AV-unprocessed.smi

> <i_m_source_file_index>
1244

> <i_lp_mmshare_version>
43012

> <i_f3d_flags>
0

> <s_epik_input>
W0NIM11bQ0BASF0xW0NIMl1OKFtDSDJdW0NASF0oTzEpW0NIM10pW0NIMl1bQ0gyXVtOSF1DKD1PKVtOSF1jMltjSF1bY0hdW2NIXW5jMk4zW0NIMl1bQ0gyXVtDSDJdW0NIMl0z

> <s_epik_cmdline>
J2VwaWtfcHl0aG9uJywgJy1waCcsICc3LjAnLCAnLXRuJywgJzgnLCAnLW1hJywgJzIwMCcsICctbWV0YWxfYmluZGluZycsICctaW1hZScsICc8aW5maWxlLm1hZT4nLCAnLW9tYWUnLCAnPG91dGZpbGUubWFlPic=

> <r_lp_tautomer_probability>
1

> <r_epik_Ionization_Penalty>
0.363951

> <r_epik_Ionization_Penalty_Charging>
0

> <r_epik_Ionization_Penalty_Neutral>
0.363951

> <r_epik_State_Penalty>
0.349372

> <r_epik_Charging_Adjusted_Penalty>
0.349372

> <i_epik_Tot_Q>
0

> <i_epik_Tot_abs_Q>
0

> <r_epik_Metal_State_Penalty>
0.333054

> <b_epik_Metal_Only>
0

> <s_lp_Force_Field>
OPLS_2005

> <r_lp_Energy>
51.4551

> <b_lp_Chiralities_Consistent>
1

> <s_lp_Variant>
AV-unprocessed.smi:1244-3

> <Gold.Version>
5.8.1

> <Gold.Id.Protein>
6NUR|6NUR_protein|mol2

> <Gold.PLP.Fitness>
43.5905

> <Gold.PLP.PLP>
-38.5284

> <Gold.PLP.part.hbond>
-3.0000

> <Gold.PLP.part.metal>
0.0000

> <Gold.PLP.part.buried>
-0.5266

> <Gold.PLP.part.nonpolar>
-35.3788

> <Gold.PLP.part.repulsive>
0.7346

> <Gold.PLP.ligand.clash>
0.0000

> <Gold.PLP.ligand.torsion>
1.3431

> <Gold.PLP.Chemscore.Hbond>
2.4400

> <Gold.PLP.Chemscore.CHOScore>
0.0000

> <Gold.PLP.Chemscore.Metal>
0.0000

> <Gold.Chemscore.Hbonds>
donor molecule, donor type, donor heavy atom, donor atom, acceptor molecule, acceptor atom, score
      L1  H     7    36       P1  7948  0.88
      L1  H    10    37       P1  7948  0.75
      P1  H  7989  7998       L1    25  1.00

> <Gold.PLP.Chemscore.Internal.Correction>
0.4282

> <Gold.Rescore>
     Score         DG    S(hbond)    S(metal)    S(lipo)     H(rot)  DE(clash)    DE(int)     intcor
     15.24     -19.68       1.68        0.00     107.22       1.55       2.27       2.17       ----

> <Gold.Chemscore.Fitness>
15.2387

> <Gold.Chemscore.DG>
-19.6762

> <Gold.Chemscore.ZeroCoef>
-5.4800

> <Gold.Chemscore.Hbond>
1.6810

> <Gold.Chemscore.Metal>
0.0000

> <Gold.Chemscore.Lipo>
107.2180

> <Gold.Chemscore.Internal_Hbond>
0.0000

> <Gold.Chemscore.DEClash>
2.2666

> <Gold.Chemscore.DEInternal>
2.1708

> <Gold.Chemscore.Rot>
1.5479

> <Gold.Chemscore.Internal.Correction>
   9.000000E+99

> <Gold.Chemscore.Hbonds>
donor molecule, donor type, donor heavy atom, donor atom, acceptor molecule, acceptor atom, score
      L1  H     7    36       P1  7948  0.86
      L1  H    10    37       P1  7948  0.74
      P1  H  7989  7998       L1    25  0.18

> <Gold.Chemscore.Hbond.Weighted>
-5.6144

> <Gold.Chemscore.Metal.Weighted>
-0.0000

> <Gold.Chemscore.Lipo.Weighted>
-12.5445

> <Gold.Chemscore.Internal_Hbond.Weighted>
0.0000

> <Gold.Chemscore.DEClash.Weighted>
2.2666

> <Gold.Chemscore.DEInternal.Weighted>
2.1708

> <Gold.Chemscore.Rot.Weighted>
3.9627

> <Gold.Chemscore.Internal.Correction.Weighted>
   9.000000E+99

> <Gold.Protein.RotatedTorsions>
[ 6907 6896 6895 6894 ] final  110.66 input  -60.11 | X-H torsion
[ 7974 7965 7964 7962 ] final  -75.44 input  175.53 | X-H torsion
[ 8008 7997 7996 7995 ] final  160.65 input   59.86 | X-H torsion
[ 10167 10162 10161 10158 ] final  -95.63 input  -65.29 | X-H torsion
[ 10718 10713 10712 10709 ] final  105.31 input   66.30 | X-H torsion
[ 10763 10752 10751 10750 ] final  -71.83 input  -60.55 | X-H torsion
[ 11005 11000 10999 10996 ] final -114.79 input  -57.11 | X-H torsion

> <Gold.Protein.ActiveResidues>
 VAL166  LYS551  ARG553  GLY616  TRP617  ASP618  TYR619  PRO620  LYS621  CYS622 
 ASP623  PHE694  ASN695  SER759  ASP760  ASP761  ALA762  ILE779  LEU786  VAL792 
 PHE793  MET794  SER795  GLU796  ALA797  LYS798  CYS799  TRP800  GLU811  SER814 

> <Gold.Protein.RotatedAtoms>
  152.5008  133.8768  159.7326 H   0  0  0  0  0  0  0  0  0  0  0  0  # atno 6907 bound_to 6896
  150.9241  133.6836  159.2832 H   0  0  0  0  0  0  0  0  0  0  0  0  # atno 6908 bound_to 6896
  151.4203  135.1001  159.9664 H   0  0  0  0  0  0  0  0  0  0  0  0  # atno 6909 bound_to 6896
  145.6259  140.9350  143.1113 H   0  0  0  0  0  0  0  0  0  0  0  0  # atno 7974 bound_to 7965
  156.2158  140.1798  156.7592 H   0  0  0  0  0  0  0  0  0  0  0  0  # atno 8008 bound_to 7997
  154.5789  140.0669  156.9104 H   0  0  0  0  0  0  0  0  0  0  0  0  # atno 8009 bound_to 7997
  155.2538  140.3331  155.4282 H   0  0  0  0  0  0  0  0  0  0  0  0  # atno 8010 bound_to 7997
  140.3021  143.3156  152.0237 H   0  0  0  0  0  0  0  0  0  0  0  0  # atno 10167 bound_to 10162
  157.6710  131.0824  150.5837 H   0  0  0  0  0  0  0  0  0  0  0  0  # atno 10718 bound_to 10713
  154.4372  135.5949  153.6106 H   0  0  0  0  0  0  0  0  0  0  0  0  # atno 10763 bound_to 10752
  152.9803  135.5989  154.3767 H   0  0  0  0  0  0  0  0  0  0  0  0  # atno 10764 bound_to 10752
  154.3612  135.2841  155.2297 H   0  0  0  0  0  0  0  0  0  0  0  0  # atno 10765 bound_to 10752
  141.0529  133.9658  157.2804 H   0  0  0  0  0  0  0  0  0  0  0  0  # atno 11005 bound_to 11000
  144.7212  139.8023  143.7381 LP  0  0  0  0  0  0  0  0  0  0  0  0  # atno 17320 bound_to 7965
  146.1394  139.4448  143.0118 LP  0  0  0  0  0  0  0  0  0  0  0  0  # atno 17321 bound_to 7965
  139.4912  144.6448  151.6802 LP  0  0  0  0  0  0  0  0  0  0  0  0  # atno 17342 bound_to 10162
  140.5642  144.0218  150.6184 LP  0  0  0  0  0  0  0  0  0  0  0  0  # atno 17343 bound_to 10162
  156.6138  130.4387  149.5849 LP  0  0  0  0  0  0  0  0  0  0  0  0  # atno 17370 bound_to 10713
  156.2410  130.6851  151.1555 LP  0  0  0  0  0  0  0  0  0  0  0  0  # atno 17371 bound_to 10713
  139.9366  135.0196  156.8574 LP  0  0  0  0  0  0  0  0  0  0  0  0  # atno 17394 bound_to 11000
  140.6020  134.0163  155.7541 LP  0  0  0  0  0  0  0  0  0  0  0  0  # atno 17395 bound_to 11000

$$$$
