AV-unprocessed.smi:2875|AV-procd|sdf|11041|dock4
  -GOLD-   2272015503D 1   1.00000     0.00000
 Structure written by MMmdl.
 39 39  0  0  0  0  0  0  0  0  2 V2000
  152.5049  143.5301  161.9402 C   0  0  0  0  0  0  0  0  0  0  0  0
  152.1864  144.3273  160.6680 C   0  0  0  0  0  0  0  0  0  0  0  0
  152.9268  143.8361  159.4062 C   0  0  0  0  0  0  0  0  0  0  0  0
  152.3910  142.5556  158.8875 N   0  0  0  0  0  0  0  0  0  0  0  0
  151.3295  142.5671  157.9409 C   0  0  0  0  0  0  0  0  0  0  0  0
  150.7973  143.7822  157.5339 N   0  0  0  0  0  0  0  0  0  0  0  0
  150.8358  141.3955  157.4568 C   0  0  0  0  0  0  0  0  0  0  0  0
  149.8174  141.3593  156.4823 N   0  0  0  0  0  0  0  0  0  0  0  0
  148.4936  141.8740  156.8724 C   0  0  0  0  0  0  0  0  0  0  0  0
  147.4189  140.7750  156.8549 C   0  0  0  0  0  0  0  0  0  0  0  0
  146.1508  141.3645  156.6235 O   0  0  0  0  0  0  0  0  0  0  0  0
  146.1073  142.1086  155.4197 C   0  0  0  0  0  0  0  0  0  0  0  0
  150.0154  140.8220  155.2494 C   0  0  0  0  0  0  0  0  0  0  0  0
  148.8963  140.8955  154.2030 C   0  0  0  0  0  0  0  0  0  0  0  0
  151.0801  140.2982  154.9180 O   0  0  0  0  0  0  0  0  0  0  0  0
  151.4406  140.1336  157.9041 C   0  0  0  0  0  0  0  0  0  0  0  0
  151.0403  139.0594  157.4542 O   0  0  0  0  0  0  0  0  0  0  0  0
  152.4444  140.2017  158.8173 N   0  5  0  0  0  0  0  0  0  0  0  0
  152.9314  141.3731  159.3159 C   0  0  0  0  0  0  0  0  0  0  0  0
  153.8474  141.3924  160.1394 O   0  0  0  0  0  0  0  0  0  0  0  0
  151.9890  143.9549  162.8012 H   0  0  0  0  0  0  0  0  0  0  0  0
  153.5734  143.5403  162.1548 H   0  0  0  0  0  0  0  0  0  0  0  0
  152.1881  142.4909  161.8486 H   0  0  0  0  0  0  0  0  0  0  0  0
  151.1098  144.3087  160.4962 H   0  0  0  0  0  0  0  0  0  0  0  0
  152.4420  145.3737  160.8369 H   0  0  0  0  0  0  0  0  0  0  0  0
  152.8566  144.6040  158.6339 H   0  0  0  0  0  0  0  0  0  0  0  0
  153.9959  143.7884  159.6080 H   0  0  0  0  0  0  0  0  0  0  0  0
  151.1420  144.6616  157.8906 H   0  0  0  0  0  0  0  0  0  0  0  0
  150.0151  143.8309  156.8970 H   0  0  0  0  0  0  0  0  0  0  0  0
  148.5488  142.3186  157.8675 H   0  0  0  0  0  0  0  0  0  0  0  0
  148.1813  142.6848  156.2128 H   0  0  0  0  0  0  0  0  0  0  0  0
  147.6429  140.0249  156.0949 H   0  0  0  0  0  0  0  0  0  0  0  0
  147.4033  140.2641  157.8184 H   0  0  0  0  0  0  0  0  0  0  0  0
  145.1115  142.5315  155.2872 H   0  0  0  0  0  0  0  0  0  0  0  0
  146.3245  141.4770  154.5574 H   0  0  0  0  0  0  0  0  0  0  0  0
  146.8221  142.9321  155.4410 H   0  0  0  0  0  0  0  0  0  0  0  0
  148.4946  141.9062  154.1248 H   0  0  0  0  0  0  0  0  0  0  0  0
  148.0847  140.2129  154.4546 H   0  0  0  0  0  0  0  0  0  0  0  0
  149.2734  140.6136  153.2196 H   0  0  0  0  0  0  0  0  0  0  0  0
  1  2  1  0  0  0  0
  1 21  1  0  0  0  0
  1 22  1  0  0  0  0
  1 23  1  0  0  0  0
  2  3  1  0  0  0  0
  2 24  1  0  0  0  0
  2 25  1  0  0  0  0
  3  4  1  0  0  0  0
  3 26  1  0  0  0  0
  3 27  1  0  0  0  0
  4 19  1  0  0  0  0
  4  5  1  0  0  0  0
  5  6  1  0  0  0  0
  5  7  2  0  0  0  0
  6 28  1  0  0  0  0
  6 29  1  0  0  0  0
  7  8  1  0  0  0  0
  7 16  1  0  0  0  0
  8  9  1  0  0  0  0
  8 13  1  0  0  0  0
  9 10  1  0  0  0  0
  9 30  1  0  0  0  0
  9 31  1  0  0  0  0
 10 11  1  0  0  0  0
 10 32  1  0  0  0  0
 10 33  1  0  0  0  0
 11 12  1  0  0  0  0
 12 34  1  0  0  0  0
 12 35  1  0  0  0  0
 12 36  1  0  0  0  0
 13 14  1  0  0  0  0
 13 15  2  0  0  0  0
 14 37  1  0  0  0  0
 14 38  1  0  0  0  0
 14 39  1  0  0  0  0
 16 17  2  0  0  0  0
 16 18  1  0  0  0  0
 18 19  1  0  0  0  0
 19 20  2  0  0  0  0
M  CHG  1  18  -1
M  END
> <s_m_source_file>
AV-unprocessed.smi

> <i_m_source_file_index>
2875

> <i_lp_mmshare_version>
43012

> <i_f3d_flags>
0

> <s_epik_input>
W0NIM11bQ0gyXVtDSDJdbjFjKFtOSDJdKWMoYyg9TylbbkhdYzE9TylOKEMoPU8pW0NIM10pW0NIMl1bQ0gyXU9bQ0gzXQ==

> <s_epik_cmdline>
J2VwaWtfcHl0aG9uJywgJy1waCcsICc3LjAnLCAnLXRuJywgJzgnLCAnLW1hJywgJzIwMCcsICctbWV0YWxfYmluZGluZycsICctaW1hZScsICc8aW5maWxlLm1hZT4nLCAnLW9tYWUnLCAnPG91dGZpbGUubWFlPic=

> <r_lp_tautomer_probability>
1

> <r_epik_Ionization_Penalty>
7.11914

> <r_epik_Ionization_Penalty_Charging>
0.302695

> <r_epik_Ionization_Penalty_Neutral>
6.81644

> <r_epik_State_Penalty>
6.81644

> <r_epik_Charging_Adjusted_Penalty>
7.11913

> <i_epik_Tot_Q>
-1

> <i_epik_Tot_abs_Q>
1

> <r_epik_Metal_State_Penalty>
2.72963

> <b_epik_Metal_Only>
1

> <s_epik_Chemistry_Notes>
This compound has an imine and may undergo hydrolysis.

> <s_lp_Force_Field>
OPLS_2005

> <r_lp_Energy>
36.1064

> <b_lp_Chiralities_Consistent>
1

> <s_lp_Variant>
AV-unprocessed.smi:2875-2

> <Gold.Version>
5.8.1

> <Gold.Id.Protein>
6NUR|6NUR_protein|mol2

> <Gold.PLP.Fitness>
42.4803

> <Gold.PLP.PLP>
-37.6808

> <Gold.PLP.part.hbond>
-2.0000

> <Gold.PLP.part.metal>
0.0000

> <Gold.PLP.part.buried>
-5.9066

> <Gold.PLP.part.nonpolar>
-29.8316

> <Gold.PLP.part.repulsive>
0.0928

> <Gold.PLP.ligand.clash>
0.0000

> <Gold.PLP.ligand.torsion>
1.7675

> <Gold.PLP.Chemscore.Hbond>
2.0000

> <Gold.PLP.Chemscore.CHOScore>
0.0000

> <Gold.PLP.Chemscore.Metal>
0.0000

> <Gold.Chemscore.Hbonds>
donor molecule, donor type, donor heavy atom, donor atom, acceptor molecule, acceptor atom, score
      L1  H     6    29       P1  8028  1.00
      P1  H  7989  7998       L1    15  1.00

> <Gold.PLP.Chemscore.Internal.Correction>
2.3345

> <Gold.Rescore>
     Score         DG    S(hbond)    S(metal)    S(lipo)     H(rot)  DE(clash)    DE(int)     intcor
     11.93     -13.58       1.95        0.00      58.22       2.04       0.03       1.63       ----

> <Gold.Chemscore.Fitness>
11.9267

> <Gold.Chemscore.DG>
-13.5846

> <Gold.Chemscore.ZeroCoef>
-5.4800

> <Gold.Chemscore.Hbond>
1.9513

> <Gold.Chemscore.Metal>
0.0000

> <Gold.Chemscore.Lipo>
58.2224

> <Gold.Chemscore.Internal_Hbond>
0.0000

> <Gold.Chemscore.DEClash>
0.0294

> <Gold.Chemscore.DEInternal>
1.6285

> <Gold.Chemscore.Rot>
2.0409

> <Gold.Chemscore.Internal.Correction>
   9.000000E+99

> <Gold.Chemscore.Hbonds>
donor molecule, donor type, donor heavy atom, donor atom, acceptor molecule, acceptor atom, score
      L1  H     6    29       P1  8028  0.95
      P1  H  7989  7998       L1    15  0.81

> <Gold.Chemscore.Hbond.Weighted>
-6.5172

> <Gold.Chemscore.Metal.Weighted>
-0.0000

> <Gold.Chemscore.Lipo.Weighted>
-6.8120

> <Gold.Chemscore.Internal_Hbond.Weighted>
0.0000

> <Gold.Chemscore.DEClash.Weighted>
0.0294

> <Gold.Chemscore.DEInternal.Weighted>
1.6285

> <Gold.Chemscore.Rot.Weighted>
5.2246

> <Gold.Chemscore.Internal.Correction.Weighted>
   9.000000E+99

> <Gold.Protein.RotatedTorsions>
[ 6907 6896 6895 6894 ] final  134.19 input  -60.11 | X-H torsion
[ 7974 7965 7964 7962 ] final  -79.81 input  175.53 | X-H torsion
[ 8008 7997 7996 7995 ] final  104.10 input   59.86 | X-H torsion
[ 10167 10162 10161 10158 ] final   80.53 input  -65.29 | X-H torsion
[ 10718 10713 10712 10709 ] final   34.94 input   66.30 | X-H torsion
[ 10763 10752 10751 10750 ] final   76.10 input  -60.55 | X-H torsion
[ 11005 11000 10999 10996 ] final  161.60 input  -57.11 | X-H torsion

> <Gold.Protein.ActiveResidues>
 VAL166  LYS551  ARG553  GLY616  TRP617  ASP618  TYR619  PRO620  LYS621  CYS622 
 ASP623  PHE694  ASN695  SER759  ASP760  ASP761  ALA762  ILE779  LEU786  VAL792 
 PHE793  MET794  SER795  GLU796  ALA797  LYS798  CYS799  TRP800  GLU811  SER814 

> <Gold.Protein.RotatedAtoms>
  152.3140  133.5782  159.5699 H   0  0  0  0  0  0  0  0  0  0  0  0  # atno 6907 bound_to 6896
  150.7337  134.0111  159.3679 H   0  0  0  0  0  0  0  0  0  0  0  0  # atno 6908 bound_to 6896
  151.8001  135.0712  160.0450 H   0  0  0  0  0  0  0  0  0  0  0  0  # atno 6909 bound_to 6896
  145.5683  140.9470  143.1409 H   0  0  0  0  0  0  0  0  0  0  0  0  # atno 7974 bound_to 7965
  156.1543  140.3153  155.8700 H   0  0  0  0  0  0  0  0  0  0  0  0  # atno 8008 bound_to 7997
  155.3909  140.0493  157.3058 H   0  0  0  0  0  0  0  0  0  0  0  0  # atno 8009 bound_to 7997
  154.5087  140.2156  155.9211 H   0  0  0  0  0  0  0  0  0  0  0  0  # atno 8010 bound_to 7997
  139.9488  144.6040  150.8180 H   0  0  0  0  0  0  0  0  0  0  0  0  # atno 10167 bound_to 10162
  157.3165  130.7426  149.6758 H   0  0  0  0  0  0  0  0  0  0  0  0  # atno 10718 bound_to 10713
  153.0701  135.4964  154.8286 H   0  0  0  0  0  0  0  0  0  0  0  0  # atno 10763 bound_to 10752
  154.7010  135.3001  154.9343 H   0  0  0  0  0  0  0  0  0  0  0  0  # atno 10764 bound_to 10752
  154.0067  135.6759  153.4815 H   0  0  0  0  0  0  0  0  0  0  0  0  # atno 10765 bound_to 10752
  140.2174  134.8222  157.3185 H   0  0  0  0  0  0  0  0  0  0  0  0  # atno 11005 bound_to 11000
  144.7450  139.7346  143.7296 LP  0  0  0  0  0  0  0  0  0  0  0  0  # atno 17320 bound_to 7965
  146.1802  139.4991  142.9871 LP  0  0  0  0  0  0  0  0  0  0  0  0  # atno 17321 bound_to 7965
  140.7589  143.3117  151.2829 LP  0  0  0  0  0  0  0  0  0  0  0  0  # atno 17342 bound_to 10162
  139.6645  144.0130  152.2714 LP  0  0  0  0  0  0  0  0  0  0  0  0  # atno 17343 bound_to 10162
  155.9682  130.4236  150.4568 LP  0  0  0  0  0  0  0  0  0  0  0  0  # atno 17370 bound_to 10713
  157.2576  131.0560  151.2340 LP  0  0  0  0  0  0  0  0  0  0  0  0  # atno 17371 bound_to 10713
  140.1886  134.4400  155.7729 LP  0  0  0  0  0  0  0  0  0  0  0  0  # atno 17394 bound_to 11000
  141.2224  133.7016  156.7989 LP  0  0  0  0  0  0  0  0  0  0  0  0  # atno 17395 bound_to 11000

$$$$
