AV-unprocessed.smi:2229|AV-procd|sdf|9028|dock2
  -GOLD-   2272012233D 1   1.00000     0.00000
 Structure written by MMmdl.
 44 45  0  0  0  0  0  0  0  0  1 V2000
  152.1575  144.6062  158.0000 C   0  0  0  0  0  0  0  0  0  0  0  0
  151.7906  144.5045  159.4909 C   0  0  0  0  0  0  0  0  0  0  0  0
  151.8410  145.8915  160.1492 C   0  0  0  0  0  0  0  0  0  0  0  0
  152.6814  143.5038  160.2572 C   0  0  0  0  0  0  0  0  0  0  0  0
  152.8571  142.1568  159.5356 C   0  0  0  0  0  0  0  0  0  0  0  0
  154.0388  141.3086  160.0575 C   0  0  1  0  0  0  0  0  0  0  0  0
  154.0975  141.1875  161.5838 C   0  0  0  0  0  0  0  0  0  0  0  0
  155.0324  140.0073  161.8270 C   0  0  0  0  0  0  0  0  0  0  0  0
  154.7077  139.0169  160.7066 C   0  0  0  0  0  0  0  0  0  0  0  0
  154.1163  139.8442  159.5469 C   0  0  1  0  0  0  0  0  0  0  0  0
  152.8117  139.3050  159.1582 N   0  0  0  0  0  0  0  0  0  0  0  0
  152.4935  138.8300  157.9440 C   0  0  0  0  0  0  0  0  0  0  0  0
  153.3011  138.7316  157.0197 O   0  0  0  0  0  0  0  0  0  0  0  0
  151.0362  138.4033  157.7404 C   0  0  0  0  0  0  0  0  0  0  0  0
  150.8638  137.6426  156.5019 N   0  0  0  0  0  0  0  0  0  0  0  0
  151.5163  136.4569  156.2387 C   0  0  0  0  0  0  0  0  0  0  0  0
  151.2163  135.9911  155.0743 N   0  0  0  0  0  0  0  0  0  0  0  0
  150.3517  136.9194  154.5992 N   0  0  0  0  0  0  0  0  0  0  0  0
  150.1187  137.9301  155.4376 C   0  0  0  0  0  0  0  0  0  0  0  0
  149.3835  138.9000  155.2613 O   0  0  0  0  0  0  0  0  0  0  0  0
  149.9528  136.7980  153.6793 H   0  0  0  0  0  0  0  0  0  0  0  0
  153.1965  144.9090  157.8670 H   0  0  0  0  0  0  0  0  0  0  0  0
  151.5312  145.3409  157.4934 H   0  0  0  0  0  0  0  0  0  0  0  0
  152.0165  143.6586  157.4813 H   0  0  0  0  0  0  0  0  0  0  0  0
  150.7591  144.1549  159.5559 H   0  0  0  0  0  0  0  0  0  0  0  0
  152.8490  146.3065  160.1218 H   0  0  0  0  0  0  0  0  0  0  0  0
  151.5277  145.8457  161.1927 H   0  0  0  0  0  0  0  0  0  0  0  0
  151.1784  146.5928  159.6406 H   0  0  0  0  0  0  0  0  0  0  0  0
  153.6582  143.9493  160.4491 H   0  0  0  0  0  0  0  0  0  0  0  0
  152.2347  143.3208  161.2346 H   0  0  0  0  0  0  0  0  0  0  0  0
  151.9311  141.5863  159.6135 H   0  0  0  0  0  0  0  0  0  0  0  0
  153.0159  142.3499  158.4754 H   0  0  0  0  0  0  0  0  0  0  0  0
  154.9612  141.7977  159.7395 H   0  0  0  0  0  0  0  0  0  0  0  0
  154.4519  142.0987  162.0665 H   0  0  0  0  0  0  0  0  0  0  0  0
  153.1072  140.9612  161.9818 H   0  0  0  0  0  0  0  0  0  0  0  0
  156.0679  140.3377  161.7357 H   0  0  0  0  0  0  0  0  0  0  0  0
  154.9093  139.5726  162.8195 H   0  0  0  0  0  0  0  0  0  0  0  0
  155.5937  138.4609  160.3982 H   0  0  0  0  0  0  0  0  0  0  0  0
  153.9856  138.2847  161.0722 H   0  0  0  0  0  0  0  0  0  0  0  0
  154.7998  139.8011  158.6968 H   0  0  0  0  0  0  0  0  0  0  0  0
  152.0812  139.3444  159.8543 H   0  0  0  0  0  0  0  0  0  0  0  0
  150.7212  137.8141  158.6031 H   0  0  0  0  0  0  0  0  0  0  0  0
  150.3864  139.2800  157.7108 H   0  0  0  0  0  0  0  0  0  0  0  0
  152.1924  136.0346  156.9841 H   0  0  0  0  0  0  0  0  0  0  0  0
  1  2  1  0  0  0  0
  1 22  1  0  0  0  0
  1 23  1  0  0  0  0
  1 24  1  0  0  0  0
  2  3  1  0  0  0  0
  2  4  1  0  0  0  0
  2 25  1  0  0  0  0
  3 26  1  0  0  0  0
  3 27  1  0  0  0  0
  3 28  1  0  0  0  0
  4  5  1  0  0  0  0
  4 29  1  0  0  0  0
  4 30  1  0  0  0  0
  5  6  1  0  0  0  0
  5 31  1  0  0  0  0
  5 32  1  0  0  0  0
  6 10  1  0  0  0  0
  6  7  1  0  0  0  0
  6 33  1  0  0  0  0
  7  8  1  0  0  0  0
  7 34  1  0  0  0  0
  7 35  1  0  0  0  0
  8  9  1  0  0  0  0
  8 36  1  0  0  0  0
  8 37  1  0  0  0  0
  9 10  1  0  0  0  0
  9 38  1  0  0  0  0
  9 39  1  0  0  0  0
 10 11  1  0  0  0  0
 10 40  1  0  0  0  0
 11 12  1  0  0  0  0
 11 41  1  0  0  0  0
 12 13  2  0  0  0  0
 12 14  1  0  0  0  0
 14 15  1  0  0  0  0
 14 42  1  0  0  0  0
 14 43  1  0  0  0  0
 15 19  1  0  0  0  0
 15 16  1  0  0  0  0
 16 17  2  0  0  0  0
 16 44  1  0  0  0  0
 17 18  1  0  0  0  0
 18 21  1  0  0  0  0
 18 19  1  0  0  0  0
 19 20  2  0  0  0  0
M  END
> <s_m_source_file>
AV-unprocessed.smi

> <i_m_source_file_index>
2229

> <i_lp_mmshare_version>
43012

> <i_f3d_flags>
0

> <s_epik_input>
W0NIM11bQ0hdKFtDSDNdKVtDSDJdW0NIMl1bQ0BASF0xW0NIMl1bQ0gyXVtDSDJdW0NASF0xW05IXUMoPU8pW0NIMl1uMltjSF1uW25IXWMyPU8=

> <s_epik_cmdline>
J2VwaWtfcHl0aG9uJywgJy1waCcsICc3LjAnLCAnLXRuJywgJzgnLCAnLW1hJywgJzIwMCcsICctbWV0YWxfYmluZGluZycsICctaW1hZScsICc8aW5maWxlLm1hZT4nLCAnLW9tYWUnLCAnPG91dGZpbGUubWFlPic=

> <r_lp_tautomer_probability>
1

> <r_epik_Ionization_Penalty>
4.14174e-05

> <r_epik_Ionization_Penalty_Charging>
4.13165e-05

> <r_epik_Ionization_Penalty_Neutral>
1.00911e-07

> <r_epik_State_Penalty>
-0

> <r_epik_Charging_Adjusted_Penalty>
4.13165e-05

> <i_epik_Tot_Q>
0

> <i_epik_Tot_abs_Q>
0

> <r_epik_Metal_State_Penalty>
0.0399369

> <b_epik_Metal_Only>
0

> <s_lp_Force_Field>
OPLS_2005

> <r_lp_Energy>
36.1569

> <b_lp_Chiralities_Consistent>
1

> <s_lp_Variant>
AV-unprocessed.smi:2229-2

> <Gold.Version>
5.8.1

> <Gold.Id.Protein>
6NUR|6NUR_protein|mol2

> <Gold.PLP.Fitness>
48.4838

> <Gold.PLP.PLP>
-40.2340

> <Gold.PLP.part.hbond>
-3.2812

> <Gold.PLP.part.metal>
0.0000

> <Gold.PLP.part.buried>
-4.3761

> <Gold.PLP.part.nonpolar>
-32.8359

> <Gold.PLP.part.repulsive>
0.3781

> <Gold.PLP.ligand.clash>
0.0000

> <Gold.PLP.ligand.torsion>
0.3336

> <Gold.PLP.Chemscore.Hbond>
2.9588

> <Gold.PLP.Chemscore.CHOScore>
0.0000

> <Gold.PLP.Chemscore.Metal>
0.0000

> <Gold.Chemscore.Hbonds>
donor molecule, donor type, donor heavy atom, donor atom, acceptor molecule, acceptor atom, score
      L1  H    18    21       P1  7948  0.80
      P1  H  7997  8008       L1    13  1.00
      P1  H 10752 10765       L1    17  1.00

> <Gold.PLP.Chemscore.Internal.Correction>
0.0409

> <Gold.Rescore>
     Score         DG    S(hbond)    S(metal)    S(lipo)     H(rot)  DE(clash)    DE(int)     intcor
     16.18     -17.73       1.88        0.00     108.67       2.64       0.06       1.49       ----

> <Gold.Chemscore.Fitness>
16.1812

> <Gold.Chemscore.DG>
-17.7276

> <Gold.Chemscore.ZeroCoef>
-5.4800

> <Gold.Chemscore.Hbond>
1.8811

> <Gold.Chemscore.Metal>
0.0000

> <Gold.Chemscore.Lipo>
108.6727

> <Gold.Chemscore.Internal_Hbond>
0.0000

> <Gold.Chemscore.DEClash>
0.0580

> <Gold.Chemscore.DEInternal>
1.4884

> <Gold.Chemscore.Rot>
2.6368

> <Gold.Chemscore.Internal.Correction>
   9.000000E+99

> <Gold.Chemscore.Hbonds>
donor molecule, donor type, donor heavy atom, donor atom, acceptor molecule, acceptor atom, score
      L1  H    18    21       P1  7948  0.27
      P1  H  7997  8008       L1    13  0.97
      P1  H 10752 10765       L1    17  0.25

> <Gold.Chemscore.Hbond.Weighted>
-6.2830

> <Gold.Chemscore.Metal.Weighted>
-0.0000

> <Gold.Chemscore.Lipo.Weighted>
-12.7147

> <Gold.Chemscore.Internal_Hbond.Weighted>
0.0000

> <Gold.Chemscore.DEClash.Weighted>
0.0580

> <Gold.Chemscore.DEInternal.Weighted>
1.4884

> <Gold.Chemscore.Rot.Weighted>
6.7501

> <Gold.Chemscore.Internal.Correction.Weighted>
   9.000000E+99

> <Gold.Protein.RotatedTorsions>
[ 6907 6896 6895 6894 ] final   70.42 input  -60.11 | X-H torsion
[ 7974 7965 7964 7962 ] final  104.93 input  175.53 | X-H torsion
[ 8008 7997 7996 7995 ] final  -60.55 input   59.86 | X-H torsion
[ 10167 10162 10161 10158 ] final   84.85 input  -65.29 | X-H torsion
[ 10718 10713 10712 10709 ] final -114.05 input   66.30 | X-H torsion
[ 10763 10752 10751 10750 ] final  168.36 input  -60.55 | X-H torsion
[ 11005 11000 10999 10996 ] final  -53.34 input  -57.11 | X-H torsion

> <Gold.Protein.ActiveResidues>
 VAL166  LYS551  ARG553  GLY616  TRP617  ASP618  TYR619  PRO620  LYS621  CYS622 
 ASP623  PHE694  ASN695  SER759  ASP760  ASP761  ALA762  ILE779  LEU786  VAL792 
 PHE793  MET794  SER795  GLU796  ALA797  LYS798  CYS799  TRP800  GLU811  SER814 

> <Gold.Protein.RotatedAtoms>
  152.4748  134.4870  159.9683 H   0  0  0  0  0  0  0  0  0  0  0  0  # atno 6907 bound_to 6896
  151.4889  133.3523  159.2858 H   0  0  0  0  0  0  0  0  0  0  0  0  # atno 6908 bound_to 6896
  150.8780  134.8194  159.7265 H   0  0  0  0  0  0  0  0  0  0  0  0  # atno 6909 bound_to 6896
  145.3263  139.2498  143.3684 H   0  0  0  0  0  0  0  0  0  0  0  0  # atno 7974 bound_to 7965
  154.4404  140.1037  156.6292 H   0  0  0  0  0  0  0  0  0  0  0  0  # atno 8008 bound_to 7997
  155.5623  140.3487  155.4476 H   0  0  0  0  0  0  0  0  0  0  0  0  # atno 8009 bound_to 7997
  156.0450  140.1291  157.0103 H   0  0  0  0  0  0  0  0  0  0  0  0  # atno 8010 bound_to 7997
  139.9038  144.6313  150.8609 H   0  0  0  0  0  0  0  0  0  0  0  0  # atno 10167 bound_to 10162
  156.0805  130.6006  150.8724 H   0  0  0  0  0  0  0  0  0  0  0  0  # atno 10718 bound_to 10713
  154.3674  135.2753  155.2286 H   0  0  0  0  0  0  0  0  0  0  0  0  # atno 10763 bound_to 10752
  154.4448  135.5945  153.6156 H   0  0  0  0  0  0  0  0  0  0  0  0  # atno 10764 bound_to 10752
  152.9840  135.6027  154.3901 H   0  0  0  0  0  0  0  0  0  0  0  0  # atno 10765 bound_to 10752
  141.0971  133.6623  156.4158 H   0  0  0  0  0  0  0  0  0  0  0  0  # atno 11005 bound_to 11000
  146.3063  140.3832  142.8686 LP  0  0  0  0  0  0  0  0  0  0  0  0  # atno 17320 bound_to 7965
  144.8899  140.7510  143.5933 LP  0  0  0  0  0  0  0  0  0  0  0  0  # atno 17321 bound_to 7965
  140.7701  143.3416  151.2195 LP  0  0  0  0  0  0  0  0  0  0  0  0  # atno 17342 bound_to 10162
  139.7002  143.9546  152.2902 LP  0  0  0  0  0  0  0  0  0  0  0  0  # atno 17343 bound_to 10162
  157.5920  131.0944  150.9103 LP  0  0  0  0  0  0  0  0  0  0  0  0  # atno 17370 bound_to 10713
  156.9277  130.5338  149.5279 LP  0  0  0  0  0  0  0  0  0  0  0  0  # atno 17371 bound_to 10713
  140.5113  134.6392  157.5285 LP  0  0  0  0  0  0  0  0  0  0  0  0  # atno 17394 bound_to 11000
  139.9811  134.7136  155.9858 LP  0  0  0  0  0  0  0  0  0  0  0  0  # atno 17395 bound_to 11000

$$$$
