AV-unprocessed.smi:1127|AV-procd|sdf|4840|dock5
  -GOLD-   22720 3403D 1   1.00000     0.00000
 Structure written by MMmdl.
 42 43  0  0  0  0  0  0  0  0  1 V2000
  150.1112  137.5611  159.0454 C   0  0  0  0  0  0  0  0  0  0  0  0
  148.9315  136.5214  158.0618 S   0  0  2  0  0  0  0  0  0  0  0  0
  149.0201  135.0962  158.6106 O   0  0  0  0  0  0  0  0  0  0  0  0
  149.9684  136.4911  156.5569 C   0  0  0  0  0  0  0  0  0  0  0  0
  150.5949  135.3997  156.1069 N   0  0  0  0  0  0  0  0  0  0  0  0
  151.2652  135.8158  154.9724 N   0  0  0  0  0  0  0  0  0  0  0  0
  150.9682  137.1121  154.8592 C   0  0  0  0  0  0  0  0  0  0  0  0
  150.1597  137.5979  155.8145 N   0  0  0  0  0  0  0  0  0  0  0  0
  149.6588  138.9511  155.9784 C   0  0  0  0  0  0  0  0  0  0  0  0
  150.8079  139.9337  156.2002 C   0  0  0  0  0  0  0  0  0  0  0  0
  151.6664  140.0828  155.3315 O   0  0  0  0  0  0  0  0  0  0  0  0
  150.8170  140.5830  157.3745 N   0  0  0  0  0  0  0  0  0  0  0  0
  151.8263  141.5428  157.8163 C   0  0  0  0  0  0  0  0  0  0  0  0
  152.1577  141.2831  159.3041 C   0  0  0  0  0  0  0  0  0  0  0  0
  153.2862  142.1253  159.9293 C   0  0  0  0  0  0  0  0  0  0  0  0
  153.0346  143.6366  160.1064 C   0  0  0  0  0  0  0  0  0  0  0  0
  151.6189  144.0351  160.5714 C   0  0  0  0  0  0  0  0  0  0  0  0
  150.6924  144.5446  159.4483 C   0  0  0  0  0  0  0  0  0  0  0  0
  150.2124  143.5037  158.4177 C   0  0  0  0  0  0  0  0  0  0  0  0
  151.3188  142.9634  157.4870 C   0  0  0  0  0  0  0  0  0  0  0  0
  150.6446  138.2617  158.4025 H   0  0  0  0  0  0  0  0  0  0  0  0
  150.8412  136.9283  159.5501 H   0  0  0  0  0  0  0  0  0  0  0  0
  149.5688  138.1313  159.7992 H   0  0  0  0  0  0  0  0  0  0  0  0
  151.3534  137.7246  154.0571 H   0  0  0  0  0  0  0  0  0  0  0  0
  149.1042  139.2332  155.0824 H   0  0  0  0  0  0  0  0  0  0  0  0
  148.9543  138.9783  156.8108 H   0  0  0  0  0  0  0  0  0  0  0  0
  150.0648  140.3939  158.0208 H   0  0  0  0  0  0  0  0  0  0  0  0
  152.7308  141.3793  157.2274 H   0  0  0  0  0  0  0  0  0  0  0  0
  151.2579  141.3569  159.9114 H   0  0  0  0  0  0  0  0  0  0  0  0
  152.4612  140.2400  159.4013 H   0  0  0  0  0  0  0  0  0  0  0  0
  153.4844  141.7087  160.9175 H   0  0  0  0  0  0  0  0  0  0  0  0
  154.2072  141.9789  159.3642 H   0  0  0  0  0  0  0  0  0  0  0  0
  153.7484  143.9909  160.8511 H   0  0  0  0  0  0  0  0  0  0  0  0
  153.3053  144.1811  159.2032 H   0  0  0  0  0  0  0  0  0  0  0  0
  151.1448  143.2364  161.1417 H   0  0  0  0  0  0  0  0  0  0  0  0
  151.7296  144.8552  161.2817 H   0  0  0  0  0  0  0  0  0  0  0  0
  149.8074  144.9734  159.9198 H   0  0  0  0  0  0  0  0  0  0  0  0
  151.1725  145.3750  158.9293 H   0  0  0  0  0  0  0  0  0  0  0  0
  149.6726  142.6939  158.9082 H   0  0  0  0  0  0  0  0  0  0  0  0
  149.4678  143.9962  157.7914 H   0  0  0  0  0  0  0  0  0  0  0  0
  152.1503  143.6636  157.4358 H   0  0  0  0  0  0  0  0  0  0  0  0
  150.9315  142.9521  156.4668 H   0  0  0  0  0  0  0  0  0  0  0  0
  1  2  1  0  0  0  0
  1 21  1  0  0  0  0
  1 22  1  0  0  0  0
  1 23  1  0  0  0  0
  2  3  2  0  0  0  0
  2  4  1  0  0  0  0
  4  8  1  0  0  0  0
  4  5  2  0  0  0  0
  5  6  1  0  0  0  0
  6  7  2  0  0  0  0
  7  8  1  0  0  0  0
  7 24  1  0  0  0  0
  8  9  1  0  0  0  0
  9 10  1  0  0  0  0
  9 25  1  0  0  0  0
  9 26  1  0  0  0  0
 10 11  2  0  0  0  0
 10 12  1  0  0  0  0
 12 13  1  0  0  0  0
 12 27  1  0  0  0  0
 13 20  1  0  0  0  0
 13 14  1  0  0  0  0
 13 28  1  0  0  0  0
 14 15  1  0  0  0  0
 14 29  1  0  0  0  0
 14 30  1  0  0  0  0
 15 16  1  0  0  0  0
 15 31  1  0  0  0  0
 15 32  1  0  0  0  0
 16 17  1  0  0  0  0
 16 33  1  0  0  0  0
 16 34  1  0  0  0  0
 17 18  1  0  0  0  0
 17 35  1  0  0  0  0
 17 36  1  0  0  0  0
 18 19  1  0  0  0  0
 18 37  1  0  0  0  0
 18 38  1  0  0  0  0
 19 20  1  0  0  0  0
 19 39  1  0  0  0  0
 19 40  1  0  0  0  0
 20 41  1  0  0  0  0
 20 42  1  0  0  0  0
M  END
> <s_m_source_file>
AV-unprocessed.smi

> <i_m_source_file_index>
1127

> <i_lp_mmshare_version>
43012

> <i_f3d_flags>
0

> <s_epik_input>
W0NIM11bU0BdKD1PKWMxbm5bY0hdbjFbQ0gyXUMoPU8pW05IXVtDSF0yW0NIMl1bQ0gyXVtDSDJdW0NIMl1bQ0gyXVtDSDJdW0NIMl0y

> <s_epik_cmdline>
J2VwaWtfcHl0aG9uJywgJy1waCcsICc3LjAnLCAnLXRuJywgJzgnLCAnLW1hJywgJzIwMCcsICctbWV0YWxfYmluZGluZycsICctaW1hZScsICc8aW5maWxlLm1hZT4nLCAnLW9tYWUnLCAnPG91dGZpbGUubWFlPic=

> <r_lp_tautomer_probability>
1

> <r_epik_Ionization_Penalty>
7.34999e-08

> <r_epik_Ionization_Penalty_Charging>
0

> <r_epik_Ionization_Penalty_Neutral>
7.34999e-08

> <r_epik_State_Penalty>
-0

> <r_epik_Charging_Adjusted_Penalty>
0

> <i_epik_Tot_Q>
0

> <i_epik_Tot_abs_Q>
0

> <r_epik_Metal_State_Penalty>
-0

> <b_epik_Metal_Only>
0

> <s_lp_Force_Field>
OPLS_2005

> <r_lp_Energy>
17.7529

> <b_lp_Chiralities_Consistent>
1

> <s_lp_Variant>
AV-unprocessed.smi:1127-1

> <Gold.Version>
5.8.1

> <Gold.Id.Protein>
6NUR|6NUR_protein|mol2

> <Gold.PLP.Fitness>
40.7517

> <Gold.PLP.PLP>
-32.7618

> <Gold.PLP.part.hbond>
-3.0000

> <Gold.PLP.part.metal>
0.0000

> <Gold.PLP.part.buried>
-7.0231

> <Gold.PLP.part.nonpolar>
-23.3921

> <Gold.PLP.part.repulsive>
0.2949

> <Gold.PLP.ligand.clash>
0.0000

> <Gold.PLP.ligand.torsion>
0.9649

> <Gold.PLP.Chemscore.Hbond>
2.9600

> <Gold.PLP.Chemscore.CHOScore>
0.0000

> <Gold.PLP.Chemscore.Metal>
0.0000

> <Gold.Chemscore.Hbonds>
donor molecule, donor type, donor heavy atom, donor atom, acceptor molecule, acceptor atom, score
      P1  H  6896  6908       L1     3  0.89
      P1  H  7989  7998       L1    11  0.94
      P1  H 10752 10764       L1     6  1.00

> <Gold.PLP.Chemscore.Internal.Correction>
1.0397

> <Gold.Rescore>
     Score         DG    S(hbond)    S(metal)    S(lipo)     H(rot)  DE(clash)    DE(int)     intcor
     19.57     -20.57       2.89        0.00      83.68       1.70       0.06       0.95       ----

> <Gold.Chemscore.Fitness>
19.5677

> <Gold.Chemscore.DG>
-20.5740

> <Gold.Chemscore.ZeroCoef>
-5.4800

> <Gold.Chemscore.Hbond>
2.8941

> <Gold.Chemscore.Metal>
0.0000

> <Gold.Chemscore.Lipo>
83.6822

> <Gold.Chemscore.Internal_Hbond>
0.0000

> <Gold.Chemscore.DEClash>
0.0593

> <Gold.Chemscore.DEInternal>
0.9470

> <Gold.Chemscore.Rot>
1.7044

> <Gold.Chemscore.Internal.Correction>
   9.000000E+99

> <Gold.Chemscore.Hbonds>
donor molecule, donor type, donor heavy atom, donor atom, acceptor molecule, acceptor atom, score
      P1  H  6896  6908       L1     3  0.82
      P1  H  7989  7998       L1    11  0.89
      P1  H 10752 10764       L1     6  0.70

> <Gold.Chemscore.Hbond.Weighted>
-9.6663

> <Gold.Chemscore.Metal.Weighted>
-0.0000

> <Gold.Chemscore.Lipo.Weighted>
-9.7908

> <Gold.Chemscore.Internal_Hbond.Weighted>
0.0000

> <Gold.Chemscore.DEClash.Weighted>
0.0593

> <Gold.Chemscore.DEInternal.Weighted>
0.9470

> <Gold.Chemscore.Rot.Weighted>
4.3631

> <Gold.Chemscore.Internal.Correction.Weighted>
   9.000000E+99

> <Gold.Protein.RotatedTorsions>
[ 6907 6896 6895 6894 ] final  137.93 input  -60.11 | X-H torsion
[ 7974 7965 7964 7962 ] final -113.62 input  175.53 | X-H torsion
[ 8008 7997 7996 7995 ] final   97.15 input   59.86 | X-H torsion
[ 10167 10162 10161 10158 ] final -124.45 input  -65.29 | X-H torsion
[ 10718 10713 10712 10709 ] final  -36.77 input   66.30 | X-H torsion
[ 10763 10752 10751 10750 ] final  -63.74 input  -60.55 | X-H torsion
[ 11005 11000 10999 10996 ] final   39.09 input  -57.11 | X-H torsion

> <Gold.Protein.ActiveResidues>
 VAL166  LYS551  ARG553  GLY616  TRP617  ASP618  TYR619  PRO620  LYS621  CYS622 
 ASP623  PHE694  ASN695  SER759  ASP760  ASP761  ALA762  ILE779  LEU786  VAL792 
 PHE793  MET794  SER795  GLU796  ALA797  LYS798  CYS799  TRP800  GLU811  SER814 

> <Gold.Protein.RotatedAtoms>
  152.2724  133.5395  159.5447 H   0  0  0  0  0  0  0  0  0  0  0  0  # atno 6907 bound_to 6896
  150.7164  134.0679  159.3863 H   0  0  0  0  0  0  0  0  0  0  0  0  # atno 6908 bound_to 6896
  151.8593  135.0530  160.0518 H   0  0  0  0  0  0  0  0  0  0  0  0  # atno 6909 bound_to 6896
  145.1299  140.8718  143.3764 H   0  0  0  0  0  0  0  0  0  0  0  0  # atno 7974 bound_to 7965
  156.0871  140.3262  155.7768 H   0  0  0  0  0  0  0  0  0  0  0  0  # atno 8008 bound_to 7997
  155.5057  140.0573  157.2949 H   0  0  0  0  0  0  0  0  0  0  0  0  # atno 8009 bound_to 7997
  154.4616  140.1969  156.0247 H   0  0  0  0  0  0  0  0  0  0  0  0  # atno 8010 bound_to 7997
  139.9927  143.5624  152.2335 H   0  0  0  0  0  0  0  0  0  0  0  0  # atno 10167 bound_to 10162
  156.3229  130.4268  149.7943 H   0  0  0  0  0  0  0  0  0  0  0  0  # atno 10718 bound_to 10713
  154.3197  135.6199  153.5502 H   0  0  0  0  0  0  0  0  0  0  0  0  # atno 10763 bound_to 10752
  152.9821  135.5721  154.5084 H   0  0  0  0  0  0  0  0  0  0  0  0  # atno 10764 bound_to 10752
  154.4750  135.2861  155.1591 H   0  0  0  0  0  0  0  0  0  0  0  0  # atno 10765 bound_to 10752
  140.2062  134.3810  155.8071 H   0  0  0  0  0  0  0  0  0  0  0  0  # atno 11005 bound_to 11000
  145.0647  139.3078  143.5862 LP  0  0  0  0  0  0  0  0  0  0  0  0  # atno 17320 bound_to 7965
  146.3515  140.0101  142.8668 LP  0  0  0  0  0  0  0  0  0  0  0  0  # atno 17321 bound_to 7965
  139.6328  144.7646  151.2500 LP  0  0  0  0  0  0  0  0  0  0  0  0  # atno 17342 bound_to 10162
  140.7449  143.6449  150.8301 LP  0  0  0  0  0  0  0  0  0  0  0  0  # atno 17343 bound_to 10162
  156.5244  130.8229  151.3215 LP  0  0  0  0  0  0  0  0  0  0  0  0  # atno 17370 bound_to 10713
  157.7415  130.9872  150.2453 LP  0  0  0  0  0  0  0  0  0  0  0  0  # atno 17371 bound_to 10713
  141.2227  133.7119  156.8341 LP  0  0  0  0  0  0  0  0  0  0  0  0  # atno 17394 bound_to 11000
  140.2000  134.8904  157.3158 LP  0  0  0  0  0  0  0  0  0  0  0  0  # atno 17395 bound_to 11000

$$$$
