AV-unprocessed.smi:579|AV-procd|sdf|2988|dock1
  -GOLD-   2262023493D 1   1.00000     0.00000
 Structure written by MMmdl.
 27 28  0  0  0  0  0  0  0  0  2 V2000
  148.9995  139.0004  153.2047 N   0  0  0  0  0  0  0  0  0  0  0  0
  149.5550  139.7598  154.2325 C   0  0  0  0  0  0  0  0  0  0  0  0
  150.6247  139.2545  155.0013 C   0  0  0  0  0  0  0  0  0  0  0  0
  151.1662  140.0461  156.0355 C   0  0  0  0  0  0  0  0  0  0  0  0
  150.6258  141.3304  156.2806 C   0  0  0  0  0  0  0  0  0  0  0  0
  151.0949  142.1873  157.2849 N   0  0  0  0  0  0  0  0  0  0  0  0
  150.0243  142.7971  158.0632 C   0  0  0  0  0  0  0  0  0  0  0  0
  150.6116  143.8016  159.0695 C   0  0  0  0  0  0  0  0  0  0  0  0
  151.5747  143.1456  159.8890 O   0  0  0  0  0  0  0  0  0  0  0  0
  152.6575  142.6200  159.1272 C   0  0  0  0  0  0  0  0  0  0  0  0
  152.1233  141.5842  158.1232 C   0  0  0  0  0  0  0  0  0  0  0  0
  149.6010  141.7727  155.5183 N   0  3  0  0  0  0  0  0  0  0  0  0
  149.0546  141.0462  154.5191 C   0  0  0  0  0  0  0  0  0  0  0  0
  148.2334  139.3459  152.6440 H   0  0  0  0  0  0  0  0  0  0  0  0
  149.3408  138.0746  152.9877 H   0  0  0  0  0  0  0  0  0  0  0  0
  151.0280  138.2718  154.8042 H   0  0  0  0  0  0  0  0  0  0  0  0
  151.9846  139.6674  156.6299 H   0  0  0  0  0  0  0  0  0  0  0  0
  149.3234  143.3019  157.3967 H   0  0  0  0  0  0  0  0  0  0  0  0
  149.4666  142.0250  158.5950 H   0  0  0  0  0  0  0  0  0  0  0  0
  151.0715  144.6464  158.5541 H   0  0  0  0  0  0  0  0  0  0  0  0
  149.8219  144.2060  159.7026 H   0  0  0  0  0  0  0  0  0  0  0  0
  153.1809  143.4278  158.6132 H   0  0  0  0  0  0  0  0  0  0  0  0
  153.3750  142.1545  159.8030 H   0  0  0  0  0  0  0  0  0  0  0  0
  151.7103  140.7292  158.6603 H   0  0  0  0  0  0  0  0  0  0  0  0
  152.9378  141.2127  157.4999 H   0  0  0  0  0  0  0  0  0  0  0  0
  148.2402  141.5148  153.9855 H   0  0  0  0  0  0  0  0  0  0  0  0
  149.2212  142.7008  155.7065 H   0  0  0  0  0  0  0  0  0  0  0  0
  1  2  1  0  0  0  0
  1 14  1  0  0  0  0
  1 15  1  0  0  0  0
  2 13  1  0  0  0  0
  2  3  2  0  0  0  0
  3  4  1  0  0  0  0
  3 16  1  0  0  0  0
  4  5  2  0  0  0  0
  4 17  1  0  0  0  0
  5  6  1  0  0  0  0
  5 12  1  0  0  0  0
  6 11  1  0  0  0  0
  6  7  1  0  0  0  0
  7  8  1  0  0  0  0
  7 18  1  0  0  0  0
  7 19  1  0  0  0  0
  8  9  1  0  0  0  0
  8 20  1  0  0  0  0
  8 21  1  0  0  0  0
  9 10  1  0  0  0  0
 10 11  1  0  0  0  0
 10 22  1  0  0  0  0
 10 23  1  0  0  0  0
 11 24  1  0  0  0  0
 11 25  1  0  0  0  0
 12 13  2  0  0  0  0
 12 27  1  0  0  0  0
 13 26  1  0  0  0  0
M  CHG  1  12   1
M  END
> <s_m_source_file>
AV-unprocessed.smi

> <i_m_source_file_index>
579

> <i_lp_mmshare_version>
43012

> <i_f3d_flags>
0

> <s_epik_input>
W05IMl1jMVtjSF1bY0hdYyhuW2NIXTEpTjJbQ0gyXVtDSDJdT1tDSDJdW0NIMl0y

> <s_epik_cmdline>
J2VwaWtfcHl0aG9uJywgJy1waCcsICc3LjAnLCAnLXRuJywgJzgnLCAnLW1hJywgJzIwMCcsICctbWV0YWxfYmluZGluZycsICctaW1hZScsICc8aW5maWxlLm1hZT4nLCAnLW9tYWUnLCAnPG91dGZpbGUubWFlPic=

> <r_lp_tautomer_probability>
0.999846

> <r_epik_Ionization_Penalty>
2.4501

> <r_epik_Ionization_Penalty_Charging>
2.4501

> <r_epik_Ionization_Penalty_Neutral>
1.10725e-07

> <r_epik_State_Penalty>
2.61152

> <r_epik_Charging_Adjusted_Penalty>
5.06162

> <i_epik_Tot_Q>
1

> <i_epik_Tot_abs_Q>
1

> <r_epik_Metal_State_Penalty>
6.69701

> <b_epik_Metal_Only>
0

> <s_lp_Force_Field>
OPLS_2005

> <r_lp_Energy>
25.3444

> <b_lp_Chiralities_Consistent>
1

> <s_lp_Variant>
AV-unprocessed.smi:579-2

> <Gold.Version>
5.8.1

> <Gold.Id.Protein>
6NUR|6NUR_protein|mol2

> <Gold.PLP.Fitness>
33.1413

> <Gold.PLP.PLP>
-25.4925

> <Gold.PLP.part.hbond>
-2.3953

> <Gold.PLP.part.metal>
0.0000

> <Gold.PLP.part.buried>
-3.1942

> <Gold.PLP.part.nonpolar>
-20.5267

> <Gold.PLP.part.repulsive>
0.3475

> <Gold.PLP.ligand.clash>
0.0000

> <Gold.PLP.ligand.torsion>
0.1957

> <Gold.PLP.Chemscore.Hbond>
2.6484

> <Gold.PLP.Chemscore.CHOScore>
0.0000

> <Gold.PLP.Chemscore.Metal>
0.0000

> <Gold.Chemscore.Hbonds>
donor molecule, donor type, donor heavy atom, donor atom, acceptor molecule, acceptor atom, score
      L1  H     1    15       P1  7948  0.62
      L1  H    12    27       P1  8028  1.92

> <Gold.PLP.Chemscore.Internal.Correction>
0.0949

> <Gold.Rescore>
     Score         DG    S(hbond)    S(metal)    S(lipo)     H(rot)  DE(clash)    DE(int)     intcor
     15.49     -15.99       1.75        0.00      61.70       1.00       0.22       0.28       ----

> <Gold.Chemscore.Fitness>
15.4941

> <Gold.Chemscore.DG>
-15.9858

> <Gold.Chemscore.ZeroCoef>
-5.4800

> <Gold.Chemscore.Hbond>
1.7507

> <Gold.Chemscore.Metal>
0.0000

> <Gold.Chemscore.Lipo>
61.6952

> <Gold.Chemscore.Internal_Hbond>
0.0000

> <Gold.Chemscore.DEClash>
0.2156

> <Gold.Chemscore.DEInternal>
0.2761

> <Gold.Chemscore.Rot>
1.0000

> <Gold.Chemscore.Internal.Correction>
   9.000000E+99

> <Gold.Chemscore.Hbonds>
donor molecule, donor type, donor heavy atom, donor atom, acceptor molecule, acceptor atom, score
      L1  H     1    15       P1  7948  0.58
      L1  H    12    27       P1  8028  0.91

> <Gold.Chemscore.Hbond.Weighted>
-5.8474

> <Gold.Chemscore.Metal.Weighted>
-0.0000

> <Gold.Chemscore.Lipo.Weighted>
-7.2183

> <Gold.Chemscore.Internal_Hbond.Weighted>
0.0000

> <Gold.Chemscore.DEClash.Weighted>
0.2156

> <Gold.Chemscore.DEInternal.Weighted>
0.2761

> <Gold.Chemscore.Rot.Weighted>
2.5600

> <Gold.Chemscore.Internal.Correction.Weighted>
   9.000000E+99

> <Gold.Protein.RotatedTorsions>
[ 6907 6896 6895 6894 ] final -145.24 input  -60.11 | X-H torsion
[ 7974 7965 7964 7962 ] final   75.13 input  175.53 | X-H torsion
[ 8008 7997 7996 7995 ] final   11.74 input   59.86 | X-H torsion
[ 10167 10162 10161 10158 ] final -131.90 input  -65.29 | X-H torsion
[ 10718 10713 10712 10709 ] final   14.09 input   66.30 | X-H torsion
[ 10763 10752 10751 10750 ] final   73.43 input  -60.55 | X-H torsion
[ 11005 11000 10999 10996 ] final  -45.35 input  -57.11 | X-H torsion

> <Gold.Protein.ActiveResidues>
 VAL166  LYS551  ARG553  GLY616  TRP617  ASP618  TYR619  PRO620  LYS621  CYS622 
 ASP623  PHE694  ASN695  SER759  ASP760  ASP761  ALA762  ILE779  LEU786  VAL792 
 PHE793  MET794  SER795  GLU796  ALA797  LYS798  CYS799  TRP800  GLU811  SER814 

> <Gold.Protein.RotatedAtoms>
  151.1250  133.5077  159.2600 H   0  0  0  0  0  0  0  0  0  0  0  0  # atno 6907 bound_to 6896
  151.1820  135.0364  159.8806 H   0  0  0  0  0  0  0  0  0  0  0  0  # atno 6908 bound_to 6896
  152.5457  134.1101  159.8408 H   0  0  0  0  0  0  0  0  0  0  0  0  # atno 6909 bound_to 6896
  145.7195  139.2643  143.1604 H   0  0  0  0  0  0  0  0  0  0  0  0  # atno 7974 bound_to 7965
  154.8110  140.2868  155.5853 H   0  0  0  0  0  0  0  0  0  0  0  0  # atno 8008 bound_to 7997
  156.2988  140.2568  156.2928 H   0  0  0  0  0  0  0  0  0  0  0  0  # atno 8009 bound_to 7997
  154.9447  140.0380  157.2104 H   0  0  0  0  0  0  0  0  0  0  0  0  # atno 8010 bound_to 7997
  139.9141  143.6460  152.2569 H   0  0  0  0  0  0  0  0  0  0  0  0  # atno 10167 bound_to 10162
  157.0341  130.6205  149.5740 H   0  0  0  0  0  0  0  0  0  0  0  0  # atno 10718 bound_to 10713
  153.0521  135.5063  154.7892 H   0  0  0  0  0  0  0  0  0  0  0  0  # atno 10763 bound_to 10752
  154.6746  135.2958  154.9698 H   0  0  0  0  0  0  0  0  0  0  0  0  # atno 10764 bound_to 10752
  154.0505  135.6704  153.4852 H   0  0  0  0  0  0  0  0  0  0  0  0  # atno 10765 bound_to 10752
  141.0509  133.6743  156.3000 H   0  0  0  0  0  0  0  0  0  0  0  0  # atno 11005 bound_to 11000
  146.0639  140.7942  142.9721 LP  0  0  0  0  0  0  0  0  0  0  0  0  # atno 17320 bound_to 7965
  144.6920  140.3238  143.7228 LP  0  0  0  0  0  0  0  0  0  0  0  0  # atno 17321 bound_to 7965
  139.6917  144.7646  151.1426 LP  0  0  0  0  0  0  0  0  0  0  0  0  # atno 17342 bound_to 10162
  140.7678  143.5579  150.9131 LP  0  0  0  0  0  0  0  0  0  0  0  0  # atno 17343 bound_to 10162
  156.0060  130.5146  150.7829 LP  0  0  0  0  0  0  0  0  0  0  0  0  # atno 17370 bound_to 10713
  157.5155  131.0928  151.0145 LP  0  0  0  0  0  0  0  0  0  0  0  0  # atno 17371 bound_to 10713
  140.6056  134.5510  157.5525 LP  0  0  0  0  0  0  0  0  0  0  0  0  # atno 17394 bound_to 11000
  139.9350  134.7892  156.0827 LP  0  0  0  0  0  0  0  0  0  0  0  0  # atno 17395 bound_to 11000

$$$$
