AV-unprocessed.smi:1800|AV-procd|sdf|7264|dock1
  -GOLD-   22720 8513D 1   1.00000     0.00000
 Structure written by MMmdl.
 36 37  0  0  0  0  0  0  0  0  1 V2000
  152.1685  139.9825  157.8392 C   0  0  0  0  0  0  0  0  0  0  0  0
  150.7744  140.6171  157.7132 C   0  0  1  0  0  0  0  0  0  0  0  0
  150.7884  142.0267  157.0883 C   0  0  0  0  0  0  0  0  0  0  0  0
  151.4291  143.0091  157.9435 N   0  0  0  0  0  0  0  0  0  0  0  0
  151.5162  144.3729  157.7590 C   0  0  0  0  0  0  0  0  0  0  0  0
  152.2062  144.8835  158.8209 C   0  0  0  0  0  0  0  0  0  0  0  0
  152.5050  143.7386  159.6113 C   0  0  0  0  0  0  0  0  0  0  0  0
  152.0402  142.6180  159.0830 N   0  0  0  0  0  0  0  0  0  0  0  0
  149.9161  139.7375  156.9173 N   0  0  0  0  0  0  0  0  0  0  0  0
  150.3106  139.4766  155.2581 S   0  0  0  0  0  0  0  0  0  0  0  0
  151.7145  139.8785  155.0820 O   0  0  0  0  0  0  0  0  0  0  0  0
  149.8903  138.1087  154.9165 O   0  0  0  0  0  0  0  0  0  0  0  0
  149.2088  140.6972  154.4016 C   0  0  0  0  0  0  0  0  0  0  0  0
  148.3617  141.5336  155.3693 C   0  0  0  0  0  0  0  0  0  0  0  0
  147.1438  141.9333  154.5416 C   0  0  0  0  0  0  0  0  0  0  0  0
  146.8466  140.6943  153.6962 C   0  0  0  0  0  0  0  0  0  0  0  0
  148.2025  140.0140  153.4577 C   0  0  0  0  0  0  0  0  0  0  0  0
  152.8141  140.5649  158.4968 H   0  0  0  0  0  0  0  0  0  0  0  0
  152.6602  139.9104  156.8684 H   0  0  0  0  0  0  0  0  0  0  0  0
  152.1052  138.9772  158.2569 H   0  0  0  0  0  0  0  0  0  0  0  0
  150.3530  140.6845  158.7174 H   0  0  0  0  0  0  0  0  0  0  0  0
  151.2979  142.0092  156.1233 H   0  0  0  0  0  0  0  0  0  0  0  0
  149.7708  142.3672  156.8934 H   0  0  0  0  0  0  0  0  0  0  0  0
  151.0825  144.8598  156.8980 H   0  0  0  0  0  0  0  0  0  0  0  0
  152.4588  145.9171  159.0050 H   0  0  0  0  0  0  0  0  0  0  0  0
  153.0423  143.6893  160.5470 H   0  0  0  0  0  0  0  0  0  0  0  0
  148.9338  139.9889  157.0251 H   0  0  0  0  0  0  0  0  0  0  0  0
  149.8400  141.3580  153.8063 H   0  0  0  0  0  0  0  0  0  0  0  0
  148.0246  140.9354  156.2156 H   0  0  0  0  0  0  0  0  0  0  0  0
  148.9047  142.3931  155.7635 H   0  0  0  0  0  0  0  0  0  0  0  0
  146.2960  142.2338  155.1581 H   0  0  0  0  0  0  0  0  0  0  0  0
  147.3991  142.7718  153.8923 H   0  0  0  0  0  0  0  0  0  0  0  0
  146.1954  140.0209  154.2550 H   0  0  0  0  0  0  0  0  0  0  0  0
  146.3370  140.9439  152.7650 H   0  0  0  0  0  0  0  0  0  0  0  0
  148.5213  140.1231  152.4205 H   0  0  0  0  0  0  0  0  0  0  0  0
  148.1161  138.9457  153.6574 H   0  0  0  0  0  0  0  0  0  0  0  0
  1  2  1  0  0  0  0
  1 18  1  0  0  0  0
  1 19  1  0  0  0  0
  1 20  1  0  0  0  0
  2  3  1  0  0  0  0
  2  9  1  0  0  0  0
  2 21  1  0  0  0  0
  3  4  1  0  0  0  0
  3 22  1  0  0  0  0
  3 23  1  0  0  0  0
  4  8  1  0  0  0  0
  4  5  1  0  0  0  0
  5  6  2  0  0  0  0
  5 24  1  0  0  0  0
  6  7  1  0  0  0  0
  6 25  1  0  0  0  0
  7  8  2  0  0  0  0
  7 26  1  0  0  0  0
  9 10  1  0  0  0  0
  9 27  1  0  0  0  0
 10 11  2  0  0  0  0
 10 12  2  0  0  0  0
 10 13  1  0  0  0  0
 13 17  1  0  0  0  0
 13 14  1  0  0  0  0
 13 28  1  0  0  0  0
 14 15  1  0  0  0  0
 14 29  1  0  0  0  0
 14 30  1  0  0  0  0
 15 16  1  0  0  0  0
 15 31  1  0  0  0  0
 15 32  1  0  0  0  0
 16 17  1  0  0  0  0
 16 33  1  0  0  0  0
 16 34  1  0  0  0  0
 17 35  1  0  0  0  0
 17 36  1  0  0  0  0
M  END
> <s_m_source_file>
AV-unprocessed.smi

> <i_m_source_file_index>
1800

> <i_lp_mmshare_version>
43012

> <i_f3d_flags>
0

> <s_epik_input>
bjFbY0hdW2NIXVtjSF1uMVtDSDJdW0NAQEhdKFtDSDNdKVtOSF1TKD1PKSg9TylbQ0hdMltDSDJdW0NIMl1bQ0gyXVtDSDJdMg==

> <s_epik_cmdline>
J2VwaWtfcHl0aG9uJywgJy1waCcsICc3LjAnLCAnLXRuJywgJzgnLCAnLW1hJywgJzIwMCcsICctbWV0YWxfYmluZGluZycsICctaW1hZScsICc8aW5maWxlLm1hZT4nLCAnLW9tYWUnLCAnPG91dGZpbGUubWFlPic=

> <r_lp_tautomer_probability>
1

> <r_epik_Ionization_Penalty>
1.44925e-05

> <r_epik_Ionization_Penalty_Charging>
0

> <r_epik_Ionization_Penalty_Neutral>
1.44925e-05

> <r_epik_State_Penalty>
-0

> <r_epik_Charging_Adjusted_Penalty>
0

> <i_epik_Tot_Q>
0

> <i_epik_Tot_abs_Q>
0

> <r_epik_Metal_State_Penalty>
0.00862991

> <b_epik_Metal_Only>
0

> <s_lp_Force_Field>
OPLS_2005

> <r_lp_Energy>
17.3369

> <b_lp_Chiralities_Consistent>
1

> <s_lp_Variant>
AV-unprocessed.smi:1800-2

> <Gold.Version>
5.8.1

> <Gold.Id.Protein>
6NUR|6NUR_protein|mol2

> <Gold.PLP.Fitness>
40.8120

> <Gold.PLP.PLP>
-35.8657

> <Gold.PLP.part.hbond>
-1.0000

> <Gold.PLP.part.metal>
0.0000

> <Gold.PLP.part.buried>
-2.3480

> <Gold.PLP.part.nonpolar>
-34.5674

> <Gold.PLP.part.repulsive>
0.1816

> <Gold.PLP.ligand.clash>
0.0000

> <Gold.PLP.ligand.torsion>
0.6466

> <Gold.PLP.Chemscore.Hbond>
1.0000

> <Gold.PLP.Chemscore.CHOScore>
0.9955

> <Gold.PLP.Chemscore.Metal>
0.0000

> <Gold.Chemscore.Hbonds>
donor molecule, donor type, donor heavy atom, donor atom, acceptor molecule, acceptor atom, score
      P1  H  7989  7998       L1    11  1.00
      L1  C     5    24       P1  8028  1.00

> <Gold.PLP.Chemscore.Internal.Correction>
0.2531

> <Gold.Rescore>
     Score         DG    S(hbond)    S(metal)    S(lipo)     H(rot)  DE(clash)    DE(int)     intcor
     11.56     -14.83       0.99        0.00      90.11       1.76       0.15       3.12       ----

> <Gold.Chemscore.Fitness>
11.5589

> <Gold.Chemscore.DG>
-14.8320

> <Gold.Chemscore.ZeroCoef>
-5.4800

> <Gold.Chemscore.Hbond>
0.9914

> <Gold.Chemscore.Metal>
0.0000

> <Gold.Chemscore.Lipo>
90.1076

> <Gold.Chemscore.Internal_Hbond>
0.0000

> <Gold.Chemscore.DEClash>
0.1547

> <Gold.Chemscore.DEInternal>
3.1184

> <Gold.Chemscore.Rot>
1.7585

> <Gold.Chemscore.Internal.Correction>
   9.000000E+99

> <Gold.Chemscore.Hbonds>
donor molecule, donor type, donor heavy atom, donor atom, acceptor molecule, acceptor atom, score
      P1  H  7989  7998       L1    11  0.38

> <Gold.Chemscore.Hbond.Weighted>
-3.3113

> <Gold.Chemscore.Metal.Weighted>
-0.0000

> <Gold.Chemscore.Lipo.Weighted>
-10.5426

> <Gold.Chemscore.Internal_Hbond.Weighted>
0.0000

> <Gold.Chemscore.DEClash.Weighted>
0.1547

> <Gold.Chemscore.DEInternal.Weighted>
3.1184

> <Gold.Chemscore.Rot.Weighted>
4.5019

> <Gold.Chemscore.Internal.Correction.Weighted>
   9.000000E+99

> <Gold.Protein.RotatedTorsions>
[ 6907 6896 6895 6894 ] final  -28.86 input  -60.11 | X-H torsion
[ 7974 7965 7964 7962 ] final -174.41 input  175.53 | X-H torsion
[ 8008 7997 7996 7995 ] final  103.15 input   59.86 | X-H torsion
[ 10167 10162 10161 10158 ] final   63.22 input  -65.29 | X-H torsion
[ 10718 10713 10712 10709 ] final -155.41 input   66.30 | X-H torsion
[ 10763 10752 10751 10750 ] final  104.63 input  -60.55 | X-H torsion
[ 11005 11000 10999 10996 ] final   66.40 input  -57.11 | X-H torsion

> <Gold.Protein.ActiveResidues>
 VAL166  LYS551  ARG553  GLY616  TRP617  ASP618  TYR619  PRO620  LYS621  CYS622 
 ASP623  PHE694  ASN695  SER759  ASP760  ASP761  ALA762  ILE779  LEU786  VAL792 
 PHE793  MET794  SER795  GLU796  ALA797  LYS798  CYS799  TRP800  GLU811  SER814 

> <Gold.Protein.RotatedAtoms>
  151.1271  135.0110  159.8565 H   0  0  0  0  0  0  0  0  0  0  0  0  # atno 6907 bound_to 6896
  152.5450  134.1654  159.8585 H   0  0  0  0  0  0  0  0  0  0  0  0  # atno 6908 bound_to 6896
  151.1717  133.4735  159.2627 H   0  0  0  0  0  0  0  0  0  0  0  0  # atno 6909 bound_to 6896
  144.7132  140.1476  143.6387 H   0  0  0  0  0  0  0  0  0  0  0  0  # atno 7974 bound_to 7965
  156.1458  140.3169  155.8567 H   0  0  0  0  0  0  0  0  0  0  0  0  # atno 8008 bound_to 7997
  155.4067  140.0503  157.3051 H   0  0  0  0  0  0  0  0  0  0  0  0  # atno 8009 bound_to 7997
  154.5015  140.2131  155.9349 H   0  0  0  0  0  0  0  0  0  0  0  0  # atno 8010 bound_to 7997
  140.1354  144.4604  150.6841 H   0  0  0  0  0  0  0  0  0  0  0  0  # atno 10167 bound_to 10162
  156.5125  130.8441  151.2652 H   0  0  0  0  0  0  0  0  0  0  0  0  # atno 10718 bound_to 10713
  153.3685  135.3936  155.1771 H   0  0  0  0  0  0  0  0  0  0  0  0  # atno 10763 bound_to 10752
  154.8690  135.3697  154.5007 H   0  0  0  0  0  0  0  0  0  0  0  0  # atno 10764 bound_to 10752
  153.5473  135.7083  153.5668 H   0  0  0  0  0  0  0  0  0  0  0  0  # atno 10765 bound_to 10752
  139.9834  134.6707  156.0220 H   0  0  0  0  0  0  0  0  0  0  0  0  # atno 11005 bound_to 11000
  145.9146  139.2508  143.1417 LP  0  0  0  0  0  0  0  0  0  0  0  0  # atno 17320 bound_to 7965
  145.9682  140.8781  143.0176 LP  0  0  0  0  0  0  0  0  0  0  0  0  # atno 17321 bound_to 7965
  140.6792  143.2319  151.5428 LP  0  0  0  0  0  0  0  0  0  0  0  0  # atno 17342 bound_to 10162
  139.5498  144.2424  152.1510 LP  0  0  0  0  0  0  0  0  0  0  0  0  # atno 17343 bound_to 10162
  157.7448  130.9945  150.2709 LP  0  0  0  0  0  0  0  0  0  0  0  0  # atno 17370 bound_to 10713
  156.3227  130.3788  149.7561 LP  0  0  0  0  0  0  0  0  0  0  0  0  # atno 17371 bound_to 10713
  141.1503  133.6549  156.3992 LP  0  0  0  0  0  0  0  0  0  0  0  0  # atno 17394 bound_to 11000
  140.5050  134.6449  157.5263 LP  0  0  0  0  0  0  0  0  0  0  0  0  # atno 17395 bound_to 11000

$$$$
