AV-unprocessed.smi:2207|AV-procd|sdf|8944|dock2
  -GOLD-   2272012163D 1   1.00000     0.00000
 Structure written by MMmdl.
 18 18  0  0  0  0  0  0  0  0  1 V2000
  143.7547  133.6478  148.9367 N   0  0  0  0  0  0  0  0  0  0  0  0
  144.1843  132.5321  149.5325 C   0  0  0  0  0  0  0  0  0  0  0  0
  143.4200  131.7472  150.0897 O   0  0  0  0  0  0  0  0  0  0  0  0
  145.6892  132.2594  149.5026 C   0  0  0  0  0  0  0  0  0  0  0  0
  146.2593  132.3080  150.8373 N   0  0  0  0  0  0  0  0  0  0  0  0
  146.1006  131.4027  151.8698 C   0  0  0  0  0  0  0  0  0  0  0  0
  146.8254  131.8602  152.9337 C   0  0  0  0  0  0  0  0  0  0  0  0
  147.3924  133.0643  152.4368 C   0  0  0  0  0  0  0  0  0  0  0  0
  148.2246  133.8841  153.1942 N   0  0  0  0  0  0  0  0  0  0  0  0
  147.0606  133.3398  151.1888 N   0  0  0  0  0  0  0  0  0  0  0  0
  142.7685  133.8644  148.9279 H   0  0  0  0  0  0  0  0  0  0  0  0
  144.4167  134.2677  148.4927 H   0  0  0  0  0  0  0  0  0  0  0  0
  145.8862  131.2845  149.0536 H   0  0  0  0  0  0  0  0  0  0  0  0
  146.1895  133.0044  148.8824 H   0  0  0  0  0  0  0  0  0  0  0  0
  145.4920  130.5170  151.7602 H   0  0  0  0  0  0  0  0  0  0  0  0
  146.9312  131.4051  153.9073 H   0  0  0  0  0  0  0  0  0  0  0  0
  148.4669  133.6557  154.1474 H   0  0  0  0  0  0  0  0  0  0  0  0
  148.6074  134.7382  152.8148 H   0  0  0  0  0  0  0  0  0  0  0  0
  1  2  1  0  0  0  0
  1 11  1  0  0  0  0
  1 12  1  0  0  0  0
  2  3  2  0  0  0  0
  2  4  1  0  0  0  0
  4  5  1  0  0  0  0
  4 13  1  0  0  0  0
  4 14  1  0  0  0  0
  5 10  1  0  0  0  0
  5  6  1  0  0  0  0
  6  7  2  0  0  0  0
  6 15  1  0  0  0  0
  7  8  1  0  0  0  0
  7 16  1  0  0  0  0
  8  9  1  0  0  0  0
  8 10  2  0  0  0  0
  9 17  1  0  0  0  0
  9 18  1  0  0  0  0
M  END
> <s_m_source_file>
AV-unprocessed.smi

> <i_m_source_file_index>
2207

> <i_lp_mmshare_version>
43012

> <i_f3d_flags>
0

> <s_epik_input>
W05IMl1DKD1PKVtDSDJdbjFbY0hdW2NIXWMobjEpW05IMl0=

> <s_epik_cmdline>
J2VwaWtfcHl0aG9uJywgJy1waCcsICc3LjAnLCAnLXRuJywgJzgnLCAnLW1hJywgJzIwMCcsICctbWV0YWxfYmluZGluZycsICctaW1hZScsICc8aW5maWxlLm1hZT4nLCAnLW9tYWUnLCAnPG91dGZpbGUubWFlPic=

> <r_lp_tautomer_probability>
1

> <r_epik_Ionization_Penalty>
0.000204489

> <r_epik_Ionization_Penalty_Charging>
0

> <r_epik_Ionization_Penalty_Neutral>
0.000204489

> <r_epik_State_Penalty>
-0

> <r_epik_Charging_Adjusted_Penalty>
0

> <i_epik_Tot_Q>
0

> <i_epik_Tot_abs_Q>
0

> <r_epik_Metal_State_Penalty>
-0

> <b_epik_Metal_Only>
0

> <s_lp_Force_Field>
OPLS_2005

> <r_lp_Energy>
0.150193

> <b_lp_Chiralities_Consistent>
1

> <s_lp_Variant>
AV-unprocessed.smi:2207-1

> <Gold.Version>
5.8.1

> <Gold.Id.Protein>
6NUR|6NUR_protein|mol2

> <Gold.PLP.Fitness>
31.2974

> <Gold.PLP.PLP>
-19.5859

> <Gold.PLP.part.hbond>
-4.0000

> <Gold.PLP.part.metal>
0.0000

> <Gold.PLP.part.buried>
-2.1402

> <Gold.PLP.part.nonpolar>
-14.4426

> <Gold.PLP.part.repulsive>
1.4710

> <Gold.PLP.ligand.clash>
0.0000

> <Gold.PLP.ligand.torsion>
0.1443

> <Gold.PLP.Chemscore.Hbond>
4.0000

> <Gold.PLP.Chemscore.CHOScore>
0.0000

> <Gold.PLP.Chemscore.Metal>
0.0000

> <Gold.Chemscore.Hbonds>
donor molecule, donor type, donor heavy atom, donor atom, acceptor molecule, acceptor atom, score
      L1  H     1    11       P1 10186  1.00
      L1  H     1    12       P1  7921  1.00
      L1  H     9    18       P1  7948  0.95
      P1  H 10785 10796       L1     3  0.81

> <Gold.PLP.Chemscore.Internal.Correction>
0.0001

> <Gold.Rescore>
     Score         DG    S(hbond)    S(metal)    S(lipo)     H(rot)  DE(clash)    DE(int)     intcor
     14.75     -16.42       3.72        0.00      23.78       1.67       1.45       0.22       ----

> <Gold.Chemscore.Fitness>
14.7504

> <Gold.Chemscore.DG>
-16.4186

> <Gold.Chemscore.ZeroCoef>
-5.4800

> <Gold.Chemscore.Hbond>
3.7232

> <Gold.Chemscore.Metal>
0.0000

> <Gold.Chemscore.Lipo>
23.7815

> <Gold.Chemscore.Internal_Hbond>
0.0000

> <Gold.Chemscore.DEClash>
1.4466

> <Gold.Chemscore.DEInternal>
0.2216

> <Gold.Chemscore.Rot>
1.6716

> <Gold.Chemscore.Internal.Correction>
   9.000000E+99

> <Gold.Chemscore.Hbonds>
donor molecule, donor type, donor heavy atom, donor atom, acceptor molecule, acceptor atom, score
      L1  H     1    11       P1 10186  0.99
      L1  H     1    12       P1  7921  0.96
      L1  H     9    18       P1  7948  0.22
      P1  H 10785 10796       L1     3  0.38

> <Gold.Chemscore.Hbond.Weighted>
-12.4356

> <Gold.Chemscore.Metal.Weighted>
-0.0000

> <Gold.Chemscore.Lipo.Weighted>
-2.7824

> <Gold.Chemscore.Internal_Hbond.Weighted>
0.0000

> <Gold.Chemscore.DEClash.Weighted>
1.4466

> <Gold.Chemscore.DEInternal.Weighted>
0.2216

> <Gold.Chemscore.Rot.Weighted>
4.2794

> <Gold.Chemscore.Internal.Correction.Weighted>
   9.000000E+99

> <Gold.Protein.RotatedTorsions>
[ 6907 6896 6895 6894 ] final  129.47 input  -60.11 | X-H torsion
[ 7974 7965 7964 7962 ] final  134.24 input  175.53 | X-H torsion
[ 8008 7997 7996 7995 ] final  -27.01 input   59.86 | X-H torsion
[ 10167 10162 10161 10158 ] final  -94.56 input  -65.29 | X-H torsion
[ 10718 10713 10712 10709 ] final   84.14 input   66.30 | X-H torsion
[ 10763 10752 10751 10750 ] final  -92.82 input  -60.55 | X-H torsion
[ 11005 11000 10999 10996 ] final  133.04 input  -57.11 | X-H torsion

> <Gold.Protein.ActiveResidues>
 VAL166  LYS551  ARG553  GLY616  TRP617  ASP618  TYR619  PRO620  LYS621  CYS622 
 ASP623  PHE694  ASN695  SER759  ASP760  ASP761  ALA762  ILE779  LEU786  VAL792 
 PHE793  MET794  SER795  GLU796  ALA797  LYS798  CYS799  TRP800  GLU811  SER814 

> <Gold.Protein.RotatedAtoms>
  152.3620  133.6309  159.6021 H   0  0  0  0  0  0  0  0  0  0  0  0  # atno 6907 bound_to 6896
  150.7608  133.9408  159.3464 H   0  0  0  0  0  0  0  0  0  0  0  0  # atno 6908 bound_to 6896
  151.7245  135.0888  160.0341 H   0  0  0  0  0  0  0  0  0  0  0  0  # atno 6909 bound_to 6896
  144.9784  139.4531  143.5398 H   0  0  0  0  0  0  0  0  0  0  0  0  # atno 7974 bound_to 7965
  154.4398  140.1884  156.0864 H   0  0  0  0  0  0  0  0  0  0  0  0  # atno 8008 bound_to 7997
  156.0399  140.3321  155.7206 H   0  0  0  0  0  0  0  0  0  0  0  0  # atno 8009 bound_to 7997
  155.5715  140.0613  157.2796 H   0  0  0  0  0  0  0  0  0  0  0  0  # atno 8010 bound_to 7997
  140.3131  143.3093  152.0126 H   0  0  0  0  0  0  0  0  0  0  0  0  # atno 10167 bound_to 10162
  157.6892  131.0120  150.2628 H   0  0  0  0  0  0  0  0  0  0  0  0  # atno 10718 bound_to 10713
  154.6898  135.5217  153.8377 H   0  0  0  0  0  0  0  0  0  0  0  0  # atno 10763 bound_to 10752
  153.0624  135.6573  154.0442 H   0  0  0  0  0  0  0  0  0  0  0  0  # atno 10764 bound_to 10752
  154.0317  135.2984  155.3347 H   0  0  0  0  0  0  0  0  0  0  0  0  # atno 10765 bound_to 10752
  139.9827  134.9542  156.9669 H   0  0  0  0  0  0  0  0  0  0  0  0  # atno 11005 bound_to 11000
  146.3401  139.9041  142.8790 LP  0  0  0  0  0  0  0  0  0  0  0  0  # atno 17320 bound_to 7965
  145.2457  141.0025  143.3910 LP  0  0  0  0  0  0  0  0  0  0  0  0  # atno 17321 bound_to 7965
  139.4889  144.6369  151.6957 LP  0  0  0  0  0  0  0  0  0  0  0  0  # atno 17342 bound_to 10162
  140.5550  144.0363  150.6143 LP  0  0  0  0  0  0  0  0  0  0  0  0  # atno 17343 bound_to 10162
  156.3204  130.3785  149.7580 LP  0  0  0  0  0  0  0  0  0  0  0  0  # atno 17370 bound_to 10713
  156.5152  130.8190  151.3183 LP  0  0  0  0  0  0  0  0  0  0  0  0  # atno 17371 bound_to 10713
  140.5063  134.1046  155.7261 LP  0  0  0  0  0  0  0  0  0  0  0  0  # atno 17394 bound_to 11000
  141.1497  133.8991  157.2128 LP  0  0  0  0  0  0  0  0  0  0  0  0  # atno 17395 bound_to 11000

$$$$
