AV-unprocessed.smi:249|AV-procd|sdf|1908|dock3
  -GOLD-   2262020593D 1   1.00000     0.00000
 Structure written by MMmdl.
 64 67  0  0  0  0  0  0  0  0  2 V2000
  149.3589  130.1019  154.0855 C   0  0  0  0  0  0  0  0  0  0  0  0
  147.8477  130.1511  153.8067 C   0  0  0  0  0  0  0  0  0  0  0  0
  147.4655  131.1359  152.7532 N   0  3  2  0  0  0  0  0  0  0  0  0
  147.8926  132.5198  153.1089 C   0  0  0  0  0  0  0  0  0  0  0  0
  147.5717  133.5320  151.9983 C   0  0  0  0  0  0  0  0  0  0  0  0
  146.0654  133.5504  151.6652 C   0  0  2  0  0  0  0  0  0  0  0  0
  145.2187  134.0621  152.7559 N   0  0  0  0  0  0  0  0  0  0  0  0
  143.7950  134.2275  152.4823 C   0  0  0  0  0  0  0  0  0  0  0  0
  145.6978  135.1317  153.4292 C   0  0  0  0  0  0  0  0  0  0  0  0
  145.9759  134.9618  154.7451 N   0  0  0  0  0  0  0  0  0  0  0  0
  146.4735  135.9775  155.4571 C   0  0  0  0  0  0  0  0  0  0  0  0
  146.7664  137.2156  155.0533 N   0  0  0  0  0  0  0  0  0  0  0  0
  146.4781  137.3892  153.7315 C   0  0  0  0  0  0  0  0  0  0  0  0
  145.9339  136.4113  152.8535 C   0  0  0  0  0  0  0  0  0  0  0  0
  145.7608  136.9530  151.5858 N   0  0  0  0  0  0  0  0  0  0  0  0
  146.1921  138.1792  151.7035 C   0  0  0  0  0  0  0  0  0  0  0  0
  146.6687  138.5156  152.9511 N   0  0  0  0  0  0  0  0  0  0  0  0
  147.2182  139.7974  153.3533 C   0  0  0  0  0  0  0  0  0  0  0  0
  147.4462  139.9584  154.8832 C   0  0  2  0  0  0  0  0  0  0  0  0
  147.0262  141.3867  155.3088 C   0  0  0  0  0  0  0  0  0  0  0  0
  147.4949  142.3567  154.3946 O   0  0  0  0  0  0  0  0  0  0  0  0
  148.9055  139.6316  155.3267 C   0  0  1  0  0  0  0  0  0  0  0  0
  149.5758  138.4983  154.5633 C   0  0  0  0  0  0  0  0  0  0  0  0
  151.0492  138.7242  154.8685 C   0  0  0  0  0  0  0  0  0  0  0  0
  151.1985  140.1345  154.8576 O   0  0  0  0  0  0  0  0  0  0  0  0
  149.9394  140.7519  155.1086 C   0  0  0  0  0  0  0  0  0  0  0  0
  145.6932  132.1109  151.2659 C   0  0  0  0  0  0  0  0  0  0  0  0
  146.0153  131.0796  152.3732 C   0  0  1  0  0  0  0  0  0  0  0  0
  145.5715  129.6840  151.8876 C   0  0  0  0  0  0  0  0  0  0  0  0
  149.5977  129.2585  154.7338 H   0  0  0  0  0  0  0  0  0  0  0  0
  149.7167  130.9973  154.5927 H   0  0  0  0  0  0  0  0  0  0  0  0
  149.9286  129.9783  153.1640 H   0  0  0  0  0  0  0  0  0  0  0  0
  147.5708  129.1448  153.5012 H   0  0  0  0  0  0  0  0  0  0  0  0
  147.2990  130.3589  154.7263 H   0  0  0  0  0  0  0  0  0  0  0  0
  147.4173  132.8185  154.0442 H   0  0  0  0  0  0  0  0  0  0  0  0
  148.9671  132.5548  153.2798 H   0  0  0  0  0  0  0  0  0  0  0  0
  147.9358  134.5216  152.2758 H   0  0  0  0  0  0  0  0  0  0  0  0
  148.1327  133.2634  151.1020 H   0  0  0  0  0  0  0  0  0  0  0  0
  145.9088  134.1915  150.7973 H   0  0  0  0  0  0  0  0  0  0  0  0
  143.3019  134.8482  153.2327 H   0  0  0  0  0  0  0  0  0  0  0  0
  143.2955  133.2588  152.4857 H   0  0  0  0  0  0  0  0  0  0  0  0
  143.6416  134.6898  151.5066 H   0  0  0  0  0  0  0  0  0  0  0  0
  146.6709  135.7669  156.4980 H   0  0  0  0  0  0  0  0  0  0  0  0
  146.1925  138.8699  150.8728 H   0  0  0  0  0  0  0  0  0  0  0  0
  148.1586  139.9506  152.8225 H   0  0  0  0  0  0  0  0  0  0  0  0
  146.5341  140.5623  152.9852 H   0  0  0  0  0  0  0  0  0  0  0  0
  146.7836  139.2671  155.4058 H   0  0  0  0  0  0  0  0  0  0  0  0
  145.9429  141.4936  155.3383 H   0  0  0  0  0  0  0  0  0  0  0  0
  147.3995  141.6201  156.3065 H   0  0  0  0  0  0  0  0  0  0  0  0
  147.9710  143.0177  154.8740 H   0  0  0  0  0  0  0  0  0  0  0  0
  148.9039  139.3614  156.3840 H   0  0  0  0  0  0  0  0  0  0  0  0
  149.2409  137.5094  154.8777 H   0  0  0  0  0  0  0  0  0  0  0  0
  149.3978  138.5994  153.4916 H   0  0  0  0  0  0  0  0  0  0  0  0
  151.2968  138.3481  155.8620 H   0  0  0  0  0  0  0  0  0  0  0  0
  151.7089  138.2443  154.1454 H   0  0  0  0  0  0  0  0  0  0  0  0
  149.6878  141.3603  154.2394 H   0  0  0  0  0  0  0  0  0  0  0  0
  150.0218  141.4119  155.9708 H   0  0  0  0  0  0  0  0  0  0  0  0
  144.6406  132.0549  150.9875 H   0  0  0  0  0  0  0  0  0  0  0  0
  146.2416  131.8435  150.3613 H   0  0  0  0  0  0  0  0  0  0  0  0
  145.4264  131.3285  153.2576 H   0  0  0  0  0  0  0  0  0  0  0  0
  144.5639  129.7188  151.4721 H   0  0  0  0  0  0  0  0  0  0  0  0
  145.5358  128.9539  152.6952 H   0  0  0  0  0  0  0  0  0  0  0  0
  146.2333  129.3036  151.1089 H   0  0  0  0  0  0  0  0  0  0  0  0
  147.9821  130.8811  151.9235 H   0  0  0  0  0  0  0  0  0  0  0  0
  1  2  1  0  0  0  0
  1 30  1  0  0  0  0
  1 31  1  0  0  0  0
  1 32  1  0  0  0  0
  2  3  1  0  0  0  0
  2 33  1  0  0  0  0
  2 34  1  0  0  0  0
  3 28  1  0  0  0  0
  3  4  1  0  0  0  0
  3 64  1  0  0  0  0
  4  5  1  0  0  0  0
  4 35  1  0  0  0  0
  4 36  1  0  0  0  0
  5  6  1  0  0  0  0
  5 37  1  0  0  0  0
  5 38  1  0  0  0  0
  6  7  1  0  0  0  0
  6 27  1  0  0  0  0
  6 39  1  0  0  0  0
  7  8  1  0  0  0  0
  7  9  1  0  0  0  0
  8 40  1  0  0  0  0
  8 41  1  0  0  0  0
  8 42  1  0  0  0  0
  9 14  1  0  0  0  0
  9 10  2  0  0  0  0
 10 11  1  0  0  0  0
 11 12  2  0  0  0  0
 11 43  1  0  0  0  0
 12 13  1  0  0  0  0
 13 17  1  0  0  0  0
 13 14  2  0  0  0  0
 14 15  1  0  0  0  0
 15 16  2  0  0  0  0
 16 17  1  0  0  0  0
 16 44  1  0  0  0  0
 17 18  1  0  0  0  0
 18 19  1  0  0  0  0
 18 45  1  0  0  0  0
 18 46  1  0  0  0  0
 19 20  1  0  0  0  0
 19 22  1  0  0  0  0
 19 47  1  0  0  0  0
 20 21  1  0  0  0  0
 20 48  1  0  0  0  0
 20 49  1  0  0  0  0
 21 50  1  0  0  0  0
 22 26  1  0  0  0  0
 22 23  1  0  0  0  0
 22 51  1  0  0  0  0
 23 24  1  0  0  0  0
 23 52  1  0  0  0  0
 23 53  1  0  0  0  0
 24 25  1  0  0  0  0
 24 54  1  0  0  0  0
 24 55  1  0  0  0  0
 25 26  1  0  0  0  0
 26 56  1  0  0  0  0
 26 57  1  0  0  0  0
 27 28  1  0  0  0  0
 27 58  1  0  0  0  0
 27 59  1  0  0  0  0
 28 29  1  0  0  0  0
 28 60  1  0  0  0  0
 29 61  1  0  0  0  0
 29 62  1  0  0  0  0
 29 63  1  0  0  0  0
M  CHG  1   3   1
M  END
> <s_m_source_file>
AV-unprocessed.smi

> <i_m_source_file_index>
249

> <i_lp_mmshare_version>
43012

> <i_f3d_flags>
0

> <s_epik_input>
W0NIM11bQ0gyXU4xW0NIMl1bQ0gyXVtDQEhdKFtDSDJdW0NASF0xW0NIM10pTihbQ0gzXSljKG5bY0hdbjIpYyhjMjMpbltjSF1uM1tDSDJdW0NASF0oW0NIMl1bT0hdKVtDQEBIXTRbQ0gyXVtDSDJdT1tDSDJdNA==

> <s_epik_cmdline>
J2VwaWtfcHl0aG9uJywgJy1waCcsICc3LjAnLCAnLXRuJywgJzgnLCAnLW1hJywgJzIwMCcsICctbWV0YWxfYmluZGluZycsICctaW1hZScsICc8aW5maWxlLm1hZT4nLCAnLW9tYWUnLCAnPG91dGZpbGUubWFlPic=

> <r_lp_tautomer_probability>
1

> <r_epik_Ionization_Penalty>
0.00294688

> <r_epik_Ionization_Penalty_Charging>
0.00169971

> <r_epik_Ionization_Penalty_Neutral>
0.00124717

> <r_epik_State_Penalty>
-0

> <r_epik_Charging_Adjusted_Penalty>
0.00169971

> <i_epik_Tot_Q>
1

> <i_epik_Tot_abs_Q>
1

> <r_epik_Metal_State_Penalty>
-0

> <b_epik_Metal_Only>
0

> <s_lp_Force_Field>
OPLS_2005

> <r_lp_Energy>
57.0978

> <b_lp_Chiralities_Consistent>
1

> <s_lp_Variant>
AV-unprocessed.smi:249-11

> <Gold.Version>
5.8.1

> <Gold.Id.Protein>
6NUR|6NUR_protein|mol2

> <Gold.PLP.Fitness>
48.3513

> <Gold.PLP.PLP>
-40.3524

> <Gold.PLP.part.hbond>
-2.9294

> <Gold.PLP.part.metal>
0.0000

> <Gold.PLP.part.buried>
-2.6787

> <Gold.PLP.part.nonpolar>
-35.7124

> <Gold.PLP.part.repulsive>
0.8968

> <Gold.PLP.ligand.clash>
0.0000

> <Gold.PLP.ligand.torsion>
1.5430

> <Gold.PLP.Chemscore.Hbond>
2.9588

> <Gold.PLP.Chemscore.CHOScore>
0.5210

> <Gold.PLP.Chemscore.Metal>
0.0000

> <Gold.Chemscore.Hbonds>
donor molecule, donor type, donor heavy atom, donor atom, acceptor molecule, acceptor atom, score
      L1  H     3    64       P1 10747  1.00
      L1  H    21    50       P1  8028  0.94
      P1  H  7989  7998       L1    25  1.00
      L1  C    16    44       P1 10171  0.49

> <Gold.PLP.Chemscore.Internal.Correction>
0.6459

> <Gold.Rescore>
     Score         DG    S(hbond)    S(metal)    S(lipo)     H(rot)  DE(clash)    DE(int)     intcor
     10.98     -14.96       1.72        0.00      95.45       2.90       1.29       2.70       ----

> <Gold.Chemscore.Fitness>
10.9792

> <Gold.Chemscore.DG>
-14.9622

> <Gold.Chemscore.ZeroCoef>
-5.4800

> <Gold.Chemscore.Hbond>
1.7186

> <Gold.Chemscore.Metal>
0.0000

> <Gold.Chemscore.Lipo>
95.4502

> <Gold.Chemscore.Internal_Hbond>
0.0000

> <Gold.Chemscore.DEClash>
1.2871

> <Gold.Chemscore.DEInternal>
2.6960

> <Gold.Chemscore.Rot>
2.9006

> <Gold.Chemscore.Internal.Correction>
   9.000000E+99

> <Gold.Chemscore.Hbonds>
donor molecule, donor type, donor heavy atom, donor atom, acceptor molecule, acceptor atom, score
      L1  H     3    64       P1 10747  1.00
      L1  H    21    50       P1  8028  0.82
      P1  H  7989  7998       L1    25  0.29

> <Gold.Chemscore.Hbond.Weighted>
-5.7402

> <Gold.Chemscore.Metal.Weighted>
-0.0000

> <Gold.Chemscore.Lipo.Weighted>
-11.1677

> <Gold.Chemscore.Internal_Hbond.Weighted>
0.0000

> <Gold.Chemscore.DEClash.Weighted>
1.2871

> <Gold.Chemscore.DEInternal.Weighted>
2.6960

> <Gold.Chemscore.Rot.Weighted>
7.4256

> <Gold.Chemscore.Internal.Correction.Weighted>
   9.000000E+99

> <Gold.Protein.RotatedTorsions>
[ 6907 6896 6895 6894 ] final  -53.42 input  -60.11 | X-H torsion
[ 7974 7965 7964 7962 ] final  -52.83 input  175.53 | X-H torsion
[ 8008 7997 7996 7995 ] final -143.19 input   59.86 | X-H torsion
[ 10167 10162 10161 10158 ] final  -69.73 input  -65.29 | X-H torsion
[ 10718 10713 10712 10709 ] final -148.94 input   66.30 | X-H torsion
[ 10763 10752 10751 10750 ] final  106.99 input  -60.55 | X-H torsion
[ 11005 11000 10999 10996 ] final    3.37 input  -57.11 | X-H torsion

> <Gold.Protein.ActiveResidues>
 VAL166  LYS551  ARG553  GLY616  TRP617  ASP618  TYR619  PRO620  LYS621  CYS622 
 ASP623  PHE694  ASN695  SER759  ASP760  ASP761  ALA762  ILE779  LEU786  VAL792 
 PHE793  MET794  SER795  GLU796  ALA797  LYS798  CYS799  TRP800  GLU811  SER814 

> <Gold.Protein.RotatedAtoms>
  150.8429  134.7727  159.6946 H   0  0  0  0  0  0  0  0  0  0  0  0  # atno 6907 bound_to 6896
  152.4512  134.5386  159.9842 H   0  0  0  0  0  0  0  0  0  0  0  0  # atno 6908 bound_to 6896
  151.5522  133.3378  159.2991 H   0  0  0  0  0  0  0  0  0  0  0  0  # atno 6909 bound_to 6896
  145.9036  140.7974  142.9731 H   0  0  0  0  0  0  0  0  0  0  0  0  # atno 7974 bound_to 7965
  155.5065  140.0580  157.2930 H   0  0  0  0  0  0  0  0  0  0  0  0  # atno 8008 bound_to 7997
  154.4567  140.1976  156.0307 H   0  0  0  0  0  0  0  0  0  0  0  0  # atno 8009 bound_to 7997
  156.0813  140.3246  155.7702 H   0  0  0  0  0  0  0  0  0  0  0  0  # atno 8010 bound_to 7997
  140.5407  143.2315  151.7094 H   0  0  0  0  0  0  0  0  0  0  0  0  # atno 10167 bound_to 10162
  156.4268  130.8056  151.2281 H   0  0  0  0  0  0  0  0  0  0  0  0  # atno 10718 bound_to 10713
  153.4005  135.3859  155.1984 H   0  0  0  0  0  0  0  0  0  0  0  0  # atno 10763 bound_to 10752
  154.8729  135.3770  154.4624 H   0  0  0  0  0  0  0  0  0  0  0  0  # atno 10764 bound_to 10752
  153.5121  135.7087  153.5837 H   0  0  0  0  0  0  0  0  0  0  0  0  # atno 10765 bound_to 10752
  140.5939  133.9898  155.8101 H   0  0  0  0  0  0  0  0  0  0  0  0  # atno 11005 bound_to 11000
  144.6737  140.1715  143.7414 LP  0  0  0  0  0  0  0  0  0  0  0  0  # atno 17320 bound_to 7965
  145.8760  139.2297  143.1633 LP  0  0  0  0  0  0  0  0  0  0  0  0  # atno 17321 bound_to 7965
  139.4988  144.3972  152.0218 LP  0  0  0  0  0  0  0  0  0  0  0  0  # atno 17342 bound_to 10162
  140.3081  144.3569  150.6041 LP  0  0  0  0  0  0  0  0  0  0  0  0  # atno 17343 bound_to 10162
  157.7508  131.0211  150.3735 LP  0  0  0  0  0  0  0  0  0  0  0  0  # atno 17370 bound_to 10713
  156.4064  130.3925  149.6923 LP  0  0  0  0  0  0  0  0  0  0  0  0  # atno 17371 bound_to 10713
  141.0917  133.9906  157.3226 LP  0  0  0  0  0  0  0  0  0  0  0  0  # atno 17394 bound_to 11000
  139.9262  135.0201  156.8242 LP  0  0  0  0  0  0  0  0  0  0  0  0  # atno 17395 bound_to 11000

$$$$
