AV-unprocessed.smi:3340|AV-procd|sdf|12881|dock1
  -GOLD-   2272019283D 1   1.00000     0.00000
 Structure written by MMmdl.
 41 42  0  0  0  0  0  0  0  0  1 V2000
  152.3988  143.2717  160.0184 C   0  0  0  0  0  0  0  0  0  0  0  0
  152.5753  141.8270  159.5449 C   0  0  0  0  0  0  0  0  0  0  0  0
  153.4813  141.1622  160.0480 O   0  0  0  0  0  0  0  0  0  0  0  0
  151.7396  141.3304  158.6013 N   0  0  0  0  0  0  0  0  0  0  0  0
  150.6917  142.1401  157.9608 C   0  0  0  0  0  0  0  0  0  0  0  0
  150.9967  142.2578  156.4536 C   0  0  0  0  0  0  0  0  0  0  0  0
  151.0627  140.9028  155.8732 N   0  0  0  0  0  0  0  0  0  0  0  0
  150.1590  140.3504  155.0253 C   0  0  0  0  0  0  0  0  0  0  0  0
  150.3416  139.2757  154.4513 O   0  0  0  0  0  0  0  0  0  0  0  0
  149.0594  141.0946  154.8150 N   0  0  0  0  0  0  0  0  0  0  0  0
  147.9525  140.7455  153.9294 C   0  0  2  0  0  0  0  0  0  0  0  0
  146.9888  141.9395  153.8331 C   0  0  0  0  0  0  0  0  0  0  0  0
  147.2679  139.4519  154.4208 C   0  0  0  0  0  0  0  0  0  0  0  0
  146.6917  138.6775  153.3379 N   0  0  0  0  0  0  0  0  0  0  0  0
  146.7962  138.9376  151.9778 C   0  0  0  0  0  0  0  0  0  0  0  0
  146.0991  137.9414  151.3324 C   0  0  0  0  0  0  0  0  0  0  0  0
  145.5652  137.0598  152.2696 N   0  0  0  0  0  0  0  0  0  0  0  0
  145.9607  137.5583  153.4340 C   0  0  0  0  0  0  0  0  0  0  0  0
  152.1204  140.1054  156.5124 C   0  0  0  0  0  0  0  0  0  0  0  0
  151.8157  139.9813  158.0184 C   0  0  0  0  0  0  0  0  0  0  0  0
  151.4121  143.4161  160.4597 H   0  0  0  0  0  0  0  0  0  0  0  0
  152.5234  143.9687  159.1893 H   0  0  0  0  0  0  0  0  0  0  0  0
  153.1419  143.5217  160.7764 H   0  0  0  0  0  0  0  0  0  0  0  0
  149.7232  141.6619  158.1147 H   0  0  0  0  0  0  0  0  0  0  0  0
  150.6049  143.1378  158.3925 H   0  0  0  0  0  0  0  0  0  0  0  0
  150.2544  142.9050  155.9871 H   0  0  0  0  0  0  0  0  0  0  0  0
  151.9551  142.7570  156.3037 H   0  0  0  0  0  0  0  0  0  0  0  0
  148.9880  141.9743  155.3054 H   0  0  0  0  0  0  0  0  0  0  0  0
  148.3520  140.5706  152.9286 H   0  0  0  0  0  0  0  0  0  0  0  0
  146.1944  141.7548  153.1095 H   0  0  0  0  0  0  0  0  0  0  0  0
  147.5129  142.8409  153.5134 H   0  0  0  0  0  0  0  0  0  0  0  0
  146.5207  142.1499  154.7954 H   0  0  0  0  0  0  0  0  0  0  0  0
  147.9831  138.8154  154.9436 H   0  0  0  0  0  0  0  0  0  0  0  0
  146.4799  139.6891  155.1373 H   0  0  0  0  0  0  0  0  0  0  0  0
  147.3405  139.7879  151.5940 H   0  0  0  0  0  0  0  0  0  0  0  0
  145.9432  137.7920  150.2742 H   0  0  0  0  0  0  0  0  0  0  0  0
  145.7088  137.1004  154.3794 H   0  0  0  0  0  0  0  0  0  0  0  0
  152.2233  139.1124  156.0730 H   0  0  0  0  0  0  0  0  0  0  0  0
  153.0828  140.5966  156.3617 H   0  0  0  0  0  0  0  0  0  0  0  0
  152.5638  139.3432  158.4857 H   0  0  0  0  0  0  0  0  0  0  0  0
  150.8613  139.4743  158.1680 H   0  0  0  0  0  0  0  0  0  0  0  0
  1  2  1  0  0  0  0
  1 21  1  0  0  0  0
  1 22  1  0  0  0  0
  1 23  1  0  0  0  0
  2  3  2  0  0  0  0
  2  4  1  0  0  0  0
  4 20  1  0  0  0  0
  4  5  1  0  0  0  0
  5  6  1  0  0  0  0
  5 24  1  0  0  0  0
  5 25  1  0  0  0  0
  6  7  1  0  0  0  0
  6 26  1  0  0  0  0
  6 27  1  0  0  0  0
  7  8  1  0  0  0  0
  7 19  1  0  0  0  0
  8  9  2  0  0  0  0
  8 10  1  0  0  0  0
 10 11  1  0  0  0  0
 10 28  1  0  0  0  0
 11 12  1  0  0  0  0
 11 13  1  0  0  0  0
 11 29  1  0  0  0  0
 12 30  1  0  0  0  0
 12 31  1  0  0  0  0
 12 32  1  0  0  0  0
 13 14  1  0  0  0  0
 13 33  1  0  0  0  0
 13 34  1  0  0  0  0
 14 18  1  0  0  0  0
 14 15  1  0  0  0  0
 15 16  2  0  0  0  0
 15 35  1  0  0  0  0
 16 17  1  0  0  0  0
 16 36  1  0  0  0  0
 17 18  2  0  0  0  0
 18 37  1  0  0  0  0
 19 20  1  0  0  0  0
 19 38  1  0  0  0  0
 19 39  1  0  0  0  0
 20 40  1  0  0  0  0
 20 41  1  0  0  0  0
M  END
> <s_m_source_file>
AV-unprocessed.smi

> <i_m_source_file_index>
3340

> <i_lp_mmshare_version>
43012

> <i_f3d_flags>
0

> <s_epik_input>
W0NIM11DKD1PKU4xW0NIMl1bQ0gyXU4oW0NIMl1bQ0gyXTEpQyg9TylbTkhdW0NASF0oW0NIM10pW0NIMl1uMltjSF1bY0hdbltjSF0y

> <s_epik_cmdline>
J2VwaWtfcHl0aG9uJywgJy1waCcsICc3LjAnLCAnLXRuJywgJzgnLCAnLW1hJywgJzIwMCcsICctbWV0YWxfYmluZGluZycsICctaW1hZScsICc8aW5maWxlLm1hZT4nLCAnLW9tYWUnLCAnPG91dGZpbGUubWFlPic=

> <r_lp_tautomer_probability>
1

> <r_epik_Ionization_Penalty>
0.622948

> <r_epik_Ionization_Penalty_Charging>
0.622904

> <r_epik_Ionization_Penalty_Neutral>
4.39259e-05

> <r_epik_State_Penalty>
0.639086

> <r_epik_Charging_Adjusted_Penalty>
1.26199

> <i_epik_Tot_Q>
0

> <i_epik_Tot_abs_Q>
0

> <r_epik_Metal_State_Penalty>
0.307185

> <b_epik_Metal_Only>
0

> <s_lp_Force_Field>
OPLS_2005

> <r_lp_Energy>
49.2595

> <b_lp_Chiralities_Consistent>
1

> <s_lp_Variant>
AV-unprocessed.smi:3340-3

> <Gold.Version>
5.8.1

> <Gold.Id.Protein>
6NUR|6NUR_protein|mol2

> <Gold.PLP.Fitness>
41.4869

> <Gold.PLP.PLP>
-37.8823

> <Gold.PLP.part.hbond>
-0.2135

> <Gold.PLP.part.metal>
0.0000

> <Gold.PLP.part.buried>
-0.6200

> <Gold.PLP.part.nonpolar>
-36.9919

> <Gold.PLP.part.repulsive>
0.5311

> <Gold.PLP.ligand.clash>
0.0000

> <Gold.PLP.ligand.torsion>
0.5005

> <Gold.PLP.Chemscore.Hbond>
0.0000

> <Gold.PLP.Chemscore.CHOScore>
1.5181

> <Gold.PLP.Chemscore.Metal>
0.0000

> <Gold.Chemscore.Hbonds>
donor molecule, donor type, donor heavy atom, donor atom, acceptor molecule, acceptor atom, score
      L1  C    15    35       P1  7957  1.00
      L1  C    16    36       P1 10171  0.55

> <Gold.PLP.Chemscore.Internal.Correction>
0.0513

> <Gold.Rescore>
     Score         DG    S(hbond)    S(metal)    S(lipo)     H(rot)  DE(clash)    DE(int)     intcor
      9.20      -9.78       0.00        0.00      72.76       1.65       0.15       0.43       ----

> <Gold.Chemscore.Fitness>
9.2006

> <Gold.Chemscore.DG>
-9.7767

> <Gold.Chemscore.ZeroCoef>
-5.4800

> <Gold.Chemscore.Hbond>
0.0000

> <Gold.Chemscore.Metal>
0.0000

> <Gold.Chemscore.Lipo>
72.7631

> <Gold.Chemscore.Internal_Hbond>
0.0000

> <Gold.Chemscore.DEClash>
0.1475

> <Gold.Chemscore.DEInternal>
0.4285

> <Gold.Chemscore.Rot>
1.6471

> <Gold.Chemscore.Internal.Correction>
   9.000000E+99

> <Gold.Chemscore.Hbond.Weighted>
-0.0000

> <Gold.Chemscore.Metal.Weighted>
-0.0000

> <Gold.Chemscore.Lipo.Weighted>
-8.5133

> <Gold.Chemscore.Internal_Hbond.Weighted>
0.0000

> <Gold.Chemscore.DEClash.Weighted>
0.1475

> <Gold.Chemscore.DEInternal.Weighted>
0.4285

> <Gold.Chemscore.Rot.Weighted>
4.2166

> <Gold.Chemscore.Internal.Correction.Weighted>
   9.000000E+99

> <Gold.Protein.RotatedTorsions>
[ 6907 6896 6895 6894 ] final  -33.44 input  -60.11 | X-H torsion
[ 7974 7965 7964 7962 ] final  -97.34 input  175.53 | X-H torsion
[ 8008 7997 7996 7995 ] final   88.99 input   59.86 | X-H torsion
[ 10167 10162 10161 10158 ] final   57.82 input  -65.29 | X-H torsion
[ 10718 10713 10712 10709 ] final  -90.24 input   66.30 | X-H torsion
[ 10763 10752 10751 10750 ] final   -8.07 input  -60.55 | X-H torsion
[ 11005 11000 10999 10996 ] final -160.62 input  -57.11 | X-H torsion

> <Gold.Protein.ActiveResidues>
 VAL166  LYS551  ARG553  GLY616  TRP617  ASP618  TYR619  PRO620  LYS621  CYS622 
 ASP623  PHE694  ASN695  SER759  ASP760  ASP761  ALA762  ILE779  LEU786  VAL792 
 PHE793  MET794  SER795  GLU796  ALA797  LYS798  CYS799  TRP800  GLU811  SER814 

> <Gold.Protein.RotatedAtoms>
  151.0656  134.9765  159.8282 H   0  0  0  0  0  0  0  0  0  0  0  0  # atno 6907 bound_to 6896
  152.5401  134.2363  159.8854 H   0  0  0  0  0  0  0  0  0  0  0  0  # atno 6908 bound_to 6896
  151.2385  133.4369  159.2640 H   0  0  0  0  0  0  0  0  0  0  0  0  # atno 6909 bound_to 6896
  145.3350  140.9449  143.2640 H   0  0  0  0  0  0  0  0  0  0  0  0  # atno 7974 bound_to 7965
  155.9945  140.3365  155.6785 H   0  0  0  0  0  0  0  0  0  0  0  0  # atno 8008 bound_to 7997
  155.6375  140.0691  157.2647 H   0  0  0  0  0  0  0  0  0  0  0  0  # atno 8009 bound_to 7997
  154.4229  140.1748  156.1526 H   0  0  0  0  0  0  0  0  0  0  0  0  # atno 8010 bound_to 7997
  140.1939  144.4057  150.6559 H   0  0  0  0  0  0  0  0  0  0  0  0  # atno 10167 bound_to 10162
  155.9987  130.4902  150.5294 H   0  0  0  0  0  0  0  0  0  0  0  0  # atno 10718 bound_to 10713
  153.4352  135.7013  153.6204 H   0  0  0  0  0  0  0  0  0  0  0  0  # atno 10763 bound_to 10752
  153.4602  135.3738  155.2334 H   0  0  0  0  0  0  0  0  0  0  0  0  # atno 10764 bound_to 10752
  154.8726  135.4018  154.3742 H   0  0  0  0  0  0  0  0  0  0  0  0  # atno 10765 bound_to 10752
  140.6294  134.4667  157.5228 H   0  0  0  0  0  0  0  0  0  0  0  0  # atno 11005 bound_to 11000
  144.8834  139.4872  143.6712 LP  0  0  0  0  0  0  0  0  0  0  0  0  # atno 17320 bound_to 7965
  146.3030  139.7489  142.9077 LP  0  0  0  0  0  0  0  0  0  0  0  0  # atno 17321 bound_to 7965
  140.6437  143.2209  151.6234 LP  0  0  0  0  0  0  0  0  0  0  0  0  # atno 17342 bound_to 10162
  139.5244  144.3103  152.0998 LP  0  0  0  0  0  0  0  0  0  0  0  0  # atno 17343 bound_to 10162
  157.3245  131.0688  151.1907 LP  0  0  0  0  0  0  0  0  0  0  0  0  # atno 17370 bound_to 10713
  157.2809  130.6750  149.6065 LP  0  0  0  0  0  0  0  0  0  0  0  0  # atno 17371 bound_to 10713
  139.9122  134.8321  156.1489 LP  0  0  0  0  0  0  0  0  0  0  0  0  # atno 17394 bound_to 11000
  141.0686  133.6807  156.2094 LP  0  0  0  0  0  0  0  0  0  0  0  0  # atno 17395 bound_to 11000

$$$$
