AV-unprocessed.smi:2923|AV-procd|sdf|11210|dock2
  -GOLD-   2272016103D 1   1.00000     0.00000
 Structure written by MMmdl.
 46 48  0  0  0  0  0  0  0  0  1 V2000
  149.6202  128.3352  153.3349 C   0  0  0  0  0  0  0  0  0  0  0  0
  148.4356  129.1589  153.5209 N   0  0  0  0  0  0  0  0  0  0  0  0
  147.3354  128.9232  152.5983 C   0  0  0  0  0  0  0  0  0  0  0  0
  148.7362  130.5180  153.6788 C   0  0  0  0  0  0  0  0  0  0  0  0
  149.7906  130.9453  154.5174 C   0  0  0  0  0  0  0  0  0  0  0  0
  150.0471  132.3247  154.6353 C   0  0  0  0  0  0  0  0  0  0  0  0
  149.2363  133.2345  153.9160 C   0  0  0  0  0  0  0  0  0  0  0  0
  149.4090  134.6445  153.9305 N   0  0  0  0  0  0  0  0  0  0  0  0
  149.8288  135.4265  154.9392 C   0  0  0  0  0  0  0  0  0  0  0  0
  150.1106  135.0401  156.0733 O   0  0  0  0  0  0  0  0  0  0  0  0
  149.8907  136.7094  154.5599 N   0  0  0  0  0  0  0  0  0  0  0  0
  150.2895  137.8198  155.4314 C   0  0  2  0  0  0  0  0  0  0  0  0
  149.3419  139.0173  155.3238 C   0  0  2  0  0  0  0  0  0  0  0  0
  147.9631  139.2414  154.8166 C   0  0  0  0  0  0  0  0  0  0  0  0
  148.2353  140.5950  154.1058 C   0  0  0  0  0  0  0  0  0  0  0  0
  149.6761  140.7661  154.1103 O   0  0  0  0  0  0  0  0  0  0  0  0
  150.1751  139.4433  154.1321 C   0  0  1  0  0  0  0  0  0  0  0  0
  151.3850  138.7951  154.8413 C   0  0  0  0  0  0  0  0  0  0  0  0
  152.1629  139.6699  155.8412 C   0  0  0  0  0  0  0  0  0  0  0  0
  152.4415  138.1841  153.9139 C   0  0  0  0  0  0  0  0  0  0  0  0
  148.2180  132.7018  153.0988 C   0  0  0  0  0  0  0  0  0  0  0  0
  147.9657  131.3811  152.9823 N   0  0  0  0  0  0  0  0  0  0  0  0
  150.3874  128.5865  154.0684 H   0  0  0  0  0  0  0  0  0  0  0  0
  150.0390  128.4714  152.3373 H   0  0  0  0  0  0  0  0  0  0  0  0
  149.3685  127.2818  153.4592 H   0  0  0  0  0  0  0  0  0  0  0  0
  146.4904  129.5737  152.8279 H   0  0  0  0  0  0  0  0  0  0  0  0
  146.9949  127.8905  152.6752 H   0  0  0  0  0  0  0  0  0  0  0  0
  147.6412  129.1055  151.5677 H   0  0  0  0  0  0  0  0  0  0  0  0
  150.3968  130.2330  155.0577 H   0  0  0  0  0  0  0  0  0  0  0  0
  150.8646  132.6523  155.2584 H   0  0  0  0  0  0  0  0  0  0  0  0
  149.1338  135.1215  153.0843 H   0  0  0  0  0  0  0  0  0  0  0  0
  149.6381  136.9409  153.6104 H   0  0  0  0  0  0  0  0  0  0  0  0
  150.4822  137.5242  156.4641 H   0  0  0  0  0  0  0  0  0  0  0  0
  149.4963  139.6547  156.1977 H   0  0  0  0  0  0  0  0  0  0  0  0
  147.6482  138.4666  154.1164 H   0  0  0  0  0  0  0  0  0  0  0  0
  147.2247  139.3266  155.6140 H   0  0  0  0  0  0  0  0  0  0  0  0
  147.8577  140.5788  153.0825 H   0  0  0  0  0  0  0  0  0  0  0  0
  147.7665  141.4306  154.6263 H   0  0  0  0  0  0  0  0  0  0  0  0
  149.9209  138.9266  153.2008 H   0  0  0  0  0  0  0  0  0  0  0  0
  152.6560  140.5011  155.3359 H   0  0  0  0  0  0  0  0  0  0  0  0
  152.9365  139.0952  156.3516 H   0  0  0  0  0  0  0  0  0  0  0  0
  151.5379  140.1036  156.6198 H   0  0  0  0  0  0  0  0  0  0  0  0
  153.0797  138.9502  153.4728 H   0  0  0  0  0  0  0  0  0  0  0  0
  151.9919  137.6365  153.0856 H   0  0  0  0  0  0  0  0  0  0  0  0
  153.0856  137.4868  154.4505 H   0  0  0  0  0  0  0  0  0  0  0  0
  147.5809  133.3554  152.5210 H   0  0  0  0  0  0  0  0  0  0  0  0
  1  2  1  0  0  0  0
  1 23  1  0  0  0  0
  1 24  1  0  0  0  0
  1 25  1  0  0  0  0
  2  3  1  0  0  0  0
  2  4  1  0  0  0  0
  3 26  1  0  0  0  0
  3 27  1  0  0  0  0
  3 28  1  0  0  0  0
  4 22  1  0  0  0  0
  4  5  2  0  0  0  0
  5  6  1  0  0  0  0
  5 29  1  0  0  0  0
  6  7  2  0  0  0  0
  6 30  1  0  0  0  0
  7  8  1  0  0  0  0
  7 21  1  0  0  0  0
  8  9  1  0  0  0  0
  8 31  1  0  0  0  0
  9 10  2  0  0  0  0
  9 11  1  0  0  0  0
 11 12  1  0  0  0  0
 11 32  1  0  0  0  0
 12 18  1  0  0  0  0
 12 13  1  0  0  0  0
 12 33  1  0  0  0  0
 13 17  1  0  0  0  0
 13 14  1  0  0  0  0
 13 34  1  0  0  0  0
 14 15  1  0  0  0  0
 14 35  1  0  0  0  0
 14 36  1  0  0  0  0
 15 16  1  0  0  0  0
 15 37  1  0  0  0  0
 15 38  1  0  0  0  0
 16 17  1  0  0  0  0
 17 18  1  0  0  0  0
 17 39  1  0  0  0  0
 18 19  1  0  0  0  0
 18 20  1  0  0  0  0
 19 40  1  0  0  0  0
 19 41  1  0  0  0  0
 19 42  1  0  0  0  0
 20 43  1  0  0  0  0
 20 44  1  0  0  0  0
 20 45  1  0  0  0  0
 21 22  2  0  0  0  0
 21 46  1  0  0  0  0
M  END
> <s_m_source_file>
AV-unprocessed.smi

> <i_m_source_file_index>
2923

> <i_lp_mmshare_version>
43012

> <i_f3d_flags>
0

> <s_epik_input>
W0NIM11OKFtDSDNdKWMxW2NIXVtjSF1jKFtjSF1uMSlbTkhdQyg9TylbTkhdW0NASF0yQyhbQ0gzXSkoW0NIM10pW0NAQEhdKFtDQEhdMjMpT1tDSDJdW0NIMl0z

> <s_epik_cmdline>
J2VwaWtfcHl0aG9uJywgJy1waCcsICc3LjAnLCAnLXRuJywgJzgnLCAnLW1hJywgJzIwMCcsICctbWV0YWxfYmluZGluZycsICctaW1hZScsICc8aW5maWxlLm1hZT4nLCAnLW9tYWUnLCAnPG91dGZpbGUubWFlPic=

> <r_lp_tautomer_probability>
1

> <r_epik_Ionization_Penalty>
0.628785

> <r_epik_Ionization_Penalty_Charging>
0

> <r_epik_Ionization_Penalty_Neutral>
0.628785

> <r_epik_State_Penalty>
0.644286

> <r_epik_Charging_Adjusted_Penalty>
0.644286

> <i_epik_Tot_Q>
0

> <i_epik_Tot_abs_Q>
0

> <r_epik_Metal_State_Penalty>
0.308404

> <b_epik_Metal_Only>
0

> <s_lp_Force_Field>
OPLS_2005

> <r_lp_Energy>
70.0189

> <b_lp_Chiralities_Consistent>
1

> <s_lp_Variant>
AV-unprocessed.smi:2923-9

> <Gold.Version>
5.8.1

> <Gold.Id.Protein>
6NUR|6NUR_protein|mol2

> <Gold.PLP.Fitness>
39.9103

> <Gold.PLP.PLP>
-34.6830

> <Gold.PLP.part.hbond>
-3.0000

> <Gold.PLP.part.metal>
0.0000

> <Gold.PLP.part.buried>
-3.8011

> <Gold.PLP.part.nonpolar>
-28.8600

> <Gold.PLP.part.repulsive>
0.8502

> <Gold.PLP.ligand.clash>
0.0000

> <Gold.PLP.ligand.torsion>
0.5498

> <Gold.PLP.Chemscore.Hbond>
1.9516

> <Gold.PLP.Chemscore.CHOScore>
0.0000

> <Gold.PLP.Chemscore.Metal>
0.0000

> <Gold.Chemscore.Hbonds>
donor molecule, donor type, donor heavy atom, donor atom, acceptor molecule, acceptor atom, score
      L1  H     8    31       P1  7948  0.75
      L1  H    11    32       P1  7948  0.91
      P1  H  8011  8017       L1    16  0.01

> <Gold.PLP.Chemscore.Internal.Correction>
0.4720

> <Gold.Rescore>
     Score         DG    S(hbond)    S(metal)    S(lipo)     H(rot)  DE(clash)    DE(int)     intcor
     14.59     -16.06       1.30        0.00      79.59       1.19       0.30       1.16       ----

> <Gold.Chemscore.Fitness>
14.5937

> <Gold.Chemscore.DG>
-16.0631

> <Gold.Chemscore.ZeroCoef>
-5.4800

> <Gold.Chemscore.Hbond>
1.2955

> <Gold.Chemscore.Metal>
0.0000

> <Gold.Chemscore.Lipo>
79.5901

> <Gold.Chemscore.Internal_Hbond>
0.0000

> <Gold.Chemscore.DEClash>
0.3048

> <Gold.Chemscore.DEInternal>
1.1646

> <Gold.Chemscore.Rot>
1.1937

> <Gold.Chemscore.Internal.Correction>
   9.000000E+99

> <Gold.Chemscore.Hbonds>
donor molecule, donor type, donor heavy atom, donor atom, acceptor molecule, acceptor atom, score
      L1  H     8    31       P1  7948  0.09
      L1  H    11    32       P1  7948  0.65
      P1  H  8011  8017       L1    16  0.01

> <Gold.Chemscore.Hbond.Weighted>
-4.3269

> <Gold.Chemscore.Metal.Weighted>
-0.0000

> <Gold.Chemscore.Lipo.Weighted>
-9.3120

> <Gold.Chemscore.Internal_Hbond.Weighted>
0.0000

> <Gold.Chemscore.DEClash.Weighted>
0.3048

> <Gold.Chemscore.DEInternal.Weighted>
1.1646

> <Gold.Chemscore.Rot.Weighted>
3.0559

> <Gold.Chemscore.Internal.Correction.Weighted>
   9.000000E+99

> <Gold.Protein.RotatedTorsions>
[ 6907 6896 6895 6894 ] final  -22.13 input  -60.11 | X-H torsion
[ 7974 7965 7964 7962 ] final  -92.98 input  175.53 | X-H torsion
[ 8008 7997 7996 7995 ] final  155.60 input   59.86 | X-H torsion
[ 10167 10162 10161 10158 ] final -103.96 input  -65.29 | X-H torsion
[ 10718 10713 10712 10709 ] final  153.30 input   66.30 | X-H torsion
[ 10763 10752 10751 10750 ] final -134.23 input  -60.55 | X-H torsion
[ 11005 11000 10999 10996 ] final  131.47 input  -57.11 | X-H torsion

> <Gold.Protein.ActiveResidues>
 VAL166  LYS551  ARG553  GLY616  TRP617  ASP618  TYR619  PRO620  LYS621  CYS622 
 ASP623  PHE694  ASN695  SER759  ASP760  ASP761  ALA762  ILE779  LEU786  VAL792 
 PHE793  MET794  SER795  GLU796  ALA797  LYS798  CYS799  TRP800  GLU811  SER814 

> <Gold.Protein.RotatedAtoms>
  151.2231  135.0526  159.8957 H   0  0  0  0  0  0  0  0  0  0  0  0  # atno 6907 bound_to 6896
  152.5413  134.0619  159.8166 H   0  0  0  0  0  0  0  0  0  0  0  0  # atno 6908 bound_to 6896
  151.0788  133.5358  159.2653 H   0  0  0  0  0  0  0  0  0  0  0  0  # atno 6909 bound_to 6896
  145.3927  140.9530  143.2331 H   0  0  0  0  0  0  0  0  0  0  0  0  # atno 7974 bound_to 7965
  156.2469  140.1935  156.6826 H   0  0  0  0  0  0  0  0  0  0  0  0  # atno 8008 bound_to 7997
  154.6311  140.0596  156.9759 H   0  0  0  0  0  0  0  0  0  0  0  0  # atno 8009 bound_to 7997
  155.1710  140.3268  155.4395 H   0  0  0  0  0  0  0  0  0  0  0  0  # atno 8010 bound_to 7997
  140.2144  143.3723  152.1023 H   0  0  0  0  0  0  0  0  0  0  0  0  # atno 10167 bound_to 10162
  157.2466  131.0770  151.1757 H   0  0  0  0  0  0  0  0  0  0  0  0  # atno 10718 bound_to 10713
  154.8722  135.3741  154.4702 H   0  0  0  0  0  0  0  0  0  0  0  0  # atno 10763 bound_to 10752
  153.5363  135.7027  153.5663 H   0  0  0  0  0  0  0  0  0  0  0  0  # atno 10764 bound_to 10752
  153.3845  135.3988  155.1845 H   0  0  0  0  0  0  0  0  0  0  0  0  # atno 10765 bound_to 10752
  139.9732  134.9571  156.9442 H   0  0  0  0  0  0  0  0  0  0  0  0  # atno 11005 bound_to 11000
  144.8429  139.5443  143.6892 LP  0  0  0  0  0  0  0  0  0  0  0  0  # atno 17320 bound_to 7965
  146.2790  139.6827  142.9242 LP  0  0  0  0  0  0  0  0  0  0  0  0  # atno 17321 bound_to 7965
  139.5168  144.6982  151.5569 LP  0  0  0  0  0  0  0  0  0  0  0  0  # atno 17342 bound_to 10162
  140.6301  143.9093  150.6598 LP  0  0  0  0  0  0  0  0  0  0  0  0  # atno 17343 bound_to 10162
  157.3322  130.6991  149.6331 LP  0  0  0  0  0  0  0  0  0  0  0  0  # atno 17370 bound_to 10713
  155.9668  130.4304  150.4875 LP  0  0  0  0  0  0  0  0  0  0  0  0  # atno 17371 bound_to 10713
  140.5250  134.0870  155.7301 LP  0  0  0  0  0  0  0  0  0  0  0  0  # atno 17394 bound_to 11000
  141.1410  133.9137  157.2325 LP  0  0  0  0  0  0  0  0  0  0  0  0  # atno 17395 bound_to 11000

$$$$
