AV-unprocessed.smi:2538|AV-procd|sdf|9981|dock8
  -GOLD-   2272014 23D 1   1.00000     0.00000
 Structure written by MMmdl.
 48 49  0  0  0  0  0  0  0  0  1 V2000
  151.3579  144.1869  158.1411 C   0  0  0  0  0  0  0  0  0  0  0  0
  151.4307  142.7192  157.7585 C   0  0  0  0  0  0  0  0  0  0  0  0
  151.0149  142.3248  156.4667 C   0  0  0  0  0  0  0  0  0  0  0  0
  151.0659  140.9703  156.0713 C   0  0  0  0  0  0  0  0  0  0  0  0
  150.7147  140.3686  154.8748 N   0  0  0  0  0  0  0  0  0  0  0  0
  150.9918  139.0923  155.1252 C   0  0  0  0  0  0  0  0  0  0  0  0
  151.4828  138.7962  156.3439 N   0  0  0  0  0  0  0  0  0  0  0  0
  151.8606  137.4874  156.8459 C   0  0  0  0  0  0  0  0  0  0  0  0
  153.2727  137.4833  157.4627 C   0  0  2  0  0  0  0  0  0  0  0  0
  154.0323  136.4784  156.8196 O   0  0  0  0  0  0  0  0  0  0  0  0
  153.2390  137.1877  158.9778 C   0  0  0  0  0  0  0  0  0  0  0  0
  154.5809  137.1168  159.5873 N   0  0  0  0  0  0  0  0  0  0  0  0
  154.9503  135.8259  160.1832 C   0  0  0  0  0  0  0  0  0  0  0  0
  155.3558  138.5565  160.1756 S   0  0  0  0  0  0  0  0  0  0  0  0
  156.7205  138.1741  160.5711 O   0  0  0  0  0  0  0  0  0  0  0  0
  155.1584  139.6096  159.1671 O   0  0  0  0  0  0  0  0  0  0  0  0
  154.3928  138.9837  161.7080 C   0  0  0  0  0  0  0  0  0  0  0  0
  154.9175  140.2853  162.3310 C   0  0  0  0  0  0  0  0  0  0  0  0
  154.4289  137.8245  162.7143 C   0  0  0  0  0  0  0  0  0  0  0  0
  151.5477  140.0136  157.0116 C   0  0  0  0  0  0  0  0  0  0  0  0
  151.9641  140.3930  158.2999 C   0  0  0  0  0  0  0  0  0  0  0  0
  151.9082  141.7508  158.6780 C   0  0  0  0  0  0  0  0  0  0  0  0
  152.3626  142.1512  160.0703 C   0  0  0  0  0  0  0  0  0  0  0  0
  150.9100  144.7839  157.3461 H   0  0  0  0  0  0  0  0  0  0  0  0
  152.3561  144.5803  158.3347 H   0  0  0  0  0  0  0  0  0  0  0  0
  150.7527  144.3202  159.0382 H   0  0  0  0  0  0  0  0  0  0  0  0
  150.6525  143.0621  155.7656 H   0  0  0  0  0  0  0  0  0  0  0  0
  150.8318  138.3283  154.3786 H   0  0  0  0  0  0  0  0  0  0  0  0
  151.1227  137.1903  157.5922 H   0  0  0  0  0  0  0  0  0  0  0  0
  151.7928  136.7632  156.0326 H   0  0  0  0  0  0  0  0  0  0  0  0
  153.7320  138.4508  157.2647 H   0  0  0  0  0  0  0  0  0  0  0  0
  154.8197  136.3296  157.3201 H   0  0  0  0  0  0  0  0  0  0  0  0
  152.6947  137.9826  159.4889 H   0  0  0  0  0  0  0  0  0  0  0  0
  152.6757  136.2796  159.1956 H   0  0  0  0  0  0  0  0  0  0  0  0
  154.5543  135.7433  161.1951 H   0  0  0  0  0  0  0  0  0  0  0  0
  156.0348  135.7290  160.2317 H   0  0  0  0  0  0  0  0  0  0  0  0
  154.5652  134.9976  159.5882 H   0  0  0  0  0  0  0  0  0  0  0  0
  153.3583  139.1461  161.4145 H   0  0  0  0  0  0  0  0  0  0  0  0
  154.3489  140.5487  163.2230 H   0  0  0  0  0  0  0  0  0  0  0  0
  154.8361  141.1199  161.6349 H   0  0  0  0  0  0  0  0  0  0  0  0
  155.9648  140.1906  162.6186 H   0  0  0  0  0  0  0  0  0  0  0  0
  153.8244  138.0497  163.5931 H   0  0  0  0  0  0  0  0  0  0  0  0
  155.4459  137.6233  163.0530 H   0  0  0  0  0  0  0  0  0  0  0  0
  154.0353  136.9091  162.2716 H   0  0  0  0  0  0  0  0  0  0  0  0
  152.3248  139.6446  158.9902 H   0  0  0  0  0  0  0  0  0  0  0  0
  152.7533  141.2962  160.6226 H   0  0  0  0  0  0  0  0  0  0  0  0
  151.5293  142.5654  160.6382 H   0  0  0  0  0  0  0  0  0  0  0  0
  153.1517  142.9013  160.0153 H   0  0  0  0  0  0  0  0  0  0  0  0
  1  2  1  0  0  0  0
  1 24  1  0  0  0  0
  1 25  1  0  0  0  0
  1 26  1  0  0  0  0
  2 22  1  0  0  0  0
  2  3  2  0  0  0  0
  3  4  1  0  0  0  0
  3 27  1  0  0  0  0
  4 20  2  0  0  0  0
  4  5  1  0  0  0  0
  5  6  2  0  0  0  0
  6  7  1  0  0  0  0
  6 28  1  0  0  0  0
  7  8  1  0  0  0  0
  7 20  1  0  0  0  0
  8  9  1  0  0  0  0
  8 29  1  0  0  0  0
  8 30  1  0  0  0  0
  9 10  1  0  0  0  0
  9 11  1  0  0  0  0
  9 31  1  0  0  0  0
 10 32  1  0  0  0  0
 11 12  1  0  0  0  0
 11 33  1  0  0  0  0
 11 34  1  0  0  0  0
 12 13  1  0  0  0  0
 12 14  1  0  0  0  0
 13 35  1  0  0  0  0
 13 36  1  0  0  0  0
 13 37  1  0  0  0  0
 14 15  2  0  0  0  0
 14 16  2  0  0  0  0
 14 17  1  0  0  0  0
 17 18  1  0  0  0  0
 17 19  1  0  0  0  0
 17 38  1  0  0  0  0
 18 39  1  0  0  0  0
 18 40  1  0  0  0  0
 18 41  1  0  0  0  0
 19 42  1  0  0  0  0
 19 43  1  0  0  0  0
 19 44  1  0  0  0  0
 20 21  1  0  0  0  0
 21 22  2  0  0  0  0
 21 45  1  0  0  0  0
 22 23  1  0  0  0  0
 23 46  1  0  0  0  0
 23 47  1  0  0  0  0
 23 48  1  0  0  0  0
M  END
> <s_m_source_file>
AV-unprocessed.smi

> <i_m_source_file_index>
2538

> <i_lp_mmshare_version>
43012

> <i_f3d_flags>
0

> <s_epik_input>
W0NIM11jKFtjSF0xKWMoW0NIM10pW2NIXWMoYzEyKW4oW2NIXW4yKVtDSDJdW0NASF0oW09IXSlbQ0gyXU4oW0NIM10pUyg9TykoPU8pW0NIXShbQ0gzXSlbQ0gzXQ==

> <s_epik_cmdline>
J2VwaWtfcHl0aG9uJywgJy1waCcsICc3LjAnLCAnLXRuJywgJzgnLCAnLW1hJywgJzIwMCcsICctbWV0YWxfYmluZGluZycsICctaW1hZScsICc8aW5maWxlLm1hZT4nLCAnLW9tYWUnLCAnPG91dGZpbGUubWFlPic=

> <r_epik_Ionization_Penalty>
0.105018

> <r_epik_Ionization_Penalty_Charging>
0

> <r_epik_Ionization_Penalty_Neutral>
0.105018

> <r_epik_State_Penalty>
0.094904

> <r_epik_Charging_Adjusted_Penalty>
0.094904

> <i_epik_Tot_Q>
0

> <i_epik_Tot_abs_Q>
0

> <r_epik_Metal_State_Penalty>
0.000102919

> <b_epik_Metal_Only>
0

> <s_lp_Force_Field>
OPLS_2005

> <r_lp_Energy>
2.81525

> <b_lp_Chiralities_Consistent>
1

> <s_lp_Variant>
AV-unprocessed.smi:2538-1

> <Gold.Version>
5.8.1

> <Gold.Id.Protein>
6NUR|6NUR_protein|mol2

> <Gold.PLP.Fitness>
45.0898

> <Gold.PLP.PLP>
-37.8039

> <Gold.PLP.part.hbond>
-3.0000

> <Gold.PLP.part.metal>
0.0000

> <Gold.PLP.part.buried>
-5.6047

> <Gold.PLP.part.nonpolar>
-29.9952

> <Gold.PLP.part.repulsive>
0.0833

> <Gold.PLP.ligand.clash>
0.0000

> <Gold.PLP.ligand.torsion>
2.1327

> <Gold.PLP.Chemscore.Hbond>
2.9920

> <Gold.PLP.Chemscore.CHOScore>
0.0000

> <Gold.PLP.Chemscore.Metal>
0.0000

> <Gold.Chemscore.Hbonds>
donor molecule, donor type, donor heavy atom, donor atom, acceptor molecule, acceptor atom, score
      P1  H  7989  7998       L1     5  1.00
      P1  H  7997  8010       L1    16  1.00
      P1  H 10752 10765       L1    10  0.99

> <Gold.PLP.Chemscore.Internal.Correction>
2.5752

> <Gold.Rescore>
     Score         DG    S(hbond)    S(metal)    S(lipo)     H(rot)  DE(clash)    DE(int)     intcor
     19.09     -21.17       2.88        0.00     101.93       2.29       0.00       2.09       ----

> <Gold.Chemscore.Fitness>
19.0855

> <Gold.Chemscore.DG>
-21.1744

> <Gold.Chemscore.ZeroCoef>
-5.4800

> <Gold.Chemscore.Hbond>
2.8850

> <Gold.Chemscore.Metal>
0.0000

> <Gold.Chemscore.Lipo>
101.9269

> <Gold.Chemscore.Internal_Hbond>
0.0000

> <Gold.Chemscore.DEClash>
0.0015

> <Gold.Chemscore.DEInternal>
2.0874

> <Gold.Chemscore.Rot>
2.2917

> <Gold.Chemscore.Internal.Correction>
   9.000000E+99

> <Gold.Chemscore.Hbonds>
donor molecule, donor type, donor heavy atom, donor atom, acceptor molecule, acceptor atom, score
      P1  H  7989  7998       L1     5  0.62
      P1  H  7997  8010       L1    16  0.99
      P1  H 10752 10765       L1    10  0.69

> <Gold.Chemscore.Hbond.Weighted>
-9.6358

> <Gold.Chemscore.Metal.Weighted>
-0.0000

> <Gold.Chemscore.Lipo.Weighted>
-11.9254

> <Gold.Chemscore.Internal_Hbond.Weighted>
0.0000

> <Gold.Chemscore.DEClash.Weighted>
0.0015

> <Gold.Chemscore.DEInternal.Weighted>
2.0874

> <Gold.Chemscore.Rot.Weighted>
5.8669

> <Gold.Chemscore.Internal.Correction.Weighted>
   9.000000E+99

> <Gold.Protein.RotatedTorsions>
[ 6907 6896 6895 6894 ] final -135.32 input  -60.11 | X-H torsion
[ 7974 7965 7964 7962 ] final -161.05 input  175.53 | X-H torsion
[ 8008 7997 7996 7995 ] final    1.57 input   59.86 | X-H torsion
[ 10167 10162 10161 10158 ] final   34.03 input  -65.29 | X-H torsion
[ 10718 10713 10712 10709 ] final   92.08 input   66.30 | X-H torsion
[ 10763 10752 10751 10750 ] final  -96.38 input  -60.55 | X-H torsion
[ 11005 11000 10999 10996 ] final  -63.06 input  -57.11 | X-H torsion

> <Gold.Protein.ActiveResidues>
 VAL166  LYS551  ARG553  GLY616  TRP617  ASP618  TYR619  PRO620  LYS621  CYS622 
 ASP623  PHE694  ASN695  SER759  ASP760  ASP761  ALA762  ILE779  LEU786  VAL792 
 PHE793  MET794  SER795  GLU796  ALA797  LYS798  CYS799  TRP800  GLU811  SER814 

> <Gold.Protein.RotatedAtoms>
  150.9964  133.6098  159.2700 H   0  0  0  0  0  0  0  0  0  0  0  0  # atno 6907 bound_to 6896
  151.3301  135.0838  159.9345 H   0  0  0  0  0  0  0  0  0  0  0  0  # atno 6908 bound_to 6896
  152.5261  133.9595  159.7765 H   0  0  0  0  0  0  0  0  0  0  0  0  # atno 6909 bound_to 6896
  144.7405  140.3453  143.6126 H   0  0  0  0  0  0  0  0  0  0  0  0  # atno 7974 bound_to 7965
  154.6813  140.2633  155.6905 H   0  0  0  0  0  0  0  0  0  0  0  0  # atno 8008 bound_to 7997
  156.2698  140.2809  156.1281 H   0  0  0  0  0  0  0  0  0  0  0  0  # atno 8009 bound_to 7997
  155.1027  140.0374  157.2691 H   0  0  0  0  0  0  0  0  0  0  0  0  # atno 8010 bound_to 7997
  140.4353  144.1266  150.6165 H   0  0  0  0  0  0  0  0  0  0  0  0  # atno 10167 bound_to 10162
  157.6959  131.0430  150.3828 H   0  0  0  0  0  0  0  0  0  0  0  0  # atno 10718 bound_to 10713
  154.7234  135.5086  153.8847 H   0  0  0  0  0  0  0  0  0  0  0  0  # atno 10763 bound_to 10752
  153.0882  135.6651  153.9914 H   0  0  0  0  0  0  0  0  0  0  0  0  # atno 10764 bound_to 10752
  153.9732  135.3036  155.3405 H   0  0  0  0  0  0  0  0  0  0  0  0  # atno 10765 bound_to 10752
  141.1380  133.6647  156.5622 H   0  0  0  0  0  0  0  0  0  0  0  0  # atno 11005 bound_to 11000
  145.7332  139.1742  143.2418 LP  0  0  0  0  0  0  0  0  0  0  0  0  # atno 17320 bound_to 7965
  146.1190  140.7332  142.9466 LP  0  0  0  0  0  0  0  0  0  0  0  0  # atno 17321 bound_to 7965
  140.4381  143.2538  151.9509 LP  0  0  0  0  0  0  0  0  0  0  0  0  # atno 17342 bound_to 10162
  139.4786  144.5681  151.8133 LP  0  0  0  0  0  0  0  0  0  0  0  0  # atno 17343 bound_to 10162
  156.4240  130.3958  149.6806 LP  0  0  0  0  0  0  0  0  0  0  0  0  # atno 17370 bound_to 10713
  156.4047  130.7692  151.2702 LP  0  0  0  0  0  0  0  0  0  0  0  0  # atno 17371 bound_to 10713
  140.3979  134.7382  157.4762 LP  0  0  0  0  0  0  0  0  0  0  0  0  # atno 17394 bound_to 11000
  140.0518  134.6120  155.8853 LP  0  0  0  0  0  0  0  0  0  0  0  0  # atno 17395 bound_to 11000

$$$$
