AV-unprocessed.smi:2532|AV-procd|sdf|9970|dock2
  -GOLD-   2272014 13D 1   1.00000     0.00000
 Structure written by MMmdl.
 37 39  0  0  0  0  0  0  0  0  2 V2000
  146.3004  137.9157  150.6794 O   0  0  0  0  0  0  0  0  0  0  0  0
  146.1536  137.8026  152.0810 C   0  0  2  0  0  0  0  0  0  0  0  0
  147.2260  138.6756  152.7507 C   0  0  0  0  0  0  0  0  0  0  0  0
  147.2208  138.4213  154.1453 O   0  0  0  0  0  0  0  0  0  0  0  0
  147.9978  139.3558  154.8774 C   0  0  0  0  0  0  0  0  0  0  0  0
  147.2855  140.6720  154.8562 C   0  0  0  0  0  0  0  0  0  0  0  0
  147.6483  141.7881  154.1455 C   0  0  0  0  0  0  0  0  0  0  0  0
  146.7553  142.8857  154.3222 C   0  0  0  0  0  0  0  0  0  0  0  0
  145.7148  142.5937  155.1629 C   0  0  0  0  0  0  0  0  0  0  0  0
  145.8109  140.9578  155.7542 S   0  0  0  0  0  0  0  0  0  0  0  0
  146.2821  136.3216  152.4893 C   0  0  0  0  0  0  0  0  0  0  0  0
  145.3215  135.4508  151.7959 N   0  0  0  0  0  0  0  0  0  0  0  0
  144.1363  135.7655  151.2060 C   0  0  0  0  0  0  0  0  0  0  0  0
  143.6088  134.6159  150.7016 N   0  3  0  0  0  0  0  0  0  0  0  0
  144.4698  133.5501  150.9710 C   0  0  0  0  0  0  0  0  0  0  0  0
  144.3687  132.1974  150.6605 C   0  0  0  0  0  0  0  0  0  0  0  0
  145.4309  131.3704  151.0810 C   0  0  0  0  0  0  0  0  0  0  0  0
  146.5376  131.8948  151.7796 C   0  0  0  0  0  0  0  0  0  0  0  0
  146.6289  133.2676  152.0900 C   0  0  0  0  0  0  0  0  0  0  0  0
  145.5740  134.0790  151.6729 C   0  0  0  0  0  0  0  0  0  0  0  0
  145.4392  137.9849  150.2953 H   0  0  0  0  0  0  0  0  0  0  0  0
  145.1626  138.1617  152.3620 H   0  0  0  0  0  0  0  0  0  0  0  0
  148.2104  138.4135  152.3595 H   0  0  0  0  0  0  0  0  0  0  0  0
  147.0645  139.7338  152.5369 H   0  0  0  0  0  0  0  0  0  0  0  0
  148.1298  139.0160  155.9056 H   0  0  0  0  0  0  0  0  0  0  0  0
  148.9868  139.4618  154.4295 H   0  0  0  0  0  0  0  0  0  0  0  0
  148.5186  141.8540  153.5095 H   0  0  0  0  0  0  0  0  0  0  0  0
  146.9045  143.8365  153.8322 H   0  0  0  0  0  0  0  0  0  0  0  0
  144.9005  143.2346  155.4677 H   0  0  0  0  0  0  0  0  0  0  0  0
  147.2936  135.9499  152.3239 H   0  0  0  0  0  0  0  0  0  0  0  0
  146.0906  136.2152  153.5578 H   0  0  0  0  0  0  0  0  0  0  0  0
  143.6936  136.7495  151.1491 H   0  0  0  0  0  0  0  0  0  0  0  0
  143.5231  131.7934  150.1233 H   0  0  0  0  0  0  0  0  0  0  0  0
  145.3968  130.3130  150.8618 H   0  0  0  0  0  0  0  0  0  0  0  0
  147.3345  131.2311  152.0825 H   0  0  0  0  0  0  0  0  0  0  0  0
  147.4847  133.6589  152.6198 H   0  0  0  0  0  0  0  0  0  0  0  0
  142.7261  134.5656  150.2092 H   0  0  0  0  0  0  0  0  0  0  0  0
  1  2  1  0  0  0  0
  1 21  1  0  0  0  0
  2  3  1  0  0  0  0
  2 11  1  0  0  0  0
  2 22  1  0  0  0  0
  3  4  1  0  0  0  0
  3 23  1  0  0  0  0
  3 24  1  0  0  0  0
  4  5  1  0  0  0  0
  5  6  1  0  0  0  0
  5 25  1  0  0  0  0
  5 26  1  0  0  0  0
  6 10  1  0  0  0  0
  6  7  2  0  0  0  0
  7  8  1  0  0  0  0
  7 27  1  0  0  0  0
  8  9  2  0  0  0  0
  8 28  1  0  0  0  0
  9 10  1  0  0  0  0
  9 29  1  0  0  0  0
 11 12  1  0  0  0  0
 11 30  1  0  0  0  0
 11 31  1  0  0  0  0
 12 20  1  0  0  0  0
 12 13  1  0  0  0  0
 13 14  2  0  0  0  0
 13 32  1  0  0  0  0
 14 15  1  0  0  0  0
 14 37  1  0  0  0  0
 15 20  2  0  0  0  0
 15 16  1  0  0  0  0
 16 17  2  0  0  0  0
 16 33  1  0  0  0  0
 17 18  1  0  0  0  0
 17 34  1  0  0  0  0
 18 19  2  0  0  0  0
 18 35  1  0  0  0  0
 19 20  1  0  0  0  0
 19 36  1  0  0  0  0
M  CHG  1  14   1
M  END
> <s_m_source_file>
AV-unprocessed.smi

> <i_m_source_file_index>
2532

> <i_lp_mmshare_version>
43012

> <i_f3d_flags>
0

> <s_epik_input>
W2NIXTFbY0hdW2NIXVtjSF1jKGMxMiluKFtjSF1uMilbQ0gyXVtDQEhdKFtPSF0pW0NIMl1PW0NIMl1jM1tjSF1bY0hdW2NIXXMz

> <s_epik_cmdline>
J2VwaWtfcHl0aG9uJywgJy1waCcsICc3LjAnLCAnLXRuJywgJzgnLCAnLW1hJywgJzIwMCcsICctbWV0YWxfYmluZGluZycsICctaW1hZScsICc8aW5maWxlLm1hZT4nLCAnLW9tYWUnLCAnPG91dGZpbGUubWFlPic=

> <r_epik_Ionization_Penalty>
1.31758

> <r_epik_Ionization_Penalty_Charging>
1.31758

> <r_epik_Ionization_Penalty_Neutral>
1.26231e-06

> <r_epik_State_Penalty>
1.39289

> <r_epik_Charging_Adjusted_Penalty>
2.71047

> <i_epik_Tot_Q>
1

> <i_epik_Tot_abs_Q>
1

> <r_epik_Metal_State_Penalty>
5.42637

> <b_epik_Metal_Only>
0

> <s_lp_Force_Field>
OPLS_2005

> <r_lp_Energy>
15.3098

> <b_lp_Chiralities_Consistent>
1

> <s_lp_Variant>
AV-unprocessed.smi:2532-3

> <Gold.Version>
5.8.1

> <Gold.Id.Protein>
6NUR|6NUR_protein|mol2

> <Gold.PLP.Fitness>
51.5661

> <Gold.PLP.PLP>
-37.5721

> <Gold.PLP.part.hbond>
-3.7008

> <Gold.PLP.part.metal>
0.0000

> <Gold.PLP.part.buried>
-1.5500

> <Gold.PLP.part.nonpolar>
-32.3344

> <Gold.PLP.part.repulsive>
0.1614

> <Gold.PLP.ligand.clash>
0.0000

> <Gold.PLP.ligand.torsion>
0.5486

> <Gold.PLP.Chemscore.Hbond>
4.0000

> <Gold.PLP.Chemscore.CHOScore>
1.0000

> <Gold.PLP.Chemscore.Metal>
0.0000

> <Gold.Chemscore.Hbonds>
donor molecule, donor type, donor heavy atom, donor atom, acceptor molecule, acceptor atom, score
      L1  H     1    21       P1 10171  1.00
      L1  H    14    37       P1 10186  2.00
      P1  H  7954  7966       L1     1  0.99
      L1  C    13    32       P1 10171  1.00

> <Gold.PLP.Chemscore.Internal.Correction>
0.0912

> <Gold.Rescore>
     Score         DG    S(hbond)    S(metal)    S(lipo)     H(rot)  DE(clash)    DE(int)     intcor
     16.93     -18.83       2.75        0.00      89.38       2.46       1.35       0.55       ----

> <Gold.Chemscore.Fitness>
16.9308

> <Gold.Chemscore.DG>
-18.8323

> <Gold.Chemscore.ZeroCoef>
-5.4800

> <Gold.Chemscore.Hbond>
2.7527

> <Gold.Chemscore.Metal>
0.0000

> <Gold.Chemscore.Lipo>
89.3828

> <Gold.Chemscore.Internal_Hbond>
0.0000

> <Gold.Chemscore.DEClash>
1.3544

> <Gold.Chemscore.DEInternal>
0.5471

> <Gold.Chemscore.Rot>
2.4608

> <Gold.Chemscore.Internal.Correction>
   9.000000E+99

> <Gold.Chemscore.Hbonds>
donor molecule, donor type, donor heavy atom, donor atom, acceptor molecule, acceptor atom, score
      L1  H     1    21       P1 10171  1.00
      L1  H    14    37       P1 10186  0.60
      P1  H  7954  7966       L1     1  0.85

> <Gold.Chemscore.Hbond.Weighted>
-9.1941

> <Gold.Chemscore.Metal.Weighted>
-0.0000

> <Gold.Chemscore.Lipo.Weighted>
-10.4578

> <Gold.Chemscore.Internal_Hbond.Weighted>
0.0000

> <Gold.Chemscore.DEClash.Weighted>
1.3544

> <Gold.Chemscore.DEInternal.Weighted>
0.5471

> <Gold.Chemscore.Rot.Weighted>
6.2996

> <Gold.Chemscore.Internal.Correction.Weighted>
   9.000000E+99

> <Gold.Protein.RotatedTorsions>
[ 6907 6896 6895 6894 ] final   27.42 input  -60.11 | X-H torsion
[ 7974 7965 7964 7962 ] final  137.03 input  175.53 | X-H torsion
[ 8008 7997 7996 7995 ] final  -50.70 input   59.86 | X-H torsion
[ 10167 10162 10161 10158 ] final   89.43 input  -65.29 | X-H torsion
[ 10718 10713 10712 10709 ] final -130.09 input   66.30 | X-H torsion
[ 10763 10752 10751 10750 ] final   62.64 input  -60.55 | X-H torsion
[ 11005 11000 10999 10996 ] final  102.52 input  -57.11 | X-H torsion

> <Gold.Protein.ActiveResidues>
 VAL166  LYS551  ARG553  GLY616  TRP617  ASP618  TYR619  PRO620  LYS621  CYS622 
 ASP623  PHE694  ASN695  SER759  ASP760  ASP761  ALA762  ILE779  LEU786  VAL792 
 PHE793  MET794  SER795  GLU796  ALA797  LYS798  CYS799  TRP800  GLU811  SER814 

> <Gold.Protein.RotatedAtoms>
  152.0019  134.9923  160.0565 H   0  0  0  0  0  0  0  0  0  0  0  0  # atno 6907 bound_to 6896
  152.1511  133.4517  159.4822 H   0  0  0  0  0  0  0  0  0  0  0  0  # atno 6908 bound_to 6896
  150.6875  134.2106  159.4401 H   0  0  0  0  0  0  0  0  0  0  0  0  # atno 6909 bound_to 6896
  144.9507  139.4822  143.5527 H   0  0  0  0  0  0  0  0  0  0  0  0  # atno 7974 bound_to 7965
  154.4067  140.1266  156.4709 H   0  0  0  0  0  0  0  0  0  0  0  0  # atno 8008 bound_to 7997
  155.7180  140.3493  155.4983 H   0  0  0  0  0  0  0  0  0  0  0  0  # atno 8009 bound_to 7997
  155.9240  140.1057  157.1174 H   0  0  0  0  0  0  0  0  0  0  0  0  # atno 8010 bound_to 7997
  139.8574  144.6562  150.9098 H   0  0  0  0  0  0  0  0  0  0  0  0  # atno 10167 bound_to 10162
  156.2110  130.6918  151.0649 H   0  0  0  0  0  0  0  0  0  0  0  0  # atno 10718 bound_to 10713
  152.9990  135.5458  154.6225 H   0  0  0  0  0  0  0  0  0  0  0  0  # atno 10763 bound_to 10752
  154.5521  135.2827  155.1001 H   0  0  0  0  0  0  0  0  0  0  0  0  # atno 10764 bound_to 10752
  154.2236  135.6446  153.5205 H   0  0  0  0  0  0  0  0  0  0  0  0  # atno 10765 bound_to 10752
  139.8778  134.9227  156.5071 H   0  0  0  0  0  0  0  0  0  0  0  0  # atno 11005 bound_to 11000
  146.3320  139.8590  142.8859 LP  0  0  0  0  0  0  0  0  0  0  0  0  # atno 17320 bound_to 7965
  145.2849  141.0150  143.3696 LP  0  0  0  0  0  0  0  0  0  0  0  0  # atno 17321 bound_to 7965
  140.7780  143.3774  151.1538 LP  0  0  0  0  0  0  0  0  0  0  0  0  # atno 17342 bound_to 10162
  139.7407  143.8929  152.3049 LP  0  0  0  0  0  0  0  0  0  0  0  0  # atno 17343 bound_to 10162
  157.7038  131.0765  150.6733 LP  0  0  0  0  0  0  0  0  0  0  0  0  # atno 17370 bound_to 10713
  156.6793  130.4562  149.5633 LP  0  0  0  0  0  0  0  0  0  0  0  0  # atno 17371 bound_to 10713
  140.8547  133.8105  155.9204 LP  0  0  0  0  0  0  0  0  0  0  0  0  # atno 17394 bound_to 11000
  140.9109  134.2261  157.4986 LP  0  0  0  0  0  0  0  0  0  0  0  0  # atno 17395 bound_to 11000

$$$$
