AV-unprocessed.smi:1768|AV-procd|sdf|7145|dock8
  -GOLD-   22720 8383D 1   1.00000     0.00000
 Structure written by MMmdl.
 33 34  0  0  0  0  0  0  0  0  1 V2000
  144.0876  143.6505  162.7823 C   0  0  0  0  0  0  0  0  0  0  0  0
  144.9792  144.0673  161.6627 C   0  0  0  0  0  0  0  0  0  0  0  0
  144.5273  144.6883  160.5664 N   0  0  0  0  0  0  0  0  0  0  0  0
  145.5449  144.9760  159.6675 N   0  0  0  0  0  0  0  0  0  0  0  0
  146.7385  144.5614  160.1140 C   0  0  0  0  0  0  0  0  0  0  0  0
  147.9521  144.7276  159.3958 N   0  0  0  0  0  0  0  0  0  0  0  0
  149.2125  144.6263  159.8527 C   0  0  0  0  0  0  0  0  0  0  0  0
  149.5286  144.3625  161.0131 O   0  0  0  0  0  0  0  0  0  0  0  0
  150.0991  144.8509  158.8717 N   0  0  0  0  0  0  0  0  0  0  0  0
  151.5537  144.7990  159.0022 C   0  0  2  0  0  0  0  0  0  0  0  0
  152.1838  145.0348  157.6209 C   0  0  0  0  0  0  0  0  0  0  0  0
  151.9620  143.4440  159.6117 C   0  0  1  0  0  0  0  0  0  0  0  0
  153.3017  142.8962  159.1158 C   0  0  0  0  0  0  0  0  0  0  0  0
  153.7869  142.0234  160.2640 C   0  0  0  0  0  0  0  0  0  0  0  0
  152.8719  142.3986  161.4324 C   0  0  0  0  0  0  0  0  0  0  0  0
  152.1961  143.5720  161.0060 O   0  0  0  0  0  0  0  0  0  0  0  0
  146.7142  143.7769  161.6843 S   0  0  0  0  0  0  0  0  0  0  0  0
  143.0578  143.9532  162.5887 H   0  0  0  0  0  0  0  0  0  0  0  0
  144.4178  144.1125  163.7128 H   0  0  0  0  0  0  0  0  0  0  0  0
  144.1176  142.5670  162.8983 H   0  0  0  0  0  0  0  0  0  0  0  0
  147.8482  144.9464  158.4163 H   0  0  0  0  0  0  0  0  0  0  0  0
  149.7398  145.0595  157.9519 H   0  0  0  0  0  0  0  0  0  0  0  0
  151.9021  145.5914  159.6670 H   0  0  0  0  0  0  0  0  0  0  0  0
  153.2722  145.0453  157.6773 H   0  0  0  0  0  0  0  0  0  0  0  0
  151.8714  145.9944  157.2074 H   0  0  0  0  0  0  0  0  0  0  0  0
  151.8941  144.2568  156.9139 H   0  0  0  0  0  0  0  0  0  0  0  0
  151.1771  142.7010  159.4546 H   0  0  0  0  0  0  0  0  0  0  0  0
  153.2082  142.3468  158.1786 H   0  0  0  0  0  0  0  0  0  0  0  0
  154.0085  143.7121  158.9576 H   0  0  0  0  0  0  0  0  0  0  0  0
  153.6996  140.9621  160.0293 H   0  0  0  0  0  0  0  0  0  0  0  0
  154.8328  142.2324  160.4912 H   0  0  0  0  0  0  0  0  0  0  0  0
  152.1399  141.6104  161.6154 H   0  0  0  0  0  0  0  0  0  0  0  0
  153.4215  142.5744  162.3572 H   0  0  0  0  0  0  0  0  0  0  0  0
  1  2  1  0  0  0  0
  1 18  1  0  0  0  0
  1 19  1  0  0  0  0
  1 20  1  0  0  0  0
  2 17  1  0  0  0  0
  2  3  2  0  0  0  0
  3  4  1  0  0  0  0
  4  5  2  0  0  0  0
  5  6  1  0  0  0  0
  5 17  1  0  0  0  0
  6  7  1  0  0  0  0
  6 21  1  0  0  0  0
  7  8  2  0  0  0  0
  7  9  1  0  0  0  0
  9 10  1  0  0  0  0
  9 22  1  0  0  0  0
 10 11  1  0  0  0  0
 10 12  1  0  0  0  0
 10 23  1  0  0  0  0
 11 24  1  0  0  0  0
 11 25  1  0  0  0  0
 11 26  1  0  0  0  0
 12 16  1  0  0  0  0
 12 13  1  0  0  0  0
 12 27  1  0  0  0  0
 13 14  1  0  0  0  0
 13 28  1  0  0  0  0
 13 29  1  0  0  0  0
 14 15  1  0  0  0  0
 14 30  1  0  0  0  0
 14 31  1  0  0  0  0
 15 16  1  0  0  0  0
 15 32  1  0  0  0  0
 15 33  1  0  0  0  0
M  END
> <s_m_source_file>
AV-unprocessed.smi

> <i_m_source_file_index>
1768

> <i_lp_mmshare_version>
43012

> <i_f3d_flags>
0

> <s_epik_input>
W0NIM11jMW5uYyhzMSlbTkhdQyg9TylbTkhdW0NASF0oW0NIM10pW0NAQEhdMltDSDJdW0NIMl1bQ0gyXU8y

> <s_epik_cmdline>
J2VwaWtfcHl0aG9uJywgJy1waCcsICc3LjAnLCAnLXRuJywgJzgnLCAnLW1hJywgJzIwMCcsICctbWV0YWxfYmluZGluZycsICctaW1hZScsICc8aW5maWxlLm1hZT4nLCAnLW9tYWUnLCAnPG91dGZpbGUubWFlPic=

> <r_lp_tautomer_probability>
1

> <r_epik_Ionization_Penalty>
0.000523083

> <r_epik_Ionization_Penalty_Charging>
0

> <r_epik_Ionization_Penalty_Neutral>
0.000523083

> <r_epik_State_Penalty>
-0

> <r_epik_Charging_Adjusted_Penalty>
0

> <i_epik_Tot_Q>
0

> <i_epik_Tot_abs_Q>
0

> <r_epik_Metal_State_Penalty>
0.223408

> <b_epik_Metal_Only>
0

> <s_lp_Force_Field>
OPLS_2005

> <r_lp_Energy>
16.8898

> <b_lp_Chiralities_Consistent>
1

> <s_lp_Variant>
AV-unprocessed.smi:1768-3

> <Gold.Version>
5.8.1

> <Gold.Id.Protein>
6NUR|6NUR_protein|mol2

> <Gold.PLP.Fitness>
44.6438

> <Gold.PLP.PLP>
-40.8359

> <Gold.PLP.part.hbond>
-3.0000

> <Gold.PLP.part.metal>
0.0000

> <Gold.PLP.part.buried>
-7.7549

> <Gold.PLP.part.nonpolar>
-31.6446

> <Gold.PLP.part.repulsive>
0.9364

> <Gold.PLP.ligand.clash>
0.0000

> <Gold.PLP.ligand.torsion>
1.0784

> <Gold.PLP.Chemscore.Hbond>
1.9812

> <Gold.PLP.Chemscore.CHOScore>
0.0000

> <Gold.PLP.Chemscore.Metal>
0.0000

> <Gold.Chemscore.Hbonds>
donor molecule, donor type, donor heavy atom, donor atom, acceptor molecule, acceptor atom, score
      L1  H     6    21       P1  8029  0.96
      L1  H     9    22       P1  8029  0.37
      P1  H  6933  6944       L1     8  0.18

> <Gold.PLP.Chemscore.Internal.Correction>
0.0210

> <Gold.Rescore>
     Score         DG    S(hbond)    S(metal)    S(lipo)     H(rot)  DE(clash)    DE(int)     intcor
     16.69     -20.24       2.53        0.00      82.28       1.29       0.15       3.40       ----

> <Gold.Chemscore.Fitness>
16.6947

> <Gold.Chemscore.DG>
-20.2379

> <Gold.Chemscore.ZeroCoef>
-5.4800

> <Gold.Chemscore.Hbond>
2.5264

> <Gold.Chemscore.Metal>
0.0000

> <Gold.Chemscore.Lipo>
82.2814

> <Gold.Chemscore.Internal_Hbond>
0.0000

> <Gold.Chemscore.DEClash>
0.1452

> <Gold.Chemscore.DEInternal>
3.3980

> <Gold.Chemscore.Rot>
1.2919

> <Gold.Chemscore.Internal.Correction>
   9.000000E+99

> <Gold.Chemscore.Hbonds>
donor molecule, donor type, donor heavy atom, donor atom, acceptor molecule, acceptor atom, score
      L1  H     6    21       P1  8029  0.86
      L1  H     9    22       P1  8029  0.05
      P1  H  6933  6944       L1     8  0.09

> <Gold.Chemscore.Hbond.Weighted>
-8.4382

> <Gold.Chemscore.Metal.Weighted>
-0.0000

> <Gold.Chemscore.Lipo.Weighted>
-9.6269

> <Gold.Chemscore.Internal_Hbond.Weighted>
0.0000

> <Gold.Chemscore.DEClash.Weighted>
0.1452

> <Gold.Chemscore.DEInternal.Weighted>
3.3980

> <Gold.Chemscore.Rot.Weighted>
3.3072

> <Gold.Chemscore.Internal.Correction.Weighted>
   9.000000E+99

> <Gold.Protein.RotatedTorsions>
[ 6907 6896 6895 6894 ] final   76.60 input  -60.11 | X-H torsion
[ 7974 7965 7964 7962 ] final  -31.09 input  175.53 | X-H torsion
[ 8008 7997 7996 7995 ] final   33.38 input   59.86 | X-H torsion
[ 10167 10162 10161 10158 ] final   64.97 input  -65.29 | X-H torsion
[ 10718 10713 10712 10709 ] final  -68.96 input   66.30 | X-H torsion
[ 10763 10752 10751 10750 ] final  -40.68 input  -60.55 | X-H torsion
[ 11005 11000 10999 10996 ] final   18.37 input  -57.11 | X-H torsion

> <Gold.Protein.ActiveResidues>
 VAL166  LYS551  ARG553  GLY616  TRP617  ASP618  TYR619  PRO620  LYS621  CYS622 
 ASP623  PHE694  ASN695  SER759  ASP760  ASP761  ALA762  ILE779  LEU786  VAL792 
 PHE793  MET794  SER795  GLU796  ALA797  LYS798  CYS799  TRP800  GLU811  SER814 

> <Gold.Protein.RotatedAtoms>
  152.5080  134.3944  159.9394 H   0  0  0  0  0  0  0  0  0  0  0  0  # atno 6907 bound_to 6896
  151.3906  133.3784  159.2728 H   0  0  0  0  0  0  0  0  0  0  0  0  # atno 6908 bound_to 6896
  150.9436  134.8863  159.7686 H   0  0  0  0  0  0  0  0  0  0  0  0  # atno 6909 bound_to 6896
  146.1094  140.5623  142.8785 H   0  0  0  0  0  0  0  0  0  0  0  0  # atno 7974 bound_to 7965
  155.1377  140.3263  155.4459 H   0  0  0  0  0  0  0  0  0  0  0  0  # atno 8008 bound_to 7997
  156.2614  140.1999  156.6443 H   0  0  0  0  0  0  0  0  0  0  0  0  # atno 8009 bound_to 7997
  154.6565  140.0552  157.0001 H   0  0  0  0  0  0  0  0  0  0  0  0  # atno 8010 bound_to 7997
  140.1164  144.4772  150.6947 H   0  0  0  0  0  0  0  0  0  0  0  0  # atno 10167 bound_to 10162
  156.0479  130.4304  150.2077 H   0  0  0  0  0  0  0  0  0  0  0  0  # atno 10718 bound_to 10713
  153.9500  135.6751  153.4744 H   0  0  0  0  0  0  0  0  0  0  0  0  # atno 10763 bound_to 10752
  153.0889  135.4884  154.8648 H   0  0  0  0  0  0  0  0  0  0  0  0  # atno 10764 bound_to 10752
  154.7331  135.3143  154.8817 H   0  0  0  0  0  0  0  0  0  0  0  0  # atno 10765 bound_to 10752
  140.4255  134.1474  155.7676 H   0  0  0  0  0  0  0  0  0  0  0  0  # atno 11005 bound_to 11000
  144.7498  140.5162  143.6810 LP  0  0  0  0  0  0  0  0  0  0  0  0  # atno 17320 bound_to 7965
  145.5695  139.1483  143.3296 LP  0  0  0  0  0  0  0  0  0  0  0  0  # atno 17321 bound_to 7965
  140.6897  143.2369  151.5165 LP  0  0  0  0  0  0  0  0  0  0  0  0  # atno 17342 bound_to 10162
  139.5592  144.2199  152.1663 LP  0  0  0  0  0  0  0  0  0  0  0  0  # atno 17343 bound_to 10162
  157.0164  130.9966  151.3352 LP  0  0  0  0  0  0  0  0  0  0  0  0  # atno 17370 bound_to 10713
  157.5375  130.8098  149.7989 LP  0  0  0  0  0  0  0  0  0  0  0  0  # atno 17371 bound_to 10713
  141.1767  133.8500  157.1398 LP  0  0  0  0  0  0  0  0  0  0  0  0  # atno 17394 bound_to 11000
  140.0170  134.9963  157.0514 LP  0  0  0  0  0  0  0  0  0  0  0  0  # atno 17395 bound_to 11000

$$$$
