AV-unprocessed.smi:640|AV-procd|sdf|3150|dock1
  -GOLD-   22720 0 73D 1   1.00000     0.00000
 Structure written by MMmdl.
 38 40  0  0  0  0  0  0  0  0  3 V2000
  149.9797  141.6580  158.5202 O   0  0  0  0  0  0  0  0  0  0  0  0
  150.9224  142.1821  157.9257 C   0  0  0  0  0  0  0  0  0  0  0  0
  151.0248  142.0948  156.3969 C   0  0  0  0  0  0  0  0  0  0  0  0
  151.1471  140.7105  155.9102 N   0  0  0  0  0  0  0  0  0  0  0  0
  152.0785  139.8791  156.5635 C   0  0  0  0  0  0  0  0  0  0  0  0
  152.2652  138.5936  156.2052 C   0  0  0  0  0  0  0  0  0  0  0  0
  153.2204  137.7516  156.8914 N   0  3  0  0  0  0  0  0  0  0  0  0
  154.0066  138.2722  157.6762 O   0  0  0  0  0  0  0  0  0  0  0  0
  153.2170  136.5443  156.6700 O   0  5  0  0  0  0  0  0  0  0  0  0
  151.4706  138.0777  155.1070 C   0  0  0  0  0  0  0  0  0  0  0  0
  150.5754  138.8667  154.4811 C   0  0  0  0  0  0  0  0  0  0  0  0
  150.3694  140.2636  154.8771 C   0  0  0  0  0  0  0  0  0  0  0  0
  149.5478  140.9875  154.3142 O   0  0  0  0  0  0  0  0  0  0  0  0
  151.9189  142.8311  158.5475 N   0  0  0  0  0  0  0  0  0  0  0  0
  152.0395  143.0247  159.9887 C   0  0  0  0  0  0  0  0  0  0  0  0
  151.7182  144.4525  160.3908 C   0  0  0  0  0  0  0  0  0  0  0  0
  150.6010  145.2239  159.7285 C   0  0  0  0  0  0  0  0  0  0  0  0
  152.0416  145.6105  159.4777 C   0  0  0  0  0  0  0  0  0  0  0  0
  153.4078  142.6218  160.5120 C   0  0  0  0  0  0  0  0  0  0  0  0
  153.7727  141.1715  160.7220 C   0  0  0  0  0  0  0  0  0  0  0  0
  153.5881  142.0848  161.9125 C   0  0  0  0  0  0  0  0  0  0  0  0
  150.1599  142.5798  155.9400 H   0  0  0  0  0  0  0  0  0  0  0  0
  151.8833  142.6897  156.0820 H   0  0  0  0  0  0  0  0  0  0  0  0
  152.6141  140.3553  157.3721 H   0  0  0  0  0  0  0  0  0  0  0  0
  151.5865  137.0551  154.7792 H   0  0  0  0  0  0  0  0  0  0  0  0
  149.9934  138.4615  153.6663 H   0  0  0  0  0  0  0  0  0  0  0  0
  152.6535  143.2235  157.9765 H   0  0  0  0  0  0  0  0  0  0  0  0
  151.3018  142.3890  160.4830 H   0  0  0  0  0  0  0  0  0  0  0  0
  151.8518  144.6425  161.4544 H   0  0  0  0  0  0  0  0  0  0  0  0
  150.0637  144.7469  158.9112 H   0  0  0  0  0  0  0  0  0  0  0  0
  150.0046  145.8823  160.3568 H   0  0  0  0  0  0  0  0  0  0  0  0
  152.4047  146.5267  159.9386 H   0  0  0  0  0  0  0  0  0  0  0  0
  152.4606  145.3826  158.4995 H   0  0  0  0  0  0  0  0  0  0  0  0
  154.2120  143.2601  160.1500 H   0  0  0  0  0  0  0  0  0  0  0  0
  153.0043  140.4221  160.5425 H   0  0  0  0  0  0  0  0  0  0  0  0
  154.7870  140.8687  160.4706 H   0  0  0  0  0  0  0  0  0  0  0  0
  154.4799  142.3897  162.4561 H   0  0  0  0  0  0  0  0  0  0  0  0
  152.6990  141.9344  162.5214 H   0  0  0  0  0  0  0  0  0  0  0  0
  1  2  2  0  0  0  0
  2  3  1  0  0  0  0
  2 14  1  0  0  0  0
  3  4  1  0  0  0  0
  3 22  1  0  0  0  0
  3 23  1  0  0  0  0
  4 12  1  0  0  0  0
  4  5  1  0  0  0  0
  5  6  2  0  0  0  0
  5 24  1  0  0  0  0
  6  7  1  0  0  0  0
  6 10  1  0  0  0  0
  7  8  2  0  0  0  0
  7  9  1  0  0  0  0
 10 11  2  0  0  0  0
 10 25  1  0  0  0  0
 11 12  1  0  0  0  0
 11 26  1  0  0  0  0
 12 13  2  0  0  0  0
 14 15  1  0  0  0  0
 14 27  1  0  0  0  0
 15 16  1  0  0  0  0
 15 19  1  0  0  0  0
 15 28  1  0  0  0  0
 16 18  1  0  0  0  0
 16 17  1  0  0  0  0
 16 29  1  0  0  0  0
 17 18  1  0  0  0  0
 17 30  1  0  0  0  0
 17 31  1  0  0  0  0
 18 32  1  0  0  0  0
 18 33  1  0  0  0  0
 19 21  1  0  0  0  0
 19 20  1  0  0  0  0
 19 34  1  0  0  0  0
 20 21  1  0  0  0  0
 20 35  1  0  0  0  0
 20 36  1  0  0  0  0
 21 37  1  0  0  0  0
 21 38  1  0  0  0  0
M  CHG  1   7   1
M  CHG  1   9  -1
M  END
> <s_m_source_file>
AV-unprocessed.smi

> <i_m_source_file_index>
640

> <i_lp_mmshare_version>
43012

> <i_f3d_flags>
0

> <s_epik_input>
W0NIMl0xW0NIMl1bQ0hdMVtDSF0oW0NIXTJbQ0gyXVtDSDJdMilbTkhdQyg9TylbQ0gyXW4zW2NIXWMoW04rXSg9TylbTy1dKVtjSF1bY0hdYzM9Tw==

> <s_epik_cmdline>
J2VwaWtfcHl0aG9uJywgJy1waCcsICc3LjAnLCAnLXRuJywgJzgnLCAnLW1hJywgJzIwMCcsICctbWV0YWxfYmluZGluZycsICctaW1hZScsICc8aW5maWxlLm1hZT4nLCAnLW9tYWUnLCAnPG91dGZpbGUubWFlPic=

> <r_lp_tautomer_probability>
1

> <r_epik_Ionization_Penalty>
2.04963e-08

> <r_epik_Ionization_Penalty_Charging>
8.36809e-11

> <r_epik_Ionization_Penalty_Neutral>
2.04126e-08

> <r_epik_State_Penalty>
-0

> <r_epik_Charging_Adjusted_Penalty>
8.36809e-11

> <i_epik_Tot_Q>
0

> <i_epik_Tot_abs_Q>
2

> <r_epik_Metal_State_Penalty>
-0

> <b_epik_Metal_Only>
0

> <s_lp_Force_Field>
OPLS_2005

> <r_lp_Energy>
35.0527

> <b_lp_Chiralities_Consistent>
1

> <s_lp_Variant>
AV-unprocessed.smi:640-1

> <Gold.Version>
5.8.1

> <Gold.Id.Protein>
6NUR|6NUR_protein|mol2

> <Gold.PLP.Fitness>
54.4915

> <Gold.PLP.PLP>
-49.0317

> <Gold.PLP.part.hbond>
-3.4599

> <Gold.PLP.part.metal>
0.0000

> <Gold.PLP.part.buried>
-3.3407

> <Gold.PLP.part.nonpolar>
-42.3184

> <Gold.PLP.part.repulsive>
0.2422

> <Gold.PLP.ligand.clash>
0.0000

> <Gold.PLP.ligand.torsion>
1.3974

> <Gold.PLP.Chemscore.Hbond>
1.9964

> <Gold.PLP.Chemscore.CHOScore>
0.0000

> <Gold.PLP.Chemscore.Metal>
0.0000

> <Gold.Chemscore.Hbonds>
donor molecule, donor type, donor heavy atom, donor atom, acceptor molecule, acceptor atom, score
      P1  H  7997  8010       L1     8  0.86
      P1  H 10752 10765       L1     9  1.00

> <Gold.PLP.Chemscore.Internal.Correction>
2.2654

> <Gold.Rescore>
     Score         DG    S(hbond)    S(metal)    S(lipo)     H(rot)  DE(clash)    DE(int)     intcor
     18.26     -19.59       1.77        0.00     112.59       1.94       0.05       1.28       ----

> <Gold.Chemscore.Fitness>
18.2647

> <Gold.Chemscore.DG>
-19.5949

> <Gold.Chemscore.ZeroCoef>
-5.4800

> <Gold.Chemscore.Hbond>
1.7673

> <Gold.Chemscore.Metal>
0.0000

> <Gold.Chemscore.Lipo>
112.5930

> <Gold.Chemscore.Internal_Hbond>
0.0000

> <Gold.Chemscore.DEClash>
0.0455

> <Gold.Chemscore.DEInternal>
1.2847

> <Gold.Chemscore.Rot>
1.9380

> <Gold.Chemscore.Internal.Correction>
   9.000000E+99

> <Gold.Chemscore.Hbonds>
donor molecule, donor type, donor heavy atom, donor atom, acceptor molecule, acceptor atom, score
      P1  H  7997  8010       L1     8  0.80
      P1  H  8011  8017       L1    13  0.04
      P1  H 10752 10765       L1     9  0.95

> <Gold.Chemscore.Hbond.Weighted>
-5.9028

> <Gold.Chemscore.Metal.Weighted>
-0.0000

> <Gold.Chemscore.Lipo.Weighted>
-13.1734

> <Gold.Chemscore.Internal_Hbond.Weighted>
0.0000

> <Gold.Chemscore.DEClash.Weighted>
0.0455

> <Gold.Chemscore.DEInternal.Weighted>
1.2847

> <Gold.Chemscore.Rot.Weighted>
4.9613

> <Gold.Chemscore.Internal.Correction.Weighted>
   9.000000E+99

> <Gold.Protein.RotatedTorsions>
[ 6907 6896 6895 6894 ] final  -80.97 input  -60.11 | X-H torsion
[ 7974 7965 7964 7962 ] final   17.67 input  175.53 | X-H torsion
[ 8008 7997 7996 7995 ] final   17.78 input   59.86 | X-H torsion
[ 10167 10162 10161 10158 ] final   84.25 input  -65.29 | X-H torsion
[ 10718 10713 10712 10709 ] final  -60.85 input   66.30 | X-H torsion
[ 10763 10752 10751 10750 ] final -117.76 input  -60.55 | X-H torsion
[ 11005 11000 10999 10996 ] final  105.83 input  -57.11 | X-H torsion

> <Gold.Protein.ActiveResidues>
 VAL166  LYS551  ARG553  GLY616  TRP617  ASP618  TYR619  PRO620  LYS621  CYS622 
 ASP623  PHE694  ASN695  SER759  ASP760  ASP761  ALA762  ILE779  LEU786  VAL792 
 PHE793  MET794  SER795  GLU796  ALA797  LYS798  CYS799  TRP800  GLU811  SER814 

> <Gold.Protein.RotatedAtoms>
  150.6920  134.3889  159.5067 H   0  0  0  0  0  0  0  0  0  0  0  0  # atno 6907 bound_to 6896
  152.1680  134.8855  160.0546 H   0  0  0  0  0  0  0  0  0  0  0  0  # atno 6908 bound_to 6896
  151.9892  133.3750  159.4174 H   0  0  0  0  0  0  0  0  0  0  0  0  # atno 6909 bound_to 6896
  146.2210  139.8568  142.8612 H   0  0  0  0  0  0  0  0  0  0  0  0  # atno 7974 bound_to 7965
  154.8964  140.2994  155.5342 H   0  0  0  0  0  0  0  0  0  0  0  0  # atno 8008 bound_to 7997
  156.3020  140.2415  156.3921 H   0  0  0  0  0  0  0  0  0  0  0  0  # atno 8009 bound_to 7997
  154.8566  140.0407  157.1627 H   0  0  0  0  0  0  0  0  0  0  0  0  # atno 8010 bound_to 7997
  139.9100  144.6278  150.8548 H   0  0  0  0  0  0  0  0  0  0  0  0  # atno 10167 bound_to 10162
  156.0962  130.4192  150.0912 H   0  0  0  0  0  0  0  0  0  0  0  0  # atno 10718 bound_to 10713
  154.8566  135.4298  154.2032 H   0  0  0  0  0  0  0  0  0  0  0  0  # atno 10763 bound_to 10752
  153.3074  135.6973  153.7153 H   0  0  0  0  0  0  0  0  0  0  0  0  # atno 10764 bound_to 10752
  153.6259  135.3493  155.3000 H   0  0  0  0  0  0  0  0  0  0  0  0  # atno 10765 bound_to 10752
  139.8806  134.9349  156.5574 H   0  0  0  0  0  0  0  0  0  0  0  0  # atno 11005 bound_to 11000
  145.2745  141.0119  143.3753 LP  0  0  0  0  0  0  0  0  0  0  0  0  # atno 17320 bound_to 7965
  144.9198  139.4426  143.6547 LP  0  0  0  0  0  0  0  0  0  0  0  0  # atno 17321 bound_to 7965
  140.7687  143.3373  151.2282 LP  0  0  0  0  0  0  0  0  0  0  0  0  # atno 17342 bound_to 10162
  139.6951  143.9626  152.2878 LP  0  0  0  0  0  0  0  0  0  0  0  0  # atno 17343 bound_to 10162
  156.8910  130.9588  151.3588 LP  0  0  0  0  0  0  0  0  0  0  0  0  # atno 17370 bound_to 10713
  157.6123  130.8592  149.8972 LP  0  0  0  0  0  0  0  0  0  0  0  0  # atno 17371 bound_to 10713
  140.8195  133.8365  155.8882 LP  0  0  0  0  0  0  0  0  0  0  0  0  # atno 17394 bound_to 11000
  140.9432  134.1874  157.4782 LP  0  0  0  0  0  0  0  0  0  0  0  0  # atno 17395 bound_to 11000

$$$$
