#       Name:                AV-unprocessed.smi:1570
#       Creating user name   scv26
#       Creation time:       Fri Mar 27 06:51:31 2020


#       File generated by GOLD software.
#

@<TRIPOS>MOLECULE
AV-unprocessed.smi:1570
    58    60     1
SMALL
NO_CHARGES


@<TRIPOS>ATOM
      1 ****        -2.5228   2.8489   1.8573 C.3            1 S1                 0.0000
      2 ****        -3.6748   2.1942   1.0849 C.3            1 S1                 0.0000
      3 ****        -3.1766   1.2197   0.1173 N.am           1 S1                 0.0000
      4 ****        -2.9341  -0.0921   0.3480 C.2            1 S1                 0.0000
      5 ****        -3.1020  -0.6804   1.4162 O.2            1 S1                 0.0000
      6 ****        -2.4499  -0.6381  -0.7928 N.am           1 S1                 0.0000
      7 ****        -2.0120  -2.0207  -0.9848 C.3            1 S1                 0.0000
      8 ****        -0.4758  -2.1499  -0.9545 C.3            1 S1                 0.0000
      9 ****        -0.1449  -3.4600  -1.3639 O.3            1 S1                 0.0000
     10 ****         0.1284  -1.9146   0.4477 C.3            1 S1                 0.0000
     11 ****         1.5716  -1.6765   0.4762 N.3            1 S1                 0.0000
     12 ****         1.9312  -0.3684  -0.0697 C.3            1 S1                 0.0000
     13 ****         3.4488  -0.1120  -0.0059 C.3            1 S1                 0.0000
     14 ****         3.8181   1.2904  -0.5000 C.3            1 S1                 0.0000
     15 ****         3.8883  -0.2424   1.3431 O.3            1 S1                 0.0000
     16 ****         3.6023  -1.5194   1.9064 C.3            1 S1                 0.0000
     17 ****         4.1313  -1.5406   3.3443 C.3            1 S1                 0.0000
     18 ****         2.0832  -1.7672   1.8393 C.3            1 S1                 0.0000
     19 ****        -2.3725   0.3562  -1.7787 C.ar           1 S1                 0.0000
     20 ****        -1.9330   0.3026  -3.1129 C.ar           1 S1                 0.0000
     21 ****        -1.9696   1.5064  -3.8549 C.ar           1 S1                 0.0000
     22 ****        -2.4327   2.7104  -3.2636 C.ar           1 S1                 0.0000
     23 ****        -2.8699   2.7362  -1.9185 C.ar           1 S1                 0.0000
     24 ****        -2.8257   1.5256  -1.2052 C.ar           1 S1                 0.0000
     25 ****        -2.9025   3.5725   2.5788 H              1 S1                 0.0000
     26 ****        -1.8447   3.3745   1.1843 H              1 S1                 0.0000
     27 ****        -1.9426   2.1067   2.4064 H              1 S1                 0.0000
     28 ****        -4.3578   1.7062   1.7818 H              1 S1                 0.0000
     29 ****        -4.2617   2.9562   0.5719 H              1 S1                 0.0000
     30 ****        -2.4623  -2.6732  -0.2349 H              1 S1                 0.0000
     31 ****        -2.3952  -2.3624  -1.9474 H              1 S1                 0.0000
     32 ****        -0.0566  -1.4638  -1.6882 H              1 S1                 0.0000
     33 ****         0.7959  -3.5501  -1.3371 H              1 S1                 0.0000
     34 ****        -0.3644  -1.0677   0.9245 H              1 S1                 0.0000
     35 ****        -0.1154  -2.7769   1.0705 H              1 S1                 0.0000
     36 ****         1.6110  -0.2841  -1.1068 H              1 S1                 0.0000
     37 ****         1.4088   0.4160   0.4809 H              1 S1                 0.0000
     38 ****         3.9699  -0.8486  -0.6198 H              1 S1                 0.0000
     39 ****         3.5168   1.4322  -1.5382 H              1 S1                 0.0000
     40 ****         4.8945   1.4531  -0.4411 H              1 S1                 0.0000
     41 ****         3.3308   2.0605   0.0986 H              1 S1                 0.0000
     42 ****         4.1237  -2.2854   1.3298 H              1 S1                 0.0000
     43 ****         3.9494  -2.5071   3.8146 H              1 S1                 0.0000
     44 ****         3.6498  -0.7753   3.9535 H              1 S1                 0.0000
     45 ****         5.2058  -1.3571   3.3666 H              1 S1                 0.0000
     46 ****         1.5691  -1.0435   2.4742 H              1 S1                 0.0000
     47 ****         1.8618  -2.7530   2.2503 H              1 S1                 0.0000
     48 ****        -1.5795  -0.6167  -3.5561 H              1 S1                 0.0000
     49 ****        -1.6400   1.5091  -4.8832 H              1 S1                 0.0000
     50 ****        -2.4512   3.6186  -3.8477 H              1 S1                 0.0000
     51 ****        -3.2204   3.6504  -1.4630 H              1 S1                 0.0000
     52 ****        -3.4473  -0.1830   2.2121 LP             1 S1                 0.0000
     53 ****        -2.8931  -1.6557   1.4881 LP             1 S1                 0.0000
     54 ****        -0.4733  -3.6164  -2.2954 LP             1 S1                 0.0000
     55 ****        -0.5661  -4.1240  -0.7460 LP             1 S1                 0.0000
     56 ****         1.9840  -2.3848  -0.0967 LP             1 S1                 0.0000
     57 ****         3.4335   0.4571   1.8944 LP             1 S1                 0.0000
     58 ****         4.8774  -0.0974   1.3704 LP             1 S1                 0.0000
@<TRIPOS>BOND
    1    1    2 1     
    2    1   25 1     
    3    1   26 1     
    4    1   27 1     
    5    2    3 1     
    6    2   28 1     
    7    2   29 1     
    8    3   24 1     
    9    3    4 am    
   10    4    5 2     
   11    4    6 am    
   12    6    7 1     
   13    6   19 1     
   14    7    8 1     
   15    7   30 1     
   16    7   31 1     
   17    8    9 1     
   18    8   10 1     
   19    8   32 1     
   20    9   33 1     
   21   10   11 1     
   22   10   34 1     
   23   10   35 1     
   24   11   18 1     
   25   11   12 1     
   26   12   13 1     
   27   12   36 1     
   28   12   37 1     
   29   13   14 1     
   30   13   15 1     
   31   13   38 1     
   32   14   39 1     
   33   14   40 1     
   34   14   41 1     
   35   15   16 1     
   36   16   17 1     
   37   16   18 1     
   38   16   42 1     
   39   17   43 1     
   40   17   44 1     
   41   17   45 1     
   42   18   46 1     
   43   18   47 1     
   44   19   24 ar    
   45   19   20 ar    
   46   20   21 ar    
   47   20   48 1     
   48   21   22 ar    
   49   21   49 1     
   50   22   23 ar    
   51   22   50 1     
   52   23   24 ar    
   53   23   51 1     
   54    5   52 1     
   55    5   53 1     
   56    9   54 1     
   57    9   55 1     
   58   11   56 1     
   59   15   57 1     
   60   15   58 1     
@<TRIPOS>SUBSTRUCTURE
      1 S1             1
@<TRIPOS>SET
LONE_PAIRS      STATIC     ATOMS    <user>   **** ""
7 52 53 54 55 56 57 58
DONOR_HYDROGENS      STATIC     ATOMS    <user>   **** ""
1 33
ATOM$BLUE        STATIC     ATOMS    COLORGROUP SYSTEM
7 52 53 54 55 56 57 58
ATOM$RED        STATIC     ATOMS    COLORGROUP SYSTEM
1 33
