AV-unprocessed.smi:3335|AV-procd|sdf|12848|dock2
  -GOLD-   2272019233D 1   1.00000     0.00000
 Structure written by MMmdl.
 46 47  0  0  0  0  0  0  0  0  1 V2000
  154.7232  140.8332  162.0202 C   0  0  0  0  0  0  0  0  0  0  0  0
  153.7440  141.7301  161.3195 C   0  0  0  0  0  0  0  0  0  0  0  0
  153.1957  142.9580  161.7865 C   0  0  0  0  0  0  0  0  0  0  0  0
  152.3561  143.5071  160.9245 N   0  0  0  0  0  0  0  0  0  0  0  0
  152.3351  142.6515  159.8778 N   0  0  0  0  0  0  0  0  0  0  0  0
  151.5103  142.9363  158.7099 C   0  0  1  0  0  0  0  0  0  0  0  0
  152.0984  144.1259  157.9264 C   0  0  0  0  0  0  0  0  0  0  0  0
  151.3003  141.6754  157.8274 C   0  0  1  0  0  0  0  0  0  0  0  0
  150.6552  140.4987  158.5840 C   0  0  0  0  0  0  0  0  0  0  0  0
  150.4103  142.0088  156.7145 N   0  0  0  0  0  0  0  0  0  0  0  0
  149.8984  140.8462  155.9649 C   0  0  2  0  0  0  0  0  0  0  0  0
  151.0746  139.9815  155.4876 C   0  0  0  0  0  0  0  0  0  0  0  0
  149.0184  141.2462  154.7590 C   0  0  0  0  0  0  0  0  0  0  0  0
  149.4638  141.0796  153.6222 O   0  0  0  0  0  0  0  0  0  0  0  0
  147.7908  141.7688  154.9718 N   0  0  0  0  0  0  0  0  0  0  0  0
  147.1453  141.9748  156.2683 C   0  0  0  0  0  0  0  0  0  0  0  0
  145.6949  142.3454  155.9584 C   0  0  0  0  0  0  0  0  0  0  0  0
  145.7542  142.9437  154.5606 C   0  0  0  0  0  0  0  0  0  0  0  0
  146.9094  142.2017  153.8884 C   0  0  0  0  0  0  0  0  0  0  0  0
  153.1658  141.5712  160.0920 C   0  0  0  0  0  0  0  0  0  0  0  0
  154.2282  140.1912  162.7488 H   0  0  0  0  0  0  0  0  0  0  0  0
  155.4811  141.4045  162.5566 H   0  0  0  0  0  0  0  0  0  0  0  0
  155.2483  140.1818  161.3213 H   0  0  0  0  0  0  0  0  0  0  0  0
  153.3830  143.4642  162.7221 H   0  0  0  0  0  0  0  0  0  0  0  0
  150.5363  143.2472  159.0915 H   0  0  0  0  0  0  0  0  0  0  0  0
  151.4168  144.4650  157.1467 H   0  0  0  0  0  0  0  0  0  0  0  0
  153.0438  143.8642  157.4505 H   0  0  0  0  0  0  0  0  0  0  0  0
  152.2809  144.9761  158.5847 H   0  0  0  0  0  0  0  0  0  0  0  0
  152.2747  141.3409  157.4685 H   0  0  0  0  0  0  0  0  0  0  0  0
  151.3015  140.1298  159.3805 H   0  0  0  0  0  0  0  0  0  0  0  0
  150.4639  139.6565  157.9184 H   0  0  0  0  0  0  0  0  0  0  0  0
  149.7054  140.7885  159.0348 H   0  0  0  0  0  0  0  0  0  0  0  0
  149.6562  142.5953  157.0426 H   0  0  0  0  0  0  0  0  0  0  0  0
  149.3225  140.2482  156.6685 H   0  0  0  0  0  0  0  0  0  0  0  0
  150.7242  139.0874  154.9702 H   0  0  0  0  0  0  0  0  0  0  0  0
  151.6841  139.6523  156.3296 H   0  0  0  0  0  0  0  0  0  0  0  0
  151.7239  140.5290  154.8030 H   0  0  0  0  0  0  0  0  0  0  0  0
  147.1929  141.0862  156.8992 H   0  0  0  0  0  0  0  0  0  0  0  0
  147.6441  142.7940  156.7886 H   0  0  0  0  0  0  0  0  0  0  0  0
  145.0826  141.4429  155.9423 H   0  0  0  0  0  0  0  0  0  0  0  0
  145.2659  143.0270  156.6933 H   0  0  0  0  0  0  0  0  0  0  0  0
  144.8144  142.8456  154.0168 H   0  0  0  0  0  0  0  0  0  0  0  0
  145.9922  144.0060  154.6285 H   0  0  0  0  0  0  0  0  0  0  0  0
  147.4249  142.8413  153.1701 H   0  0  0  0  0  0  0  0  0  0  0  0
  146.5420  141.3224  153.3571 H   0  0  0  0  0  0  0  0  0  0  0  0
  153.2781  140.7864  159.3583 H   0  0  0  0  0  0  0  0  0  0  0  0
  1  2  1  0  0  0  0
  1 21  1  0  0  0  0
  1 22  1  0  0  0  0
  1 23  1  0  0  0  0
  2 20  2  0  0  0  0
  2  3  1  0  0  0  0
  3  4  2  0  0  0  0
  3 24  1  0  0  0  0
  4  5  1  0  0  0  0
  5  6  1  0  0  0  0
  5 20  1  0  0  0  0
  6  7  1  0  0  0  0
  6  8  1  0  0  0  0
  6 25  1  0  0  0  0
  7 26  1  0  0  0  0
  7 27  1  0  0  0  0
  7 28  1  0  0  0  0
  8  9  1  0  0  0  0
  8 10  1  0  0  0  0
  8 29  1  0  0  0  0
  9 30  1  0  0  0  0
  9 31  1  0  0  0  0
  9 32  1  0  0  0  0
 10 11  1  0  0  0  0
 10 33  1  0  0  0  0
 11 12  1  0  0  0  0
 11 13  1  0  0  0  0
 11 34  1  0  0  0  0
 12 35  1  0  0  0  0
 12 36  1  0  0  0  0
 12 37  1  0  0  0  0
 13 14  2  0  0  0  0
 13 15  1  0  0  0  0
 15 19  1  0  0  0  0
 15 16  1  0  0  0  0
 16 17  1  0  0  0  0
 16 38  1  0  0  0  0
 16 39  1  0  0  0  0
 17 18  1  0  0  0  0
 17 40  1  0  0  0  0
 17 41  1  0  0  0  0
 18 19  1  0  0  0  0
 18 42  1  0  0  0  0
 18 43  1  0  0  0  0
 19 44  1  0  0  0  0
 19 45  1  0  0  0  0
 20 46  1  0  0  0  0
M  END
> <s_m_source_file>
AV-unprocessed.smi

> <i_m_source_file_index>
3335

> <i_lp_mmshare_version>
43012

> <i_f3d_flags>
0

> <s_epik_input>
W0NIM11jMVtjSF1ubihbY0hdMSlbQ0BIXShbQ0gzXSlbQ0BIXShbQ0gzXSlbTkhdW0NASF0oW0NIM10pQyg9TylOMltDSDJdW0NIMl1bQ0gyXVtDSDJdMg==

> <s_epik_cmdline>
J2VwaWtfcHl0aG9uJywgJy1waCcsICc3LjAnLCAnLXRuJywgJzgnLCAnLW1hJywgJzIwMCcsICctbWV0YWxfYmluZGluZycsICctaW1hZScsICc8aW5maWxlLm1hZT4nLCAnLW9tYWUnLCAnPG91dGZpbGUubWFlPic=

> <r_lp_tautomer_probability>
1

> <r_epik_Ionization_Penalty>
0.918803

> <r_epik_Ionization_Penalty_Charging>
0

> <r_epik_Ionization_Penalty_Neutral>
0.918803

> <r_epik_State_Penalty>
0.958258

> <r_epik_Charging_Adjusted_Penalty>
0.958258

> <i_epik_Tot_Q>
0

> <i_epik_Tot_abs_Q>
0

> <r_epik_Metal_State_Penalty>
0.956786

> <b_epik_Metal_Only>
0

> <s_lp_Force_Field>
OPLS_2005

> <r_lp_Energy>
37.1843

> <b_lp_Chiralities_Consistent>
1

> <s_lp_Variant>
AV-unprocessed.smi:3335-12

> <Gold.Version>
5.8.1

> <Gold.Id.Protein>
6NUR|6NUR_protein|mol2

> <Gold.PLP.Fitness>
48.6901

> <Gold.PLP.PLP>
-46.4262

> <Gold.PLP.part.hbond>
-2.1666

> <Gold.PLP.part.metal>
0.0000

> <Gold.PLP.part.buried>
-4.7214

> <Gold.PLP.part.nonpolar>
-41.3791

> <Gold.PLP.part.repulsive>
3.1780

> <Gold.PLP.ligand.clash>
0.0604

> <Gold.PLP.ligand.torsion>
0.7190

> <Gold.PLP.Chemscore.Hbond>
1.2218

> <Gold.PLP.Chemscore.CHOScore>
0.0000

> <Gold.PLP.Chemscore.Metal>
0.0000

> <Gold.Chemscore.Hbonds>
donor molecule, donor type, donor heavy atom, donor atom, acceptor molecule, acceptor atom, score
      P1  H  7989  7998       L1    14  0.19
      P1  H  8011  8017       L1    14  1.00

> <Gold.PLP.Chemscore.Internal.Correction>
0.0968

> <Gold.Rescore>
     Score         DG    S(hbond)    S(metal)    S(lipo)     H(rot)  DE(clash)    DE(int)     intcor
     15.77     -18.13       1.26        0.00     107.61       1.62       1.61       0.75       ----

> <Gold.Chemscore.Fitness>
15.7720

> <Gold.Chemscore.DG>
-18.1318

> <Gold.Chemscore.ZeroCoef>
-5.4800

> <Gold.Chemscore.Hbond>
1.2602

> <Gold.Chemscore.Metal>
0.0000

> <Gold.Chemscore.Lipo>
107.6143

> <Gold.Chemscore.Internal_Hbond>
0.0000

> <Gold.Chemscore.DEClash>
1.6144

> <Gold.Chemscore.DEInternal>
0.7454

> <Gold.Chemscore.Rot>
1.6204

> <Gold.Chemscore.Internal.Correction>
   9.000000E+99

> <Gold.Chemscore.Hbonds>
donor molecule, donor type, donor heavy atom, donor atom, acceptor molecule, acceptor atom, score
      P1  H  7989  7998       L1    14  0.18
      P1  H  8011  8017       L1    14  0.94

> <Gold.Chemscore.Hbond.Weighted>
-4.2091

> <Gold.Chemscore.Metal.Weighted>
-0.0000

> <Gold.Chemscore.Lipo.Weighted>
-12.5909

> <Gold.Chemscore.Internal_Hbond.Weighted>
0.0000

> <Gold.Chemscore.DEClash.Weighted>
1.6144

> <Gold.Chemscore.DEInternal.Weighted>
0.7454

> <Gold.Chemscore.Rot.Weighted>
4.1482

> <Gold.Chemscore.Internal.Correction.Weighted>
   9.000000E+99

> <Gold.Protein.RotatedTorsions>
[ 6907 6896 6895 6894 ] final  129.43 input  -60.11 | X-H torsion
[ 7974 7965 7964 7962 ] final   41.82 input  175.53 | X-H torsion
[ 8008 7997 7996 7995 ] final  -11.32 input   59.86 | X-H torsion
[ 10167 10162 10161 10158 ] final  161.22 input  -65.29 | X-H torsion
[ 10718 10713 10712 10709 ] final   55.50 input   66.30 | X-H torsion
[ 10763 10752 10751 10750 ] final -131.39 input  -60.55 | X-H torsion
[ 11005 11000 10999 10996 ] final -157.49 input  -57.11 | X-H torsion

> <Gold.Protein.ActiveResidues>
 VAL166  LYS551  ARG553  GLY616  TRP617  ASP618  TYR619  PRO620  LYS621  CYS622 
 ASP623  PHE694  ASN695  SER759  ASP760  ASP761  ALA762  ILE779  LEU786  VAL792 
 PHE793  MET794  SER795  GLU796  ALA797  LYS798  CYS799  TRP800  GLU811  SER814 

> <Gold.Protein.RotatedAtoms>
  152.3625  133.6315  159.6025 H   0  0  0  0  0  0  0  0  0  0  0  0  # atno 6907 bound_to 6896
  150.7611  133.9401  159.3462 H   0  0  0  0  0  0  0  0  0  0  0  0  # atno 6908 bound_to 6896
  151.7237  135.0890  160.0339 H   0  0  0  0  0  0  0  0  0  0  0  0  # atno 6909 bound_to 6896
  146.0792  139.5372  142.9548 H   0  0  0  0  0  0  0  0  0  0  0  0  # atno 7974 bound_to 7965
  154.5475  140.2305  155.8539 H   0  0  0  0  0  0  0  0  0  0  0  0  # atno 8008 bound_to 7997
  156.1916  140.3075  155.9306 H   0  0  0  0  0  0  0  0  0  0  0  0  # atno 8009 bound_to 7997
  155.3135  140.0437  157.3026 H   0  0  0  0  0  0  0  0  0  0  0  0  # atno 8010 bound_to 7997
  139.4847  144.4557  151.8771 H   0  0  0  0  0  0  0  0  0  0  0  0  # atno 10167 bound_to 10162
  157.5350  130.8657  149.8741 H   0  0  0  0  0  0  0  0  0  0  0  0  # atno 10718 bound_to 10713
  154.8751  135.3831  154.4238 H   0  0  0  0  0  0  0  0  0  0  0  0  # atno 10763 bound_to 10752
  153.4939  135.7030  153.5874 H   0  0  0  0  0  0  0  0  0  0  0  0  # atno 10764 bound_to 10752
  153.4235  135.3895  155.2093 H   0  0  0  0  0  0  0  0  0  0  0  0  # atno 10765 bound_to 10752
  140.6640  134.4319  157.5234 H   0  0  0  0  0  0  0  0  0  0  0  0  # atno 11005 bound_to 11000
  145.6249  141.0315  143.1894 LP  0  0  0  0  0  0  0  0  0  0  0  0  # atno 17320 bound_to 7965
  144.7282  139.7809  143.7357 LP  0  0  0  0  0  0  0  0  0  0  0  0  # atno 17321 bound_to 7965
  140.4017  144.2485  150.5893 LP  0  0  0  0  0  0  0  0  0  0  0  0  # atno 17342 bound_to 10162
  140.5051  143.2306  151.8620 LP  0  0  0  0  0  0  0  0  0  0  0  0  # atno 17343 bound_to 10162
  156.0452  130.3729  150.1336 LP  0  0  0  0  0  0  0  0  0  0  0  0  # atno 17370 bound_to 10713
  156.9518  130.9777  151.3496 LP  0  0  0  0  0  0  0  0  0  0  0  0  # atno 17371 bound_to 10713
  139.9003  134.8571  156.1923 LP  0  0  0  0  0  0  0  0  0  0  0  0  # atno 17394 bound_to 11000
  141.0443  133.6921  156.1655 LP  0  0  0  0  0  0  0  0  0  0  0  0  # atno 17395 bound_to 11000

$$$$
