AV-unprocessed.smi:3001|AV-procd|sdf|11432|dock9
  -GOLD-   2272016363D 1   1.00000     0.00000
 Structure written by MMmdl.
 42 43  0  0  0  0  0  0  0  0  2 V2000
  144.7080  134.2328  162.5501 C   0  0  0  0  0  0  0  0  0  0  0  0
  145.8924  134.5190  162.4715 C   0  0  0  0  0  0  0  0  0  0  0  0
  147.3233  134.8519  162.3745 C   0  0  0  0  0  0  0  0  0  0  0  0
  147.7920  134.9190  160.9949 N   0  0  0  0  0  0  0  0  0  0  0  0
  147.9407  136.0429  160.2765 C   0  0  0  0  0  0  0  0  0  0  0  0
  147.6775  137.1650  160.7116 O   0  0  0  0  0  0  0  0  0  0  0  0
  148.4433  135.8602  158.8390 C   0  0  0  0  0  0  0  0  0  0  0  0
  148.5110  137.1175  158.0980 N   0  0  0  0  0  0  0  0  0  0  0  0
  149.3755  138.1115  158.3487 C   0  0  0  0  0  0  0  0  0  0  0  0
  150.2404  138.0586  159.2232 O   0  0  0  0  0  0  0  0  0  0  0  0
  149.1573  139.1649  157.5442 N   0  0  0  0  0  0  0  0  0  0  0  0
  149.8159  140.4260  157.5723 C   0  0  0  0  0  0  0  0  0  0  0  0
  150.9200  140.6509  158.4338 C   0  0  0  0  0  0  0  0  0  0  0  0
  151.6014  141.8817  158.3966 C   0  0  0  0  0  0  0  0  0  0  0  0
  151.1794  142.8647  157.4855 C   0  0  0  0  0  0  0  0  0  0  0  0
  150.1340  142.6159  156.6700 N   0  3  0  0  0  0  0  0  0  0  0  0
  149.4273  141.4576  156.6689 C   0  0  0  0  0  0  0  0  0  0  0  0
  148.3460  141.3462  155.7648 N   0  0  0  0  0  0  0  0  0  0  0  0
  148.5792  141.3903  154.3260 C   0  0  0  0  0  0  0  0  0  0  0  0
  147.1994  141.5955  153.7071 C   0  0  0  0  0  0  0  0  0  0  0  0
  146.5088  142.4877  154.7342 C   0  0  0  0  0  0  0  0  0  0  0  0
  147.0860  142.0158  156.0728 C   0  0  0  0  0  0  0  0  0  0  0  0
  143.6736  133.9801  162.6184 H   0  0  0  0  0  0  0  0  0  0  0  0
  147.5010  135.7894  162.9035 H   0  0  0  0  0  0  0  0  0  0  0  0
  147.8837  134.0779  162.8987 H   0  0  0  0  0  0  0  0  0  0  0  0
  148.0249  134.0417  160.5526 H   0  0  0  0  0  0  0  0  0  0  0  0
  149.4205  135.3737  158.8402 H   0  0  0  0  0  0  0  0  0  0  0  0
  147.7602  135.1900  158.3168 H   0  0  0  0  0  0  0  0  0  0  0  0
  147.8296  137.2477  157.3648 H   0  0  0  0  0  0  0  0  0  0  0  0
  148.3525  139.1037  156.9377 H   0  0  0  0  0  0  0  0  0  0  0  0
  151.2694  139.8860  159.1106 H   0  0  0  0  0  0  0  0  0  0  0  0
  152.4431  142.0625  159.0492 H   0  0  0  0  0  0  0  0  0  0  0  0
  151.6444  143.8343  157.3813 H   0  0  0  0  0  0  0  0  0  0  0  0
  149.2237  142.2322  154.0703 H   0  0  0  0  0  0  0  0  0  0  0  0
  149.0505  140.4740  153.9697 H   0  0  0  0  0  0  0  0  0  0  0  0
  147.2413  142.0396  152.7123 H   0  0  0  0  0  0  0  0  0  0  0  0
  146.6770  140.6407  153.6315 H   0  0  0  0  0  0  0  0  0  0  0  0
  146.7875  143.5279  154.5602 H   0  0  0  0  0  0  0  0  0  0  0  0
  145.4214  142.4206  154.6949 H   0  0  0  0  0  0  0  0  0  0  0  0
  146.4106  141.2952  156.5346 H   0  0  0  0  0  0  0  0  0  0  0  0
  147.2192  142.8496  156.7634 H   0  0  0  0  0  0  0  0  0  0  0  0
  149.8524  143.3494  156.0196 H   0  0  0  0  0  0  0  0  0  0  0  0
  1  2  3  0  0  0  0
  1 23  1  0  0  0  0
  2  3  1  0  0  0  0
  3  4  1  0  0  0  0
  3 24  1  0  0  0  0
  3 25  1  0  0  0  0
  4  5  1  0  0  0  0
  4 26  1  0  0  0  0
  5  6  2  0  0  0  0
  5  7  1  0  0  0  0
  7  8  1  0  0  0  0
  7 27  1  0  0  0  0
  7 28  1  0  0  0  0
  8  9  1  0  0  0  0
  8 29  1  0  0  0  0
  9 10  2  0  0  0  0
  9 11  1  0  0  0  0
 11 12  1  0  0  0  0
 11 30  1  0  0  0  0
 12 17  1  0  0  0  0
 12 13  2  0  0  0  0
 13 14  1  0  0  0  0
 13 31  1  0  0  0  0
 14 15  2  0  0  0  0
 14 32  1  0  0  0  0
 15 16  1  0  0  0  0
 15 33  1  0  0  0  0
 16 17  2  0  0  0  0
 16 42  1  0  0  0  0
 17 18  1  0  0  0  0
 18 22  1  0  0  0  0
 18 19  1  0  0  0  0
 19 20  1  0  0  0  0
 19 34  1  0  0  0  0
 19 35  1  0  0  0  0
 20 21  1  0  0  0  0
 20 36  1  0  0  0  0
 20 37  1  0  0  0  0
 21 22  1  0  0  0  0
 21 38  1  0  0  0  0
 21 39  1  0  0  0  0
 22 40  1  0  0  0  0
 22 41  1  0  0  0  0
M  CHG  1  16   1
M  END
> <s_m_source_file>
AV-unprocessed.smi

> <i_m_source_file_index>
3001

> <i_lp_mmshare_version>
43012

> <i_f3d_flags>
0

> <s_epik_input>
W0NIXSNDW0NIMl1bTkhdQyg9TylbQ0gyXVtOSF1DKD1PKVtOSF1jMVtjSF1bY0hdW2NIXW5jMU4yW0NIMl1bQ0gyXVtDSDJdW0NIMl0y

> <s_epik_cmdline>
J2VwaWtfcHl0aG9uJywgJy1waCcsICc3LjAnLCAnLXRuJywgJzgnLCAnLW1hJywgJzIwMCcsICctbWV0YWxfYmluZGluZycsICctaW1hZScsICc8aW5maWxlLm1hZT4nLCAnLW9tYWUnLCAnPG91dGZpbGUubWFlPic=

> <r_lp_tautomer_probability>
0.999994

> <r_epik_Ionization_Penalty>
0.644915

> <r_epik_Ionization_Penalty_Charging>
0.644896

> <r_epik_Ionization_Penalty_Neutral>
1.90142e-05

> <r_epik_State_Penalty>
0.662902

> <r_epik_Charging_Adjusted_Penalty>
1.3078

> <i_epik_Tot_Q>
1

> <i_epik_Tot_abs_Q>
1

> <r_epik_Metal_State_Penalty>
0.837036

> <b_epik_Metal_Only>
0

> <s_lp_Force_Field>
OPLS_2005

> <r_lp_Energy>
32.9475

> <b_lp_Chiralities_Consistent>
1

> <s_lp_Variant>
AV-unprocessed.smi:3001-2

> <Gold.Version>
5.8.1

> <Gold.Id.Protein>
6NUR|6NUR_protein|mol2

> <Gold.PLP.Fitness>
49.7138

> <Gold.PLP.PLP>
-39.0181

> <Gold.PLP.part.hbond>
-4.0000

> <Gold.PLP.part.metal>
0.0000

> <Gold.PLP.part.buried>
-6.7365

> <Gold.PLP.part.nonpolar>
-28.9916

> <Gold.PLP.part.repulsive>
0.4012

> <Gold.PLP.ligand.clash>
0.0000

> <Gold.PLP.ligand.torsion>
0.4435

> <Gold.PLP.Chemscore.Hbond>
3.7280

> <Gold.PLP.Chemscore.CHOScore>
0.0000

> <Gold.PLP.Chemscore.Metal>
0.0000

> <Gold.Chemscore.Hbonds>
donor molecule, donor type, donor heavy atom, donor atom, acceptor molecule, acceptor atom, score
      L1  H    16    42       P1  8028  2.00
      P1  H  6931  6943       L1     6  0.66
      P1  H  6934  6947       L1     6  0.93

> <Gold.PLP.Chemscore.Internal.Correction>
0.3988

> <Gold.Rescore>
     Score         DG    S(hbond)    S(metal)    S(lipo)     H(rot)  DE(clash)    DE(int)     intcor
     16.86     -18.87       2.71        0.00      77.70       1.85       0.11       1.91       ----

> <Gold.Chemscore.Fitness>
16.8552

> <Gold.Chemscore.DG>
-18.8675

> <Gold.Chemscore.ZeroCoef>
-5.4800

> <Gold.Chemscore.Hbond>
2.7081

> <Gold.Chemscore.Metal>
0.0000

> <Gold.Chemscore.Lipo>
77.6962

> <Gold.Chemscore.Internal_Hbond>
0.0000

> <Gold.Chemscore.DEClash>
0.1052

> <Gold.Chemscore.DEInternal>
1.9071

> <Gold.Chemscore.Rot>
1.8547

> <Gold.Chemscore.Internal.Correction>
   9.000000E+99

> <Gold.Chemscore.Hbonds>
donor molecule, donor type, donor heavy atom, donor atom, acceptor molecule, acceptor atom, score
      L1  H    16    42       P1  8028  0.94
      P1  H  6931  6943       L1     6  0.65
      P1  H  6934  6947       L1     6  0.90

> <Gold.Chemscore.Hbond.Weighted>
-9.0450

> <Gold.Chemscore.Metal.Weighted>
-0.0000

> <Gold.Chemscore.Lipo.Weighted>
-9.0905

> <Gold.Chemscore.Internal_Hbond.Weighted>
0.0000

> <Gold.Chemscore.DEClash.Weighted>
0.1052

> <Gold.Chemscore.DEInternal.Weighted>
1.9071

> <Gold.Chemscore.Rot.Weighted>
4.7479

> <Gold.Chemscore.Internal.Correction.Weighted>
   9.000000E+99

> <Gold.Protein.RotatedTorsions>
[ 6907 6896 6895 6894 ] final  -91.74 input  -60.11 | X-H torsion
[ 7974 7965 7964 7962 ] final -131.65 input  175.53 | X-H torsion
[ 8008 7997 7996 7995 ] final   90.18 input   59.86 | X-H torsion
[ 10167 10162 10161 10158 ] final  126.59 input  -65.29 | X-H torsion
[ 10718 10713 10712 10709 ] final -100.90 input   66.30 | X-H torsion
[ 10763 10752 10751 10750 ] final -101.72 input  -60.55 | X-H torsion
[ 11005 11000 10999 10996 ] final  -32.68 input  -57.11 | X-H torsion

> <Gold.Protein.ActiveResidues>
 VAL166  LYS551  ARG553  GLY616  TRP617  ASP618  TYR619  PRO620  LYS621  CYS622 
 ASP623  PHE694  ASN695  SER759  ASP760  ASP761  ALA762  ILE779  LEU786  VAL792 
 PHE793  MET794  SER795  GLU796  ALA797  LYS798  CYS799  TRP800  GLU811  SER814 

> <Gold.Protein.RotatedAtoms>
  150.6896  134.2230  159.4404 H   0  0  0  0  0  0  0  0  0  0  0  0  # atno 6907 bound_to 6896
  152.0185  134.9833  160.0579 H   0  0  0  0  0  0  0  0  0  0  0  0  # atno 6908 bound_to 6896
  152.1420  133.4434  159.4808 H   0  0  0  0  0  0  0  0  0  0  0  0  # atno 6909 bound_to 6896
  144.9359  140.7183  143.4877 H   0  0  0  0  0  0  0  0  0  0  0  0  # atno 7974 bound_to 7965
  156.0088  140.3352  155.6920 H   0  0  0  0  0  0  0  0  0  0  0  0  # atno 8008 bound_to 7997
  155.6186  140.0673  157.2702 H   0  0  0  0  0  0  0  0  0  0  0  0  # atno 8009 bound_to 7997
  154.4274  140.1780  156.1336 H   0  0  0  0  0  0  0  0  0  0  0  0  # atno 8010 bound_to 7997
  139.5623  144.6889  151.4009 H   0  0  0  0  0  0  0  0  0  0  0  0  # atno 10167 bound_to 10162
  156.0177  130.5349  150.6884 H   0  0  0  0  0  0  0  0  0  0  0  0  # atno 10718 bound_to 10713
  154.7679  135.4887  153.9590 H   0  0  0  0  0  0  0  0  0  0  0  0  # atno 10763 bound_to 10752
  153.1330  135.6757  153.9154 H   0  0  0  0  0  0  0  0  0  0  0  0  # atno 10764 bound_to 10752
  153.8852  135.3127  155.3425 H   0  0  0  0  0  0  0  0  0  0  0  0  # atno 10765 bound_to 10752
  140.9572  133.7185  156.1312 H   0  0  0  0  0  0  0  0  0  0  0  0  # atno 11005 bound_to 11000
  145.3067  139.1832  143.4660 LP  0  0  0  0  0  0  0  0  0  0  0  0  # atno 17320 bound_to 7965
  146.3266  140.3066  142.8624 LP  0  0  0  0  0  0  0  0  0  0  0  0  # atno 17321 bound_to 7965
  140.6904  143.7876  150.7246 LP  0  0  0  0  0  0  0  0  0  0  0  0  # atno 17342 bound_to 10162
  140.1356  143.4487  152.2226 LP  0  0  0  0  0  0  0  0  0  0  0  0  # atno 17343 bound_to 10162
  157.4571  131.0879  151.0785 LP  0  0  0  0  0  0  0  0  0  0  0  0  # atno 17370 bound_to 10713
  157.1283  130.6091  149.5523 LP  0  0  0  0  0  0  0  0  0  0  0  0  # atno 17371 bound_to 10713
  140.7519  134.4036  157.5540 LP  0  0  0  0  0  0  0  0  0  0  0  0  # atno 17394 bound_to 11000
  139.8866  134.8905  156.2575 LP  0  0  0  0  0  0  0  0  0  0  0  0  # atno 17395 bound_to 11000

$$$$
