AV-unprocessed.smi:438|AV-procd|sdf|2578|dock2
  -GOLD-   2262022563D 1   1.00000     0.00000
 Structure written by MMmdl.
 48 49  0  0  0  0  0  0  0  0  1 V2000
  146.9957  136.3005  155.6796 C   0  0  0  0  0  0  0  0  0  0  0  0
  147.1026  137.4783  154.7288 C   0  0  0  0  0  0  0  0  0  0  0  0
  147.9511  138.4605  155.1034 N   0  0  0  0  0  0  0  0  0  0  0  0
  148.0486  139.5074  154.2853 C   0  0  0  0  0  0  0  0  0  0  0  0
  149.1049  140.8259  154.8489 S   0  0  0  0  0  0  0  0  0  0  0  0
  150.6725  139.9372  155.1340 C   0  0  0  0  0  0  0  0  0  0  0  0
  151.5455  140.5282  156.2453 C   0  0  0  0  0  0  0  0  0  0  0  0
  152.5917  139.9637  156.5636 O   0  0  0  0  0  0  0  0  0  0  0  0
  151.1232  141.6709  156.8095 N   0  0  0  0  0  0  0  0  0  0  0  0
  151.8767  142.4641  157.7772 C   0  0  1  0  0  0  0  0  0  0  0  0
  151.3897  143.9283  157.7271 C   0  0  0  0  0  0  0  0  0  0  0  0
  152.1037  144.8019  158.7671 C   0  0  0  0  0  0  0  0  0  0  0  0
  151.9356  144.2209  160.1774 C   0  0  0  0  0  0  0  0  0  0  0  0
  152.4318  142.7682  160.2385 C   0  0  0  0  0  0  0  0  0  0  0  0
  151.7240  141.8731  159.2007 C   0  0  2  0  0  0  0  0  0  0  0  0
  152.2375  140.4251  159.2954 C   0  0  0  0  0  0  0  0  0  0  0  0
  147.4181  139.6901  153.1241 N   0  0  0  0  0  0  0  0  0  0  0  0
  146.5646  138.7182  152.7371 C   0  0  0  0  0  0  0  0  0  0  0  0
  145.9037  138.8830  151.5547 O   0  0  0  0  0  0  0  0  0  0  0  0
  146.3548  137.5596  153.5263 C   0  0  0  0  0  0  0  0  0  0  0  0
  145.3838  136.4682  153.0949 C   0  0  0  0  0  0  0  0  0  0  0  0
  143.9254  136.9427  153.1365 C   0  0  0  0  0  0  0  0  0  0  0  0
  143.6532  137.7476  152.0105 O   0  0  0  0  0  0  0  0  0  0  0  0
  147.1362  135.3607  155.1452 H   0  0  0  0  0  0  0  0  0  0  0  0
  146.0149  136.2877  156.1553 H   0  0  0  0  0  0  0  0  0  0  0  0
  147.7502  136.3536  156.4657 H   0  0  0  0  0  0  0  0  0  0  0  0
  150.4467  138.8992  155.3774 H   0  0  0  0  0  0  0  0  0  0  0  0
  151.2377  139.9254  154.2015 H   0  0  0  0  0  0  0  0  0  0  0  0
  150.2461  142.0576  156.4909 H   0  0  0  0  0  0  0  0  0  0  0  0
  152.9357  142.4389  157.5124 H   0  0  0  0  0  0  0  0  0  0  0  0
  151.5455  144.3461  156.7317 H   0  0  0  0  0  0  0  0  0  0  0  0
  150.3152  143.9637  157.9103 H   0  0  0  0  0  0  0  0  0  0  0  0
  153.1642  144.8720  158.5212 H   0  0  0  0  0  0  0  0  0  0  0  0
  151.7089  145.8176  158.7326 H   0  0  0  0  0  0  0  0  0  0  0  0
  152.4807  144.8309  160.8982 H   0  0  0  0  0  0  0  0  0  0  0  0
  150.8850  144.2620  160.4681 H   0  0  0  0  0  0  0  0  0  0  0  0
  153.5091  142.7469  160.0685 H   0  0  0  0  0  0  0  0  0  0  0  0
  152.2715  142.3733  161.2423 H   0  0  0  0  0  0  0  0  0  0  0  0
  150.6612  141.8593  159.4489 H   0  0  0  0  0  0  0  0  0  0  0  0
  153.2925  140.3618  159.0275 H   0  0  0  0  0  0  0  0  0  0  0  0
  151.6851  139.7575  158.6339 H   0  0  0  0  0  0  0  0  0  0  0  0
  152.1289  140.0371  160.3085 H   0  0  0  0  0  0  0  0  0  0  0  0
  145.1334  139.4232  151.6416 H   0  0  0  0  0  0  0  0  0  0  0  0
  145.6357  136.1202  152.0933 H   0  0  0  0  0  0  0  0  0  0  0  0
  145.5102  135.5991  153.7418 H   0  0  0  0  0  0  0  0  0  0  0  0
  143.2426  136.0924  153.1391 H   0  0  0  0  0  0  0  0  0  0  0  0
  143.7315  137.5204  154.0407 H   0  0  0  0  0  0  0  0  0  0  0  0
  143.9463  138.6274  152.1924 H   0  0  0  0  0  0  0  0  0  0  0  0
  1  2  1  0  0  0  0
  1 24  1  0  0  0  0
  1 25  1  0  0  0  0
  1 26  1  0  0  0  0
  2 20  1  0  0  0  0
  2  3  2  0  0  0  0
  3  4  1  0  0  0  0
  4  5  1  0  0  0  0
  4 17  2  0  0  0  0
  5  6  1  0  0  0  0
  6  7  1  0  0  0  0
  6 27  1  0  0  0  0
  6 28  1  0  0  0  0
  7  8  2  0  0  0  0
  7  9  1  0  0  0  0
  9 10  1  0  0  0  0
  9 29  1  0  0  0  0
 10 15  1  0  0  0  0
 10 11  1  0  0  0  0
 10 30  1  0  0  0  0
 11 12  1  0  0  0  0
 11 31  1  0  0  0  0
 11 32  1  0  0  0  0
 12 13  1  0  0  0  0
 12 33  1  0  0  0  0
 12 34  1  0  0  0  0
 13 14  1  0  0  0  0
 13 35  1  0  0  0  0
 13 36  1  0  0  0  0
 14 15  1  0  0  0  0
 14 37  1  0  0  0  0
 14 38  1  0  0  0  0
 15 16  1  0  0  0  0
 15 39  1  0  0  0  0
 16 40  1  0  0  0  0
 16 41  1  0  0  0  0
 16 42  1  0  0  0  0
 17 18  1  0  0  0  0
 18 19  1  0  0  0  0
 18 20  2  0  0  0  0
 19 43  1  0  0  0  0
 20 21  1  0  0  0  0
 21 22  1  0  0  0  0
 21 44  1  0  0  0  0
 21 45  1  0  0  0  0
 22 23  1  0  0  0  0
 22 46  1  0  0  0  0
 22 47  1  0  0  0  0
 23 48  1  0  0  0  0
M  END
> <s_m_source_file>
AV-unprocessed.smi

> <i_m_source_file_index>
438

> <i_lp_mmshare_version>
43012

> <i_f3d_flags>
0

> <s_epik_input>
W09IXVtDSDJdW0NIMl1jMWMoW09IXSluYyhuYzFbQ0gzXSlTW0NIMl1DKD1PKVtOSF1bQ0BASF0yW0NIMl1bQ0gyXVtDSDJdW0NIMl1bQ0BIXTJbQ0gzXQ==

> <s_epik_cmdline>
J2VwaWtfcHl0aG9uJywgJy1waCcsICc3LjAnLCAnLXRuJywgJzgnLCAnLW1hJywgJzIwMCcsICctbWV0YWxfYmluZGluZycsICctaW1hZScsICc8aW5maWxlLm1hZT4nLCAnLW9tYWUnLCAnPG91dGZpbGUubWFlPic=

> <r_lp_tautomer_probability>
0.0660145

> <r_epik_Ionization_Penalty>
2.91405

> <r_epik_Ionization_Penalty_Charging>
0

> <r_epik_Ionization_Penalty_Neutral>
2.91405

> <r_epik_State_Penalty>
2.44767

> <r_epik_Charging_Adjusted_Penalty>
2.44767

> <i_epik_Tot_Q>
0

> <i_epik_Tot_abs_Q>
0

> <r_epik_Metal_State_Penalty>
3.04288

> <b_epik_Metal_Only>
0

> <s_lp_Force_Field>
OPLS_2005

> <r_lp_Energy>
-0.453605

> <b_lp_Chiralities_Consistent>
1

> <s_lp_Variant>
AV-unprocessed.smi:438-16

> <Gold.Version>
5.8.1

> <Gold.Id.Protein>
6NUR|6NUR_protein|mol2

> <Gold.PLP.Fitness>
48.5991

> <Gold.PLP.PLP>
-40.9794

> <Gold.PLP.part.hbond>
-4.4492

> <Gold.PLP.part.metal>
0.0000

> <Gold.PLP.part.buried>
-5.6141

> <Gold.PLP.part.nonpolar>
-32.0631

> <Gold.PLP.part.repulsive>
1.4283

> <Gold.PLP.ligand.clash>
0.0000

> <Gold.PLP.ligand.torsion>
0.7031

> <Gold.PLP.Chemscore.Hbond>
3.0000

> <Gold.PLP.Chemscore.CHOScore>
0.0000

> <Gold.PLP.Chemscore.Metal>
0.0000

> <Gold.Chemscore.Hbonds>
donor molecule, donor type, donor heavy atom, donor atom, acceptor molecule, acceptor atom, score
      L1  H    19    43       P1 10175  1.00
      L1  H    23    48       P1 10175  1.00
      P1  H  7997  8010       L1     8  1.00

> <Gold.PLP.Chemscore.Internal.Correction>
0.0260

> <Gold.Rescore>
     Score         DG    S(hbond)    S(metal)    S(lipo)     H(rot)  DE(clash)    DE(int)     intcor
     16.84     -17.76       2.95        0.00      95.82       3.44       0.25       0.66       ----

> <Gold.Chemscore.Fitness>
16.8444

> <Gold.Chemscore.DG>
-17.7577

> <Gold.Chemscore.ZeroCoef>
-5.4800

> <Gold.Chemscore.Hbond>
2.9528

> <Gold.Chemscore.Metal>
0.0000

> <Gold.Chemscore.Lipo>
95.8244

> <Gold.Chemscore.Internal_Hbond>
0.0000

> <Gold.Chemscore.DEClash>
0.2534

> <Gold.Chemscore.DEInternal>
0.6599

> <Gold.Chemscore.Rot>
3.4359

> <Gold.Chemscore.Internal.Correction>
   9.000000E+99

> <Gold.Chemscore.Hbonds>
donor molecule, donor type, donor heavy atom, donor atom, acceptor molecule, acceptor atom, score
      L1  H    19    43       P1 10175  0.77
      L1  H    23    48       P1 10175  0.96
      P1  H  7997  8010       L1     8  0.96

> <Gold.Chemscore.Hbond.Weighted>
-9.8623

> <Gold.Chemscore.Metal.Weighted>
-0.0000

> <Gold.Chemscore.Lipo.Weighted>
-11.2114

> <Gold.Chemscore.Internal_Hbond.Weighted>
0.0000

> <Gold.Chemscore.DEClash.Weighted>
0.2534

> <Gold.Chemscore.DEInternal.Weighted>
0.6599

> <Gold.Chemscore.Rot.Weighted>
8.7960

> <Gold.Chemscore.Internal.Correction.Weighted>
   9.000000E+99

> <Gold.Protein.RotatedTorsions>
[ 6907 6896 6895 6894 ] final  -96.70 input  -60.11 | X-H torsion
[ 7974 7965 7964 7962 ] final  112.45 input  175.53 | X-H torsion
[ 8008 7997 7996 7995 ] final   86.45 input   59.86 | X-H torsion
[ 10167 10162 10161 10158 ] final   56.10 input  -65.29 | X-H torsion
[ 10718 10713 10712 10709 ] final  -33.17 input   66.30 | X-H torsion
[ 10763 10752 10751 10750 ] final -151.89 input  -60.55 | X-H torsion
[ 11005 11000 10999 10996 ] final  -67.47 input  -57.11 | X-H torsion

> <Gold.Protein.ActiveResidues>
 VAL166  LYS551  ARG553  GLY616  TRP617  ASP618  TYR619  PRO620  LYS621  CYS622 
 ASP623  PHE694  ASN695  SER759  ASP760  ASP761  ALA762  ILE779  LEU786  VAL792 
 PHE793  MET794  SER795  GLU796  ALA797  LYS798  CYS799  TRP800  GLU811  SER814 

> <Gold.Protein.RotatedAtoms>
  150.6996  134.1463  159.4123 H   0  0  0  0  0  0  0  0  0  0  0  0  # atno 6907 bound_to 6896
  151.9446  135.0195  160.0547 H   0  0  0  0  0  0  0  0  0  0  0  0  # atno 6908 bound_to 6896
  152.2064  133.4843  159.5123 H   0  0  0  0  0  0  0  0  0  0  0  0  # atno 6909 bound_to 6896
  145.2294  139.2826  143.4176 H   0  0  0  0  0  0  0  0  0  0  0  0  # atno 7974 bound_to 7965
  155.9630  140.3392  155.6507 H   0  0  0  0  0  0  0  0  0  0  0  0  # atno 8008 bound_to 7997
  155.6774  140.0734  157.2516 H   0  0  0  0  0  0  0  0  0  0  0  0  # atno 8009 bound_to 7997
  154.4147  140.1680  156.1932 H   0  0  0  0  0  0  0  0  0  0  0  0  # atno 8010 bound_to 7997
  140.2123  144.3876  150.6484 H   0  0  0  0  0  0  0  0  0  0  0  0  # atno 10167 bound_to 10162
  156.3659  130.4331  149.7585 H   0  0  0  0  0  0  0  0  0  0  0  0  # atno 10718 bound_to 10713
  154.8029  135.3249  154.7504 H   0  0  0  0  0  0  0  0  0  0  0  0  # atno 10763 bound_to 10752
  153.8169  135.6891  153.4837 H   0  0  0  0  0  0  0  0  0  0  0  0  # atno 10764 bound_to 10752
  153.1757  135.4606  154.9905 H   0  0  0  0  0  0  0  0  0  0  0  0  # atno 10765 bound_to 10752
  141.1509  133.6720  156.6298 H   0  0  0  0  0  0  0  0  0  0  0  0  # atno 11005 bound_to 11000
  146.3357  140.2624  142.8602 LP  0  0  0  0  0  0  0  0  0  0  0  0  # atno 17320 bound_to 7965
  144.9691  140.8351  143.5466 LP  0  0  0  0  0  0  0  0  0  0  0  0  # atno 17321 bound_to 7965
  140.6314  143.2188  151.6486 LP  0  0  0  0  0  0  0  0  0  0  0  0  # atno 17342 bound_to 10162
  139.5175  144.3313  152.0824 LP  0  0  0  0  0  0  0  0  0  0  0  0  # atno 17343 bound_to 10162
  156.4731  130.8006  151.3023 LP  0  0  0  0  0  0  0  0  0  0  0  0  # atno 17370 bound_to 10713
  157.7479  131.0029  150.3019 LP  0  0  0  0  0  0  0  0  0  0  0  0  # atno 17371 bound_to 10713
  140.3476  134.7796  157.4443 LP  0  0  0  0  0  0  0  0  0  0  0  0  # atno 17394 bound_to 11000
  140.0887  134.5631  155.8466 LP  0  0  0  0  0  0  0  0  0  0  0  0  # atno 17395 bound_to 11000

$$$$
