#       Name:                AV-unprocessed.smi:1824
#       Creating user name   scv26
#       Creation time:       Fri Mar 27 09:06:23 2020


#       File generated by GOLD software.
#

@<TRIPOS>MOLECULE
AV-unprocessed.smi:1824
    50    52     1
SMALL
NO_CHARGES


@<TRIPOS>ATOM
      1 ****        -3.1508   2.6483   1.8883 C.3            1 S1                 0.0000
      2 ****        -3.7380   1.9672   0.6404 C.3            1 S1                 0.0000
      3 ****        -3.2433   0.5203   0.4433 C.3            1 S1                 0.0000
      4 ****        -1.8606   0.4526  -0.0175 N.3            1 S1                 0.0000
      5 ****        -1.4344  -0.9357  -0.1922 C.3            1 S1                 0.0000
      6 ****         0.0732  -1.1318  -0.4593 C.3            1 S1                 0.0000
      7 ****         0.2929  -1.1930  -1.8563 O.3            1 S1                 0.0000
      8 ****         0.6067  -2.4292   0.1798 C.3            1 S1                 0.0000
      9 ****         2.0290  -2.6171  -0.0460 N.pl3          1 S1                 0.0000
     10 ****         2.6110  -3.4667  -0.9142 C.2            1 S1                 0.0000
     11 ****         3.9405  -3.4776  -0.9573 N.2            1 S1                 0.0000
     12 ****         4.2591  -2.5243  -0.0052 C.ar           1 S1                 0.0000
     13 ****         5.5159  -2.0538   0.4375 C.ar           1 S1                 0.0000
     14 ****         5.5963  -1.0605   1.4358 C.ar           1 S1                 0.0000
     15 ****         6.8088  -0.6207   1.8484 F              1 S1                 0.0000
     16 ****         4.4226  -0.5236   2.0056 C.ar           1 S1                 0.0000
     17 ****         4.5086   0.4302   2.9629 F              1 S1                 0.0000
     18 ****         3.1591  -0.9773   1.5809 C.ar           1 S1                 0.0000
     19 ****         3.0843  -1.9678   0.5847 C.ar           1 S1                 0.0000
     20 ****        -1.7285   1.2392  -1.2395 C.3            1 S1                 0.0000
     21 ****        -2.1659   2.7008  -1.0335 C.3            1 S1                 0.0000
     22 ****        -2.1168   3.5049  -2.3368 C.3            1 S1                 0.0000
     23 ****        -3.5047   2.7334  -0.5424 O.3            1 S1                 0.0000
     24 ****        -3.4326   2.1089   2.7928 H              1 S1                 0.0000
     25 ****        -3.5207   3.6693   1.9839 H              1 S1                 0.0000
     26 ****        -2.0620   2.6887   1.8599 H              1 S1                 0.0000
     27 ****        -4.8194   1.9354   0.7758 H              1 S1                 0.0000
     28 ****        -3.3539  -0.0321   1.3773 H              1 S1                 0.0000
     29 ****        -3.8901   0.0254  -0.2832 H              1 S1                 0.0000
     30 ****        -1.6727  -1.4671   0.7303 H              1 S1                 0.0000
     31 ****        -2.0283  -1.4246  -0.9662 H              1 S1                 0.0000
     32 ****         0.6327  -0.2870  -0.0546 H              1 S1                 0.0000
     33 ****        -0.1989  -1.9199  -2.2066 H              1 S1                 0.0000
     34 ****         0.4375  -2.4159   1.2572 H              1 S1                 0.0000
     35 ****         0.0712  -3.2966  -0.2095 H              1 S1                 0.0000
     36 ****         2.0254  -4.1123  -1.5525 H              1 S1                 0.0000
     37 ****         6.4210  -2.4576   0.0085 H              1 S1                 0.0000
     38 ****         2.2587  -0.5677   2.0142 H              1 S1                 0.0000
     39 ****        -0.6932   1.2328  -1.5798 H              1 S1                 0.0000
     40 ****        -2.3226   0.7867  -2.0352 H              1 S1                 0.0000
     41 ****        -1.5041   3.1798  -0.3111 H              1 S1                 0.0000
     42 ****        -1.1079   3.5217  -2.7494 H              1 S1                 0.0000
     43 ****        -2.4244   4.5373  -2.1689 H              1 S1                 0.0000
     44 ****        -2.7798   3.0781  -3.0898 H              1 S1                 0.0000
     45 ****        -1.2517   0.8440   0.6724 LP             1 S1                 0.0000
     46 ****         1.2671  -1.3260  -2.0388 LP             1 S1                 0.0000
     47 ****        -0.0131  -0.3421  -2.2832 LP             1 S1                 0.0000
     48 ****         4.5495  -4.0292  -1.5273 LP             1 S1                 0.0000
     49 ****        -3.7388   3.6854  -0.3454 LP             1 S1                 0.0000
     50 ****        -4.1063   2.3841  -1.2608 LP             1 S1                 0.0000
@<TRIPOS>BOND
    1    1    2 1     
    2    1   24 1     
    3    1   25 1     
    4    1   26 1     
    5    2   23 1     
    6    2    3 1     
    7    2   27 1     
    8    3    4 1     
    9    3   28 1     
   10    3   29 1     
   11    4    5 1     
   12    4   20 1     
   13    5    6 1     
   14    5   30 1     
   15    5   31 1     
   16    6    7 1     
   17    6    8 1     
   18    6   32 1     
   19    7   33 1     
   20    8    9 1     
   21    8   34 1     
   22    8   35 1     
   23    9   19 1     
   24    9   10 1     
   25   10   11 2     
   26   10   36 1     
   27   11   12 1     
   28   12   19 ar    
   29   12   13 ar    
   30   13   14 ar    
   31   13   37 1     
   32   14   15 1     
   33   14   16 ar    
   34   16   17 1     
   35   16   18 ar    
   36   18   19 ar    
   37   18   38 1     
   38   20   21 1     
   39   20   39 1     
   40   20   40 1     
   41   21   22 1     
   42   21   23 1     
   43   21   41 1     
   44   22   42 1     
   45   22   43 1     
   46   22   44 1     
   47    4   45 1     
   48    7   46 1     
   49    7   47 1     
   50   11   48 1     
   51   23   49 1     
   52   23   50 1     
@<TRIPOS>SUBSTRUCTURE
      1 S1             1
@<TRIPOS>SET
LONE_PAIRS      STATIC     ATOMS    <user>   **** ""
6 45 46 47 48 49 50
DONOR_HYDROGENS      STATIC     ATOMS    <user>   **** ""
1 33
ATOM$BLUE        STATIC     ATOMS    COLORGROUP SYSTEM
6 45 46 47 48 49 50
ATOM$RED        STATIC     ATOMS    COLORGROUP SYSTEM
1 33
