#       Name:                AV-unprocessed.smi:1491
#       Creating user name   scv26
#       Creation time:       Fri Mar 27 06:13:49 2020


#       File generated by GOLD software.
#

@<TRIPOS>MOLECULE
AV-unprocessed.smi:1491
    43    44     1
SMALL
NO_CHARGES


@<TRIPOS>ATOM
      1 ****         1.4139   0.7281  -0.1299 O.2            1 S1                 0.0000
      2 ****         1.0042  -0.3490  -0.5639 C.2            1 S1                 0.0000
      3 ****         1.7909  -1.4057  -0.8130 N.am           1 S1                 0.0000
      4 ****         3.2365  -1.4454  -0.6104 C.3            1 S1                 0.0000
      5 ****         3.6175  -1.9486   0.7952 C.3            1 S1                 0.0000
      6 ****         3.2789  -0.9919   1.8540 N.pl3          1 S1                 0.0000
      7 ****         3.9152   0.1887   2.1397 C.2            1 S1                 0.0000
      8 ****         3.2427   0.7498   3.1947 C.2            1 S1                 0.0000
      9 ****         2.2294  -0.1145   3.5124 N.pl3          1 S1                 1.0000
     10 ****         2.2555  -1.1752   2.6989 C.2            1 S1                 0.0000
     11 ****        -0.2831  -0.6122  -0.8266 N.am           1 S1                 0.0000
     12 ****        -1.3884   0.3186  -0.6204 C.3            1 S1                 0.0000
     13 ****        -2.6910  -0.4686  -0.3898 C.3            1 S1                 0.0000
     14 ****        -3.8942   0.4732  -0.2076 C.3            1 S1                 0.0000
     15 ****        -4.0430   1.4628  -1.3787 C.3            1 S1                 0.0000
     16 ****        -4.4562   0.7750  -2.5430 O.3            1 S1                 0.0000
     17 ****        -2.7298   2.2207  -1.6513 C.3            1 S1                 0.0000
     18 ****        -1.5319   1.2706  -1.8245 C.3            1 S1                 0.0000
     19 ****         1.3591  -2.2449  -1.1722 H              1 S1                 0.0000
     20 ****         3.6493  -2.1253  -1.3558 H              1 S1                 0.0000
     21 ****         3.6859  -0.4709  -0.8094 H              1 S1                 0.0000
     22 ****         3.1346  -2.9028   1.0122 H              1 S1                 0.0000
     23 ****         4.6932  -2.1194   0.8493 H              1 S1                 0.0000
     24 ****         4.7711   0.5368   1.5798 H              1 S1                 0.0000
     25 ****         3.4042   1.6754   3.7279 H              1 S1                 0.0000
     26 ****         1.5757  -2.0085   2.7143 H              1 S1                 0.0000
     27 ****        -0.5203  -1.5255  -1.1860 H              1 S1                 0.0000
     28 ****        -1.1902   0.9111   0.2752 H              1 S1                 0.0000
     29 ****        -2.8758  -1.1358  -1.2331 H              1 S1                 0.0000
     30 ****        -2.5912  -1.1062   0.4894 H              1 S1                 0.0000
     31 ****        -4.8094  -0.1071  -0.0840 H              1 S1                 0.0000
     32 ****        -3.7647   1.0356   0.7180 H              1 S1                 0.0000
     33 ****        -4.8271   2.1820  -1.1396 H              1 S1                 0.0000
     34 ****        -4.5798   1.4054  -3.2361 H              1 S1                 0.0000
     35 ****        -2.8345   2.8564  -2.5313 H              1 S1                 0.0000
     36 ****        -2.5282   2.8918  -0.8153 H              1 S1                 0.0000
     37 ****        -0.6211   1.8569  -1.9522 H              1 S1                 0.0000
     38 ****        -1.6547   0.6920  -2.7413 H              1 S1                 0.0000
     39 ****         1.5551   0.0275   4.2540 H              1 S1                 0.0000
     40 ****         2.3881   0.8534   0.0583 LP             1 S1                 0.0000
     41 ****         0.7725   1.4775   0.0344 LP             1 S1                 0.0000
     42 ****        -5.3161   0.2967  -2.3648 LP             1 S1                 0.0000
     43 ****        -3.7558   0.1131  -2.8101 LP             1 S1                 0.0000
@<TRIPOS>BOND
    1    1    2 2     
    2    2    3 am    
    3    2   11 am    
    4    3    4 1     
    5    3   19 1     
    6    4    5 1     
    7    4   20 1     
    8    4   21 1     
    9    5    6 1     
   10    5   22 1     
   11    5   23 1     
   12    6   10 1     
   13    6    7 1     
   14    7    8 2     
   15    7   24 1     
   16    8    9 1     
   17    8   25 1     
   18    9   10 2     
   19    9   39 1     
   20   10   26 1     
   21   11   12 1     
   22   11   27 1     
   23   12   18 1     
   24   12   13 1     
   25   12   28 1     
   26   13   14 1     
   27   13   29 1     
   28   13   30 1     
   29   14   15 1     
   30   14   31 1     
   31   14   32 1     
   32   15   16 1     
   33   15   17 1     
   34   15   33 1     
   35   16   34 1     
   36   17   18 1     
   37   17   35 1     
   38   17   36 1     
   39   18   37 1     
   40   18   38 1     
   41    1   40 1     
   42    1   41 1     
   43   16   42 1     
   44   16   43 1     
@<TRIPOS>SUBSTRUCTURE
      1 S1             1
@<TRIPOS>SET
LONE_PAIRS      STATIC     ATOMS    <user>   **** ""
4 40 41 42 43
DONOR_HYDROGENS      STATIC     ATOMS    <user>   **** ""
4 19 39 27 34
ATOM$BLUE        STATIC     ATOMS    COLORGROUP SYSTEM
4 40 41 42 43
ATOM$RED        STATIC     ATOMS    COLORGROUP SYSTEM
4 19 39 27 34
