AV-unprocessed.smi:1644|AV-procd|sdf|6596|dock8
  -GOLD-   22720 7293D 1   1.00000     0.00000
 Structure written by MMmdl.
 49 51  0  0  0  0  0  0  0  0  3 V2000
  146.6470  133.7255  162.4790 C   0  0  0  0  0  0  0  0  0  0  0  0
  146.6509  134.8839  161.4761 C   0  0  0  0  0  0  0  0  0  0  0  0
  147.0109  134.4226  160.0472 C   0  0  0  0  0  0  0  0  0  0  0  0
  147.2889  135.5443  159.0168 C   0  0  2  0  0  0  0  0  0  0  0  0
  147.9581  135.0376  157.8366 N   0  5  0  0  0  0  0  0  0  0  0  0
  149.1115  135.7269  157.6708 C   0  0  0  0  0  0  0  0  0  0  0  0
  149.9472  135.5598  156.7826 O   0  0  0  0  0  0  0  0  0  0  0  0
  149.2694  136.6506  158.6396 N   0  0  0  0  0  0  0  0  0  0  0  0
  150.4322  137.5321  158.7793 C   0  0  0  0  0  0  0  0  0  0  0  0
  150.3534  138.7258  157.8051 C   0  0  2  0  0  0  0  0  0  0  0  0
  150.2856  138.2407  156.4781 O   0  0  0  0  0  0  0  0  0  0  0  0
  151.5827  139.6478  157.9201 C   0  0  0  0  0  0  0  0  0  0  0  0
  151.2737  141.0381  157.5653 N   0  0  0  0  0  0  0  0  0  0  0  0
  150.7099  141.5576  156.4415 C   0  0  0  0  0  0  0  0  0  0  0  0
  150.6319  142.9074  156.6093 N   0  3  0  0  0  0  0  0  0  0  0  0
  151.1494  143.2525  157.8605 C   0  0  0  0  0  0  0  0  0  0  0  0
  151.2794  144.4869  158.4863 C   0  0  0  0  0  0  0  0  0  0  0  0
  151.8485  144.4974  159.7803 C   0  0  0  0  0  0  0  0  0  0  0  0
  151.9965  145.8288  160.4965 C   0  0  0  0  0  0  0  0  0  0  0  0
  152.2725  143.2940  160.4020 C   0  0  0  0  0  0  0  0  0  0  0  0
  152.8824  143.3151  161.7930 C   0  0  0  0  0  0  0  0  0  0  0  0
  152.1354  142.0496  159.7475 C   0  0  0  0  0  0  0  0  0  0  0  0
  151.5665  142.0574  158.4765 C   0  0  0  0  0  0  0  0  0  0  0  0
  148.2486  136.6123  159.5008 C   0  0  0  0  0  0  0  0  0  0  0  0
  148.0888  137.2921  160.5151 O   0  0  0  0  0  0  0  0  0  0  0  0
  146.3997  134.0796  163.4799 H   0  0  0  0  0  0  0  0  0  0  0  0
  147.6240  133.2441  162.5281 H   0  0  0  0  0  0  0  0  0  0  0  0
  145.9127  132.9688  162.2022 H   0  0  0  0  0  0  0  0  0  0  0  0
  145.6691  135.3575  161.4854 H   0  0  0  0  0  0  0  0  0  0  0  0
  147.3608  135.6398  161.8126 H   0  0  0  0  0  0  0  0  0  0  0  0
  147.8840  133.7707  160.0955 H   0  0  0  0  0  0  0  0  0  0  0  0
  146.2016  133.7971  159.6681 H   0  0  0  0  0  0  0  0  0  0  0  0
  146.3459  136.0295  158.7617 H   0  0  0  0  0  0  0  0  0  0  0  0
  150.4482  137.8938  159.8088 H   0  0  0  0  0  0  0  0  0  0  0  0
  151.3687  136.9839  158.6592 H   0  0  0  0  0  0  0  0  0  0  0  0
  149.4530  139.3093  157.9998 H   0  0  0  0  0  0  0  0  0  0  0  0
  149.8058  138.8644  155.9551 H   0  0  0  0  0  0  0  0  0  0  0  0
  151.9797  139.6437  158.9362 H   0  0  0  0  0  0  0  0  0  0  0  0
  152.3886  139.3038  157.2703 H   0  0  0  0  0  0  0  0  0  0  0  0
  150.3794  141.0001  155.5771 H   0  0  0  0  0  0  0  0  0  0  0  0
  150.9551  145.3992  158.0073 H   0  0  0  0  0  0  0  0  0  0  0  0
  151.4677  145.8124  161.4501 H   0  0  0  0  0  0  0  0  0  0  0  0
  151.5884  146.6486  159.9044 H   0  0  0  0  0  0  0  0  0  0  0  0
  153.0481  146.0447  160.6866 H   0  0  0  0  0  0  0  0  0  0  0  0
  153.1942  142.3181  162.1067 H   0  0  0  0  0  0  0  0  0  0  0  0
  152.1590  143.6825  162.5212 H   0  0  0  0  0  0  0  0  0  0  0  0
  153.7604  143.9609  161.8183 H   0  0  0  0  0  0  0  0  0  0  0  0
  152.4523  141.1318  160.2220 H   0  0  0  0  0  0  0  0  0  0  0  0
  150.2491  143.5428  155.9208 H   0  0  0  0  0  0  0  0  0  0  0  0
  1  2  1  0  0  0  0
  1 26  1  0  0  0  0
  1 27  1  0  0  0  0
  1 28  1  0  0  0  0
  2  3  1  0  0  0  0
  2 29  1  0  0  0  0
  2 30  1  0  0  0  0
  3  4  1  0  0  0  0
  3 31  1  0  0  0  0
  3 32  1  0  0  0  0
  4 24  1  0  0  0  0
  4  5  1  0  0  0  0
  4 33  1  0  0  0  0
  5  6  1  0  0  0  0
  6  7  2  0  0  0  0
  6  8  1  0  0  0  0
  8  9  1  0  0  0  0
  8 24  1  0  0  0  0
  9 10  1  0  0  0  0
  9 34  1  0  0  0  0
  9 35  1  0  0  0  0
 10 11  1  0  0  0  0
 10 12  1  0  0  0  0
 10 36  1  0  0  0  0
 11 37  1  0  0  0  0
 12 13  1  0  0  0  0
 12 38  1  0  0  0  0
 12 39  1  0  0  0  0
 13 23  1  0  0  0  0
 13 14  1  0  0  0  0
 14 15  2  0  0  0  0
 14 40  1  0  0  0  0
 15 16  1  0  0  0  0
 15 49  1  0  0  0  0
 16 23  2  0  0  0  0
 16 17  1  0  0  0  0
 17 18  2  0  0  0  0
 17 41  1  0  0  0  0
 18 19  1  0  0  0  0
 18 20  1  0  0  0  0
 19 42  1  0  0  0  0
 19 43  1  0  0  0  0
 19 44  1  0  0  0  0
 20 21  1  0  0  0  0
 20 22  2  0  0  0  0
 21 45  1  0  0  0  0
 21 46  1  0  0  0  0
 21 47  1  0  0  0  0
 22 23  1  0  0  0  0
 22 48  1  0  0  0  0
 24 25  2  0  0  0  0
M  CHG  1   5  -1
M  CHG  1  15   1
M  END
> <s_m_source_file>
AV-unprocessed.smi

> <i_m_source_file_index>
1644

> <i_lp_mmshare_version>
43012

> <i_f3d_flags>
0

> <s_epik_input>
W0NIM11bQ0gyXVtDSDJdW0NAQEhdMVtOSF1DKD1PKU4oQzE9TylbQ0gyXVtDQEhdKFtPSF0pW0NIMl1uKFtjSF1uMiljKGMyMylbY0hdYyhbQ0gzXSljKFtjSF0zKVtDSDNd

> <s_epik_cmdline>
J2VwaWtfcHl0aG9uJywgJy1waCcsICc3LjAnLCAnLXRuJywgJzgnLCAnLW1hJywgJzIwMCcsICctbWV0YWxfYmluZGluZycsICctaW1hZScsICc8aW5maWxlLm1hZT4nLCAnLW9tYWUnLCAnPG91dGZpbGUubWFlPic=

> <r_lp_tautomer_probability>
1

> <r_epik_Ionization_Penalty>
6.86868

> <r_epik_Ionization_Penalty_Charging>
6.86868

> <r_epik_Ionization_Penalty_Neutral>
5.84798e-07

> <r_epik_State_Penalty>
6.92818

> <r_epik_Charging_Adjusted_Penalty>
13.7969

> <i_epik_Tot_Q>
0

> <i_epik_Tot_abs_Q>
2

> <r_epik_Metal_State_Penalty>
2.98017

> <b_epik_Metal_Only>
1

> <s_lp_Force_Field>
OPLS_2005

> <r_lp_Energy>
22.7735

> <b_lp_Chiralities_Consistent>
1

> <s_lp_Variant>
AV-unprocessed.smi:1644-13

> <Gold.Version>
5.8.1

> <Gold.Id.Protein>
6NUR|6NUR_protein|mol2

> <Gold.PLP.Fitness>
57.1697

> <Gold.PLP.PLP>
-49.9881

> <Gold.PLP.part.hbond>
-3.0000

> <Gold.PLP.part.metal>
0.0000

> <Gold.PLP.part.buried>
-6.1785

> <Gold.PLP.part.nonpolar>
-41.6361

> <Gold.PLP.part.repulsive>
0.0701

> <Gold.PLP.ligand.clash>
0.0000

> <Gold.PLP.ligand.torsion>
0.7302

> <Gold.PLP.Chemscore.Hbond>
2.8530

> <Gold.PLP.Chemscore.CHOScore>
0.0000

> <Gold.PLP.Chemscore.Metal>
0.0000

> <Gold.Chemscore.Hbonds>
donor molecule, donor type, donor heavy atom, donor atom, acceptor molecule, acceptor atom, score
      L1  H    15    49       P1  8028  1.70
      P1  H  6931  6943       L1    25  0.72
      P1  H  6934  6947       L1    25  0.69

> <Gold.PLP.Chemscore.Internal.Correction>
0.0831

> <Gold.Rescore>
     Score         DG    S(hbond)    S(metal)    S(lipo)     H(rot)  DE(clash)    DE(int)     intcor
     17.87     -20.64       2.31        0.00     123.26       2.72       0.18       2.58       ----

> <Gold.Chemscore.Fitness>
17.8705

> <Gold.Chemscore.DG>
-20.6358

> <Gold.Chemscore.ZeroCoef>
-5.4800

> <Gold.Chemscore.Hbond>
2.3083

> <Gold.Chemscore.Metal>
0.0000

> <Gold.Chemscore.Lipo>
123.2552

> <Gold.Chemscore.Internal_Hbond>
0.0000

> <Gold.Chemscore.DEClash>
0.1837

> <Gold.Chemscore.DEInternal>
2.5817

> <Gold.Chemscore.Rot>
2.7245

> <Gold.Chemscore.Internal.Correction>
   9.000000E+99

> <Gold.Chemscore.Hbonds>
donor molecule, donor type, donor heavy atom, donor atom, acceptor molecule, acceptor atom, score
      L1  H    15    49       P1  8028  0.85
      P1  H  6931  6943       L1    25  0.72
      P1  H  6934  6947       L1    25  0.68

> <Gold.Chemscore.Hbond.Weighted>
-7.7097

> <Gold.Chemscore.Metal.Weighted>
-0.0000

> <Gold.Chemscore.Lipo.Weighted>
-14.4209

> <Gold.Chemscore.Internal_Hbond.Weighted>
0.0000

> <Gold.Chemscore.DEClash.Weighted>
0.1837

> <Gold.Chemscore.DEInternal.Weighted>
2.5817

> <Gold.Chemscore.Rot.Weighted>
6.9748

> <Gold.Chemscore.Internal.Correction.Weighted>
   9.000000E+99

> <Gold.Protein.RotatedTorsions>
[ 6907 6896 6895 6894 ] final   -3.51 input  -60.11 | X-H torsion
[ 7974 7965 7964 7962 ] final    4.33 input  175.53 | X-H torsion
[ 8008 7997 7996 7995 ] final  -93.01 input   59.86 | X-H torsion
[ 10167 10162 10161 10158 ] final  135.76 input  -65.29 | X-H torsion
[ 10718 10713 10712 10709 ] final  112.07 input   66.30 | X-H torsion
[ 10763 10752 10751 10750 ] final   94.91 input  -60.55 | X-H torsion
[ 11005 11000 10999 10996 ] final -147.04 input  -57.11 | X-H torsion

> <Gold.Protein.ActiveResidues>
 VAL166  LYS551  ARG553  GLY616  TRP617  ASP618  TYR619  PRO620  LYS621  CYS622 
 ASP623  PHE694  ASN695  SER759  ASP760  ASP761  ALA762  ILE779  LEU786  VAL792 
 PHE793  MET794  SER795  GLU796  ALA797  LYS798  CYS799  TRP800  GLU811  SER814 

> <Gold.Protein.RotatedAtoms>
  151.5126  135.1065  159.9857 H   0  0  0  0  0  0  0  0  0  0  0  0  # atno 6907 bound_to 6896
  152.4655  133.7910  159.6912 H   0  0  0  0  0  0  0  0  0  0  0  0  # atno 6908 bound_to 6896
  150.8637  133.7542  159.3009 H   0  0  0  0  0  0  0  0  0  0  0  0  # atno 6909 bound_to 6896
  146.2444  140.0550  142.8372 H   0  0  0  0  0  0  0  0  0  0  0  0  # atno 7974 bound_to 7965
  154.7303  140.0503  157.0720 H   0  0  0  0  0  0  0  0  0  0  0  0  # atno 8008 bound_to 7997
  155.0311  140.3158  155.4739 H   0  0  0  0  0  0  0  0  0  0  0  0  # atno 8009 bound_to 7997
  156.2839  140.2150  156.5432 H   0  0  0  0  0  0  0  0  0  0  0  0  # atno 8010 bound_to 7997
  139.5205  144.6500  151.5330 H   0  0  0  0  0  0  0  0  0  0  0  0  # atno 10167 bound_to 10162
  157.6412  131.0961  150.6842 H   0  0  0  0  0  0  0  0  0  0  0  0  # atno 10718 bound_to 10713
  153.2471  135.4272  155.0759 H   0  0  0  0  0  0  0  0  0  0  0  0  # atno 10763 bound_to 10752
  154.8366  135.3417  154.6565 H   0  0  0  0  0  0  0  0  0  0  0  0  # atno 10764 bound_to 10752
  153.6988  135.7029  153.5126 H   0  0  0  0  0  0  0  0  0  0  0  0  # atno 10765 bound_to 10752
  140.7758  134.3136  157.5061 H   0  0  0  0  0  0  0  0  0  0  0  0  # atno 11005 bound_to 11000
  145.0950  140.9309  143.4746 LP  0  0  0  0  0  0  0  0  0  0  0  0  # atno 17320 bound_to 7965
  145.0731  139.3016  143.5822 LP  0  0  0  0  0  0  0  0  0  0  0  0  # atno 17321 bound_to 7965
  140.6301  143.9093  150.6598 LP  0  0  0  0  0  0  0  0  0  0  0  0  # atno 17342 bound_to 10162
  140.2394  143.3675  152.1499 LP  0  0  0  0  0  0  0  0  0  0  0  0  # atno 17343 bound_to 10162
  156.7166  130.4668  149.5533 LP  0  0  0  0  0  0  0  0  0  0  0  0  # atno 17370 bound_to 10713
  156.1694  130.6427  151.0818 LP  0  0  0  0  0  0  0  0  0  0  0  0  # atno 17371 bound_to 10713
  139.8749  134.9288  156.3461 LP  0  0  0  0  0  0  0  0  0  0  0  0  # atno 17394 bound_to 11000
  140.9530  133.7438  156.0297 LP  0  0  0  0  0  0  0  0  0  0  0  0  # atno 17395 bound_to 11000

$$$$
