AV-unprocessed.smi:1626|AV-procd|sdf|6509|dock7
  -GOLD-   22720 7173D 1   1.00000     0.00000
 Structure written by MMmdl.
 48 50  0  0  0  0  0  0  0  0  2 V2000
  152.3387  143.1724  160.6532 C   0  0  0  0  0  0  0  0  0  0  0  0
  152.0341  142.4246  159.3672 C   0  0  0  0  0  0  0  0  0  0  0  0
  152.6857  141.1961  159.1161 C   0  0  0  0  0  0  0  0  0  0  0  0
  152.4284  140.4685  157.9338 C   0  0  0  0  0  0  0  0  0  0  0  0
  152.9432  139.2626  157.4899 N   0  0  0  0  0  0  0  0  0  0  0  0
  152.3143  139.1134  156.3280 C   0  0  0  0  0  0  0  0  0  0  0  0
  151.4571  140.0863  155.9620 N   0  0  0  0  0  0  0  0  0  0  0  0
  150.6647  140.1470  154.7469 C   0  0  0  0  0  0  0  0  0  0  0  0
  149.6133  139.0230  154.6719 C   0  0  1  0  0  0  0  0  0  0  0  0
  149.3471  138.5442  155.9766 O   0  0  0  0  0  0  0  0  0  0  0  0
  148.2931  139.5198  154.0504 C   0  0  0  0  0  0  0  0  0  0  0  0
  147.5832  138.4574  153.2920 N   0  3  2  0  0  0  0  0  0  0  0  0
  146.8397  138.9721  152.1113 C   0  0  0  0  0  0  0  0  0  0  0  0
  146.2451  137.8200  151.2802 C   0  0  0  0  0  0  0  0  0  0  0  0
  145.3619  136.8922  152.1311 C   0  0  2  0  0  0  0  0  0  0  0  0
  144.1685  137.5553  152.4977 O   0  0  0  0  0  0  0  0  0  0  0  0
  146.1199  136.4376  153.3893 C   0  0  0  0  0  0  0  0  0  0  0  0
  146.7134  137.6275  154.1644 C   0  0  0  0  0  0  0  0  0  0  0  0
  151.4953  141.0090  157.0012 C   0  0  0  0  0  0  0  0  0  0  0  0
  150.8415  142.2309  157.2387 C   0  0  0  0  0  0  0  0  0  0  0  0
  151.1095  142.9442  158.4258 C   0  0  0  0  0  0  0  0  0  0  0  0
  150.3974  144.2621  158.6753 C   0  0  0  0  0  0  0  0  0  0  0  0
  153.0585  142.6312  161.2681 H   0  0  0  0  0  0  0  0  0  0  0  0
  151.4309  143.3063  161.2419 H   0  0  0  0  0  0  0  0  0  0  0  0
  152.7580  144.1545  160.4336 H   0  0  0  0  0  0  0  0  0  0  0  0
  153.3904  140.8002  159.8328 H   0  0  0  0  0  0  0  0  0  0  0  0
  152.4906  138.2494  155.7039 H   0  0  0  0  0  0  0  0  0  0  0  0
  150.1852  141.1255  154.6920 H   0  0  0  0  0  0  0  0  0  0  0  0
  151.3441  140.0851  153.8957 H   0  0  0  0  0  0  0  0  0  0  0  0
  150.0249  138.2014  154.0862 H   0  0  0  0  0  0  0  0  0  0  0  0
  150.1289  138.1286  156.3091 H   0  0  0  0  0  0  0  0  0  0  0  0
  147.6541  139.8878  154.8551 H   0  0  0  0  0  0  0  0  0  0  0  0
  148.4733  140.3726  153.3940 H   0  0  0  0  0  0  0  0  0  0  0  0
  146.0475  139.6445  152.4442 H   0  0  0  0  0  0  0  0  0  0  0  0
  147.4989  139.5597  151.4736 H   0  0  0  0  0  0  0  0  0  0  0  0
  145.6768  138.2172  150.4381 H   0  0  0  0  0  0  0  0  0  0  0  0
  147.0605  137.2383  150.8477 H   0  0  0  0  0  0  0  0  0  0  0  0
  145.0787  136.0181  151.5436 H   0  0  0  0  0  0  0  0  0  0  0  0
  143.8013  137.9642  151.7284 H   0  0  0  0  0  0  0  0  0  0  0  0
  145.4638  135.8554  154.0376 H   0  0  0  0  0  0  0  0  0  0  0  0
  146.9288  135.7670  153.0961 H   0  0  0  0  0  0  0  0  0  0  0  0
  147.2917  137.2460  155.0068 H   0  0  0  0  0  0  0  0  0  0  0  0
  145.9172  138.2458  154.5822 H   0  0  0  0  0  0  0  0  0  0  0  0
  150.1391  142.6149  156.5141 H   0  0  0  0  0  0  0  0  0  0  0  0
  149.7302  144.5171  157.8515 H   0  0  0  0  0  0  0  0  0  0  0  0
  151.1193  145.0717  158.7838 H   0  0  0  0  0  0  0  0  0  0  0  0
  149.7991  144.2067  159.5851 H   0  0  0  0  0  0  0  0  0  0  0  0
  148.3020  137.8383  152.9445 H   0  0  0  0  0  0  0  0  0  0  0  0
  1  2  1  0  0  0  0
  1 23  1  0  0  0  0
  1 24  1  0  0  0  0
  1 25  1  0  0  0  0
  2 21  1  0  0  0  0
  2  3  2  0  0  0  0
  3  4  1  0  0  0  0
  3 26  1  0  0  0  0
  4 19  2  0  0  0  0
  4  5  1  0  0  0  0
  5  6  2  0  0  0  0
  6  7  1  0  0  0  0
  6 27  1  0  0  0  0
  7  8  1  0  0  0  0
  7 19  1  0  0  0  0
  8  9  1  0  0  0  0
  8 28  1  0  0  0  0
  8 29  1  0  0  0  0
  9 10  1  0  0  0  0
  9 11  1  0  0  0  0
  9 30  1  0  0  0  0
 10 31  1  0  0  0  0
 11 12  1  0  0  0  0
 11 32  1  0  0  0  0
 11 33  1  0  0  0  0
 12 18  1  0  0  0  0
 12 13  1  0  0  0  0
 12 48  1  0  0  0  0
 13 14  1  0  0  0  0
 13 34  1  0  0  0  0
 13 35  1  0  0  0  0
 14 15  1  0  0  0  0
 14 36  1  0  0  0  0
 14 37  1  0  0  0  0
 15 16  1  0  0  0  0
 15 17  1  0  0  0  0
 15 38  1  0  0  0  0
 16 39  1  0  0  0  0
 17 18  1  0  0  0  0
 17 40  1  0  0  0  0
 17 41  1  0  0  0  0
 18 42  1  0  0  0  0
 18 43  1  0  0  0  0
 19 20  1  0  0  0  0
 20 21  2  0  0  0  0
 20 44  1  0  0  0  0
 21 22  1  0  0  0  0
 22 45  1  0  0  0  0
 22 46  1  0  0  0  0
 22 47  1  0  0  0  0
M  CHG  1  12   1
M  END
> <s_m_source_file>
AV-unprocessed.smi

> <i_m_source_file_index>
1626

> <i_lp_mmshare_version>
43012

> <i_f3d_flags>
0

> <s_epik_input>
W0NIM11jKFtjSF0xKWMoW0NIM10pW2NIXWMoYzEyKW4oW2NIXW4yKVtDSDJdW0NASF0oW09IXSlbQ0gyXU4zW0NIMl1bQ0gyXVtDSF0oW09IXSlbQ0gyXVtDSDJdMw==

> <s_epik_cmdline>
J2VwaWtfcHl0aG9uJywgJy1waCcsICc3LjAnLCAnLXRuJywgJzgnLCAnLW1hJywgJzIwMCcsICctbWV0YWxfYmluZGluZycsICctaW1hZScsICc8aW5maWxlLm1hZT4nLCAnLW9tYWUnLCAnPG91dGZpbGUubWFlPic=

> <r_epik_Ionization_Penalty>
0.106584

> <r_epik_Ionization_Penalty_Charging>
0.0185694

> <r_epik_Ionization_Penalty_Neutral>
0.0880147

> <r_epik_State_Penalty>
0.0908428

> <r_epik_Charging_Adjusted_Penalty>
0.109412

> <i_epik_Tot_Q>
1

> <i_epik_Tot_abs_Q>
1

> <r_epik_Metal_State_Penalty>
0.0153739

> <b_epik_Metal_Only>
0

> <s_lp_Force_Field>
OPLS_2005

> <r_lp_Energy>
22.63

> <b_lp_Chiralities_Consistent>
1

> <s_lp_Variant>
AV-unprocessed.smi:1626-4

> <Gold.Version>
5.8.1

> <Gold.Id.Protein>
6NUR|6NUR_protein|mol2

> <Gold.PLP.Fitness>
47.4443

> <Gold.PLP.PLP>
-39.0892

> <Gold.PLP.part.hbond>
-4.0264

> <Gold.PLP.part.metal>
0.0000

> <Gold.PLP.part.buried>
4.9872

> <Gold.PLP.part.nonpolar>
-39.5124

> <Gold.PLP.part.repulsive>
0.0299

> <Gold.PLP.ligand.clash>
0.0000

> <Gold.PLP.ligand.torsion>
1.3255

> <Gold.PLP.Chemscore.Hbond>
3.6500

> <Gold.PLP.Chemscore.CHOScore>
0.0000

> <Gold.PLP.Chemscore.Metal>
0.0000

> <Gold.Chemscore.Hbonds>
donor molecule, donor type, donor heavy atom, donor atom, acceptor molecule, acceptor atom, score
      L1  H    12    48       P1  7948  2.00
      L1  H    16    39       P1 10171  1.00
      P1  H  7997  8009       L1     5  0.65

> <Gold.PLP.Chemscore.Internal.Correction>
0.0563

> <Gold.Rescore>
     Score         DG    S(hbond)    S(metal)    S(lipo)     H(rot)  DE(clash)    DE(int)     intcor
     14.80     -18.52       1.95        0.00     114.18       2.67       2.33       1.38       ----

> <Gold.Chemscore.Fitness>
14.8022

> <Gold.Chemscore.DG>
-18.5155

> <Gold.Chemscore.ZeroCoef>
-5.4800

> <Gold.Chemscore.Hbond>
1.9505

> <Gold.Chemscore.Metal>
0.0000

> <Gold.Chemscore.Lipo>
114.1821

> <Gold.Chemscore.Internal_Hbond>
0.0000

> <Gold.Chemscore.DEClash>
2.3291

> <Gold.Chemscore.DEInternal>
1.3842

> <Gold.Chemscore.Rot>
2.6712

> <Gold.Chemscore.Internal.Correction>
   9.000000E+99

> <Gold.Chemscore.Hbonds>
donor molecule, donor type, donor heavy atom, donor atom, acceptor molecule, acceptor atom, score
      L1  H    12    48       P1  7948  0.91
      L1  H    16    39       P1 10171  0.93
      P1  H  7997  8009       L1     5  0.03

> <Gold.Chemscore.Hbond.Weighted>
-6.5145

> <Gold.Chemscore.Metal.Weighted>
-0.0000

> <Gold.Chemscore.Lipo.Weighted>
-13.3593

> <Gold.Chemscore.Internal_Hbond.Weighted>
0.0000

> <Gold.Chemscore.DEClash.Weighted>
2.3291

> <Gold.Chemscore.DEInternal.Weighted>
1.3842

> <Gold.Chemscore.Rot.Weighted>
6.8383

> <Gold.Chemscore.Internal.Correction.Weighted>
   9.000000E+99

> <Gold.Protein.RotatedTorsions>
[ 6907 6896 6895 6894 ] final   79.05 input  -60.11 | X-H torsion
[ 7974 7965 7964 7962 ] final  -36.42 input  175.53 | X-H torsion
[ 8008 7997 7996 7995 ] final  151.58 input   59.86 | X-H torsion
[ 10167 10162 10161 10158 ] final   99.14 input  -65.29 | X-H torsion
[ 10718 10713 10712 10709 ] final  134.99 input   66.30 | X-H torsion
[ 10763 10752 10751 10750 ] final   54.33 input  -60.55 | X-H torsion
[ 11005 11000 10999 10996 ] final   40.81 input  -57.11 | X-H torsion

> <Gold.Protein.ActiveResidues>
 VAL166  LYS551  ARG553  GLY616  TRP617  ASP618  TYR619  PRO620  LYS621  CYS622 
 ASP623  PHE694  ASN695  SER759  ASP760  ASP761  ALA762  ILE779  LEU786  VAL792 
 PHE793  MET794  SER795  GLU796  ALA797  LYS798  CYS799  TRP800  GLU811  SER814 

> <Gold.Protein.RotatedAtoms>
  152.5183  134.3571  159.9271 H   0  0  0  0  0  0  0  0  0  0  0  0  # atno 6907 bound_to 6896
  151.3522  133.3914  159.2689 H   0  0  0  0  0  0  0  0  0  0  0  0  # atno 6908 bound_to 6896
  150.9718  134.9108  159.7850 H   0  0  0  0  0  0  0  0  0  0  0  0  # atno 6909 bound_to 6896
  146.0663  140.6277  142.8973 H   0  0  0  0  0  0  0  0  0  0  0  0  # atno 7974 bound_to 7965
  156.2667  140.2044  156.6199 H   0  0  0  0  0  0  0  0  0  0  0  0  # atno 8008 bound_to 7997
  154.6765  140.0544  157.0245 H   0  0  0  0  0  0  0  0  0  0  0  0  # atno 8009 bound_to 7997
  155.1061  140.3211  155.4537 H   0  0  0  0  0  0  0  0  0  0  0  0  # atno 8010 bound_to 7997
  139.7644  144.6943  151.0245 H   0  0  0  0  0  0  0  0  0  0  0  0  # atno 10167 bound_to 10162
  157.4616  131.1074  150.9912 H   0  0  0  0  0  0  0  0  0  0  0  0  # atno 10718 bound_to 10713
  152.9803  135.5749  154.4886 H   0  0  0  0  0  0  0  0  0  0  0  0  # atno 10763 bound_to 10752
  154.4424  135.2776  155.1840 H   0  0  0  0  0  0  0  0  0  0  0  0  # atno 10764 bound_to 10752
  154.3503  135.6210  153.5693 H   0  0  0  0  0  0  0  0  0  0  0  0  # atno 10765 bound_to 10752
  140.1894  134.4005  155.8155 H   0  0  0  0  0  0  0  0  0  0  0  0  # atno 11005 bound_to 11000
  144.7204  140.4354  143.7012 LP  0  0  0  0  0  0  0  0  0  0  0  0  # atno 17320 bound_to 7965
  145.6472  139.1559  143.2882 LP  0  0  0  0  0  0  0  0  0  0  0  0  # atno 17321 bound_to 7965
  140.7809  143.4659  151.0212 LP  0  0  0  0  0  0  0  0  0  0  0  0  # atno 17342 bound_to 10162
  139.8345  143.7647  152.3180 LP  0  0  0  0  0  0  0  0  0  0  0  0  # atno 17343 bound_to 10162
  157.0707  130.5863  149.5402 LP  0  0  0  0  0  0  0  0  0  0  0  0  # atno 17370 bound_to 10713
  156.0031  130.5114  150.7736 LP  0  0  0  0  0  0  0  0  0  0  0  0  # atno 17371 bound_to 10713
  141.2226  133.7039  156.8070 LP  0  0  0  0  0  0  0  0  0  0  0  0  # atno 17394 bound_to 11000
  140.2176  134.8781  157.3342 LP  0  0  0  0  0  0  0  0  0  0  0  0  # atno 17395 bound_to 11000

$$$$
