AV-unprocessed.smi:148|AV-procd|sdf|1209|dock7
  -GOLD-   2262018383D 1   1.00000     0.00000
 Structure written by MMmdl.
 63 67  0  0  0  0  0  0  0  0  1 V2000
  150.8621  132.6478  157.5700 O   0  0  0  0  0  0  0  0  0  0  0  0
  151.1494  133.4409  156.4374 C   0  0  0  0  0  0  0  0  0  0  0  0
  149.9516  133.4498  155.4585 C   0  0  1  0  0  0  0  0  0  0  0  0
  150.0161  134.6937  154.5370 C   0  0  0  0  0  0  0  0  0  0  0  0
  149.9859  135.9507  155.2632 N   0  0  0  0  0  0  0  0  0  0  0  0
  149.1493  136.2832  156.3057 C   0  0  0  0  0  0  0  0  0  0  0  0
  149.3250  137.4780  156.8009 N   0  0  0  0  0  0  0  0  0  0  0  0
  150.3553  138.0085  156.0356 C   0  0  0  0  0  0  0  0  0  0  0  0
  151.0370  139.2526  156.0271 C   0  0  0  0  0  0  0  0  0  0  0  0
  150.7339  140.2364  156.9011 N   0  0  0  0  0  0  0  0  0  0  0  0
  151.9061  140.5785  157.7090 C   0  0  0  0  0  0  0  0  0  0  0  0
  151.5200  141.4468  158.9100 C   0  0  0  0  0  0  0  0  0  0  0  0
  150.7804  142.6964  158.4292 C   0  0  0  0  0  0  0  0  0  0  0  0
  149.5674  142.2934  157.5799 C   0  0  0  0  0  0  0  0  0  0  0  0
  149.9476  141.3760  156.3857 C   0  0  2  0  0  0  0  0  0  0  0  0
  148.6654  140.9506  155.5863 C   0  0  1  0  0  0  0  0  0  0  0  0
  147.7063  142.0980  155.2174 C   0  0  0  0  0  0  0  0  0  0  0  0
  146.7895  141.5558  154.1150 C   0  0  0  0  0  0  0  0  0  0  0  0
  147.4988  140.3266  153.5358 C   0  0  0  0  0  0  0  0  0  0  0  0
  148.8722  140.2685  154.2133 C   0  0  1  0  0  0  0  0  0  0  0  0
  149.8017  140.9823  153.4193 O   0  0  0  0  0  0  0  0  0  0  0  0
  152.0227  139.4361  155.1090 N   0  0  0  0  0  0  0  0  0  0  0  0
  152.3140  138.4605  154.2429 C   0  0  0  0  0  0  0  0  0  0  0  0
  151.7602  137.2505  154.1302 N   0  0  0  0  0  0  0  0  0  0  0  0
  150.7771  137.0665  155.0579 C   0  0  0  0  0  0  0  0  0  0  0  0
  149.7892  132.1230  154.6642 C   0  0  2  0  0  0  0  0  0  0  0  0
  148.8507  132.1849  153.4574 C   0  0  0  0  0  0  0  0  0  0  0  0
  147.9083  130.9981  153.6556 C   0  0  0  0  0  0  0  0  0  0  0  0
  148.6383  130.1161  154.4925 O   0  0  0  0  0  0  0  0  0  0  0  0
  149.2748  130.9224  155.4693 C   0  0  0  0  0  0  0  0  0  0  0  0
  150.6689  131.7687  157.2818 H   0  0  0  0  0  0  0  0  0  0  0  0
  151.3955  134.4494  156.7699 H   0  0  0  0  0  0  0  0  0  0  0  0
  152.0465  133.0337  155.9735 H   0  0  0  0  0  0  0  0  0  0  0  0
  149.0477  133.5433  156.0627 H   0  0  0  0  0  0  0  0  0  0  0  0
  150.9271  134.6790  153.9380 H   0  0  0  0  0  0  0  0  0  0  0  0
  149.1840  134.6837  153.8319 H   0  0  0  0  0  0  0  0  0  0  0  0
  148.4057  135.6042  156.6967 H   0  0  0  0  0  0  0  0  0  0  0  0
  152.3951  139.6688  158.0622 H   0  0  0  0  0  0  0  0  0  0  0  0
  152.6317  141.1107  157.0917 H   0  0  0  0  0  0  0  0  0  0  0  0
  150.8850  140.8767  159.5894 H   0  0  0  0  0  0  0  0  0  0  0  0
  152.4107  141.7278  159.4725 H   0  0  0  0  0  0  0  0  0  0  0  0
  150.4610  143.2955  159.2822 H   0  0  0  0  0  0  0  0  0  0  0  0
  151.4529  143.3211  157.8401 H   0  0  0  0  0  0  0  0  0  0  0  0
  148.8393  141.7847  158.2134 H   0  0  0  0  0  0  0  0  0  0  0  0
  149.0888  143.2076  157.2306 H   0  0  0  0  0  0  0  0  0  0  0  0
  150.5986  141.9554  155.7304 H   0  0  0  0  0  0  0  0  0  0  0  0
  148.0952  140.2641  156.2151 H   0  0  0  0  0  0  0  0  0  0  0  0
  147.1330  142.4559  156.0733 H   0  0  0  0  0  0  0  0  0  0  0  0
  148.2736  142.9433  154.8246 H   0  0  0  0  0  0  0  0  0  0  0  0
  145.8208  141.2687  154.5259 H   0  0  0  0  0  0  0  0  0  0  0  0
  146.6096  142.3130  153.3515 H   0  0  0  0  0  0  0  0  0  0  0  0
  146.9308  139.4326  153.7969 H   0  0  0  0  0  0  0  0  0  0  0  0
  147.5643  140.3543  152.4474 H   0  0  0  0  0  0  0  0  0  0  0  0
  149.2010  139.2344  154.2888 H   0  0  0  0  0  0  0  0  0  0  0  0
  149.6798  140.7311  152.5166 H   0  0  0  0  0  0  0  0  0  0  0  0
  153.1020  138.6819  153.5383 H   0  0  0  0  0  0  0  0  0  0  0  0
  150.7595  131.8394  154.2555 H   0  0  0  0  0  0  0  0  0  0  0  0
  148.3035  133.1225  153.3638 H   0  0  0  0  0  0  0  0  0  0  0  0
  149.4255  132.0590  152.5387 H   0  0  0  0  0  0  0  0  0  0  0  0
  146.9972  131.3109  154.1681 H   0  0  0  0  0  0  0  0  0  0  0  0
  147.6261  130.5226  152.7161 H   0  0  0  0  0  0  0  0  0  0  0  0
  150.0762  130.3811  155.9724 H   0  0  0  0  0  0  0  0  0  0  0  0
  148.5379  131.2095  156.2191 H   0  0  0  0  0  0  0  0  0  0  0  0
  1  2  1  0  0  0  0
  1 31  1  0  0  0  0
  2  3  1  0  0  0  0
  2 32  1  0  0  0  0
  2 33  1  0  0  0  0
  3  4  1  0  0  0  0
  3 26  1  0  0  0  0
  3 34  1  0  0  0  0
  4  5  1  0  0  0  0
  4 35  1  0  0  0  0
  4 36  1  0  0  0  0
  5 25  1  0  0  0  0
  5  6  1  0  0  0  0
  6  7  2  0  0  0  0
  6 37  1  0  0  0  0
  7  8  1  0  0  0  0
  8 25  2  0  0  0  0
  8  9  1  0  0  0  0
  9 10  1  0  0  0  0
  9 22  2  0  0  0  0
 10 15  1  0  0  0  0
 10 11  1  0  0  0  0
 11 12  1  0  0  0  0
 11 38  1  0  0  0  0
 11 39  1  0  0  0  0
 12 13  1  0  0  0  0
 12 40  1  0  0  0  0
 12 41  1  0  0  0  0
 13 14  1  0  0  0  0
 13 42  1  0  0  0  0
 13 43  1  0  0  0  0
 14 15  1  0  0  0  0
 14 44  1  0  0  0  0
 14 45  1  0  0  0  0
 15 16  1  0  0  0  0
 15 46  1  0  0  0  0
 16 20  1  0  0  0  0
 16 17  1  0  0  0  0
 16 47  1  0  0  0  0
 17 18  1  0  0  0  0
 17 48  1  0  0  0  0
 17 49  1  0  0  0  0
 18 19  1  0  0  0  0
 18 50  1  0  0  0  0
 18 51  1  0  0  0  0
 19 20  1  0  0  0  0
 19 52  1  0  0  0  0
 19 53  1  0  0  0  0
 20 21  1  0  0  0  0
 20 54  1  0  0  0  0
 21 55  1  0  0  0  0
 22 23  1  0  0  0  0
 23 24  2  0  0  0  0
 23 56  1  0  0  0  0
 24 25  1  0  0  0  0
 26 30  1  0  0  0  0
 26 27  1  0  0  0  0
 26 57  1  0  0  0  0
 27 28  1  0  0  0  0
 27 58  1  0  0  0  0
 27 59  1  0  0  0  0
 28 29  1  0  0  0  0
 28 60  1  0  0  0  0
 28 61  1  0  0  0  0
 29 30  1  0  0  0  0
 30 62  1  0  0  0  0
 30 63  1  0  0  0  0
M  END
> <s_m_source_file>
AV-unprocessed.smi

> <i_m_source_file_index>
148

> <i_lp_mmshare_version>
43012

> <i_f3d_flags>
0

> <s_epik_input>
W0NIMl0xT1tDSDJdW0NIMl1bQ0BIXTFbQ0BIXShbQ0gyXVtPSF0pW0NIMl1uKFtjSF1uMiljKGMyMyluW2NIXW5jM040W0NIMl1bQ0gyXVtDSDJdW0NIMl1bQ0BIXTRbQ0BASF01W0NIMl1bQ0gyXVtDSDJdW0NASF01W09IXQ==

> <s_epik_cmdline>
J2VwaWtfcHl0aG9uJywgJy1waCcsICc3LjAnLCAnLXRuJywgJzgnLCAnLW1hJywgJzIwMCcsICctbWV0YWxfYmluZGluZycsICctaW1hZScsICc8aW5maWxlLm1hZT4nLCAnLW9tYWUnLCAnPG91dGZpbGUubWFlPic=

> <r_lp_tautomer_probability>
1

> <r_epik_Ionization_Penalty>
0.00556303

> <r_epik_Ionization_Penalty_Charging>
0

> <r_epik_Ionization_Penalty_Neutral>
0.00556303

> <r_epik_State_Penalty>
0.00401767

> <r_epik_Charging_Adjusted_Penalty>
0.00401767

> <i_epik_Tot_Q>
0

> <i_epik_Tot_abs_Q>
0

> <r_epik_Metal_State_Penalty>
-0

> <b_epik_Metal_Only>
0

> <s_lp_Force_Field>
OPLS_2005

> <r_lp_Energy>
71.0858

> <b_lp_Chiralities_Consistent>
1

> <s_lp_Variant>
AV-unprocessed.smi:148-8

> <Gold.Version>
5.8.1

> <Gold.Id.Protein>
6NUR|6NUR_protein|mol2

> <Gold.PLP.Fitness>
53.1649

> <Gold.PLP.PLP>
-43.9162

> <Gold.PLP.part.hbond>
-5.7544

> <Gold.PLP.part.metal>
0.0000

> <Gold.PLP.part.buried>
-6.1811

> <Gold.PLP.part.nonpolar>
-34.0619

> <Gold.PLP.part.repulsive>
1.1752

> <Gold.PLP.ligand.clash>
0.0000

> <Gold.PLP.ligand.torsion>
0.9526

> <Gold.PLP.Chemscore.Hbond>
3.4399

> <Gold.PLP.Chemscore.CHOScore>
0.0000

> <Gold.PLP.Chemscore.Metal>
0.0000

> <Gold.Chemscore.Hbonds>
donor molecule, donor type, donor heavy atom, donor atom, acceptor molecule, acceptor atom, score
      L1  H    21    55       P1  7957  0.96
      P1  H  6896  6908       L1     1  0.93
      P1  H  7989  7998       L1    22  0.35
      P1  H 10752 10764       L1    24  0.99

> <Gold.PLP.Chemscore.Internal.Correction>
0.8342

> <Gold.Rescore>
     Score         DG    S(hbond)    S(metal)    S(lipo)     H(rot)  DE(clash)    DE(int)     intcor
     16.42     -17.72       2.81        0.00      97.12       3.32       0.15       1.14       ----

> <Gold.Chemscore.Fitness>
16.4237

> <Gold.Chemscore.DG>
-17.7167

> <Gold.Chemscore.ZeroCoef>
-5.4800

> <Gold.Chemscore.Hbond>
2.8066

> <Gold.Chemscore.Metal>
0.0000

> <Gold.Chemscore.Lipo>
97.1179

> <Gold.Chemscore.Internal_Hbond>
0.0000

> <Gold.Chemscore.DEClash>
0.1549

> <Gold.Chemscore.DEInternal>
1.1381

> <Gold.Chemscore.Rot>
3.3203

> <Gold.Chemscore.Internal.Correction>
   9.000000E+99

> <Gold.Chemscore.Hbonds>
donor molecule, donor type, donor heavy atom, donor atom, acceptor molecule, acceptor atom, score
      L1  H    21    55       P1  7957  0.91
      P1  H  6896  6908       L1     1  0.84
      P1  H  7989  7998       L1    21  0.04
      P1  H 10752 10764       L1    24  0.74

> <Gold.Chemscore.Hbond.Weighted>
-9.3740

> <Gold.Chemscore.Metal.Weighted>
-0.0000

> <Gold.Chemscore.Lipo.Weighted>
-11.3628

> <Gold.Chemscore.Internal_Hbond.Weighted>
0.0000

> <Gold.Chemscore.DEClash.Weighted>
0.1549

> <Gold.Chemscore.DEInternal.Weighted>
1.1381

> <Gold.Chemscore.Rot.Weighted>
8.5000

> <Gold.Chemscore.Internal.Correction.Weighted>
   9.000000E+99

> <Gold.Protein.RotatedTorsions>
[ 6907 6896 6895 6894 ] final   66.53 input  -60.11 | X-H torsion
[ 7974 7965 7964 7962 ] final    7.61 input  175.53 | X-H torsion
[ 8008 7997 7996 7995 ] final  153.10 input   59.86 | X-H torsion
[ 10167 10162 10161 10158 ] final -161.20 input  -65.29 | X-H torsion
[ 10718 10713 10712 10709 ] final   -4.86 input   66.30 | X-H torsion
[ 10763 10752 10751 10750 ] final  -96.37 input  -60.55 | X-H torsion
[ 11005 11000 10999 10996 ] final   82.21 input  -57.11 | X-H torsion

> <Gold.Protein.ActiveResidues>
 VAL166  LYS551  ARG553  GLY616  TRP617  ASP618  TYR619  PRO620  LYS621  CYS622 
 ASP623  PHE694  ASN695  SER759  ASP760  ASP761  ALA762  ILE779  LEU786  VAL792 
 PHE793  MET794  SER795  GLU796  ALA797  LYS798  CYS799  TRP800  GLU811  SER814 

> <Gold.Protein.RotatedAtoms>
  152.4487  134.5439  159.9846 H   0  0  0  0  0  0  0  0  0  0  0  0  # atno 6907 bound_to 6896
  151.5518  133.3410  159.2962 H   0  0  0  0  0  0  0  0  0  0  0  0  # atno 6908 bound_to 6896
  150.8410  134.7734  159.6996 H   0  0  0  0  0  0  0  0  0  0  0  0  # atno 6909 bound_to 6896
  146.2425  140.0057  142.8411 H   0  0  0  0  0  0  0  0  0  0  0  0  # atno 7974 bound_to 7965
  156.2597  140.2002  156.6438 H   0  0  0  0  0  0  0  0  0  0  0  0  # atno 8008 bound_to 7997
  154.6589  140.0563  157.0065 H   0  0  0  0  0  0  0  0  0  0  0  0  # atno 8009 bound_to 7997
  155.1306  140.3233  155.4478 H   0  0  0  0  0  0  0  0  0  0  0  0  # atno 8010 bound_to 7997
  139.6482  144.0132  152.2143 H   0  0  0  0  0  0  0  0  0  0  0  0  # atno 10167 bound_to 10162
  156.7550  130.5251  149.5796 H   0  0  0  0  0  0  0  0  0  0  0  0  # atno 10718 bound_to 10713
  154.7234  135.5086  153.8847 H   0  0  0  0  0  0  0  0  0  0  0  0  # atno 10763 bound_to 10752
  153.0882  135.6651  153.9915 H   0  0  0  0  0  0  0  0  0  0  0  0  # atno 10764 bound_to 10752
  153.9732  135.3036  155.3405 H   0  0  0  0  0  0  0  0  0  0  0  0  # atno 10765 bound_to 10752
  139.9071  134.8054  156.2144 H   0  0  0  0  0  0  0  0  0  0  0  0  # atno 11005 bound_to 11000
  145.1374  140.9552  143.4508 LP  0  0  0  0  0  0  0  0  0  0  0  0  # atno 17320 bound_to 7965
  145.0329  139.3326  143.6016 LP  0  0  0  0  0  0  0  0  0  0  0  0  # atno 17321 bound_to 7965
  139.9839  144.6409  150.7875 LP  0  0  0  0  0  0  0  0  0  0  0  0  # atno 17342 bound_to 10162
  140.7525  143.2991  151.3126 LP  0  0  0  0  0  0  0  0  0  0  0  0  # atno 17343 bound_to 10162
  156.1376  130.6222  151.0422 LP  0  0  0  0  0  0  0  0  0  0  0  0  # atno 17370 bound_to 10713
  157.6760  131.0850  150.7493 LP  0  0  0  0  0  0  0  0  0  0  0  0  # atno 17371 bound_to 10713
  141.0445  133.6920  156.1658 LP  0  0  0  0  0  0  0  0  0  0  0  0  # atno 17394 bound_to 11000
  140.6905  134.4671  157.5588 LP  0  0  0  0  0  0  0  0  0  0  0  0  # atno 17395 bound_to 11000

$$$$
