#       Name:                AV-unprocessed.smi:261
#       Creating user name   scv26
#       Creation time:       Thu Mar 26 21:17:30 2020


#       File generated by GOLD software.
#

@<TRIPOS>MOLECULE
AV-unprocessed.smi:261
    62    65     1
SMALL
NO_CHARGES


@<TRIPOS>ATOM
      1 ****        -6.4141   2.1688   0.8130 C.3            1 S1                 0.0000
      2 ****        -5.0110   2.2128   1.0162 O.3            1 S1                 0.0000
      3 ****        -4.2499   2.1449  -0.1838 C.3            1 S1                 0.0000
      4 ****        -4.0938   0.7049  -0.6911 C.3            1 S1                 0.0000
      5 ****        -2.9193   0.1247   0.1136 C.3            1 S1                 0.0000
      6 ****        -3.4056  -0.5909   1.3922 C.2            1 S1                 0.0000
      7 ****        -3.1319  -0.0451   2.5821 N.am           1 S1                 0.0000
      8 ****        -4.0224  -1.6497   1.2987 O.2            1 S1                 0.0000
      9 ****        -2.0827   1.2998   0.3622 N.pl3          1 S1                 0.0000
     10 ****        -0.7516   1.2720   0.6515 C.ar           1 S1                 0.0000
     11 ****        -0.1131   2.4624   0.8076 N.ar           1 S1                 0.0000
     12 ****         1.1900   2.5087   1.0952 C.ar           1 S1                 0.0000
     13 ****         2.0401   1.4977   1.2710 N.ar           1 S1                 0.0000
     14 ****         1.4137   0.2971   1.1186 C.ar           1 S1                 0.0000
     15 ****         0.0363   0.0907   0.8120 C.ar           1 S1                 0.0000
     16 ****        -0.2170  -1.2759   0.7433 N.2            1 S1                 0.0000
     17 ****         0.9330  -1.8386   0.9901 C.2            1 S1                 0.0000
     18 ****         1.9696  -0.9654   1.2197 N.pl3          1 S1                 0.0000
     19 ****         3.3504  -1.3096   1.5054 C.3            1 S1                 0.0000
     20 ****         4.3050  -1.0127   0.3292 C.3            1 S1                 0.0000
     21 ****         5.5985  -1.4221   0.7258 O.3            1 S1                 0.0000
     22 ****         3.9321  -1.7223  -0.9918 C.3            1 S1                 0.0000
     23 ****         4.9403  -1.5238  -2.1259 C.3            1 S1                 0.0000
     24 ****         4.1171  -1.7428  -3.3855 C.3            1 S1                 0.0000
     25 ****         2.6690  -1.6255  -2.9059 C.3            1 S1                 0.0000
     26 ****         2.7623  -1.1601  -1.5680 O.3            1 S1                 0.0000
     27 ****        -2.8086   2.5477   0.1434 C.3            1 S1                 0.0000
     28 ****        -4.6756   2.8079  -0.9390 H              1 S1                 0.0000
     29 ****        -2.3978  -0.5974  -0.5145 H              1 S1                 0.0000
     30 ****        -6.9212   2.2443   1.7748 H              1 S1                 0.0000
     31 ****        -6.7291   1.2366   0.3446 H              1 S1                 0.0000
     32 ****        -6.7481   3.0019   0.1934 H              1 S1                 0.0000
     33 ****        -5.0070   0.1136  -0.6229 H              1 S1                 0.0000
     34 ****        -3.8186   0.7303  -1.7464 H              1 S1                 0.0000
     35 ****        -3.4339  -0.5074   3.4274 H              1 S1                 0.0000
     36 ****        -2.6152   0.8207   2.6303 H              1 S1                 0.0000
     37 ****         1.6113   3.4977   1.1993 H              1 S1                 0.0000
     38 ****         1.0578  -2.9116   1.0013 H              1 S1                 0.0000
     39 ****         3.6603  -0.7551   2.3922 H              1 S1                 0.0000
     40 ****         3.3932  -2.3675   1.7685 H              1 S1                 0.0000
     41 ****         4.3435   0.0638   0.1573 H              1 S1                 0.0000
     42 ****         5.5873  -2.3559   0.8700 H              1 S1                 0.0000
     43 ****         3.7710  -2.7886  -0.8205 H              1 S1                 0.0000
     44 ****         5.3218  -0.5018  -2.1139 H              1 S1                 0.0000
     45 ****         5.7923  -2.2004  -2.0558 H              1 S1                 0.0000
     46 ****         4.3561  -0.9957  -4.1428 H              1 S1                 0.0000
     47 ****         4.2995  -2.7284  -3.8148 H              1 S1                 0.0000
     48 ****         2.0780  -0.9429  -3.5165 H              1 S1                 0.0000
     49 ****         2.1805  -2.6007  -2.9139 H              1 S1                 0.0000
     50 ****        -2.3650   3.0682  -0.7067 H              1 S1                 0.0000
     51 ****        -2.7580   3.2093   1.0095 H              1 S1                 0.0000
     52 ****        -4.7530   1.4402   1.5964 LP             1 S1                 0.0000
     53 ****        -4.7875   3.0688   1.4823 LP             1 S1                 0.0000
     54 ****        -4.2068  -2.0431   0.3980 LP             1 S1                 0.0000
     55 ****        -4.3400  -2.1179   2.1233 LP             1 S1                 0.0000
     56 ****        -0.6264   3.3146   0.7057 LP             1 S1                 0.0000
     57 ****         3.0106   1.6058   1.4866 LP             1 S1                 0.0000
     58 ****        -1.0881  -1.7266   0.5480 LP             1 S1                 0.0000
     59 ****         5.8561  -0.9536   1.5709 LP             1 S1                 0.0000
     60 ****         6.2575  -1.1998   0.0073 LP             1 S1                 0.0000
     61 ****         2.8248  -0.1621  -1.5588 LP             1 S1                 0.0000
     62 ****         1.9564  -1.4484  -1.0508 LP             1 S1                 0.0000
@<TRIPOS>BOND
    1    1    2 1     
    2    1   30 1     
    3    1   31 1     
    4    1   32 1     
    5    2    3 1     
    6    3   28 1     
    7    3   27 1     
    8    3    4 1     
    9    4    5 1     
   10    4   33 1     
   11    4   34 1     
   12    5   29 1     
   13    5    6 1     
   14    5    9 1     
   15    6    7 am    
   16    6    8 2     
   17    7   35 1     
   18    7   36 1     
   19    9   10 1     
   20    9   27 1     
   21   10   15 ar    
   22   10   11 ar    
   23   11   12 ar    
   24   12   13 ar    
   25   12   37 1     
   26   13   14 ar    
   27   14   18 1     
   28   14   15 ar    
   29   15   16 1     
   30   16   17 2     
   31   17   18 1     
   32   17   38 1     
   33   18   19 1     
   34   19   20 1     
   35   19   39 1     
   36   19   40 1     
   37   20   21 1     
   38   20   22 1     
   39   20   41 1     
   40   21   42 1     
   41   22   26 1     
   42   22   23 1     
   43   22   43 1     
   44   23   24 1     
   45   23   44 1     
   46   23   45 1     
   47   24   25 1     
   48   24   46 1     
   49   24   47 1     
   50   25   26 1     
   51   25   48 1     
   52   25   49 1     
   53   27   50 1     
   54   27   51 1     
   55    2   52 1     
   56    2   53 1     
   57    8   54 1     
   58    8   55 1     
   59   11   56 1     
   60   13   57 1     
   61   16   58 1     
   62   21   59 1     
   63   21   60 1     
   64   26   61 1     
   65   26   62 1     
@<TRIPOS>SUBSTRUCTURE
      1 S1             1
@<TRIPOS>SET
LONE_PAIRS      STATIC     ATOMS    <user>   **** ""
11 52 53 54 55 56 57 58 59 60 61 62
DONOR_HYDROGENS      STATIC     ATOMS    <user>   **** ""
3 35 36 42
ATOM$BLUE        STATIC     ATOMS    COLORGROUP SYSTEM
11 52 53 54 55 56 57 58 59 60 61 62
ATOM$RED        STATIC     ATOMS    COLORGROUP SYSTEM
3 35 36 42
