AV-unprocessed.smi:2319|AV-procd|sdf|9277|dock4
  -GOLD-   2272012503D 1   1.00000     0.00000
 Structure written by MMmdl.
 46 47  0  0  0  0  0  0  0  0  1 V2000
  152.1865  138.1728  154.5308 C   0  0  0  0  0  0  0  0  0  0  0  0
  150.8317  137.6894  155.0590 C   0  0  0  0  0  0  0  0  0  0  0  0
  150.8802  136.3046  155.6151 C   0  0  0  0  0  0  0  0  0  0  0  0
  151.7176  136.0856  156.6626 O   0  0  0  0  0  0  0  0  0  0  0  0
  151.6419  134.7331  157.0293 N   0  0  0  0  0  0  0  0  0  0  0  0
  150.7752  134.1627  156.2052 C   0  0  0  0  0  0  0  0  0  0  0  0
  150.5328  132.6829  156.3125 C   0  0  0  0  0  0  0  0  0  0  0  0
  150.2463  135.1371  155.3086 C   0  0  0  0  0  0  0  0  0  0  0  0
  149.3211  134.9800  154.2467 N   0  0  0  0  0  0  0  0  0  0  0  0
  148.3711  134.0393  154.1391 C   0  0  0  0  0  0  0  0  0  0  0  0
  148.1561  133.1571  154.9694 O   0  0  0  0  0  0  0  0  0  0  0  0
  147.6573  134.1950  153.0163 N   0  0  0  0  0  0  0  0  0  0  0  0
  146.5260  133.3607  152.6165 C   0  0  2  0  0  0  0  0  0  0  0  0
  146.8853  132.4518  151.4578 C   0  0  0  0  0  0  0  0  0  0  0  0
  145.5246  132.1468  150.8184 C   0  0  0  0  0  0  0  0  0  0  0  0
  145.6070  132.0579  149.2869 C   0  0  0  0  0  0  0  0  0  0  0  0
  144.8831  130.8804  151.4104 C   0  0  0  0  0  0  0  0  0  0  0  0
  144.6845  133.2478  151.1637 O   0  0  0  0  0  0  0  0  0  0  0  0
  145.3291  134.1572  152.0540 C   0  0  0  0  0  0  0  0  0  0  0  0
  144.3185  134.5448  153.1449 C   0  0  0  0  0  0  0  0  0  0  0  0
  145.7233  135.3912  151.2149 C   0  0  0  0  0  0  0  0  0  0  0  0
  152.1103  139.1849  154.1332 H   0  0  0  0  0  0  0  0  0  0  0  0
  152.5490  137.5263  153.7310 H   0  0  0  0  0  0  0  0  0  0  0  0
  152.9375  138.1814  155.3215 H   0  0  0  0  0  0  0  0  0  0  0  0
  150.4801  138.3739  155.8315 H   0  0  0  0  0  0  0  0  0  0  0  0
  150.0946  137.7351  154.2568 H   0  0  0  0  0  0  0  0  0  0  0  0
  150.3360  132.2430  155.3349 H   0  0  0  0  0  0  0  0  0  0  0  0
  149.6785  132.4719  156.9557 H   0  0  0  0  0  0  0  0  0  0  0  0
  151.3965  132.1660  156.7320 H   0  0  0  0  0  0  0  0  0  0  0  0
  149.3122  135.7151  153.5549 H   0  0  0  0  0  0  0  0  0  0  0  0
  147.9030  134.9534  152.3969 H   0  0  0  0  0  0  0  0  0  0  0  0
  146.2018  132.7336  153.4497 H   0  0  0  0  0  0  0  0  0  0  0  0
  147.5250  132.9835  150.7515 H   0  0  0  0  0  0  0  0  0  0  0  0
  147.4225  131.5563  151.7728 H   0  0  0  0  0  0  0  0  0  0  0  0
  146.2565  131.2400  148.9737 H   0  0  0  0  0  0  0  0  0  0  0  0
  146.0013  132.9796  148.8575 H   0  0  0  0  0  0  0  0  0  0  0  0
  144.6228  131.8885  148.8494 H   0  0  0  0  0  0  0  0  0  0  0  0
  145.4833  129.9961  151.1941 H   0  0  0  0  0  0  0  0  0  0  0  0
  143.8879  130.7141  150.9967 H   0  0  0  0  0  0  0  0  0  0  0  0
  144.7788  130.9536  152.4931 H   0  0  0  0  0  0  0  0  0  0  0  0
  144.7525  135.2484  153.8554 H   0  0  0  0  0  0  0  0  0  0  0  0
  143.9847  133.6702  153.7040 H   0  0  0  0  0  0  0  0  0  0  0  0
  143.4344  135.0146  152.7133 H   0  0  0  0  0  0  0  0  0  0  0  0
  146.1872  136.1632  151.8293 H   0  0  0  0  0  0  0  0  0  0  0  0
  144.8466  135.8361  150.7433 H   0  0  0  0  0  0  0  0  0  0  0  0
  146.4226  135.1324  150.4200 H   0  0  0  0  0  0  0  0  0  0  0  0
  1  2  1  0  0  0  0
  1 22  1  0  0  0  0
  1 23  1  0  0  0  0
  1 24  1  0  0  0  0
  2  3  1  0  0  0  0
  2 25  1  0  0  0  0
  2 26  1  0  0  0  0
  3  8  2  0  0  0  0
  3  4  1  0  0  0  0
  4  5  1  0  0  0  0
  5  6  2  0  0  0  0
  6  7  1  0  0  0  0
  6  8  1  0  0  0  0
  7 27  1  0  0  0  0
  7 28  1  0  0  0  0
  7 29  1  0  0  0  0
  8  9  1  0  0  0  0
  9 10  1  0  0  0  0
  9 30  1  0  0  0  0
 10 11  2  0  0  0  0
 10 12  1  0  0  0  0
 12 13  1  0  0  0  0
 12 31  1  0  0  0  0
 13 19  1  0  0  0  0
 13 14  1  0  0  0  0
 13 32  1  0  0  0  0
 14 15  1  0  0  0  0
 14 33  1  0  0  0  0
 14 34  1  0  0  0  0
 15 16  1  0  0  0  0
 15 17  1  0  0  0  0
 15 18  1  0  0  0  0
 16 35  1  0  0  0  0
 16 36  1  0  0  0  0
 16 37  1  0  0  0  0
 17 38  1  0  0  0  0
 17 39  1  0  0  0  0
 17 40  1  0  0  0  0
 18 19  1  0  0  0  0
 19 20  1  0  0  0  0
 19 21  1  0  0  0  0
 20 41  1  0  0  0  0
 20 42  1  0  0  0  0
 20 43  1  0  0  0  0
 21 44  1  0  0  0  0
 21 45  1  0  0  0  0
 21 46  1  0  0  0  0
M  END
> <s_m_source_file>
AV-unprocessed.smi

> <i_m_source_file_index>
2319

> <i_lp_mmshare_version>
43012

> <i_f3d_flags>
0

> <s_epik_input>
W0NIM11bQ0gyXWMxb25jKFtDSDNdKWMxW05IXUMoPU8pW05IXVtDQEBIXShDKE8yKShbQ0gzXSlbQ0gzXSlbQ0gyXUMyKFtDSDNdKVtDSDNd

> <s_epik_cmdline>
J2VwaWtfcHl0aG9uJywgJy1waCcsICc3LjAnLCAnLXRuJywgJzgnLCAnLW1hJywgJzIwMCcsICctbWV0YWxfYmluZGluZycsICctaW1hZScsICc8aW5maWxlLm1hZT4nLCAnLW9tYWUnLCAnPG91dGZpbGUubWFlPic=

> <r_lp_tautomer_probability>
1

> <r_epik_Ionization_Penalty>
3.17207e-05

> <r_epik_Ionization_Penalty_Charging>
0

> <r_epik_Ionization_Penalty_Neutral>
3.17207e-05

> <r_epik_State_Penalty>
-0

> <r_epik_Charging_Adjusted_Penalty>
0

> <i_epik_Tot_Q>
0

> <i_epik_Tot_abs_Q>
0

> <r_epik_Metal_State_Penalty>
-0

> <b_epik_Metal_Only>
0

> <s_lp_Force_Field>
OPLS_2005

> <r_lp_Energy>
19.5027

> <b_lp_Chiralities_Consistent>
1

> <s_lp_Variant>
AV-unprocessed.smi:2319-1

> <Gold.Version>
5.8.1

> <Gold.Id.Protein>
6NUR|6NUR_protein|mol2

> <Gold.PLP.Fitness>
40.2295

> <Gold.PLP.PLP>
-34.3558

> <Gold.PLP.part.hbond>
-3.9568

> <Gold.PLP.part.metal>
0.0000

> <Gold.PLP.part.buried>
-0.8569

> <Gold.PLP.part.nonpolar>
-28.7303

> <Gold.PLP.part.repulsive>
0.1745

> <Gold.PLP.ligand.clash>
0.0000

> <Gold.PLP.ligand.torsion>
0.3101

> <Gold.PLP.Chemscore.Hbond>
2.0709

> <Gold.PLP.Chemscore.CHOScore>
0.0000

> <Gold.PLP.Chemscore.Metal>
0.0000

> <Gold.Chemscore.Hbonds>
donor molecule, donor type, donor heavy atom, donor atom, acceptor molecule, acceptor atom, score
      L1  H     9    30       P1  7948  0.96
      L1  H    12    31       P1  7948  1.00
      P1  H 10752 10764       L1     4  0.04

> <Gold.PLP.Chemscore.Internal.Correction>
0.2811

> <Gold.Rescore>
     Score         DG    S(hbond)    S(metal)    S(lipo)     H(rot)  DE(clash)    DE(int)     intcor
     15.94     -18.30       1.62        0.00      88.72       1.16       0.02       2.35       ----

> <Gold.Chemscore.Fitness>
15.9364

> <Gold.Chemscore.DG>
-18.2976

> <Gold.Chemscore.ZeroCoef>
-5.4800

> <Gold.Chemscore.Hbond>
1.6180

> <Gold.Chemscore.Metal>
0.0000

> <Gold.Chemscore.Lipo>
88.7230

> <Gold.Chemscore.Internal_Hbond>
0.0000

> <Gold.Chemscore.DEClash>
0.0162

> <Gold.Chemscore.DEInternal>
2.3450

> <Gold.Chemscore.Rot>
1.1590

> <Gold.Chemscore.Internal.Correction>
   9.000000E+99

> <Gold.Chemscore.Hbonds>
donor molecule, donor type, donor heavy atom, donor atom, acceptor molecule, acceptor atom, score
      L1  H     9    30       P1  7948  0.46
      L1  H    12    31       P1  7948  0.83

> <Gold.Chemscore.Hbond.Weighted>
-5.4041

> <Gold.Chemscore.Metal.Weighted>
-0.0000

> <Gold.Chemscore.Lipo.Weighted>
-10.3806

> <Gold.Chemscore.Internal_Hbond.Weighted>
0.0000

> <Gold.Chemscore.DEClash.Weighted>
0.0162

> <Gold.Chemscore.DEInternal.Weighted>
2.3450

> <Gold.Chemscore.Rot.Weighted>
2.9671

> <Gold.Chemscore.Internal.Correction.Weighted>
   9.000000E+99

> <Gold.Protein.RotatedTorsions>
[ 6907 6896 6895 6894 ] final   10.79 input  -60.11 | X-H torsion
[ 7974 7965 7964 7962 ] final -136.41 input  175.53 | X-H torsion
[ 8008 7997 7996 7995 ] final   88.07 input   59.86 | X-H torsion
[ 10167 10162 10161 10158 ] final  -49.01 input  -65.29 | X-H torsion
[ 10718 10713 10712 10709 ] final  -31.53 input   66.30 | X-H torsion
[ 10763 10752 10751 10750 ] final   -3.40 input  -60.55 | X-H torsion
[ 11005 11000 10999 10996 ] final   11.95 input  -57.11 | X-H torsion

> <Gold.Protein.ActiveResidues>
 VAL166  LYS551  ARG553  GLY616  TRP617  ASP618  TYR619  PRO620  LYS621  CYS622 
 ASP623  PHE694  ASN695  SER759  ASP760  ASP761  ALA762  ILE779  LEU786  VAL792 
 PHE793  MET794  SER795  GLU796  ALA797  LYS798  CYS799  TRP800  GLU811  SER814 

> <Gold.Protein.RotatedAtoms>
  151.7440  135.0848  160.0319 H   0  0  0  0  0  0  0  0  0  0  0  0  # atno 6907 bound_to 6896
  152.3461  133.6119  159.5919 H   0  0  0  0  0  0  0  0  0  0  0  0  # atno 6908 bound_to 6896
  150.7509  133.9564  159.3543 H   0  0  0  0  0  0  0  0  0  0  0  0  # atno 6909 bound_to 6896
  144.8930  140.6667  143.5133 H   0  0  0  0  0  0  0  0  0  0  0  0  # atno 7974 bound_to 7965
  155.9833  140.3375  155.6683 H   0  0  0  0  0  0  0  0  0  0  0  0  # atno 8008 bound_to 7997
  155.6520  140.0706  157.2602 H   0  0  0  0  0  0  0  0  0  0  0  0  # atno 8009 bound_to 7997
  154.4198  140.1724  156.1672 H   0  0  0  0  0  0  0  0  0  0  0  0  # atno 8010 bound_to 7997
  140.6705  143.2715  151.4154 H   0  0  0  0  0  0  0  0  0  0  0  0  # atno 10167 bound_to 10162
  156.3861  130.4364  149.7431 H   0  0  0  0  0  0  0  0  0  0  0  0  # atno 10718 bound_to 10713
  153.3709  135.6994  153.6638 H   0  0  0  0  0  0  0  0  0  0  0  0  # atno 10763 bound_to 10752
  153.5289  135.3596  155.2667 H   0  0  0  0  0  0  0  0  0  0  0  0  # atno 10764 bound_to 10752
  154.8681  135.4176  154.2987 H   0  0  0  0  0  0  0  0  0  0  0  0  # atno 10765 bound_to 10752
  140.4975  134.0779  155.7785 H   0  0  0  0  0  0  0  0  0  0  0  0  # atno 11005 bound_to 11000
  145.3750  139.1650  143.4311 LP  0  0  0  0  0  0  0  0  0  0  0  0  # atno 17320 bound_to 7965
  146.3065  140.3826  142.8685 LP  0  0  0  0  0  0  0  0  0  0  0  0  # atno 17321 bound_to 7965
  139.5971  144.1374  152.2156 LP  0  0  0  0  0  0  0  0  0  0  0  0  # atno 17342 bound_to 10162
  140.0747  144.5750  150.7166 LP  0  0  0  0  0  0  0  0  0  0  0  0  # atno 17343 bound_to 10162
  156.4502  130.7903  151.2924 LP  0  0  0  0  0  0  0  0  0  0  0  0  # atno 17370 bound_to 10713
  157.7496  131.0098  150.3280 LP  0  0  0  0  0  0  0  0  0  0  0  0  # atno 17371 bound_to 10713
  141.1453  133.9067  157.2231 LP  0  0  0  0  0  0  0  0  0  0  0  0  # atno 17394 bound_to 11000
  139.9733  135.0122  156.9567 LP  0  0  0  0  0  0  0  0  0  0  0  0  # atno 17395 bound_to 11000

$$$$
