AV-unprocessed.smi:1099|AV-procd|sdf|4756|dock10
  -GOLD-   22720 3293D 1   1.00000     0.00000
 Structure written by MMmdl.
 41 43  0  0  0  0  0  0  0  0  1 V2000
  145.9211  143.3378  153.7931 C   0  0  0  0  0  0  0  0  0  0  0  0
  147.1505  142.7179  154.4652 C   0  0  0  0  0  0  0  0  0  0  0  0
  147.4069  141.3191  154.0129 C   0  0  0  0  0  0  0  0  0  0  0  0
  146.7268  140.7267  153.0277 N   0  0  0  0  0  0  0  0  0  0  0  0
  147.1736  139.4265  152.7709 C   0  0  0  0  0  0  0  0  0  0  0  0
  146.5116  138.6033  151.7084 C   0  0  0  0  0  0  0  0  0  0  0  0
  145.7798  137.3836  152.2929 C   0  0  0  0  0  0  0  0  0  0  0  0
  146.1874  136.1454  151.6393 N   0  0  0  0  0  0  0  0  0  0  0  0
  145.3484  135.2388  151.1152 C   0  0  0  0  0  0  0  0  0  0  0  0
  144.1233  135.3613  151.1500 O   0  0  0  0  0  0  0  0  0  0  0  0
  146.0039  133.9999  150.4797 C   0  0  1  0  0  0  0  0  0  0  0  0
  146.6952  133.0454  151.4849 C   0  0  0  0  0  0  0  0  0  0  0  0
  146.0611  131.6803  151.1573 C   0  0  1  0  0  0  0  0  0  0  0  0
  144.6072  131.6524  151.6648 C   0  0  0  0  0  0  0  0  0  0  0  0
  143.8765  132.5501  150.6495 C   0  0  0  0  0  0  0  0  0  0  0  0
  145.0262  133.0450  149.7441 C   0  0  2  0  0  0  0  0  0  0  0  0
  145.8705  131.7775  149.6480 C   0  0  0  0  0  0  0  0  0  0  0  0
  148.2200  139.0452  153.5732 C   0  0  0  0  0  0  0  0  0  0  0  0
  148.6840  140.3080  154.6798 S   0  0  0  0  0  0  0  0  0  0  0  0
  145.7628  144.3593  154.1393 H   0  0  0  0  0  0  0  0  0  0  0  0
  145.0201  142.7660  154.0168 H   0  0  0  0  0  0  0  0  0  0  0  0
  146.0389  143.3677  152.7095 H   0  0  0  0  0  0  0  0  0  0  0  0
  148.0339  143.3207  154.2524 H   0  0  0  0  0  0  0  0  0  0  0  0
  147.0237  142.7213  155.5484 H   0  0  0  0  0  0  0  0  0  0  0  0
  145.8053  139.2185  151.1493 H   0  0  0  0  0  0  0  0  0  0  0  0
  147.2562  138.2728  150.9832 H   0  0  0  0  0  0  0  0  0  0  0  0
  145.9536  137.3129  153.3679 H   0  0  0  0  0  0  0  0  0  0  0  0
  144.7033  137.4963  152.1601 H   0  0  0  0  0  0  0  0  0  0  0  0
  147.1794  135.9676  151.5757 H   0  0  0  0  0  0  0  0  0  0  0  0
  146.7556  134.3424  149.7658 H   0  0  0  0  0  0  0  0  0  0  0  0
  147.7698  133.0202  151.2991 H   0  0  0  0  0  0  0  0  0  0  0  0
  146.5575  133.3156  152.5328 H   0  0  0  0  0  0  0  0  0  0  0  0
  146.6571  130.8315  151.4941 H   0  0  0  0  0  0  0  0  0  0  0  0
  144.2028  130.6398  151.6424 H   0  0  0  0  0  0  0  0  0  0  0  0
  144.5210  132.0258  152.6859 H   0  0  0  0  0  0  0  0  0  0  0  0
  143.1690  131.9575  150.0676 H   0  0  0  0  0  0  0  0  0  0  0  0
  143.3058  133.3495  151.1204 H   0  0  0  0  0  0  0  0  0  0  0  0
  144.6878  133.4296  148.7814 H   0  0  0  0  0  0  0  0  0  0  0  0
  146.8045  131.9171  149.1006 H   0  0  0  0  0  0  0  0  0  0  0  0
  145.3330  130.9275  149.2237 H   0  0  0  0  0  0  0  0  0  0  0  0
  148.7449  138.1012  153.5788 H   0  0  0  0  0  0  0  0  0  0  0  0
  1  2  1  0  0  0  0
  1 20  1  0  0  0  0
  1 21  1  0  0  0  0
  1 22  1  0  0  0  0
  2  3  1  0  0  0  0
  2 23  1  0  0  0  0
  2 24  1  0  0  0  0
  3 19  1  0  0  0  0
  3  4  2  0  0  0  0
  4  5  1  0  0  0  0
  5  6  1  0  0  0  0
  5 18  2  0  0  0  0
  6  7  1  0  0  0  0
  6 25  1  0  0  0  0
  6 26  1  0  0  0  0
  7  8  1  0  0  0  0
  7 27  1  0  0  0  0
  7 28  1  0  0  0  0
  8  9  1  0  0  0  0
  8 29  1  0  0  0  0
  9 10  2  0  0  0  0
  9 11  1  0  0  0  0
 11 16  1  0  0  0  0
 11 12  1  0  0  0  0
 11 30  1  0  0  0  0
 12 13  1  0  0  0  0
 12 31  1  0  0  0  0
 12 32  1  0  0  0  0
 13 17  1  0  0  0  0
 13 14  1  0  0  0  0
 13 33  1  0  0  0  0
 14 15  1  0  0  0  0
 14 34  1  0  0  0  0
 14 35  1  0  0  0  0
 15 16  1  0  0  0  0
 15 36  1  0  0  0  0
 15 37  1  0  0  0  0
 16 17  1  0  0  0  0
 16 38  1  0  0  0  0
 17 39  1  0  0  0  0
 17 40  1  0  0  0  0
 18 19  1  0  0  0  0
 18 41  1  0  0  0  0
M  END
> <s_m_source_file>
AV-unprocessed.smi

> <i_m_source_file_index>
1099

> <i_lp_mmshare_version>
43012

> <i_f3d_flags>
0

> <s_epik_input>
W0NIM11bQ0gyXWMxbmMoW2NIXXMxKVtDSDJdW0NIMl1bTkhdQyg9TylbQ0BIXShbQ0gyXVtDQEBIXTIzKVtDQEBIXShbQ0gyXTMpW0NIMl1bQ0gyXTI=

> <s_epik_cmdline>
J2VwaWtfcHl0aG9uJywgJy1waCcsICc3LjAnLCAnLXRuJywgJzgnLCAnLW1hJywgJzIwMCcsICctbWV0YWxfYmluZGluZycsICctaW1hZScsICc8aW5maWxlLm1hZT4nLCAnLW9tYWUnLCAnPG91dGZpbGUubWFlPic=

> <r_epik_Ionization_Penalty>
0.00110131

> <r_epik_Ionization_Penalty_Charging>
0

> <r_epik_Ionization_Penalty_Neutral>
0.00110131

> <r_epik_State_Penalty>
0.00072257

> <r_epik_Charging_Adjusted_Penalty>
0.00072257

> <i_epik_Tot_Q>
0

> <i_epik_Tot_abs_Q>
0

> <r_epik_Metal_State_Penalty>
-0

> <b_epik_Metal_Only>
0

> <s_lp_Force_Field>
OPLS_2005

> <r_lp_Energy>
38.0082

> <b_lp_Chiralities_Consistent>
1

> <s_lp_Variant>
AV-unprocessed.smi:1099-2

> <Gold.Version>
5.8.1

> <Gold.Id.Protein>
6NUR|6NUR_protein|mol2

> <Gold.PLP.Fitness>
42.8924

> <Gold.PLP.PLP>
-38.0639

> <Gold.PLP.part.hbond>
-1.0000

> <Gold.PLP.part.metal>
0.0000

> <Gold.PLP.part.buried>
4.5721

> <Gold.PLP.part.nonpolar>
-41.6277

> <Gold.PLP.part.repulsive>
0.8109

> <Gold.PLP.ligand.clash>
0.0000

> <Gold.PLP.ligand.torsion>
0.5863

> <Gold.PLP.Chemscore.Hbond>
1.0000

> <Gold.PLP.Chemscore.CHOScore>
0.9931

> <Gold.PLP.Chemscore.Metal>
0.0000

> <Gold.Chemscore.Hbonds>
donor molecule, donor type, donor heavy atom, donor atom, acceptor molecule, acceptor atom, score
      L1  H     8    29       P1  7948  1.00
      L1  C    18    41       P1  7948  1.00

> <Gold.PLP.Chemscore.Internal.Correction>
0.0217

> <Gold.Rescore>
     Score         DG    S(hbond)    S(metal)    S(lipo)     H(rot)  DE(clash)    DE(int)     intcor
     14.46     -18.58       1.00        0.00     114.51       1.42       2.22       1.90       ----

> <Gold.Chemscore.Fitness>
14.4577

> <Gold.Chemscore.DG>
-18.5812

> <Gold.Chemscore.ZeroCoef>
-5.4800

> <Gold.Chemscore.Hbond>
0.9968

> <Gold.Chemscore.Metal>
0.0000

> <Gold.Chemscore.Lipo>
114.5130

> <Gold.Chemscore.Internal_Hbond>
0.0000

> <Gold.Chemscore.DEClash>
2.2190

> <Gold.Chemscore.DEInternal>
1.9045

> <Gold.Chemscore.Rot>
1.4165

> <Gold.Chemscore.Internal.Correction>
   9.000000E+99

> <Gold.Chemscore.Hbonds>
donor molecule, donor type, donor heavy atom, donor atom, acceptor molecule, acceptor atom, score
      L1  H     8    29       P1  7948  0.99

> <Gold.Chemscore.Hbond.Weighted>
-3.3294

> <Gold.Chemscore.Metal.Weighted>
-0.0000

> <Gold.Chemscore.Lipo.Weighted>
-13.3980

> <Gold.Chemscore.Internal_Hbond.Weighted>
0.0000

> <Gold.Chemscore.DEClash.Weighted>
2.2190

> <Gold.Chemscore.DEInternal.Weighted>
1.9045

> <Gold.Chemscore.Rot.Weighted>
3.6262

> <Gold.Chemscore.Internal.Correction.Weighted>
   9.000000E+99

> <Gold.Protein.RotatedTorsions>
[ 6907 6896 6895 6894 ] final -110.23 input  -60.11 | X-H torsion
[ 7974 7965 7964 7962 ] final  -69.47 input  175.53 | X-H torsion
[ 8008 7997 7996 7995 ] final  -10.92 input   59.86 | X-H torsion
[ 10167 10162 10161 10158 ] final -165.81 input  -65.29 | X-H torsion
[ 10718 10713 10712 10709 ] final  138.27 input   66.30 | X-H torsion
[ 10763 10752 10751 10750 ] final  -68.88 input  -60.55 | X-H torsion
[ 11005 11000 10999 10996 ] final  -15.45 input  -57.11 | X-H torsion

> <Gold.Protein.ActiveResidues>
 VAL166  LYS551  ARG553  GLY616  TRP617  ASP618  TYR619  PRO620  LYS621  CYS622 
 ASP623  PHE694  ASN695  SER759  ASP760  ASP761  ALA762  ILE779  LEU786  VAL792 
 PHE793  MET794  SER795  GLU796  ALA797  LYS798  CYS799  TRP800  GLU811  SER814 

> <Gold.Protein.RotatedAtoms>
  150.7611  133.9413  159.3456 H   0  0  0  0  0  0  0  0  0  0  0  0  # atno 6907 bound_to 6896
  151.7321  135.0870  160.0311 H   0  0  0  0  0  0  0  0  0  0  0  0  # atno 6908 bound_to 6896
  152.3583  133.6227  159.6031 H   0  0  0  0  0  0  0  0  0  0  0  0  # atno 6909 bound_to 6896
  145.7033  140.9108  143.0719 H   0  0  0  0  0  0  0  0  0  0  0  0  # atno 7974 bound_to 7965
  154.5511  140.2316  155.8483 H   0  0  0  0  0  0  0  0  0  0  0  0  # atno 8008 bound_to 7997
  156.1948  140.3068  155.9365 H   0  0  0  0  0  0  0  0  0  0  0  0  # atno 8009 bound_to 7997
  155.3068  140.0434  157.3023 H   0  0  0  0  0  0  0  0  0  0  0  0  # atno 8010 bound_to 7997
  139.6157  144.0725  152.1885 H   0  0  0  0  0  0  0  0  0  0  0  0  # atno 10167 bound_to 10162
  157.4271  131.1044  151.0291 H   0  0  0  0  0  0  0  0  0  0  0  0  # atno 10718 bound_to 10713
  154.3954  135.6043  153.5866 H   0  0  0  0  0  0  0  0  0  0  0  0  # atno 10763 bound_to 10752
  152.9787  135.5893  154.4248 H   0  0  0  0  0  0  0  0  0  0  0  0  # atno 10764 bound_to 10752
  154.4039  135.2843  155.2058 H   0  0  0  0  0  0  0  0  0  0  0  0  # atno 10765 bound_to 10752
  140.7967  133.8245  155.9431 H   0  0  0  0  0  0  0  0  0  0  0  0  # atno 11005 bound_to 11000
  144.6962  139.8977  143.7457 LP  0  0  0  0  0  0  0  0  0  0  0  0  # atno 17320 bound_to 7965
  146.0778  139.3766  143.0483 LP  0  0  0  0  0  0  0  0  0  0  0  0  # atno 17321 bound_to 7965
  140.0355  144.6048  150.7453 LP  0  0  0  0  0  0  0  0  0  0  0  0  # atno 17342 bound_to 10162
  140.7349  143.2734  151.3816 LP  0  0  0  0  0  0  0  0  0  0  0  0  # atno 17343 bound_to 10162
  157.1200  130.6058  149.5503 LP  0  0  0  0  0  0  0  0  0  0  0  0  # atno 17370 bound_to 10713
  155.9900  130.4950  150.7239 LP  0  0  0  0  0  0  0  0  0  0  0  0  # atno 17371 bound_to 10713
  140.9335  134.1991  157.4847 LP  0  0  0  0  0  0  0  0  0  0  0  0  # atno 17394 bound_to 11000
  139.8725  134.9843  156.5232 LP  0  0  0  0  0  0  0  0  0  0  0  0  # atno 17395 bound_to 11000

$$$$
