#       Name:                AV-unprocessed.smi:2061
#       Creating user name   scv26
#       Creation time:       Fri Mar 27 11:05:16 2020


#       File generated by GOLD software.
#

@<TRIPOS>MOLECULE
AV-unprocessed.smi:2061
    53    54     1
SMALL
NO_CHARGES


@<TRIPOS>ATOM
      1 ****        -2.4046   6.6185   2.9299 C.3            1 S1                 0.0000
      2 ****        -2.7620   5.4283   2.1069 C.2            1 S1                 0.0000
      3 ****        -2.1007   4.7470   1.1248 C.2            1 S1                 0.0000
      4 ****        -3.0143   3.7161   0.7727 C.2            1 S1                 0.0000
      5 ****        -2.8239   2.7821  -0.1718 N.pl3          1 S1                -1.0000
      6 ****        -2.1364   1.6526   0.1151 C.2            1 S1                 0.0000
      7 ****        -1.6346   1.3580   1.2025 O.2            1 S1                 0.0000
      8 ****        -2.0181   0.8142  -0.9247 N.am           1 S1                 0.0000
      9 ****        -1.3141  -0.4664  -0.9171 C.3            1 S1                 0.0000
     10 ****         0.2367  -0.3238  -0.9406 C.3            1 S1                 0.0000
     11 ****         0.6392   0.5446  -2.1603 C.3            1 S1                 0.0000
     12 ****         0.9489  -1.6235  -0.9047 N.3            1 S1                 0.0000
     13 ****         2.4077  -1.4624  -0.9109 C.3            1 S1                 0.0000
     14 ****         3.1797  -2.7955  -0.8467 C.3            1 S1                 0.0000
     15 ****         3.1487  -3.5828  -2.1679 C.3            1 S1                 0.0000
     16 ****         2.7254  -3.5817   0.2524 O.3            1 S1                 0.0000
     17 ****         1.3182  -3.7919   0.2916 C.3            1 S1                 0.0000
     18 ****         0.9935  -4.5918   1.5577 C.3            1 S1                 0.0000
     19 ****         0.5920  -2.4350   0.2628 C.3            1 S1                 0.0000
     20 ****        -4.1379   3.7774   1.4676 N.2            1 S1                 0.0000
     21 ****        -3.9814   4.8687   2.3304 O.3            1 S1                 0.0000
     22 ****        -2.4418   7.5268   2.3286 H              1 S1                 0.0000
     23 ****        -1.3968   6.5199   3.3332 H              1 S1                 0.0000
     24 ****        -3.0926   6.7387   3.7672 H              1 S1                 0.0000
     25 ****        -1.1193   4.9499   0.7234 H              1 S1                 0.0000
     26 ****        -2.4455   1.0939  -1.7953 H              1 S1                 0.0000
     27 ****        -1.6650  -1.0059  -0.0386 H              1 S1                 0.0000
     28 ****        -1.6467  -1.0395  -1.7828 H              1 S1                 0.0000
     29 ****         0.5208   0.2346  -0.0474 H              1 S1                 0.0000
     30 ****         0.0753   1.4751  -2.2138 H              1 S1                 0.0000
     31 ****         0.4760   0.0092  -3.0960 H              1 S1                 0.0000
     32 ****         1.6832   0.8519  -2.1238 H              1 S1                 0.0000
     33 ****         2.7378  -0.9413  -1.8076 H              1 S1                 0.0000
     34 ****         2.7046  -0.8421  -0.0637 H              1 S1                 0.0000
     35 ****         4.2254  -2.5647  -0.6417 H              1 S1                 0.0000
     36 ****         3.6172  -3.0114  -2.9696 H              1 S1                 0.0000
     37 ****         2.1318  -3.8126  -2.4852 H              1 S1                 0.0000
     38 ****         3.6910  -4.5237  -2.0725 H              1 S1                 0.0000
     39 ****         1.0148  -4.3840  -0.5722 H              1 S1                 0.0000
     40 ****        -0.0762  -4.7888   1.6337 H              1 S1                 0.0000
     41 ****         1.2995  -4.0523   2.4545 H              1 S1                 0.0000
     42 ****         1.5085  -5.5527   1.5545 H              1 S1                 0.0000
     43 ****         0.8076  -1.8805   1.1777 H              1 S1                 0.0000
     44 ****        -0.4733  -2.6537   0.2687 H              1 S1                 0.0000
     45 ****        -3.1915   2.9214  -1.0913 LP             1 S1                 0.0000
     46 ****        -1.7181   1.9841   1.9777 LP             1 S1                 0.0000
     47 ****        -1.1441   0.4930   1.3089 LP             1 S1                 0.0000
     48 ****         0.6560  -2.0930  -1.7376 LP             1 S1                 0.0000
     49 ****         2.9952  -3.1207   1.0978 LP             1 S1                 0.0000
     50 ****         3.1726  -4.4748   0.2024 LP             1 S1                 0.0000
     51 ****        -4.9308   3.1727   1.3926 LP             1 S1                 0.0000
     52 ****        -4.6986   5.5429   2.1542 LP             1 S1                 0.0000
     53 ****        -4.0409   4.5590   3.2793 LP             1 S1                 0.0000
@<TRIPOS>BOND
    1    1    2 1     
    2    1   22 1     
    3    1   23 1     
    4    1   24 1     
    5    2   21 1     
    6    2    3 2     
    7    3    4 1     
    8    3   25 1     
    9    4    5 1     
   10    4   20 2     
   11    5    6 1     
   12    6    7 2     
   13    6    8 am    
   14    8    9 1     
   15    8   26 1     
   16    9   10 1     
   17    9   27 1     
   18    9   28 1     
   19   10   11 1     
   20   10   12 1     
   21   10   29 1     
   22   11   30 1     
   23   11   31 1     
   24   11   32 1     
   25   12   19 1     
   26   12   13 1     
   27   13   14 1     
   28   13   33 1     
   29   13   34 1     
   30   14   15 1     
   31   14   16 1     
   32   14   35 1     
   33   15   36 1     
   34   15   37 1     
   35   15   38 1     
   36   16   17 1     
   37   17   18 1     
   38   17   19 1     
   39   17   39 1     
   40   18   40 1     
   41   18   41 1     
   42   18   42 1     
   43   19   43 1     
   44   19   44 1     
   45   20   21 1     
   46    5   45 1     
   47    7   46 1     
   48    7   47 1     
   49   12   48 1     
   50   16   49 1     
   51   16   50 1     
   52   20   51 1     
   53   21   52 1     
   54   21   53 1     
@<TRIPOS>SUBSTRUCTURE
      1 S1             1
@<TRIPOS>SET
LONE_PAIRS      STATIC     ATOMS    <user>   **** ""
9 45 46 47 48 49 50 51 52 53
DONOR_HYDROGENS      STATIC     ATOMS    <user>   **** ""
1 26
ATOM$BLUE        STATIC     ATOMS    COLORGROUP SYSTEM
9 45 46 47 48 49 50 51 52 53
ATOM$RED        STATIC     ATOMS    COLORGROUP SYSTEM
1 26
