AV-unprocessed.smi:1673|AV-procd|sdf|6712|dock9
  -GOLD-   22720 7453D 1   1.00000     0.00000
 Structure written by MMmdl.
 39 40  0  0  0  0  0  0  0  0  1 V2000
  149.0885  132.0058  156.3542 C   0  0  0  0  0  0  0  0  0  0  0  0
  149.6342  133.4062  156.3984 C   0  0  0  0  0  0  0  0  0  0  0  0
  150.4373  133.7527  157.3935 N   0  0  0  0  0  0  0  0  0  0  0  0
  150.8455  135.0719  157.1422 O   0  0  0  0  0  0  0  0  0  0  0  0
  150.2710  135.4974  155.9870 C   0  0  0  0  0  0  0  0  0  0  0  0
  150.6009  136.8797  155.5349 C   0  0  0  0  0  0  0  0  0  0  0  0
  149.4788  134.5010  155.4979 C   0  0  0  0  0  0  0  0  0  0  0  0
  148.7406  134.5760  154.2903 N   0  0  0  0  0  0  0  0  0  0  0  0
  147.6351  133.8821  153.9806 C   0  0  0  0  0  0  0  0  0  0  0  0
  147.0662  133.0949  154.7365 O   0  0  0  0  0  0  0  0  0  0  0  0
  147.2118  134.1673  152.7407 N   0  0  0  0  0  0  0  0  0  0  0  0
  146.0330  133.6004  152.0864 C   0  0  1  0  0  0  0  0  0  0  0  0
  145.6125  134.5323  150.9329 C   0  0  0  0  0  0  0  0  0  0  0  0
  144.4108  133.9727  150.1583 C   0  0  0  0  0  0  0  0  0  0  0  0
  144.7034  132.5593  149.6379 C   0  0  0  0  0  0  0  0  0  0  0  0
  145.1067  131.6222  150.7863 C   0  0  0  0  0  0  0  0  0  0  0  0
  146.3170  132.1640  151.5741 C   0  0  2  0  0  0  0  0  0  0  0  0
  146.7014  131.1905  152.7030 C   0  0  0  0  0  0  0  0  0  0  0  0
  148.9749  131.6586  155.3272 H   0  0  0  0  0  0  0  0  0  0  0  0
  148.1140  131.9498  156.8392 H   0  0  0  0  0  0  0  0  0  0  0  0
  149.7506  131.3035  156.8617 H   0  0  0  0  0  0  0  0  0  0  0  0
  150.1748  137.0842  154.5527 H   0  0  0  0  0  0  0  0  0  0  0  0
  151.6803  137.0168  155.4691 H   0  0  0  0  0  0  0  0  0  0  0  0
  150.2076  137.6179  156.2338 H   0  0  0  0  0  0  0  0  0  0  0  0
  149.0342  135.2841  153.6335 H   0  0  0  0  0  0  0  0  0  0  0  0
  147.7482  134.8310  152.2016 H   0  0  0  0  0  0  0  0  0  0  0  0
  145.2007  133.5543  152.7916 H   0  0  0  0  0  0  0  0  0  0  0  0
  145.3659  135.5206  151.3232 H   0  0  0  0  0  0  0  0  0  0  0  0
  146.4488  134.6722  150.2462 H   0  0  0  0  0  0  0  0  0  0  0  0
  143.5340  133.9512  150.8070 H   0  0  0  0  0  0  0  0  0  0  0  0
  144.1644  134.6323  149.3258 H   0  0  0  0  0  0  0  0  0  0  0  0
  143.8266  132.1633  149.1247 H   0  0  0  0  0  0  0  0  0  0  0  0
  145.5038  132.5988  148.8980 H   0  0  0  0  0  0  0  0  0  0  0  0
  144.2588  131.4906  151.4603 H   0  0  0  0  0  0  0  0  0  0  0  0
  145.3350  130.6345  150.3841 H   0  0  0  0  0  0  0  0  0  0  0  0
  147.1618  132.2123  150.8849 H   0  0  0  0  0  0  0  0  0  0  0  0
  145.9149  131.1290  153.4558 H   0  0  0  0  0  0  0  0  0  0  0  0
  147.6196  131.4961  153.2046 H   0  0  0  0  0  0  0  0  0  0  0  0
  146.8682  130.1859  152.3137 H   0  0  0  0  0  0  0  0  0  0  0  0
  1  2  1  0  0  0  0
  1 19  1  0  0  0  0
  1 20  1  0  0  0  0
  1 21  1  0  0  0  0
  2  7  1  0  0  0  0
  2  3  2  0  0  0  0
  3  4  1  0  0  0  0
  4  5  1  0  0  0  0
  5  6  1  0  0  0  0
  5  7  2  0  0  0  0
  6 22  1  0  0  0  0
  6 23  1  0  0  0  0
  6 24  1  0  0  0  0
  7  8  1  0  0  0  0
  8  9  1  0  0  0  0
  8 25  1  0  0  0  0
  9 10  2  0  0  0  0
  9 11  1  0  0  0  0
 11 12  1  0  0  0  0
 11 26  1  0  0  0  0
 12 17  1  0  0  0  0
 12 13  1  0  0  0  0
 12 27  1  0  0  0  0
 13 14  1  0  0  0  0
 13 28  1  0  0  0  0
 13 29  1  0  0  0  0
 14 15  1  0  0  0  0
 14 30  1  0  0  0  0
 14 31  1  0  0  0  0
 15 16  1  0  0  0  0
 15 32  1  0  0  0  0
 15 33  1  0  0  0  0
 16 17  1  0  0  0  0
 16 34  1  0  0  0  0
 16 35  1  0  0  0  0
 17 18  1  0  0  0  0
 17 36  1  0  0  0  0
 18 37  1  0  0  0  0
 18 38  1  0  0  0  0
 18 39  1  0  0  0  0
M  END
> <s_m_source_file>
AV-unprocessed.smi

> <i_m_source_file_index>
1673

> <i_lp_mmshare_version>
43012

> <i_f3d_flags>
0

> <s_epik_input>
W0NIM11jMW5vYyhbQ0gzXSljMVtOSF1DKD1PKVtOSF1bQ0BASF0yW0NIMl1bQ0gyXVtDSDJdW0NIMl1bQ0BIXTJbQ0gzXQ==

> <s_epik_cmdline>
J2VwaWtfcHl0aG9uJywgJy1waCcsICc3LjAnLCAnLXRuJywgJzgnLCAnLW1hJywgJzIwMCcsICctbWV0YWxfYmluZGluZycsICctaW1hZScsICc8aW5maWxlLm1hZT4nLCAnLW9tYWUnLCAnPG91dGZpbGUubWFlPic=

> <r_lp_tautomer_probability>
1

> <r_epik_Ionization_Penalty>
4.01865e-05

> <r_epik_Ionization_Penalty_Charging>
0

> <r_epik_Ionization_Penalty_Neutral>
4.01865e-05

> <r_epik_State_Penalty>
-0

> <r_epik_Charging_Adjusted_Penalty>
0

> <i_epik_Tot_Q>
0

> <i_epik_Tot_abs_Q>
0

> <r_epik_Metal_State_Penalty>
-0

> <b_epik_Metal_Only>
0

> <s_lp_Force_Field>
OPLS_2005

> <r_lp_Energy>
12.0286

> <b_lp_Chiralities_Consistent>
1

> <s_lp_Variant>
AV-unprocessed.smi:1673-4

> <Gold.Version>
5.8.1

> <Gold.Id.Protein>
6NUR|6NUR_protein|mol2

> <Gold.PLP.Fitness>
37.4589

> <Gold.PLP.PLP>
-29.8277

> <Gold.PLP.part.hbond>
-3.6954

> <Gold.PLP.part.metal>
0.0000

> <Gold.PLP.part.buried>
-4.1424

> <Gold.PLP.part.nonpolar>
-22.1253

> <Gold.PLP.part.repulsive>
0.0373

> <Gold.PLP.ligand.clash>
0.0000

> <Gold.PLP.ligand.torsion>
0.4208

> <Gold.PLP.Chemscore.Hbond>
2.7363

> <Gold.PLP.Chemscore.CHOScore>
0.0000

> <Gold.PLP.Chemscore.Metal>
0.0000

> <Gold.Chemscore.Hbonds>
donor molecule, donor type, donor heavy atom, donor atom, acceptor molecule, acceptor atom, score
      L1  H     8    25       P1  7948  1.00
      L1  H    11    26       P1  7948  1.00
      P1  H  6896  6909       L1     3  0.77

> <Gold.PLP.Chemscore.Internal.Correction>
0.2639

> <Gold.Rescore>
     Score         DG    S(hbond)    S(metal)    S(lipo)     H(rot)  DE(clash)    DE(int)     intcor
     16.32     -18.28       2.17        0.00      69.42       1.00       0.01       1.96       ----

> <Gold.Chemscore.Fitness>
16.3184

> <Gold.Chemscore.DG>
-18.2825

> <Gold.Chemscore.ZeroCoef>
-5.4800

> <Gold.Chemscore.Hbond>
2.1676

> <Gold.Chemscore.Metal>
0.0000

> <Gold.Chemscore.Lipo>
69.4242

> <Gold.Chemscore.Internal_Hbond>
0.0000

> <Gold.Chemscore.DEClash>
0.0088

> <Gold.Chemscore.DEInternal>
1.9553

> <Gold.Chemscore.Rot>
1.0000

> <Gold.Chemscore.Internal.Correction>
   9.000000E+99

> <Gold.Chemscore.Hbonds>
donor molecule, donor type, donor heavy atom, donor atom, acceptor molecule, acceptor atom, score
      L1  H     8    25       P1  7948  0.52
      L1  H    11    26       P1  7948  0.74
      P1  H  6896  6909       L1     3  0.20

> <Gold.Chemscore.Hbond.Weighted>
-7.2399

> <Gold.Chemscore.Metal.Weighted>
-0.0000

> <Gold.Chemscore.Lipo.Weighted>
-8.1226

> <Gold.Chemscore.Internal_Hbond.Weighted>
0.0000

> <Gold.Chemscore.DEClash.Weighted>
0.0088

> <Gold.Chemscore.DEInternal.Weighted>
1.9553

> <Gold.Chemscore.Rot.Weighted>
2.5600

> <Gold.Chemscore.Internal.Correction.Weighted>
   9.000000E+99

> <Gold.Protein.RotatedTorsions>
[ 6907 6896 6895 6894 ] final  -20.01 input  -60.11 | X-H torsion
[ 7974 7965 7964 7962 ] final  -64.31 input  175.53 | X-H torsion
[ 8008 7997 7996 7995 ] final   19.08 input   59.86 | X-H torsion
[ 10167 10162 10161 10158 ] final  -37.76 input  -65.29 | X-H torsion
[ 10718 10713 10712 10709 ] final  -68.55 input   66.30 | X-H torsion
[ 10763 10752 10751 10750 ] final -174.71 input  -60.55 | X-H torsion
[ 11005 11000 10999 10996 ] final  175.85 input  -57.11 | X-H torsion

> <Gold.Protein.ActiveResidues>
 VAL166  LYS551  ARG553  GLY616  TRP617  ASP618  TYR619  PRO620  LYS621  CYS622 
 ASP623  PHE694  ASN695  SER759  ASP760  ASP761  ALA762  ILE779  LEU786  VAL792 
 PHE793  MET794  SER795  GLU796  ALA797  LYS798  CYS799  TRP800  GLU811  SER814 

> <Gold.Protein.RotatedAtoms>
  151.2546  135.0633  159.9074 H   0  0  0  0  0  0  0  0  0  0  0  0  # atno 6907 bound_to 6896
  152.5375  134.0296  159.8029 H   0  0  0  0  0  0  0  0  0  0  0  0  # atno 6908 bound_to 6896
  151.0509  133.5575  159.2673 H   0  0  0  0  0  0  0  0  0  0  0  0  # atno 6909 bound_to 6896
  145.7682  140.8826  143.0394 H   0  0  0  0  0  0  0  0  0  0  0  0  # atno 7974 bound_to 7965
  154.9154  140.3020  155.5244 H   0  0  0  0  0  0  0  0  0  0  0  0  # atno 8008 bound_to 7997
  156.3013  140.2381  156.4134 H   0  0  0  0  0  0  0  0  0  0  0  0  # atno 8009 bound_to 7997
  154.8383  140.0415  157.1513 H   0  0  0  0  0  0  0  0  0  0  0  0  # atno 8010 bound_to 7997
  140.7110  143.3321  151.2546 H   0  0  0  0  0  0  0  0  0  0  0  0  # atno 10167 bound_to 10162
  156.0500  130.4297  150.2017 H   0  0  0  0  0  0  0  0  0  0  0  0  # atno 10718 bound_to 10713
  154.5930  135.2847  155.0616 H   0  0  0  0  0  0  0  0  0  0  0  0  # atno 10763 bound_to 10752
  154.1909  135.6441  153.5063 H   0  0  0  0  0  0  0  0  0  0  0  0  # atno 10764 bound_to 10752
  153.0128  135.5446  154.6622 H   0  0  0  0  0  0  0  0  0  0  0  0  # atno 10765 bound_to 10752
  140.3667  134.7066  157.4366 H   0  0  0  0  0  0  0  0  0  0  0  0  # atno 11005 bound_to 11000
  144.6817  139.9818  143.7483 LP  0  0  0  0  0  0  0  0  0  0  0  0  # atno 17320 bound_to 7965
  146.0196  139.3239  143.0821 LP  0  0  0  0  0  0  0  0  0  0  0  0  # atno 17321 bound_to 7965
  139.6806  143.9862  152.2806 LP  0  0  0  0  0  0  0  0  0  0  0  0  # atno 17342 bound_to 10162
  139.9490  144.6632  150.8190 LP  0  0  0  0  0  0  0  0  0  0  0  0  # atno 17343 bound_to 10162
  157.0102  130.9948  151.3368 LP  0  0  0  0  0  0  0  0  0  0  0  0  # atno 17370 bound_to 10713
  157.5415  130.8123  149.8035 LP  0  0  0  0  0  0  0  0  0  0  0  0  # atno 17371 bound_to 10713
  140.0584  134.6031  155.8778 LP  0  0  0  0  0  0  0  0  0  0  0  0  # atno 17394 bound_to 11000
  141.1967  133.6593  156.5706 LP  0  0  0  0  0  0  0  0  0  0  0  0  # atno 17395 bound_to 11000

$$$$
