AV-unprocessed.smi:910|AV-procd|sdf|4124|dock7
  -GOLD-   22720 2 23D 1   1.00000     0.00000
 Structure written by MMmdl.
 46 47  0  0  0  0  0  0  0  0  1 V2000
  148.1700  131.9659  161.8613 C   0  0  0  0  0  0  0  0  0  0  0  0
  148.1322  133.4734  161.9827 C   0  0  0  0  0  0  0  0  0  0  0  0
  148.6837  134.2919  161.0363 N   0  0  0  0  0  0  0  0  0  0  0  0
  148.4861  135.6126  161.4326 C   0  0  0  0  0  0  0  0  0  0  0  0
  148.8053  136.7527  160.9006 N   0  0  0  0  0  0  0  0  0  0  0  0
  149.5026  136.7863  159.7014 C   0  0  0  0  0  0  0  0  0  0  0  0
  149.9869  135.8424  159.0690 O   0  0  0  0  0  0  0  0  0  0  0  0
  149.5881  138.0479  159.2542 N   0  0  0  0  0  0  0  0  0  0  0  0
  150.2275  138.4683  158.0113 C   0  0  0  0  0  0  0  0  0  0  0  0
  151.5758  139.1565  158.2682 C   0  0  0  0  0  0  0  0  0  0  0  0
  151.3678  140.2619  159.1349 O   0  0  0  0  0  0  0  0  0  0  0  0
  151.8891  141.4946  158.6553 C   0  0  2  0  0  0  0  0  0  0  0  0
  152.8688  142.0780  159.6951 C   0  0  0  0  0  0  0  0  0  0  0  0
  153.3526  143.4786  159.2919 C   0  0  0  0  0  0  0  0  0  0  0  0
  152.1671  144.4265  159.0629 C   0  0  0  0  0  0  0  0  0  0  0  0
  151.1957  143.8526  158.0201 C   0  0  0  0  0  0  0  0  0  0  0  0
  150.6970  142.4476  158.4140 C   0  0  1  0  0  0  0  0  0  0  0  0
  149.7332  141.8947  157.3505 C   0  0  0  0  0  0  0  0  0  0  0  0
  147.8102  135.5562  162.6256 O   0  0  0  0  0  0  0  0  0  0  0  0
  147.6115  134.2441  162.9339 C   0  0  0  0  0  0  0  0  0  0  0  0
  146.8826  133.8993  164.2130 C   0  0  0  0  0  0  0  0  0  0  0  0
  147.1567  131.5649  161.8319 H   0  0  0  0  0  0  0  0  0  0  0  0
  148.6876  131.5315  162.7167 H   0  0  0  0  0  0  0  0  0  0  0  0
  148.6881  131.6584  160.9525 H   0  0  0  0  0  0  0  0  0  0  0  0
  149.1478  133.9527  160.2061 H   0  0  0  0  0  0  0  0  0  0  0  0
  149.1635  138.7740  159.8128 H   0  0  0  0  0  0  0  0  0  0  0  0
  150.3745  137.5879  157.3851 H   0  0  0  0  0  0  0  0  0  0  0  0
  149.5629  139.1341  157.4588 H   0  0  0  0  0  0  0  0  0  0  0  0
  152.2684  138.4465  158.7199 H   0  0  0  0  0  0  0  0  0  0  0  0
  152.0175  139.4860  157.3266 H   0  0  0  0  0  0  0  0  0  0  0  0
  152.4069  141.3461  157.7056 H   0  0  0  0  0  0  0  0  0  0  0  0
  152.3785  142.1309  160.6681 H   0  0  0  0  0  0  0  0  0  0  0  0
  153.7301  141.4223  159.8196 H   0  0  0  0  0  0  0  0  0  0  0  0
  154.0079  143.8820  160.0644 H   0  0  0  0  0  0  0  0  0  0  0  0
  153.9505  143.4118  158.3820 H   0  0  0  0  0  0  0  0  0  0  0  0
  151.6400  144.5888  160.0040 H   0  0  0  0  0  0  0  0  0  0  0  0
  152.5284  145.4025  158.7378 H   0  0  0  0  0  0  0  0  0  0  0  0
  150.3489  144.5291  157.9010 H   0  0  0  0  0  0  0  0  0  0  0  0
  151.6926  143.8084  157.0499 H   0  0  0  0  0  0  0  0  0  0  0  0
  150.1419  142.5394  159.3490 H   0  0  0  0  0  0  0  0  0  0  0  0
  150.2301  141.7789  156.3869 H   0  0  0  0  0  0  0  0  0  0  0  0
  148.8826  142.5617  157.2089 H   0  0  0  0  0  0  0  0  0  0  0  0
  149.3377  140.9200  157.6382 H   0  0  0  0  0  0  0  0  0  0  0  0
  147.3457  133.0385  164.6956 H   0  0  0  0  0  0  0  0  0  0  0  0
  145.8408  133.6593  164.0001 H   0  0  0  0  0  0  0  0  0  0  0  0
  146.9102  134.7396  164.9071 H   0  0  0  0  0  0  0  0  0  0  0  0
  1 22  1  0  0  0  0
  1 23  1  0  0  0  0
  1 24  1  0  0  0  0
  1  2  1  0  0  0  0
  2  3  1  0  0  0  0
  2 20  2  0  0  0  0
  3 25  1  0  0  0  0
  3  4  1  0  0  0  0
  4 19  1  0  0  0  0
  4  5  2  0  0  0  0
  5  6  1  0  0  0  0
  6  8  1  0  0  0  0
  6  7  2  0  0  0  0
  8  9  1  0  0  0  0
  8 26  1  0  0  0  0
  9 10  1  0  0  0  0
  9 27  1  0  0  0  0
  9 28  1  0  0  0  0
 10 11  1  0  0  0  0
 10 29  1  0  0  0  0
 10 30  1  0  0  0  0
 11 12  1  0  0  0  0
 12 17  1  0  0  0  0
 12 13  1  0  0  0  0
 12 31  1  0  0  0  0
 13 14  1  0  0  0  0
 13 32  1  0  0  0  0
 13 33  1  0  0  0  0
 14 15  1  0  0  0  0
 14 34  1  0  0  0  0
 14 35  1  0  0  0  0
 15 16  1  0  0  0  0
 15 36  1  0  0  0  0
 15 37  1  0  0  0  0
 16 17  1  0  0  0  0
 16 38  1  0  0  0  0
 16 39  1  0  0  0  0
 17 18  1  0  0  0  0
 17 40  1  0  0  0  0
 18 41  1  0  0  0  0
 18 42  1  0  0  0  0
 18 43  1  0  0  0  0
 19 20  1  0  0  0  0
 20 21  1  0  0  0  0
 21 44  1  0  0  0  0
 21 45  1  0  0  0  0
 21 46  1  0  0  0  0
M  END
> <s_m_source_file>
AV-unprocessed.smi

> <i_m_source_file_index>
910

> <i_lp_mmshare_version>
43012

> <i_f3d_flags>
0

> <s_epik_input>
W0NIM11jMW5jKG9jMVtDSDNdKVtOSF1DKD1PKVtOSF1bQ0gyXVtDSDJdT1tDQEBIXTJbQ0gyXVtDSDJdW0NIMl1bQ0gyXVtDQEhdMltDSDNd

> <s_epik_cmdline>
J2VwaWtfcHl0aG9uJywgJy1waCcsICc3LjAnLCAnLXRuJywgJzgnLCAnLW1hJywgJzIwMCcsICctbWV0YWxfYmluZGluZycsICctaW1hZScsICc8aW5maWxlLm1hZT4nLCAnLW9tYWUnLCAnPG91dGZpbGUubWFlPic=

> <r_lp_tautomer_probability>
0.107061

> <r_epik_Ionization_Penalty>
0.727192

> <r_epik_Ionization_Penalty_Charging>
0.726719

> <r_epik_Ionization_Penalty_Neutral>
0.000473387

> <r_epik_State_Penalty>
2.53712

> <r_epik_Charging_Adjusted_Penalty>
3.26383

> <i_epik_Tot_Q>
0

> <i_epik_Tot_abs_Q>
0

> <r_epik_Metal_State_Penalty>
3.71015

> <b_epik_Metal_Only>
0

> <s_lp_Force_Field>
OPLS_2005

> <r_lp_Energy>
31.238

> <b_lp_Chiralities_Consistent>
1

> <s_lp_Variant>
AV-unprocessed.smi:910-9

> <Gold.Version>
5.8.1

> <Gold.Id.Protein>
6NUR|6NUR_protein|mol2

> <Gold.PLP.Fitness>
45.0194

> <Gold.PLP.PLP>
-41.9923

> <Gold.PLP.part.hbond>
-3.0000

> <Gold.PLP.part.metal>
0.0000

> <Gold.PLP.part.buried>
-6.3043

> <Gold.PLP.part.nonpolar>
-34.2977

> <Gold.PLP.part.repulsive>
0.2956

> <Gold.PLP.ligand.clash>
0.0000

> <Gold.PLP.ligand.torsion>
1.2020

> <Gold.PLP.Chemscore.Hbond>
1.7995

> <Gold.PLP.Chemscore.CHOScore>
0.0000

> <Gold.PLP.Chemscore.Metal>
0.0000

> <Gold.Chemscore.Hbonds>
donor molecule, donor type, donor heavy atom, donor atom, acceptor molecule, acceptor atom, score
      P1  H  6896  6908       L1     7  0.86
      P1  H  6931  6943       L1     5  0.99

> <Gold.PLP.Chemscore.Internal.Correction>
0.0326

> <Gold.Rescore>
     Score         DG    S(hbond)    S(metal)    S(lipo)     H(rot)  DE(clash)    DE(int)     intcor
     17.04     -19.55       1.77        0.00     106.00       1.66       0.06       2.45       ----

> <Gold.Chemscore.Fitness>
17.0440

> <Gold.Chemscore.DG>
-19.5479

> <Gold.Chemscore.ZeroCoef>
-5.4800

> <Gold.Chemscore.Hbond>
1.7693

> <Gold.Chemscore.Metal>
0.0000

> <Gold.Chemscore.Lipo>
105.9996

> <Gold.Chemscore.Internal_Hbond>
0.0000

> <Gold.Chemscore.DEClash>
0.0550

> <Gold.Chemscore.DEInternal>
2.4489

> <Gold.Chemscore.Rot>
1.6576

> <Gold.Chemscore.Internal.Correction>
   9.000000E+99

> <Gold.Chemscore.Hbonds>
donor molecule, donor type, donor heavy atom, donor atom, acceptor molecule, acceptor atom, score
      P1  H  6896  6908       L1     7  0.83
      P1  H  6931  6943       L1     5  0.77

> <Gold.Chemscore.Hbond.Weighted>
-5.9095

> <Gold.Chemscore.Metal.Weighted>
-0.0000

> <Gold.Chemscore.Lipo.Weighted>
-12.4020

> <Gold.Chemscore.Internal_Hbond.Weighted>
0.0000

> <Gold.Chemscore.DEClash.Weighted>
0.0550

> <Gold.Chemscore.DEInternal.Weighted>
2.4489

> <Gold.Chemscore.Rot.Weighted>
4.2436

> <Gold.Chemscore.Internal.Correction.Weighted>
   9.000000E+99

> <Gold.Protein.RotatedTorsions>
[ 6907 6896 6895 6894 ] final  174.52 input  -60.11 | X-H torsion
[ 7974 7965 7964 7962 ] final   25.94 input  175.53 | X-H torsion
[ 8008 7997 7996 7995 ] final  -95.15 input   59.86 | X-H torsion
[ 10167 10162 10161 10158 ] final   -6.00 input  -65.29 | X-H torsion
[ 10718 10713 10712 10709 ] final -127.58 input   66.30 | X-H torsion
[ 10763 10752 10751 10750 ] final  -99.50 input  -60.55 | X-H torsion
[ 11005 11000 10999 10996 ] final  133.35 input  -57.11 | X-H torsion

> <Gold.Protein.ActiveResidues>
 VAL166  LYS551  ARG553  GLY616  TRP617  ASP618  TYR619  PRO620  LYS621  CYS622 
 ASP623  PHE694  ASN695  SER759  ASP760  ASP761  ALA762  ILE779  LEU786  VAL792 
 PHE793  MET794  SER795  GLU796  ALA797  LYS798  CYS799  TRP800  GLU811  SER814 

> <Gold.Protein.RotatedAtoms>
  151.7510  133.3327  159.3391 H   0  0  0  0  0  0  0  0  0  0  0  0  # atno 6907 bound_to 6896
  150.7535  134.6192  159.6136 H   0  0  0  0  0  0  0  0  0  0  0  0  # atno 6908 bound_to 6896
  152.3468  134.7062  160.0299 H   0  0  0  0  0  0  0  0  0  0  0  0  # atno 6909 bound_to 6896
  146.1863  139.7396  142.8864 H   0  0  0  0  0  0  0  0  0  0  0  0  # atno 7974 bound_to 7965
  154.7576  140.0483  157.0946 H   0  0  0  0  0  0  0  0  0  0  0  0  # atno 8008 bound_to 7997
  154.9978  140.3121  155.4860 H   0  0  0  0  0  0  0  0  0  0  0  0  # atno 8009 bound_to 7997
  156.2898  140.2207  156.5087 H   0  0  0  0  0  0  0  0  0  0  0  0  # atno 8010 bound_to 7997
  140.6982  143.6244  150.8582 H   0  0  0  0  0  0  0  0  0  0  0  0  # atno 10167 bound_to 10162
  156.1871  130.6770  151.0377 H   0  0  0  0  0  0  0  0  0  0  0  0  # atno 10718 bound_to 10713
  154.7503  135.4970  153.9277 H   0  0  0  0  0  0  0  0  0  0  0  0  # atno 10763 bound_to 10752
  153.1136  135.6715  153.9465 H   0  0  0  0  0  0  0  0  0  0  0  0  # atno 10764 bound_to 10752
  153.9217  135.3087  155.3426 H   0  0  0  0  0  0  0  0  0  0  0  0  # atno 10765 bound_to 10752
  139.9846  134.9536  156.9712 H   0  0  0  0  0  0  0  0  0  0  0  0  # atno 11005 bound_to 11000
  145.3928  141.0375  143.3114 LP  0  0  0  0  0  0  0  0  0  0  0  0  # atno 17320 bound_to 7965
  144.8403  139.5482  143.6903 LP  0  0  0  0  0  0  0  0  0  0  0  0  # atno 17321 bound_to 7965
  139.9963  143.5792  152.2892 LP  0  0  0  0  0  0  0  0  0  0  0  0  # atno 17342 bound_to 10162
  139.6465  144.7658  151.2233 LP  0  0  0  0  0  0  0  0  0  0  0  0  # atno 17343 bound_to 10162
  157.6905  131.0811  150.7120 LP  0  0  0  0  0  0  0  0  0  0  0  0  # atno 17370 bound_to 10713
  156.7177  130.4671  149.5531 LP  0  0  0  0  0  0  0  0  0  0  0  0  # atno 17371 bound_to 10713
  140.5028  134.1080  155.7254 LP  0  0  0  0  0  0  0  0  0  0  0  0  # atno 17394 bound_to 11000
  141.1513  133.8963  157.2090 LP  0  0  0  0  0  0  0  0  0  0  0  0  # atno 17395 bound_to 11000

$$$$
