AV-unprocessed.smi:7|AV-procd|sdf|44|dock6
  -GOLD-   2262015163D 1   1.00000     0.00000
 Structure written by MMmdl.
 45 48  0  0  0  0  0  0  0  0  1 V2000
  150.6166  138.8454  154.0578 O   0  0  0  0  0  0  0  0  0  0  0  0
  150.4932  139.7913  154.8367 C   0  0  0  0  0  0  0  0  0  0  0  0
  151.3012  139.9127  156.0724 C   0  0  0  0  0  0  0  0  0  0  0  0
  152.2722  139.0666  156.6066 N   0  0  0  0  0  0  0  0  0  0  0  0
  152.6319  139.6981  157.7235 C   0  0  0  0  0  0  0  0  0  0  0  0
  151.9747  140.8546  157.9309 N   0  0  0  0  0  0  0  0  0  0  0  0
  152.2528  141.6487  159.0677 C   0  0  0  0  0  0  0  0  0  0  0  0
  153.1748  141.2115  160.0455 C   0  0  0  0  0  0  0  0  0  0  0  0
  153.4399  142.0095  161.1758 C   0  0  0  0  0  0  0  0  0  0  0  0
  152.7852  143.2459  161.3355 C   0  0  0  0  0  0  0  0  0  0  0  0
  151.8638  143.6844  160.3651 C   0  0  0  0  0  0  0  0  0  0  0  0
  151.5973  142.8877  159.2344 C   0  0  0  0  0  0  0  0  0  0  0  0
  151.1049  141.0129  156.8614 C   0  0  0  0  0  0  0  0  0  0  0  0
  150.2343  142.0616  156.6706 N   0  0  0  0  0  0  0  0  0  0  0  0
  149.5300  141.9218  155.5776 C   0  0  0  0  0  0  0  0  0  0  0  0
  149.6151  140.8240  154.6679 N   0  0  0  0  0  0  0  0  0  0  0  0
  148.7116  140.8612  153.5085 C   0  0  0  0  0  0  0  0  0  0  0  0
  147.2877  140.3633  153.8669 C   0  0  1  0  0  0  0  0  0  0  0  0
  146.3607  141.2479  153.2652 O   0  0  0  0  0  0  0  0  0  0  0  0
  147.0039  138.9127  153.3889 C   0  0  0  0  0  0  0  0  0  0  0  0
  148.1030  138.1089  153.7851 O   0  0  0  0  0  0  0  0  0  0  0  0
  145.7452  138.2681  153.9925 C   0  0  0  0  0  0  0  0  0  0  0  0
  145.4184  137.0892  153.0694 C   0  0  0  0  0  0  0  0  0  0  0  0
  145.9850  137.4566  151.6893 C   0  0  0  0  0  0  0  0  0  0  0  0
  146.8016  138.7450  151.8727 C   0  0  0  0  0  0  0  0  0  0  0  0
  153.3897  139.3101  158.3889 H   0  0  0  0  0  0  0  0  0  0  0  0
  153.6781  140.2618  159.9375 H   0  0  0  0  0  0  0  0  0  0  0  0
  154.1447  141.6717  161.9213 H   0  0  0  0  0  0  0  0  0  0  0  0
  152.9887  143.8573  162.2026 H   0  0  0  0  0  0  0  0  0  0  0  0
  151.3612  144.6326  160.4875 H   0  0  0  0  0  0  0  0  0  0  0  0
  150.8916  143.2338  158.4936 H   0  0  0  0  0  0  0  0  0  0  0  0
  148.8012  142.6787  155.2822 H   0  0  0  0  0  0  0  0  0  0  0  0
  148.6753  141.8581  153.0640 H   0  0  0  0  0  0  0  0  0  0  0  0
  149.1413  140.2470  152.7154 H   0  0  0  0  0  0  0  0  0  0  0  0
  147.1316  140.4056  154.9463 H   0  0  0  0  0  0  0  0  0  0  0  0
  145.4970  140.8690  153.3315 H   0  0  0  0  0  0  0  0  0  0  0  0
  148.5877  137.8654  153.0114 H   0  0  0  0  0  0  0  0  0  0  0  0
  145.8761  137.9640  155.0320 H   0  0  0  0  0  0  0  0  0  0  0  0
  144.9072  138.9654  153.9669 H   0  0  0  0  0  0  0  0  0  0  0  0
  145.9096  136.1873  153.4369 H   0  0  0  0  0  0  0  0  0  0  0  0
  144.3479  136.8842  153.0349 H   0  0  0  0  0  0  0  0  0  0  0  0
  146.6162  136.6494  151.3162 H   0  0  0  0  0  0  0  0  0  0  0  0
  145.1879  137.6077  150.9605 H   0  0  0  0  0  0  0  0  0  0  0  0
  146.2225  139.5808  151.4783 H   0  0  0  0  0  0  0  0  0  0  0  0
  147.7411  138.7230  151.3189 H   0  0  0  0  0  0  0  0  0  0  0  0
  1  2  2  0  0  0  0
  2 16  1  0  0  0  0
  2  3  1  0  0  0  0
  3 13  2  0  0  0  0
  3  4  1  0  0  0  0
  4  5  2  0  0  0  0
  5  6  1  0  0  0  0
  5 26  1  0  0  0  0
  6  7  1  0  0  0  0
  6 13  1  0  0  0  0
  7 12  1  0  0  0  0
  7  8  2  0  0  0  0
  8  9  1  0  0  0  0
  8 27  1  0  0  0  0
  9 10  2  0  0  0  0
  9 28  1  0  0  0  0
 10 11  1  0  0  0  0
 10 29  1  0  0  0  0
 11 12  2  0  0  0  0
 11 30  1  0  0  0  0
 12 31  1  0  0  0  0
 13 14  1  0  0  0  0
 14 15  2  0  0  0  0
 15 16  1  0  0  0  0
 15 32  1  0  0  0  0
 16 17  1  0  0  0  0
 17 18  1  0  0  0  0
 17 33  1  0  0  0  0
 17 34  1  0  0  0  0
 18 19  1  0  0  0  0
 18 20  1  0  0  0  0
 18 35  1  0  0  0  0
 19 36  1  0  0  0  0
 20 25  1  0  0  0  0
 20 21  1  0  0  0  0
 20 22  1  0  0  0  0
 21 37  1  0  0  0  0
 22 23  1  0  0  0  0
 22 38  1  0  0  0  0
 22 39  1  0  0  0  0
 23 24  1  0  0  0  0
 23 40  1  0  0  0  0
 23 41  1  0  0  0  0
 24 25  1  0  0  0  0
 24 42  1  0  0  0  0
 24 43  1  0  0  0  0
 25 44  1  0  0  0  0
 25 45  1  0  0  0  0
M  END
> <s_m_source_file>
AV-unprocessed.smi

> <i_m_source_file_index>
7

> <i_lp_mmshare_version>
43012

> <i_f3d_flags>
0

> <s_epik_input>
W0NIMl0xW0NIMl1bQ0gyXVtDSDJdQzEoW09IXSlbQ0BASF0oW09IXSlbQ0gyXW4oYzI9TylbY0hdbmMoYzIzKW4oW2NIXW4zKS1jNFtjSF1bY0hdW2NIXVtjSF1bY0hdNA==

> <s_epik_cmdline>
J2VwaWtfcHl0aG9uJywgJy1waCcsICc3LjAnLCAnLXRuJywgJzgnLCAnLW1hJywgJzIwMCcsICctbWV0YWxfYmluZGluZycsICctaW1hZScsICc8aW5maWxlLm1hZT4nLCAnLW9tYWUnLCAnPG91dGZpbGUubWFlPic=

> <r_lp_tautomer_probability>
1

> <r_epik_Ionization_Penalty>
0.000116694

> <r_epik_Ionization_Penalty_Charging>
6.60428e-09

> <r_epik_Ionization_Penalty_Neutral>
0.000116688

> <r_epik_State_Penalty>
-0

> <r_epik_Charging_Adjusted_Penalty>
6.60428e-09

> <i_epik_Tot_Q>
0

> <i_epik_Tot_abs_Q>
0

> <r_epik_Metal_State_Penalty>
-0

> <b_epik_Metal_Only>
0

> <s_lp_Force_Field>
OPLS_2005

> <r_lp_Energy>
52.8935

> <b_lp_Chiralities_Consistent>
1

> <s_lp_Variant>
AV-unprocessed.smi:7-2

> <Gold.Version>
5.8.1

> <Gold.Id.Protein>
6NUR|6NUR_protein|mol2

> <Gold.PLP.Fitness>
51.2887

> <Gold.PLP.PLP>
-44.7889

> <Gold.PLP.part.hbond>
-2.0000

> <Gold.PLP.part.metal>
0.0000

> <Gold.PLP.part.buried>
4.5953

> <Gold.PLP.part.nonpolar>
-46.5526

> <Gold.PLP.part.repulsive>
0.3263

> <Gold.PLP.ligand.clash>
0.0000

> <Gold.PLP.ligand.torsion>
1.1580

> <Gold.PLP.Chemscore.Hbond>
1.9345

> <Gold.PLP.Chemscore.CHOScore>
1.0000

> <Gold.PLP.Chemscore.Metal>
0.0000

> <Gold.Chemscore.Hbonds>
donor molecule, donor type, donor heavy atom, donor atom, acceptor molecule, acceptor atom, score
      L1  H    19    36       P1 10175  0.97
      L1  H    21    37       P1  7948  0.82
      L1  C    15    32       P1  8028  0.96

> <Gold.PLP.Chemscore.Internal.Correction>
0.0123

> <Gold.Rescore>
     Score         DG    S(hbond)    S(metal)    S(lipo)     H(rot)  DE(clash)    DE(int)     intcor
     12.81     -17.36       1.77        0.00     111.97       2.79       2.38       2.17       ----

> <Gold.Chemscore.Fitness>
12.8129

> <Gold.Chemscore.DG>
-17.3621

> <Gold.Chemscore.ZeroCoef>
-5.4800

> <Gold.Chemscore.Hbond>
1.7706

> <Gold.Chemscore.Metal>
0.0000

> <Gold.Chemscore.Lipo>
111.9710

> <Gold.Chemscore.Internal_Hbond>
0.0000

> <Gold.Chemscore.DEClash>
2.3783

> <Gold.Chemscore.DEInternal>
2.1709

> <Gold.Chemscore.Rot>
2.7860

> <Gold.Chemscore.Internal.Correction>
   9.000000E+99

> <Gold.Chemscore.Hbonds>
donor molecule, donor type, donor heavy atom, donor atom, acceptor molecule, acceptor atom, score
      L1  H    19    36       P1 10175  0.60
      L1  H    21    37       P1  7948  0.78

> <Gold.Chemscore.Hbond.Weighted>
-5.9136

> <Gold.Chemscore.Metal.Weighted>
-0.0000

> <Gold.Chemscore.Lipo.Weighted>
-13.1006

> <Gold.Chemscore.Internal_Hbond.Weighted>
0.0000

> <Gold.Chemscore.DEClash.Weighted>
2.3783

> <Gold.Chemscore.DEInternal.Weighted>
2.1709

> <Gold.Chemscore.Rot.Weighted>
7.1322

> <Gold.Chemscore.Internal.Correction.Weighted>
   9.000000E+99

> <Gold.Protein.RotatedTorsions>
[ 6907 6896 6895 6894 ] final  -41.46 input  -60.11 | X-H torsion
[ 7974 7965 7964 7962 ] final   -9.08 input  175.53 | X-H torsion
[ 8008 7997 7996 7995 ] final -174.07 input   59.86 | X-H torsion
[ 10167 10162 10161 10158 ] final   69.12 input  -65.29 | X-H torsion
[ 10718 10713 10712 10709 ] final -172.75 input   66.30 | X-H torsion
[ 10763 10752 10751 10750 ] final  -53.78 input  -60.55 | X-H torsion
[ 11005 11000 10999 10996 ] final  -12.04 input  -57.11 | X-H torsion

> <Gold.Protein.ActiveResidues>
 VAL166  LYS551  ARG553  GLY616  TRP617  ASP618  TYR619  PRO620  LYS621  CYS622 
 ASP623  PHE694  ASN695  SER759  ASP760  ASP761  ALA762  ILE779  LEU786  VAL792 
 PHE793  MET794  SER795  GLU796  ALA797  LYS798  CYS799  TRP800  GLU811  SER814 

> <Gold.Protein.RotatedAtoms>
  150.9665  134.9044  159.7761 H   0  0  0  0  0  0  0  0  0  0  0  0  # atno 6907 bound_to 6896
  152.5175  134.3601  159.9291 H   0  0  0  0  0  0  0  0  0  0  0  0  # atno 6908 bound_to 6896
  151.3611  133.3848  159.2724 H   0  0  0  0  0  0  0  0  0  0  0  0  # atno 6909 bound_to 6896
  146.2262  140.2563  142.8349 H   0  0  0  0  0  0  0  0  0  0  0  0  # atno 7974 bound_to 7965
  155.9655  140.1153  157.0858 H   0  0  0  0  0  0  0  0  0  0  0  0  # atno 8008 bound_to 7997
  154.4143  140.1173  156.5303 H   0  0  0  0  0  0  0  0  0  0  0  0  # atno 8009 bound_to 7997
  155.6665  140.3473  155.4804 H   0  0  0  0  0  0  0  0  0  0  0  0  # atno 8010 bound_to 7997
  140.0712  144.5151  150.7226 H   0  0  0  0  0  0  0  0  0  0  0  0  # atno 10167 bound_to 10162
  156.7602  130.9411  151.3117 H   0  0  0  0  0  0  0  0  0  0  0  0  # atno 10718 bound_to 10713
  154.1643  135.6469  153.4993 H   0  0  0  0  0  0  0  0  0  0  0  0  # atno 10763 bound_to 10752
  153.0102  135.5368  154.6679 H   0  0  0  0  0  0  0  0  0  0  0  0  # atno 10764 bound_to 10752
  154.6001  135.2943  155.0517 H   0  0  0  0  0  0  0  0  0  0  0  0  # atno 10765 bound_to 10752
  140.7616  133.8511  155.9129 H   0  0  0  0  0  0  0  0  0  0  0  0  # atno 11005 bound_to 11000
  144.9373  140.8040  143.5652 LP  0  0  0  0  0  0  0  0  0  0  0  0  # atno 17320 bound_to 7965
  145.2512  139.2031  143.4941 LP  0  0  0  0  0  0  0  0  0  0  0  0  # atno 17321 bound_to 7965
  140.7124  143.2516  151.4539 LP  0  0  0  0  0  0  0  0  0  0  0  0  # atno 17342 bound_to 10162
  139.5835  144.1657  152.1998 LP  0  0  0  0  0  0  0  0  0  0  0  0  # atno 17343 bound_to 10162
  157.6738  130.9075  150.0102 LP  0  0  0  0  0  0  0  0  0  0  0  0  # atno 17370 bound_to 10713
  156.1344  130.3643  149.9681 LP  0  0  0  0  0  0  0  0  0  0  0  0  # atno 17371 bound_to 10713
  140.9658  134.1596  157.4617 LP  0  0  0  0  0  0  0  0  0  0  0  0  # atno 17394 bound_to 11000
  139.8770  134.9961  156.5778 LP  0  0  0  0  0  0  0  0  0  0  0  0  # atno 17395 bound_to 11000

$$$$
