AV-unprocessed.smi:2122|AV-procd|sdf|8646|dock1
  -GOLD-   2272011393D 1   1.00000     0.00000
 Structure written by MMmdl.
 41 41  0  0  0  0  0  0  0  0  1 V2000
  145.7649  142.8116  155.0515 C   0  0  0  0  0  0  0  0  0  0  0  0
  147.0058  142.2467  154.3516 C   0  0  0  0  0  0  0  0  0  0  0  0
  148.0351  141.6846  155.3410 C   0  0  0  0  0  0  0  0  0  0  0  0
  149.4283  141.5265  154.7086 C   0  0  0  0  0  0  0  0  0  0  0  0
  150.4266  141.0850  155.6618 N   0  0  0  0  0  0  0  0  0  0  0  0
  150.8587  141.8537  156.7463 C   0  0  0  0  0  0  0  0  0  0  0  0
  150.2958  143.1071  156.9315 N   0  0  0  0  0  0  0  0  0  0  0  0
  151.7913  141.3955  157.6305 C   0  0  0  0  0  0  0  0  0  0  0  0
  152.2381  142.1503  158.7138 N   0  0  0  0  0  0  0  0  0  0  0  0
  151.7077  143.4873  158.9399 C   0  0  0  0  0  0  0  0  0  0  0  0
  153.4290  141.8229  159.4980 C   0  0  0  0  0  0  0  0  0  0  0  0
  153.1529  141.6529  161.0014 C   0  0  0  0  0  0  0  0  0  0  0  0
  152.9442  142.9320  161.5752 O   0  0  0  0  0  0  0  0  0  0  0  0
  153.1023  142.9263  162.9832 C   0  0  0  0  0  0  0  0  0  0  0  0
  152.3846  140.0629  157.4600 C   0  0  0  0  0  0  0  0  0  0  0  0
  153.2475  139.5624  158.1805 O   0  0  0  0  0  0  0  0  0  0  0  0
  151.8961  139.3365  156.3768 N   0  0  0  0  0  0  0  0  0  0  0  0
  150.9350  139.7775  155.4740 C   0  0  0  0  0  0  0  0  0  0  0  0
  150.5699  139.0296  154.5662 O   0  0  0  0  0  0  0  0  0  0  0  0
  152.2694  138.4089  156.2375 H   0  0  0  0  0  0  0  0  0  0  0  0
  145.0542  143.2059  154.3250 H   0  0  0  0  0  0  0  0  0  0  0  0
  146.0310  143.6216  155.7307 H   0  0  0  0  0  0  0  0  0  0  0  0
  145.2554  142.0415  155.6315 H   0  0  0  0  0  0  0  0  0  0  0  0
  146.7007  141.4635  153.6565 H   0  0  0  0  0  0  0  0  0  0  0  0
  147.4675  143.0305  153.7503 H   0  0  0  0  0  0  0  0  0  0  0  0
  148.1020  142.3431  156.2080 H   0  0  0  0  0  0  0  0  0  0  0  0
  147.6876  140.7200  155.7130 H   0  0  0  0  0  0  0  0  0  0  0  0
  149.4243  140.8231  153.8740 H   0  0  0  0  0  0  0  0  0  0  0  0
  149.7834  142.4652  154.2846 H   0  0  0  0  0  0  0  0  0  0  0  0
  149.5901  143.4661  156.3045 H   0  0  0  0  0  0  0  0  0  0  0  0
  150.5664  143.7080  157.6965 H   0  0  0  0  0  0  0  0  0  0  0  0
  150.8763  143.7043  158.2678 H   0  0  0  0  0  0  0  0  0  0  0  0
  152.4806  144.2383  158.7721 H   0  0  0  0  0  0  0  0  0  0  0  0
  151.3458  143.5865  159.9635 H   0  0  0  0  0  0  0  0  0  0  0  0
  153.8739  140.9105  159.0989 H   0  0  0  0  0  0  0  0  0  0  0  0
  154.1697  142.6126  159.3637 H   0  0  0  0  0  0  0  0  0  0  0  0
  152.2688  141.0306  161.1507 H   0  0  0  0  0  0  0  0  0  0  0  0
  153.9921  141.1628  161.4972 H   0  0  0  0  0  0  0  0  0  0  0  0
  152.9341  143.9294  163.3750 H   0  0  0  0  0  0  0  0  0  0  0  0
  154.1100  142.6193  163.2664 H   0  0  0  0  0  0  0  0  0  0  0  0
  152.3849  142.2552  163.4575 H   0  0  0  0  0  0  0  0  0  0  0  0
  1  2  1  0  0  0  0
  1 21  1  0  0  0  0
  1 22  1  0  0  0  0
  1 23  1  0  0  0  0
  2  3  1  0  0  0  0
  2 24  1  0  0  0  0
  2 25  1  0  0  0  0
  3  4  1  0  0  0  0
  3 26  1  0  0  0  0
  3 27  1  0  0  0  0
  4  5  1  0  0  0  0
  4 28  1  0  0  0  0
  4 29  1  0  0  0  0
  5 18  1  0  0  0  0
  5  6  1  0  0  0  0
  6  7  1  0  0  0  0
  6  8  2  0  0  0  0
  7 30  1  0  0  0  0
  7 31  1  0  0  0  0
  8  9  1  0  0  0  0
  8 15  1  0  0  0  0
  9 10  1  0  0  0  0
  9 11  1  0  0  0  0
 10 32  1  0  0  0  0
 10 33  1  0  0  0  0
 10 34  1  0  0  0  0
 11 12  1  0  0  0  0
 11 35  1  0  0  0  0
 11 36  1  0  0  0  0
 12 13  1  0  0  0  0
 12 37  1  0  0  0  0
 12 38  1  0  0  0  0
 13 14  1  0  0  0  0
 14 39  1  0  0  0  0
 14 40  1  0  0  0  0
 14 41  1  0  0  0  0
 15 16  2  0  0  0  0
 15 17  1  0  0  0  0
 17 20  1  0  0  0  0
 17 18  1  0  0  0  0
 18 19  2  0  0  0  0
M  END
> <s_m_source_file>
AV-unprocessed.smi

> <i_m_source_file_index>
2122

> <i_lp_mmshare_version>
43012

> <i_f3d_flags>
0

> <s_epik_input>
W0NIM11bQ0gyXVtDSDJdW0NIMl1uMWMoW05IMl0pYyhjKD1PKVtuSF1jMT1PKU4oW0NIM10pW0NIMl1bQ0gyXU9bQ0gzXQ==

> <s_epik_cmdline>
J2VwaWtfcHl0aG9uJywgJy1waCcsICc3LjAnLCAnLXRuJywgJzgnLCAnLW1hJywgJzIwMCcsICctbWV0YWxfYmluZGluZycsICctaW1hZScsICc8aW5maWxlLm1hZT4nLCAnLW9tYWUnLCAnPG91dGZpbGUubWFlPic=

> <r_lp_tautomer_probability>
1

> <r_epik_Ionization_Penalty>
2.26322e-05

> <r_epik_Ionization_Penalty_Charging>
2.75876e-06

> <r_epik_Ionization_Penalty_Neutral>
1.98734e-05

> <r_epik_State_Penalty>
-0

> <r_epik_Charging_Adjusted_Penalty>
2.75876e-06

> <i_epik_Tot_Q>
0

> <i_epik_Tot_abs_Q>
0

> <r_epik_Metal_State_Penalty>
-0

> <b_epik_Metal_Only>
0

> <s_epik_Chemistry_Notes>
This compound has an imine and may undergo hydrolysis.

> <s_lp_Force_Field>
OPLS_2005

> <r_lp_Energy>
20.5532

> <b_lp_Chiralities_Consistent>
1

> <s_lp_Variant>
AV-unprocessed.smi:2122-1

> <Gold.Version>
5.8.1

> <Gold.Id.Protein>
6NUR|6NUR_protein|mol2

> <Gold.PLP.Fitness>
46.3693

> <Gold.PLP.PLP>
-40.9243

> <Gold.PLP.part.hbond>
-1.7911

> <Gold.PLP.part.metal>
0.0000

> <Gold.PLP.part.buried>
-3.1477

> <Gold.PLP.part.nonpolar>
-36.2029

> <Gold.PLP.part.repulsive>
0.3522

> <Gold.PLP.ligand.clash>
20.2349

> <Gold.PLP.ligand.torsion>
0.3601

> <Gold.PLP.Chemscore.Hbond>
1.9600

> <Gold.PLP.Chemscore.CHOScore>
0.0000

> <Gold.PLP.Chemscore.Metal>
0.0000

> <Gold.Chemscore.Hbonds>
donor molecule, donor type, donor heavy atom, donor atom, acceptor molecule, acceptor atom, score
      L1  H     7    30       P1  8028  0.94
      P1  H  7997  8008       L1    16  0.95

> <Gold.PLP.Chemscore.Internal.Correction>
20.5202

> <Gold.Rescore>
     Score         DG    S(hbond)    S(metal)    S(lipo)     H(rot)  DE(clash)    DE(int)     intcor
      9.02     -12.95       1.26        0.00      75.09       2.16       0.10       3.82       ----

> <Gold.Chemscore.Fitness>
9.0241

> <Gold.Chemscore.DG>
-12.9499

> <Gold.Chemscore.ZeroCoef>
-5.4800

> <Gold.Chemscore.Hbond>
1.2600

> <Gold.Chemscore.Metal>
0.0000

> <Gold.Chemscore.Lipo>
75.0914

> <Gold.Chemscore.Internal_Hbond>
0.0000

> <Gold.Chemscore.DEClash>
0.1008

> <Gold.Chemscore.DEInternal>
3.8249

> <Gold.Chemscore.Rot>
2.1579

> <Gold.Chemscore.Internal.Correction>
   9.000000E+99

> <Gold.Chemscore.Hbonds>
donor molecule, donor type, donor heavy atom, donor atom, acceptor molecule, acceptor atom, score
      L1  H     7    30       P1  8028  0.90
      P1  H  7997  8008       L1    16  0.21

> <Gold.Chemscore.Hbond.Weighted>
-4.2083

> <Gold.Chemscore.Metal.Weighted>
-0.0000

> <Gold.Chemscore.Lipo.Weighted>
-8.7857

> <Gold.Chemscore.Internal_Hbond.Weighted>
0.0000

> <Gold.Chemscore.DEClash.Weighted>
0.1008

> <Gold.Chemscore.DEInternal.Weighted>
3.8249

> <Gold.Chemscore.Rot.Weighted>
5.5241

> <Gold.Chemscore.Internal.Correction.Weighted>
   9.000000E+99

> <Gold.Protein.RotatedTorsions>
[ 6907 6896 6895 6894 ] final   -3.17 input  -60.11 | X-H torsion
[ 7974 7965 7964 7962 ] final  -54.00 input  175.53 | X-H torsion
[ 8008 7997 7996 7995 ] final -101.43 input   59.86 | X-H torsion
[ 10167 10162 10161 10158 ] final   41.24 input  -65.29 | X-H torsion
[ 10718 10713 10712 10709 ] final  138.16 input   66.30 | X-H torsion
[ 10763 10752 10751 10750 ] final  -37.52 input  -60.55 | X-H torsion
[ 11005 11000 10999 10996 ] final -176.09 input  -57.11 | X-H torsion

> <Gold.Protein.ActiveResidues>
 VAL166  LYS551  ARG553  GLY616  TRP617  ASP618  TYR619  PRO620  LYS621  CYS622 
 ASP623  PHE694  ASN695  SER759  ASP760  ASP761  ALA762  ILE779  LEU786  VAL792 
 PHE793  MET794  SER795  GLU796  ALA797  LYS798  CYS799  TRP800  GLU811  SER814 

> <Gold.Protein.RotatedAtoms>
  151.5181  135.1066  159.9871 H   0  0  0  0  0  0  0  0  0  0  0  0  # atno 6907 bound_to 6896
  152.4632  133.7863  159.6888 H   0  0  0  0  0  0  0  0  0  0  0  0  # atno 6908 bound_to 6896
  150.8604  133.7588  159.3019 H   0  0  0  0  0  0  0  0  0  0  0  0  # atno 6909 bound_to 6896
  145.8905  140.8074  142.9794 H   0  0  0  0  0  0  0  0  0  0  0  0  # atno 7974 bound_to 7965
  154.8424  140.0434  157.1550 H   0  0  0  0  0  0  0  0  0  0  0  0  # atno 8008 bound_to 7997
  154.9032  140.3003  155.5286 H   0  0  0  0  0  0  0  0  0  0  0  0  # atno 8009 bound_to 7997
  156.2993  140.2372  156.4063 H   0  0  0  0  0  0  0  0  0  0  0  0  # atno 8010 bound_to 7997
  140.3662  144.2164  150.6135 H   0  0  0  0  0  0  0  0  0  0  0  0  # atno 10167 bound_to 10162
  157.4283  131.1046  151.0278 H   0  0  0  0  0  0  0  0  0  0  0  0  # atno 10718 bound_to 10713
  153.8977  135.6805  153.4757 H   0  0  0  0  0  0  0  0  0  0  0  0  # atno 10763 bound_to 10752
  153.1146  135.4767  154.9091 H   0  0  0  0  0  0  0  0  0  0  0  0  # atno 10764 bound_to 10752
  154.7591  135.3205  154.8367 H   0  0  0  0  0  0  0  0  0  0  0  0  # atno 10765 bound_to 10752
  140.4560  134.6299  157.4822 H   0  0  0  0  0  0  0  0  0  0  0  0  # atno 11005 bound_to 11000
  144.6730  140.1522  143.7429 LP  0  0  0  0  0  0  0  0  0  0  0  0  # atno 17320 bound_to 7965
  145.8914  139.2378  143.1547 LP  0  0  0  0  0  0  0  0  0  0  0  0  # atno 17321 bound_to 7965
  140.5078  143.2299  151.8581 LP  0  0  0  0  0  0  0  0  0  0  0  0  # atno 17342 bound_to 10162
  139.4808  144.4985  151.9092 LP  0  0  0  0  0  0  0  0  0  0  0  0  # atno 17343 bound_to 10162
  157.1184  130.6051  149.5499 LP  0  0  0  0  0  0  0  0  0  0  0  0  # atno 17370 bound_to 10713
  155.9904  130.4955  150.7256 LP  0  0  0  0  0  0  0  0  0  0  0  0  # atno 17371 bound_to 10713
  139.9976  134.6887  155.9584 LP  0  0  0  0  0  0  0  0  0  0  0  0  # atno 17394 bound_to 11000
  141.1643  133.6537  156.4424 LP  0  0  0  0  0  0  0  0  0  0  0  0  # atno 17395 bound_to 11000

$$$$
