AV-unprocessed.smi:13|AV-procd|sdf|74|dock9
  -GOLD-   2262015203D 1   1.00000     0.00000
 Structure written by MMmdl.
 54 58  0  0  0  0  0  0  0  0  1 V2000
  141.5147  134.7675  153.3412 C   0  0  0  0  0  0  0  0  0  0  0  0
  142.0617  136.1177  153.8246 C   0  0  0  0  0  0  0  0  0  0  0  0
  140.8903  137.0994  153.7978 C   0  0  0  0  0  0  0  0  0  0  0  0
  142.8522  136.0584  155.1408 C   0  0  0  0  0  0  0  0  0  0  0  0
  144.0585  136.0129  154.3337 N   0  0  0  0  0  0  0  0  0  0  0  0
  145.1661  136.6943  154.9175 C   0  0  0  0  0  0  0  0  0  0  0  0
  145.0122  137.9212  155.4842 N   0  0  0  0  0  0  0  0  0  0  0  0
  146.0490  138.5688  156.0225 C   0  0  0  0  0  0  0  0  0  0  0  0
  147.3218  138.1808  156.1039 N   0  0  0  0  0  0  0  0  0  0  0  0
  147.4953  136.9543  155.5360 C   0  0  0  0  0  0  0  0  0  0  0  0
  146.4853  136.1582  154.9246 C   0  0  0  0  0  0  0  0  0  0  0  0
  147.0420  134.9788  154.4442 N   0  0  0  0  0  0  0  0  0  0  0  0
  148.3053  135.0702  154.7574 C   0  0  0  0  0  0  0  0  0  0  0  0
  148.6630  136.2187  155.4270 N   0  0  0  0  0  0  0  0  0  0  0  0
  149.9917  136.5787  155.8990 C   0  0  0  0  0  0  0  0  0  0  0  0
  150.8131  137.4026  154.8770 C   0  0  2  0  0  0  0  0  0  0  0  0
  151.2114  136.5548  153.8152 O   0  0  0  0  0  0  0  0  0  0  0  0
  152.0580  138.0353  155.5034 C   0  0  0  0  0  0  0  0  0  0  0  0
  151.7249  139.5217  155.5465 C   0  0  0  0  0  0  0  0  0  0  0  0
  150.9547  139.7010  154.3716 O   0  0  0  0  0  0  0  0  0  0  0  0
  150.0484  138.6101  154.2983 C   0  0  0  0  0  0  0  0  0  0  0  0
  143.3809  136.6314  153.1992 C   0  0  1  0  0  0  0  0  0  0  0  0
  143.8897  136.1105  151.8499 C   0  0  1  0  0  0  0  0  0  0  0  0
  145.3604  136.4358  151.5829 C   0  0  0  0  0  0  0  0  0  0  0  0
  145.7546  135.3365  150.6241 C   0  0  0  0  0  0  0  0  0  0  0  0
  144.9934  134.1456  151.1943 C   0  0  0  0  0  0  0  0  0  0  0  0
  143.8220  134.6867  151.7973 O   0  0  0  0  0  0  0  0  0  0  0  0
  140.7517  134.3839  154.0193 H   0  0  0  0  0  0  0  0  0  0  0  0
  142.2975  134.0106  153.2845 H   0  0  0  0  0  0  0  0  0  0  0  0
  141.0615  134.8415  152.3531 H   0  0  0  0  0  0  0  0  0  0  0  0
  141.1869  138.0843  154.1596 H   0  0  0  0  0  0  0  0  0  0  0  0
  140.0677  136.7598  154.4278 H   0  0  0  0  0  0  0  0  0  0  0  0
  140.5023  137.2310  152.7873 H   0  0  0  0  0  0  0  0  0  0  0  0
  142.7730  136.9688  155.7383 H   0  0  0  0  0  0  0  0  0  0  0  0
  142.6854  135.1587  155.7338 H   0  0  0  0  0  0  0  0  0  0  0  0
  145.8261  139.5363  156.4479 H   0  0  0  0  0  0  0  0  0  0  0  0
  149.0137  134.2938  154.5082 H   0  0  0  0  0  0  0  0  0  0  0  0
  149.8819  137.1376  156.8292 H   0  0  0  0  0  0  0  0  0  0  0  0
  150.5223  135.6612  156.1571 H   0  0  0  0  0  0  0  0  0  0  0  0
  150.8865  136.9163  153.0048 H   0  0  0  0  0  0  0  0  0  0  0  0
  152.2999  137.6367  156.4893 H   0  0  0  0  0  0  0  0  0  0  0  0
  152.9341  137.8873  154.8697 H   0  0  0  0  0  0  0  0  0  0  0  0
  151.1228  139.7647  156.4236 H   0  0  0  0  0  0  0  0  0  0  0  0
  152.6130  140.1536  155.5488 H   0  0  0  0  0  0  0  0  0  0  0  0
  149.6893  138.4544  153.2801 H   0  0  0  0  0  0  0  0  0  0  0  0
  149.1859  138.8621  154.9157 H   0  0  0  0  0  0  0  0  0  0  0  0
  143.4142  137.7207  153.2663 H   0  0  0  0  0  0  0  0  0  0  0  0
  143.2885  136.4966  151.0253 H   0  0  0  0  0  0  0  0  0  0  0  0
  145.5132  137.4314  151.1674 H   0  0  0  0  0  0  0  0  0  0  0  0
  145.9433  136.3558  152.5016 H   0  0  0  0  0  0  0  0  0  0  0  0
  145.3962  135.5680  149.6201 H   0  0  0  0  0  0  0  0  0  0  0  0
  146.8313  135.1718  150.5760 H   0  0  0  0  0  0  0  0  0  0  0  0
  144.7443  133.4067  150.4326 H   0  0  0  0  0  0  0  0  0  0  0  0
  145.5821  133.6511  151.9679 H   0  0  0  0  0  0  0  0  0  0  0  0
  1  2  1  0  0  0  0
  1 28  1  0  0  0  0
  1 29  1  0  0  0  0
  1 30  1  0  0  0  0
  2 22  1  0  0  0  0
  2  3  1  0  0  0  0
  2  4  1  0  0  0  0
  3 31  1  0  0  0  0
  3 32  1  0  0  0  0
  3 33  1  0  0  0  0
  4  5  1  0  0  0  0
  4 34  1  0  0  0  0
  4 35  1  0  0  0  0
  5  6  1  0  0  0  0
  5 22  1  0  0  0  0
  6 11  1  0  0  0  0
  6  7  2  0  0  0  0
  7  8  1  0  0  0  0
  8  9  2  0  0  0  0
  8 36  1  0  0  0  0
  9 10  1  0  0  0  0
 10 14  1  0  0  0  0
 10 11  2  0  0  0  0
 11 12  1  0  0  0  0
 12 13  2  0  0  0  0
 13 14  1  0  0  0  0
 13 37  1  0  0  0  0
 14 15  1  0  0  0  0
 15 16  1  0  0  0  0
 15 38  1  0  0  0  0
 15 39  1  0  0  0  0
 16 21  1  0  0  0  0
 16 17  1  0  0  0  0
 16 18  1  0  0  0  0
 17 40  1  0  0  0  0
 18 19  1  0  0  0  0
 18 41  1  0  0  0  0
 18 42  1  0  0  0  0
 19 20  1  0  0  0  0
 19 43  1  0  0  0  0
 19 44  1  0  0  0  0
 20 21  1  0  0  0  0
 21 45  1  0  0  0  0
 21 46  1  0  0  0  0
 22 23  1  0  0  0  0
 22 47  1  0  0  0  0
 23 27  1  0  0  0  0
 23 24  1  0  0  0  0
 23 48  1  0  0  0  0
 24 25  1  0  0  0  0
 24 49  1  0  0  0  0
 24 50  1  0  0  0  0
 25 26  1  0  0  0  0
 25 51  1  0  0  0  0
 25 52  1  0  0  0  0
 26 27  1  0  0  0  0
 26 53  1  0  0  0  0
 26 54  1  0  0  0  0
M  END
> <s_m_source_file>
AV-unprocessed.smi

> <i_m_source_file_index>
13

> <i_lp_mmshare_version>
43012

> <i_f3d_flags>
0

> <s_epik_input>
TzFbQ0gyXVtDSDJdW0NIMl1bQ0BIXTFbQ0BASF0yTihbQ0gyXUMyKFtDSDNdKVtDSDNdKWMobltjSF1uMyljKGMzNCluW2NIXW40W0NIMl1bQ0BAXTUoW09IXSlbQ0gyXVtDSDJdT1tDSDJdNQ==

> <s_epik_cmdline>
J2VwaWtfcHl0aG9uJywgJy1waCcsICc3LjAnLCAnLXRuJywgJzgnLCAnLW1hJywgJzIwMCcsICctbWV0YWxfYmluZGluZycsICctaW1hZScsICc8aW5maWxlLm1hZT4nLCAnLW9tYWUnLCAnPG91dGZpbGUubWFlPic=

> <r_lp_tautomer_probability>
1

> <r_epik_Ionization_Penalty>
0.00202764

> <r_epik_Ionization_Penalty_Charging>
0

> <r_epik_Ionization_Penalty_Neutral>
0.00202764

> <r_epik_State_Penalty>
0.00134017

> <r_epik_Charging_Adjusted_Penalty>
0.00134017

> <i_epik_Tot_Q>
0

> <i_epik_Tot_abs_Q>
0

> <r_epik_Metal_State_Penalty>
-0

> <b_epik_Metal_Only>
0

> <s_lp_Force_Field>
OPLS_2005

> <r_lp_Energy>
62.8076

> <b_lp_Chiralities_Consistent>
1

> <s_lp_Variant>
AV-unprocessed.smi:13-6

> <Gold.Version>
5.8.1

> <Gold.Id.Protein>
6NUR|6NUR_protein|mol2

> <Gold.PLP.Fitness>
39.8210

> <Gold.PLP.PLP>
-32.8715

> <Gold.PLP.part.hbond>
-3.4719

> <Gold.PLP.part.metal>
0.0000

> <Gold.PLP.part.buried>
-6.1797

> <Gold.PLP.part.nonpolar>
-23.4793

> <Gold.PLP.part.repulsive>
0.4210

> <Gold.PLP.ligand.clash>
0.0000

> <Gold.PLP.ligand.torsion>
0.8102

> <Gold.PLP.Chemscore.Hbond>
2.7200

> <Gold.PLP.Chemscore.CHOScore>
0.0000

> <Gold.PLP.Chemscore.Metal>
0.0000

> <Gold.Chemscore.Hbonds>
donor molecule, donor type, donor heavy atom, donor atom, acceptor molecule, acceptor atom, score
      L1  H    17    40       P1  7949  0.31
      P1  H  7989  7998       L1    20  1.00
      P1  H 10752 10764       L1    17  1.00

> <Gold.PLP.Chemscore.Internal.Correction>
0.4100

> <Gold.Rescore>
     Score         DG    S(hbond)    S(metal)    S(lipo)     H(rot)  DE(clash)    DE(int)     intcor
     12.56     -15.16       2.04        0.00      74.68       2.30       0.51       2.09       ----

> <Gold.Chemscore.Fitness>
12.5561

> <Gold.Chemscore.DG>
-15.1560

> <Gold.Chemscore.ZeroCoef>
-5.4800

> <Gold.Chemscore.Hbond>
2.0436

> <Gold.Chemscore.Metal>
0.0000

> <Gold.Chemscore.Lipo>
74.6773

> <Gold.Chemscore.Internal_Hbond>
0.0000

> <Gold.Chemscore.DEClash>
0.5064

> <Gold.Chemscore.DEInternal>
2.0935

> <Gold.Chemscore.Rot>
2.2996

> <Gold.Chemscore.Internal.Correction>
   9.000000E+99

> <Gold.Chemscore.Hbonds>
donor molecule, donor type, donor heavy atom, donor atom, acceptor molecule, acceptor atom, score
      L1  H    17    40       P1  7949  0.05
      P1  H  7989  7998       L1    20  0.69
      P1  H 10752 10764       L1    17  0.85

> <Gold.Chemscore.Hbond.Weighted>
-6.8257

> <Gold.Chemscore.Metal.Weighted>
-0.0000

> <Gold.Chemscore.Lipo.Weighted>
-8.7372

> <Gold.Chemscore.Internal_Hbond.Weighted>
0.0000

> <Gold.Chemscore.DEClash.Weighted>
0.5064

> <Gold.Chemscore.DEInternal.Weighted>
2.0935

> <Gold.Chemscore.Rot.Weighted>
5.8869

> <Gold.Chemscore.Internal.Correction.Weighted>
   9.000000E+99

> <Gold.Protein.RotatedTorsions>
[ 6907 6896 6895 6894 ] final  112.30 input  -60.11 | X-H torsion
[ 7974 7965 7964 7962 ] final   10.73 input  175.53 | X-H torsion
[ 8008 7997 7996 7995 ] final  148.16 input   59.86 | X-H torsion
[ 10167 10162 10161 10158 ] final  -69.53 input  -65.29 | X-H torsion
[ 10718 10713 10712 10709 ] final   48.19 input   66.30 | X-H torsion
[ 10763 10752 10751 10750 ] final  -89.70 input  -60.55 | X-H torsion
[ 11005 11000 10999 10996 ] final   91.87 input  -57.11 | X-H torsion

> <Gold.Protein.ActiveResidues>
 VAL166  LYS551  ARG553  GLY616  TRP617  ASP618  TYR619  PRO620  LYS621  CYS622 
 ASP623  PHE694  ASN695  SER759  ASP760  ASP761  ALA762  ILE779  LEU786  VAL792 
 PHE793  MET794  SER795  GLU796  ALA797  LYS798  CYS799  TRP800  GLU811  SER814 

> <Gold.Protein.RotatedAtoms>
  152.4923  133.8535  159.7213 H   0  0  0  0  0  0  0  0  0  0  0  0  # atno 6907 bound_to 6896
  150.9066  133.7041  159.2872 H   0  0  0  0  0  0  0  0  0  0  0  0  # atno 6908 bound_to 6896
  151.4465  135.1030  159.9737 H   0  0  0  0  0  0  0  0  0  0  0  0  # atno 6909 bound_to 6896
  146.2383  139.9591  142.8461 H   0  0  0  0  0  0  0  0  0  0  0  0  # atno 7974 bound_to 7965
  156.2800  140.2136  156.5654 H   0  0  0  0  0  0  0  0  0  0  0  0  # atno 8008 bound_to 7997
  154.7179  140.0506  157.0634 H   0  0  0  0  0  0  0  0  0  0  0  0  # atno 8009 bound_to 7997
  155.0518  140.3157  155.4692 H   0  0  0  0  0  0  0  0  0  0  0  0  # atno 8010 bound_to 7997
  140.5424  143.2314  151.7065 H   0  0  0  0  0  0  0  0  0  0  0  0  # atno 10167 bound_to 10162
  157.4661  130.8226  149.7938 H   0  0  0  0  0  0  0  0  0  0  0  0  # atno 10718 bound_to 10713
  154.6581  135.5331  153.7984 H   0  0  0  0  0  0  0  0  0  0  0  0  # atno 10763 bound_to 10752
  153.0425  135.6499  154.0914 H   0  0  0  0  0  0  0  0  0  0  0  0  # atno 10764 bound_to 10752
  154.0826  135.2946  155.3267 H   0  0  0  0  0  0  0  0  0  0  0  0  # atno 10765 bound_to 10752
  139.8832  134.8700  156.3491 H   0  0  0  0  0  0  0  0  0  0  0  0  # atno 11005 bound_to 11000
  145.1788  140.9757  143.4278 LP  0  0  0  0  0  0  0  0  0  0  0  0  # atno 17320 bound_to 7965
  144.9961  139.3642  143.6190 LP  0  0  0  0  0  0  0  0  0  0  0  0  # atno 17321 bound_to 7965
  139.4994  144.3948  152.0242 LP  0  0  0  0  0  0  0  0  0  0  0  0  # atno 17342 bound_to 10162
  140.3058  144.3594  150.6047 LP  0  0  0  0  0  0  0  0  0  0  0  0  # atno 17343 bound_to 10162
  156.0051  130.3859  150.2460 LP  0  0  0  0  0  0  0  0  0  0  0  0  # atno 17370 bound_to 10713
  157.0640  131.0098  151.3213 LP  0  0  0  0  0  0  0  0  0  0  0  0  # atno 17371 bound_to 10713
  140.9606  133.7391  156.0396 LP  0  0  0  0  0  0  0  0  0  0  0  0  # atno 17394 bound_to 11000
  140.7994  134.3527  157.5443 LP  0  0  0  0  0  0  0  0  0  0  0  0  # atno 17395 bound_to 11000

$$$$
