AV-unprocessed.smi:384|AV-procd|sdf|2467|dock1
  -GOLD-   2262022403D 1   1.00000     0.00000
 Structure written by MMmdl.
 32 33  0  0  0  0  0  0  0  0  2 V2000
  152.6137  143.7251  158.5730 C   0  0  0  0  0  0  0  0  0  0  0  0
  151.7667  142.8154  159.4803 C   0  0  1  0  0  0  0  0  0  0  0  0
  151.9693  141.3120  159.2051 C   0  0  0  0  0  0  0  0  0  0  0  0
  153.2515  140.8608  159.7291 N   0  0  0  0  0  0  0  0  0  0  0  0
  153.5484  139.5320  159.3959 C   0  0  0  0  0  0  0  0  0  0  0  0
  153.7672  138.6014  160.4315 C   0  0  0  0  0  0  0  0  0  0  0  0
  154.0622  137.2671  160.0919 C   0  0  0  0  0  0  0  0  0  0  0  0
  154.1325  136.9030  158.7286 C   0  0  0  0  0  0  0  0  0  0  0  0
  154.4413  135.4914  158.3155 C   0  0  0  0  0  0  0  0  0  0  0  0
  154.7940  135.2714  157.1355 O   0  0  0  0  0  0  0  0  0  0  0  0
  154.3356  134.5785  159.1648 O   0  5  0  0  0  0  0  0  0  0  0  0
  153.9011  137.9140  157.7680 C   0  0  0  0  0  0  0  0  0  0  0  0
  153.6159  139.1955  158.0862 N   0  0  0  0  0  0  0  0  0  0  0  0
  153.4046  141.1591  161.1460 C   0  0  0  0  0  0  0  0  0  0  0  0
  153.2381  142.6704  161.3835 C   0  0  2  0  0  0  0  0  0  0  0  0
  153.2869  143.0242  162.8733 C   0  0  0  0  0  0  0  0  0  0  0  0
  151.9759  143.0958  160.8676 O   0  0  0  0  0  0  0  0  0  0  0  0
  152.3481  143.5803  157.5255 H   0  0  0  0  0  0  0  0  0  0  0  0
  153.6808  143.5251  158.6659 H   0  0  0  0  0  0  0  0  0  0  0  0
  152.4472  144.7754  158.8129 H   0  0  0  0  0  0  0  0  0  0  0  0
  150.7222  143.0518  159.2759 H   0  0  0  0  0  0  0  0  0  0  0  0
  151.1693  140.7447  159.6835 H   0  0  0  0  0  0  0  0  0  0  0  0
  151.9071  141.1084  158.1352 H   0  0  0  0  0  0  0  0  0  0  0  0
  153.7079  138.9003  161.4677 H   0  0  0  0  0  0  0  0  0  0  0  0
  154.2294  136.5421  160.8752 H   0  0  0  0  0  0  0  0  0  0  0  0
  153.9422  137.7002  156.7099 H   0  0  0  0  0  0  0  0  0  0  0  0
  152.6597  140.6066  161.7207 H   0  0  0  0  0  0  0  0  0  0  0  0
  154.3866  140.8294  161.4883 H   0  0  0  0  0  0  0  0  0  0  0  0
  154.0412  143.2103  160.8815 H   0  0  0  0  0  0  0  0  0  0  0  0
  154.2365  142.7236  163.3168 H   0  0  0  0  0  0  0  0  0  0  0  0
  152.4875  142.5270  163.4235 H   0  0  0  0  0  0  0  0  0  0  0  0
  153.1758  144.0985  163.0219 H   0  0  0  0  0  0  0  0  0  0  0  0
  1  2  1  0  0  0  0
  1 18  1  0  0  0  0
  1 19  1  0  0  0  0
  1 20  1  0  0  0  0
  2 17  1  0  0  0  0
  2  3  1  0  0  0  0
  2 21  1  0  0  0  0
  3  4  1  0  0  0  0
  3 22  1  0  0  0  0
  3 23  1  0  0  0  0
  4  5  1  0  0  0  0
  4 14  1  0  0  0  0
  5 13  1  0  0  0  0
  5  6  2  0  0  0  0
  6  7  1  0  0  0  0
  6 24  1  0  0  0  0
  7  8  2  0  0  0  0
  7 25  1  0  0  0  0
  8  9  1  0  0  0  0
  8 12  1  0  0  0  0
  9 10  2  0  0  0  0
  9 11  1  0  0  0  0
 12 13  2  0  0  0  0
 12 26  1  0  0  0  0
 14 15  1  0  0  0  0
 14 27  1  0  0  0  0
 14 28  1  0  0  0  0
 15 16  1  0  0  0  0
 15 17  1  0  0  0  0
 15 29  1  0  0  0  0
 16 30  1  0  0  0  0
 16 31  1  0  0  0  0
 16 32  1  0  0  0  0
M  CHG  1  11  -1
M  END
> <s_m_source_file>
AV-unprocessed.smi

> <i_m_source_file_index>
384

> <i_lp_mmshare_version>
43012

> <i_f3d_flags>
0

> <s_epik_input>
W0NIM11bQ0BASF0xW0NIMl1OKFtDSDJdW0NASF0oTzEpW0NIM10pYzJbY0hdW2NIXWMoW2NIXW4yKUMoPU8pW09IXQ==

> <s_epik_cmdline>
J2VwaWtfcHl0aG9uJywgJy1waCcsICc3LjAnLCAnLXRuJywgJzgnLCAnLW1hJywgJzIwMCcsICctbWV0YWxfYmluZGluZycsICctaW1hZScsICc8aW5maWxlLm1hZT4nLCAnLW9tYWUnLCAnPG91dGZpbGUubWFlPic=

> <r_epik_Ionization_Penalty>
0.0114922

> <r_epik_Ionization_Penalty_Charging>
0.000195896

> <r_epik_Ionization_Penalty_Neutral>
0.0112963

> <r_epik_State_Penalty>
0.00868573

> <r_epik_Charging_Adjusted_Penalty>
0.00888162

> <i_epik_Tot_Q>
-1

> <i_epik_Tot_abs_Q>
1

> <r_epik_Metal_State_Penalty>
8.74964e-06

> <b_epik_Metal_Only>
0

> <s_lp_Force_Field>
OPLS_2005

> <r_lp_Energy>
19.6652

> <b_lp_Chiralities_Consistent>
1

> <s_lp_Variant>
AV-unprocessed.smi:384-3

> <Gold.Version>
5.8.1

> <Gold.Id.Protein>
6NUR|6NUR_protein|mol2

> <Gold.PLP.Fitness>
42.7868

> <Gold.PLP.PLP>
-30.5762

> <Gold.PLP.part.hbond>
-3.1445

> <Gold.PLP.part.metal>
0.0000

> <Gold.PLP.part.buried>
-4.3562

> <Gold.PLP.part.nonpolar>
-22.6818

> <Gold.PLP.part.repulsive>
0.0792

> <Gold.PLP.ligand.clash>
2.5031

> <Gold.PLP.ligand.torsion>
0.1914

> <Gold.PLP.Chemscore.Hbond>
5.0000

> <Gold.PLP.Chemscore.CHOScore>
0.0000

> <Gold.PLP.Chemscore.Metal>
0.0000

> <Gold.Chemscore.Hbonds>
donor molecule, donor type, donor heavy atom, donor atom, acceptor molecule, acceptor atom, score
      P1  H  6896  6908       L1    11  2.00
      P1  H  7997  8008       L1    13  1.00
      P1  H 10752 10764       L1    10  2.00

> <Gold.PLP.Chemscore.Internal.Correction>
0.0965

> <Gold.Rescore>
     Score         DG    S(hbond)    S(metal)    S(lipo)     H(rot)  DE(clash)    DE(int)     intcor
     21.15     -21.41       2.57        0.00      84.65       1.00       0.09       0.17       ----

> <Gold.Chemscore.Fitness>
21.1477

> <Gold.Chemscore.DG>
-21.4071

> <Gold.Chemscore.ZeroCoef>
-5.4800

> <Gold.Chemscore.Hbond>
2.5698

> <Gold.Chemscore.Metal>
0.0000

> <Gold.Chemscore.Lipo>
84.6495

> <Gold.Chemscore.Internal_Hbond>
0.0000

> <Gold.Chemscore.DEClash>
0.0890

> <Gold.Chemscore.DEInternal>
0.1703

> <Gold.Chemscore.Rot>
1.0000

> <Gold.Chemscore.Internal.Correction>
   9.000000E+99

> <Gold.Chemscore.Hbonds>
donor molecule, donor type, donor heavy atom, donor atom, acceptor molecule, acceptor atom, score
      P1  H  6896  6908       L1    11  0.96
      P1  H  7997  8008       L1    13  0.29
      P1  H 10752 10764       L1    10  1.00

> <Gold.Chemscore.Hbond.Weighted>
-8.5831

> <Gold.Chemscore.Metal.Weighted>
-0.0000

> <Gold.Chemscore.Lipo.Weighted>
-9.9040

> <Gold.Chemscore.Internal_Hbond.Weighted>
0.0000

> <Gold.Chemscore.DEClash.Weighted>
0.0890

> <Gold.Chemscore.DEInternal.Weighted>
0.1703

> <Gold.Chemscore.Rot.Weighted>
2.5600

> <Gold.Chemscore.Internal.Correction.Weighted>
   9.000000E+99

> <Gold.Protein.RotatedTorsions>
[ 6907 6896 6895 6894 ] final  -25.77 input  -60.11 | X-H torsion
[ 7974 7965 7964 7962 ] final   85.30 input  175.53 | X-H torsion
[ 8008 7997 7996 7995 ] final  -88.92 input   59.86 | X-H torsion
[ 10167 10162 10161 10158 ] final   -1.29 input  -65.29 | X-H torsion
[ 10718 10713 10712 10709 ] final  114.79 input   66.30 | X-H torsion
[ 10763 10752 10751 10750 ] final   45.59 input  -60.55 | X-H torsion
[ 11005 11000 10999 10996 ] final   10.74 input  -57.11 | X-H torsion

> <Gold.Protein.ActiveResidues>
 VAL166  LYS551  ARG553  GLY616  TRP617  ASP618  TYR619  PRO620  LYS621  CYS622 
 ASP623  PHE694  ASN695  SER759  ASP760  ASP761  ALA762  ILE779  LEU786  VAL792 
 PHE793  MET794  SER795  GLU796  ALA797  LYS798  CYS799  TRP800  GLU811  SER814 

> <Gold.Protein.RotatedAtoms>
  151.1704  135.0315  159.8748 H   0  0  0  0  0  0  0  0  0  0  0  0  # atno 6907 bound_to 6896
  152.5449  134.1177  159.8396 H   0  0  0  0  0  0  0  0  0  0  0  0  # atno 6908 bound_to 6896
  151.1282  133.5009  159.2632 H   0  0  0  0  0  0  0  0  0  0  0  0  # atno 6909 bound_to 6896
  145.5874  139.2333  143.2319 H   0  0  0  0  0  0  0  0  0  0  0  0  # atno 7974 bound_to 7965
  154.6805  140.0548  157.0261 H   0  0  0  0  0  0  0  0  0  0  0  0  # atno 8008 bound_to 7997
  155.0958  140.3224  155.4542 H   0  0  0  0  0  0  0  0  0  0  0  0  # atno 8009 bound_to 7997
  156.2692  140.2040  156.6085 H   0  0  0  0  0  0  0  0  0  0  0  0  # atno 8010 bound_to 7997
  140.6804  143.6793  150.8119 H   0  0  0  0  0  0  0  0  0  0  0  0  # atno 10167 bound_to 10162
  157.6260  131.1003  150.7236 H   0  0  0  0  0  0  0  0  0  0  0  0  # atno 10718 bound_to 10713
  152.9822  135.6035  154.3461 H   0  0  0  0  0  0  0  0  0  0  0  0  # atno 10763 bound_to 10752
  154.3154  135.2770  155.2547 H   0  0  0  0  0  0  0  0  0  0  0  0  # atno 10764 bound_to 10752
  154.4738  135.5935  153.6396 H   0  0  0  0  0  0  0  0  0  0  0  0  # atno 10765 bound_to 10752
  140.5111  134.0651  155.7818 H   0  0  0  0  0  0  0  0  0  0  0  0  # atno 11005 bound_to 11000
  146.1672  140.6700  142.9250 LP  0  0  0  0  0  0  0  0  0  0  0  0  # atno 17320 bound_to 7965
  144.7367  140.4827  143.6899 LP  0  0  0  0  0  0  0  0  0  0  0  0  # atno 17321 bound_to 7965
  140.0493  143.5266  152.2681 LP  0  0  0  0  0  0  0  0  0  0  0  0  # atno 17342 bound_to 10162
  139.6122  144.7611  151.2926 LP  0  0  0  0  0  0  0  0  0  0  0  0  # atno 17343 bound_to 10162
  156.7585  130.4791  149.5442 LP  0  0  0  0  0  0  0  0  0  0  0  0  # atno 17370 bound_to 10713
  156.1433  130.6260  151.0497 LP  0  0  0  0  0  0  0  0  0  0  0  0  # atno 17371 bound_to 10713
  141.1385  133.9180  157.2380 LP  0  0  0  0  0  0  0  0  0  0  0  0  # atno 17394 bound_to 11000
  139.9658  135.0142  156.9384 LP  0  0  0  0  0  0  0  0  0  0  0  0  # atno 17395 bound_to 11000

$$$$
