AV-unprocessed.smi:315|AV-procd|sdf|2320|dock2
  -GOLD-   2262022223D 1   1.00000     0.00000
 Structure written by MMmdl.
 47 49  0  0  0  0  0  0  0  0  2 V2000
  152.6033  138.7807  154.6676 C   0  0  0  0  0  0  0  0  0  0  0  0
  151.4208  137.8377  154.9014 C   0  0  0  0  0  0  0  0  0  0  0  0
  150.3959  138.1571  153.9663 O   0  0  0  0  0  0  0  0  0  0  0  0
  149.7017  139.3423  154.1200 C   0  0  0  0  0  0  0  0  0  0  0  0
  150.3088  140.3721  154.7604 N   0  0  0  0  0  0  0  0  0  0  0  0
  149.6260  141.5265  154.9089 C   0  0  0  0  0  0  0  0  0  0  0  0
  148.3171  141.7163  154.4278 C   0  0  0  0  0  0  0  0  0  0  0  0
  147.6854  140.6489  153.7632 C   0  0  0  0  0  0  0  0  0  0  0  0
  148.3854  139.4284  153.6121 C   0  0  0  0  0  0  0  0  0  0  0  0
  147.8548  138.2959  152.9414 N   0  0  0  0  0  0  0  0  0  0  0  0
  146.6145  138.1201  152.4491 C   0  0  0  0  0  0  0  0  0  0  0  0
  145.7534  138.9944  152.3903 O   0  0  0  0  0  0  0  0  0  0  0  0
  146.3629  136.8630  152.0398 N   0  0  0  0  0  0  0  0  0  0  0  0
  145.1282  136.3253  151.4578 C   0  0  2  0  0  0  0  0  0  0  0  0
  143.9144  136.4774  152.3942 C   0  0  0  0  0  0  0  0  0  0  0  0
  143.1284  135.1740  152.2242 C   0  0  0  0  0  0  0  0  0  0  0  0
  144.1856  134.1835  151.9933 N   0  3  1  0  0  0  0  0  0  0  0  0
  143.8004  132.8294  151.5470 C   0  0  0  0  0  0  0  0  0  0  0  0
  145.0574  131.9338  151.5700 C   0  0  0  0  0  0  0  0  0  0  0  0
  146.2328  132.5567  150.7841 C   0  0  0  0  0  0  0  0  0  0  0  0
  146.4987  134.0181  151.2058 C   0  0  0  0  0  0  0  0  0  0  0  0
  145.1841  134.8150  151.1127 C   0  0  2  0  0  0  0  0  0  0  0  0
  153.4078  138.5785  155.3749 H   0  0  0  0  0  0  0  0  0  0  0  0
  152.3039  139.8219  154.7888 H   0  0  0  0  0  0  0  0  0  0  0  0
  153.0056  138.6614  153.6619 H   0  0  0  0  0  0  0  0  0  0  0  0
  151.7461  136.8036  154.7750 H   0  0  0  0  0  0  0  0  0  0  0  0
  151.0545  137.9557  155.9223 H   0  0  0  0  0  0  0  0  0  0  0  0
  150.1413  142.3252  155.4215 H   0  0  0  0  0  0  0  0  0  0  0  0
  147.8114  142.6612  154.5604 H   0  0  0  0  0  0  0  0  0  0  0  0
  146.6893  140.7878  153.3718 H   0  0  0  0  0  0  0  0  0  0  0  0
  148.4358  137.4712  152.9719 H   0  0  0  0  0  0  0  0  0  0  0  0
  147.1064  136.1945  152.1829 H   0  0  0  0  0  0  0  0  0  0  0  0
  144.8959  136.8774  150.5451 H   0  0  0  0  0  0  0  0  0  0  0  0
  144.2438  136.5644  153.4311 H   0  0  0  0  0  0  0  0  0  0  0  0
  143.3138  137.3586  152.1658 H   0  0  0  0  0  0  0  0  0  0  0  0
  142.5225  134.9303  153.0975 H   0  0  0  0  0  0  0  0  0  0  0  0
  142.4758  135.2284  151.3511 H   0  0  0  0  0  0  0  0  0  0  0  0
  143.0384  132.4242  152.2135 H   0  0  0  0  0  0  0  0  0  0  0  0
  143.3687  132.8713  150.5459 H   0  0  0  0  0  0  0  0  0  0  0  0
  145.3661  131.7783  152.6046 H   0  0  0  0  0  0  0  0  0  0  0  0
  144.8208  130.9475  151.1700 H   0  0  0  0  0  0  0  0  0  0  0  0
  147.1338  131.9576  150.9191 H   0  0  0  0  0  0  0  0  0  0  0  0
  146.0030  132.5266  149.7189 H   0  0  0  0  0  0  0  0  0  0  0  0
  146.8916  134.0496  152.2230 H   0  0  0  0  0  0  0  0  0  0  0  0
  147.2608  134.4467  150.5556 H   0  0  0  0  0  0  0  0  0  0  0  0
  144.8183  134.7266  150.0871 H   0  0  0  0  0  0  0  0  0  0  0  0
  144.6406  134.0683  152.8878 H   0  0  0  0  0  0  0  0  0  0  0  0
  1  2  1  0  0  0  0
  1 23  1  0  0  0  0
  1 24  1  0  0  0  0
  1 25  1  0  0  0  0
  2  3  1  0  0  0  0
  2 26  1  0  0  0  0
  2 27  1  0  0  0  0
  3  4  1  0  0  0  0
  4  9  1  0  0  0  0
  4  5  2  0  0  0  0
  5  6  1  0  0  0  0
  6  7  2  0  0  0  0
  6 28  1  0  0  0  0
  7  8  1  0  0  0  0
  7 29  1  0  0  0  0
  8  9  2  0  0  0  0
  8 30  1  0  0  0  0
  9 10  1  0  0  0  0
 10 11  1  0  0  0  0
 10 31  1  0  0  0  0
 11 12  2  0  0  0  0
 11 13  1  0  0  0  0
 13 14  1  0  0  0  0
 13 32  1  0  0  0  0
 14 22  1  0  0  0  0
 14 15  1  0  0  0  0
 14 33  1  0  0  0  0
 15 16  1  0  0  0  0
 15 34  1  0  0  0  0
 15 35  1  0  0  0  0
 16 17  1  0  0  0  0
 16 36  1  0  0  0  0
 16 37  1  0  0  0  0
 17 22  1  0  0  0  0
 17 18  1  0  0  0  0
 17 47  1  0  0  0  0
 18 19  1  0  0  0  0
 18 38  1  0  0  0  0
 18 39  1  0  0  0  0
 19 20  1  0  0  0  0
 19 40  1  0  0  0  0
 19 41  1  0  0  0  0
 20 21  1  0  0  0  0
 20 42  1  0  0  0  0
 20 43  1  0  0  0  0
 21 22  1  0  0  0  0
 21 44  1  0  0  0  0
 21 45  1  0  0  0  0
 22 46  1  0  0  0  0
M  CHG  1  17   1
M  END
> <s_m_source_file>
AV-unprocessed.smi

> <i_m_source_file_index>
315

> <i_lp_mmshare_version>
43012

> <i_f3d_flags>
0

> <s_epik_input>
W0NIM11bQ0gyXU9jMW5bY0hdW2NIXVtjSF1jMVtOSF1DKD1PKVtOSF1bQ0BIXShbQ0gyXVtDSDJdMilbQ0BASF0oTjIzKVtDSDJdW0NIMl1bQ0gyXVtDSDJdMw==

> <s_epik_cmdline>
J2VwaWtfcHl0aG9uJywgJy1waCcsICc3LjAnLCAnLXRuJywgJzgnLCAnLW1hJywgJzIwMCcsICctbWV0YWxfYmluZGluZycsICctaW1hZScsICc8aW5maWxlLm1hZT4nLCAnLW9tYWUnLCAnPG91dGZpbGUubWFlPic=

> <r_lp_tautomer_probability>
1

> <r_epik_Ionization_Penalty>
0.00106455

> <r_epik_Ionization_Penalty_Charging>
0.000974069

> <r_epik_Ionization_Penalty_Neutral>
9.04821e-05

> <r_epik_State_Penalty>
0.000633842

> <r_epik_Charging_Adjusted_Penalty>
0.00160791

> <i_epik_Tot_Q>
1

> <i_epik_Tot_abs_Q>
1

> <r_epik_Metal_State_Penalty>
-0

> <b_epik_Metal_Only>
0

> <s_lp_Force_Field>
OPLS_2005

> <r_lp_Energy>
53.3213

> <b_lp_Chiralities_Consistent>
1

> <s_lp_Variant>
AV-unprocessed.smi:315-5

> <Gold.Version>
5.8.1

> <Gold.Id.Protein>
6NUR|6NUR_protein|mol2

> <Gold.PLP.Fitness>
45.4182

> <Gold.PLP.PLP>
-37.6151

> <Gold.PLP.part.hbond>
-3.9007

> <Gold.PLP.part.metal>
0.0000

> <Gold.PLP.part.buried>
-1.9012

> <Gold.PLP.part.nonpolar>
-37.5715

> <Gold.PLP.part.repulsive>
4.5038

> <Gold.PLP.ligand.clash>
0.0000

> <Gold.PLP.ligand.torsion>
0.3952

> <Gold.PLP.Chemscore.Hbond>
2.4400

> <Gold.PLP.Chemscore.CHOScore>
0.4207

> <Gold.PLP.Chemscore.Metal>
0.0000

> <Gold.Chemscore.Hbonds>
donor molecule, donor type, donor heavy atom, donor atom, acceptor molecule, acceptor atom, score
      L1  H    10    31       P1  7948  0.74
      L1  H    13    32       P1  7948  0.67
      P1  H  7989  7998       L1     5  1.00
      L1  C     6    28       P1  8028  0.42

> <Gold.PLP.Chemscore.Internal.Correction>
0.0114

> <Gold.Rescore>
     Score         DG    S(hbond)    S(metal)    S(lipo)     H(rot)  DE(clash)    DE(int)     intcor
     13.37     -18.20       1.63        0.00      92.19       1.38       1.98       2.85       ----

> <Gold.Chemscore.Fitness>
13.3655

> <Gold.Chemscore.DG>
-18.1983

> <Gold.Chemscore.ZeroCoef>
-5.4800

> <Gold.Chemscore.Hbond>
1.6340

> <Gold.Chemscore.Metal>
0.0000

> <Gold.Chemscore.Lipo>
92.1879

> <Gold.Chemscore.Internal_Hbond>
0.0000

> <Gold.Chemscore.DEClash>
1.9844

> <Gold.Chemscore.DEInternal>
2.8484

> <Gold.Chemscore.Rot>
1.3770

> <Gold.Chemscore.Internal.Correction>
   9.000000E+99

> <Gold.Chemscore.Hbonds>
donor molecule, donor type, donor heavy atom, donor atom, acceptor molecule, acceptor atom, score
      L1  H    10    31       P1  7948  0.74
      L1  H    13    32       P1  7948  0.66
      P1  H  7989  7998       L1     5  0.09

> <Gold.Chemscore.Hbond.Weighted>
-5.4575

> <Gold.Chemscore.Metal.Weighted>
-0.0000

> <Gold.Chemscore.Lipo.Weighted>
-10.7860

> <Gold.Chemscore.Internal_Hbond.Weighted>
0.0000

> <Gold.Chemscore.DEClash.Weighted>
1.9844

> <Gold.Chemscore.DEInternal.Weighted>
2.8484

> <Gold.Chemscore.Rot.Weighted>
3.5252

> <Gold.Chemscore.Internal.Correction.Weighted>
   9.000000E+99

> <Gold.Protein.RotatedTorsions>
[ 6907 6896 6895 6894 ] final  158.99 input  -60.11 | X-H torsion
[ 7974 7965 7964 7962 ] final -124.21 input  175.53 | X-H torsion
[ 8008 7997 7996 7995 ] final -112.97 input   59.86 | X-H torsion
[ 10167 10162 10161 10158 ] final   60.86 input  -65.29 | X-H torsion
[ 10718 10713 10712 10709 ] final   78.08 input   66.30 | X-H torsion
[ 10763 10752 10751 10750 ] final -149.99 input  -60.55 | X-H torsion
[ 11005 11000 10999 10996 ] final  -38.39 input  -57.11 | X-H torsion

> <Gold.Protein.ActiveResidues>
 VAL166  LYS551  ARG553  GLY616  TRP617  ASP618  TYR619  PRO620  LYS621  CYS622 
 ASP623  PHE694  ASN695  SER759  ASP760  ASP761  ALA762  ILE779  LEU786  VAL792 
 PHE793  MET794  SER795  GLU796  ALA797  LYS798  CYS799  TRP800  GLU811  SER814 

> <Gold.Protein.RotatedAtoms>
  151.9923  133.3795  159.4148 H   0  0  0  0  0  0  0  0  0  0  0  0  # atno 6907 bound_to 6896
  150.6920  134.3923  159.5091 H   0  0  0  0  0  0  0  0  0  0  0  0  # atno 6908 bound_to 6896
  152.1658  134.8874  160.0589 H   0  0  0  0  0  0  0  0  0  0  0  0  # atno 6909 bound_to 6896
  145.0104  140.7901  143.4442 H   0  0  0  0  0  0  0  0  0  0  0  0  # atno 7974 bound_to 7965
  155.0135  140.0393  157.2409 H   0  0  0  0  0  0  0  0  0  0  0  0  # atno 8008 bound_to 7997
  154.7439  140.2754  155.6326 H   0  0  0  0  0  0  0  0  0  0  0  0  # atno 8009 bound_to 7997
  156.2870  140.2660  156.2175 H   0  0  0  0  0  0  0  0  0  0  0  0  # atno 8010 bound_to 7997
  140.1611  144.4370  150.6709 H   0  0  0  0  0  0  0  0  0  0  0  0  # atno 10167 bound_to 10162
  157.6732  130.9851  150.1734 H   0  0  0  0  0  0  0  0  0  0  0  0  # atno 10718 bound_to 10713
  154.8145  135.3295  154.7214 H   0  0  0  0  0  0  0  0  0  0  0  0  # atno 10763 bound_to 10752
  153.7857  135.6915  153.4885 H   0  0  0  0  0  0  0  0  0  0  0  0  # atno 10764 bound_to 10752
  153.1950  135.4537  155.0144 H   0  0  0  0  0  0  0  0  0  0  0  0  # atno 10765 bound_to 10752
  141.0024  133.6949  156.2047 H   0  0  0  0  0  0  0  0  0  0  0  0  # atno 11005 bound_to 11000
  145.2030  139.2242  143.5183 LP  0  0  0  0  0  0  0  0  0  0  0  0  # atno 17320 bound_to 7965
  146.3469  140.1852  142.8589 LP  0  0  0  0  0  0  0  0  0  0  0  0  # atno 17321 bound_to 7965
  140.6642  143.2262  151.5782 LP  0  0  0  0  0  0  0  0  0  0  0  0  # atno 17342 bound_to 10162
  139.5381  144.2724  152.1293 LP  0  0  0  0  0  0  0  0  0  0  0  0  # atno 17343 bound_to 10162
  156.2483  130.3698  149.8261 LP  0  0  0  0  0  0  0  0  0  0  0  0  # atno 17370 bound_to 10713
  156.6041  130.8559  151.3439 LP  0  0  0  0  0  0  0  0  0  0  0  0  # atno 17371 bound_to 10713
  140.6868  134.4709  157.5589 LP  0  0  0  0  0  0  0  0  0  0  0  0  # atno 17394 bound_to 11000
  139.9045  134.8479  156.1759 LP  0  0  0  0  0  0  0  0  0  0  0  0  # atno 17395 bound_to 11000

$$$$
