AV-unprocessed.smi:2203|AV-procd|sdf|8936|dock6
  -GOLD-   2272012153D 1   1.00000     0.00000
 Structure written by MMmdl.
 48 49  0  0  0  0  0  0  0  0  1 V2000
  152.9486  138.6847  154.9659 C   0  0  0  0  0  0  0  0  0  0  0  0
  151.9650  139.3917  155.8539 C   0  0  0  0  0  0  0  0  0  0  0  0
  152.4070  140.0398  156.9176 N   0  0  0  0  0  0  0  0  0  0  0  0
  151.3019  140.5520  157.4976 N   0  0  0  0  0  0  0  0  0  0  0  0
  151.4404  141.3239  158.7239 C   0  0  0  0  0  0  0  0  0  0  0  0
  152.5382  142.4070  158.6406 C   0  0  0  0  0  0  0  0  0  0  0  0
  153.1275  142.6910  160.0299 C   0  0  0  0  0  0  0  0  0  0  0  0
  152.0514  143.7076  157.9771 C   0  0  0  0  0  0  0  0  0  0  0  0
  150.1584  140.2376  156.7853 C   0  0  0  0  0  0  0  0  0  0  0  0
  148.7954  140.6883  157.2045 C   0  0  0  0  0  0  0  0  0  0  0  0
  150.5488  139.4810  155.7127 C   0  0  0  0  0  0  0  0  0  0  0  0
  149.6916  138.8738  154.6300 C   0  0  0  0  0  0  0  0  0  0  0  0
  148.6836  137.8967  155.2367 C   0  0  0  0  0  0  0  0  0  0  0  0
  148.0397  138.2176  156.2353 O   0  0  0  0  0  0  0  0  0  0  0  0
  148.5673  136.7033  154.6339 N   0  0  0  0  0  0  0  0  0  0  0  0
  147.6970  135.6195  155.0729 C   0  0  0  0  0  0  0  0  0  0  0  0
  147.7968  134.4061  154.1343 C   0  0  1  0  0  0  0  0  0  0  0  0
  149.1545  133.7094  154.1625 C   0  0  0  0  0  0  0  0  0  0  0  0
  148.8328  132.2973  153.6989 C   0  0  0  0  0  0  0  0  0  0  0  0
  147.3162  132.1798  153.8824 C   0  0  0  0  0  0  0  0  0  0  0  0
  146.9236  133.3695  154.5539 O   0  0  0  0  0  0  0  0  0  0  0  0
  153.1772  139.2833  154.0842 H   0  0  0  0  0  0  0  0  0  0  0  0
  152.5541  137.7277  154.6254 H   0  0  0  0  0  0  0  0  0  0  0  0
  153.8874  138.4856  155.4842 H   0  0  0  0  0  0  0  0  0  0  0  0
  150.4796  141.7857  158.9573 H   0  0  0  0  0  0  0  0  0  0  0  0
  151.6495  140.6345  159.5421 H   0  0  0  0  0  0  0  0  0  0  0  0
  153.3474  142.0151  158.0241 H   0  0  0  0  0  0  0  0  0  0  0  0
  152.3731  143.0976  160.7043 H   0  0  0  0  0  0  0  0  0  0  0  0
  153.9445  143.4106  159.9715 H   0  0  0  0  0  0  0  0  0  0  0  0
  153.5236  141.7817  160.4827 H   0  0  0  0  0  0  0  0  0  0  0  0
  151.2069  144.1350  158.5186 H   0  0  0  0  0  0  0  0  0  0  0  0
  151.7372  143.5405  156.9468 H   0  0  0  0  0  0  0  0  0  0  0  0
  152.8438  144.4561  157.9526 H   0  0  0  0  0  0  0  0  0  0  0  0
  148.0712  140.5486  156.4020 H   0  0  0  0  0  0  0  0  0  0  0  0
  148.7924  141.7461  157.4670 H   0  0  0  0  0  0  0  0  0  0  0  0
  148.4495  140.1212  158.0687 H   0  0  0  0  0  0  0  0  0  0  0  0
  149.1473  139.6377  154.0739 H   0  0  0  0  0  0  0  0  0  0  0  0
  150.2994  138.3475  153.8931 H   0  0  0  0  0  0  0  0  0  0  0  0
  149.1356  136.5277  153.8183 H   0  0  0  0  0  0  0  0  0  0  0  0
  147.9499  135.3305  156.0943 H   0  0  0  0  0  0  0  0  0  0  0  0
  146.6721  135.9907  155.1005 H   0  0  0  0  0  0  0  0  0  0  0  0
  147.5506  134.6881  153.1086 H   0  0  0  0  0  0  0  0  0  0  0  0
  149.8960  134.2050  153.5352 H   0  0  0  0  0  0  0  0  0  0  0  0
  149.5413  133.6790  155.1820 H   0  0  0  0  0  0  0  0  0  0  0  0
  149.1015  132.1543  152.6518 H   0  0  0  0  0  0  0  0  0  0  0  0
  149.3733  131.5564  154.2887 H   0  0  0  0  0  0  0  0  0  0  0  0
  146.8157  132.1318  152.9142 H   0  0  0  0  0  0  0  0  0  0  0  0
  147.0313  131.2975  154.4561 H   0  0  0  0  0  0  0  0  0  0  0  0
  1  2  1  0  0  0  0
  1 22  1  0  0  0  0
  1 23  1  0  0  0  0
  1 24  1  0  0  0  0
  2 11  1  0  0  0  0
  2  3  2  0  0  0  0
  3  4  1  0  0  0  0
  4  5  1  0  0  0  0
  4  9  1  0  0  0  0
  5  6  1  0  0  0  0
  5 25  1  0  0  0  0
  5 26  1  0  0  0  0
  6  7  1  0  0  0  0
  6  8  1  0  0  0  0
  6 27  1  0  0  0  0
  7 28  1  0  0  0  0
  7 29  1  0  0  0  0
  7 30  1  0  0  0  0
  8 31  1  0  0  0  0
  8 32  1  0  0  0  0
  8 33  1  0  0  0  0
  9 10  1  0  0  0  0
  9 11  2  0  0  0  0
 10 34  1  0  0  0  0
 10 35  1  0  0  0  0
 10 36  1  0  0  0  0
 11 12  1  0  0  0  0
 12 13  1  0  0  0  0
 12 37  1  0  0  0  0
 12 38  1  0  0  0  0
 13 14  2  0  0  0  0
 13 15  1  0  0  0  0
 15 16  1  0  0  0  0
 15 39  1  0  0  0  0
 16 17  1  0  0  0  0
 16 40  1  0  0  0  0
 16 41  1  0  0  0  0
 17 21  1  0  0  0  0
 17 18  1  0  0  0  0
 17 42  1  0  0  0  0
 18 19  1  0  0  0  0
 18 43  1  0  0  0  0
 18 44  1  0  0  0  0
 19 20  1  0  0  0  0
 19 45  1  0  0  0  0
 19 46  1  0  0  0  0
 20 21  1  0  0  0  0
 20 47  1  0  0  0  0
 20 48  1  0  0  0  0
M  END
> <s_m_source_file>
AV-unprocessed.smi

> <i_m_source_file_index>
2203

> <i_lp_mmshare_version>
43012

> <i_f3d_flags>
0

> <s_epik_input>
W0NIM11jMW5uKFtDSDJdW0NIXShbQ0gzXSlbQ0gzXSljKFtDSDNdKWMxW0NIMl1DKD1PKVtOSF1bQ0gyXVtDQEBIXTJbQ0gyXVtDSDJdW0NIMl1PMg==

> <s_epik_cmdline>
J2VwaWtfcHl0aG9uJywgJy1waCcsICc3LjAnLCAnLXRuJywgJzgnLCAnLW1hJywgJzIwMCcsICctbWV0YWxfYmluZGluZycsICctaW1hZScsICc8aW5maWxlLm1hZT4nLCAnLW9tYWUnLCAnPG91dGZpbGUubWFlPic=

> <r_lp_tautomer_probability>
1

> <r_epik_Ionization_Penalty>
0.00306713

> <r_epik_Ionization_Penalty_Charging>
0

> <r_epik_Ionization_Penalty_Neutral>
0.00306713

> <r_epik_State_Penalty>
0.00215672

> <r_epik_Charging_Adjusted_Penalty>
0.00215672

> <i_epik_Tot_Q>
0

> <i_epik_Tot_abs_Q>
0

> <r_epik_Metal_State_Penalty>
-0

> <b_epik_Metal_Only>
0

> <s_lp_Force_Field>
OPLS_2005

> <r_lp_Energy>
15.0648

> <b_lp_Chiralities_Consistent>
1

> <s_lp_Variant>
AV-unprocessed.smi:2203-2

> <Gold.Version>
5.8.1

> <Gold.Id.Protein>
6NUR|6NUR_protein|mol2

> <Gold.PLP.Fitness>
40.2193

> <Gold.PLP.PLP>
-35.8480

> <Gold.PLP.part.hbond>
-2.0000

> <Gold.PLP.part.metal>
0.0000

> <Gold.PLP.part.buried>
-2.2263

> <Gold.PLP.part.nonpolar>
-31.0338

> <Gold.PLP.part.repulsive>
0.0396

> <Gold.PLP.ligand.clash>
0.0000

> <Gold.PLP.ligand.torsion>
0.5825

> <Gold.PLP.Chemscore.Hbond>
1.8320

> <Gold.PLP.Chemscore.CHOScore>
0.0000

> <Gold.PLP.Chemscore.Metal>
0.0000

> <Gold.Chemscore.Hbonds>
donor molecule, donor type, donor heavy atom, donor atom, acceptor molecule, acceptor atom, score
      L1  H    15    39       P1  7948  0.83
      P1  H  7997  8009       L1     3  1.00

> <Gold.PLP.Chemscore.Internal.Correction>
0.0404

> <Gold.Rescore>
     Score         DG    S(hbond)    S(metal)    S(lipo)     H(rot)  DE(clash)    DE(int)     intcor
     15.37     -18.61       1.67        0.00     100.26       1.63       0.15       3.09       ----

> <Gold.Chemscore.Fitness>
15.3692

> <Gold.Chemscore.DG>
-18.6127

> <Gold.Chemscore.ZeroCoef>
-5.4800

> <Gold.Chemscore.Hbond>
1.6716

> <Gold.Chemscore.Metal>
0.0000

> <Gold.Chemscore.Lipo>
100.2564

> <Gold.Chemscore.Internal_Hbond>
0.0000

> <Gold.Chemscore.DEClash>
0.1504

> <Gold.Chemscore.DEInternal>
3.0931

> <Gold.Chemscore.Rot>
1.6329

> <Gold.Chemscore.Internal.Correction>
   9.000000E+99

> <Gold.Chemscore.Hbonds>
donor molecule, donor type, donor heavy atom, donor atom, acceptor molecule, acceptor atom, score
      L1  H    15    39       P1  7948  0.80
      P1  H  7997  8009       L1     3  0.43

> <Gold.Chemscore.Hbond.Weighted>
-5.5830

> <Gold.Chemscore.Metal.Weighted>
-0.0000

> <Gold.Chemscore.Lipo.Weighted>
-11.7300

> <Gold.Chemscore.Internal_Hbond.Weighted>
0.0000

> <Gold.Chemscore.DEClash.Weighted>
0.1504

> <Gold.Chemscore.DEInternal.Weighted>
3.0931

> <Gold.Chemscore.Rot.Weighted>
4.1803

> <Gold.Chemscore.Internal.Correction.Weighted>
   9.000000E+99

> <Gold.Protein.RotatedTorsions>
[ 6907 6896 6895 6894 ] final  162.10 input  -60.11 | X-H torsion
[ 7974 7965 7964 7962 ] final -137.28 input  175.53 | X-H torsion
[ 8008 7997 7996 7995 ] final  177.97 input   59.86 | X-H torsion
[ 10167 10162 10161 10158 ] final -150.69 input  -65.29 | X-H torsion
[ 10718 10713 10712 10709 ] final  179.86 input   66.30 | X-H torsion
[ 10763 10752 10751 10750 ] final   76.73 input  -60.55 | X-H torsion
[ 11005 11000 10999 10996 ] final -112.29 input  -57.11 | X-H torsion

> <Gold.Protein.ActiveResidues>
 VAL166  LYS551  ARG553  GLY616  TRP617  ASP618  TYR619  PRO620  LYS621  CYS622 
 ASP623  PHE694  ASN695  SER759  ASP760  ASP761  ALA762  ILE779  LEU786  VAL792 
 PHE793  MET794  SER795  GLU796  ALA797  LYS798  CYS799  TRP800  GLU811  SER814 

> <Gold.Protein.RotatedAtoms>
  151.9456  133.3650  159.3980 H   0  0  0  0  0  0  0  0  0  0  0  0  # atno 6907 bound_to 6896
  150.6990  134.4394  159.5294 H   0  0  0  0  0  0  0  0  0  0  0  0  # atno 6908 bound_to 6896
  152.2058  134.8546  160.0553 H   0  0  0  0  0  0  0  0  0  0  0  0  # atno 6909 bound_to 6896
  144.8855  140.6569  143.5178 H   0  0  0  0  0  0  0  0  0  0  0  0  # atno 7974 bound_to 7965
  156.0598  140.1345  156.9955 H   0  0  0  0  0  0  0  0  0  0  0  0  # atno 8008 bound_to 7997
  154.4476  140.0994  156.6570 H   0  0  0  0  0  0  0  0  0  0  0  0  # atno 8009 bound_to 7997
  155.5395  140.3460  155.4446 H   0  0  0  0  0  0  0  0  0  0  0  0  # atno 8010 bound_to 7997
  139.7332  143.8775  152.2541 H   0  0  0  0  0  0  0  0  0  0  0  0  # atno 10167 bound_to 10162
  156.8694  130.9779  151.3075 H   0  0  0  0  0  0  0  0  0  0  0  0  # atno 10718 bound_to 10713
  153.0747  135.4940  154.8378 H   0  0  0  0  0  0  0  0  0  0  0  0  # atno 10763 bound_to 10752
  154.7070  135.3012  154.9257 H   0  0  0  0  0  0  0  0  0  0  0  0  # atno 10764 bound_to 10752
  153.9962  135.6772  153.4809 H   0  0  0  0  0  0  0  0  0  0  0  0  # atno 10765 bound_to 10752
  141.0684  133.9421  157.2534 H   0  0  0  0  0  0  0  0  0  0  0  0  # atno 11005 bound_to 11000
  145.3876  139.1623  143.4246 LP  0  0  0  0  0  0  0  0  0  0  0  0  # atno 17320 bound_to 7965
  146.3022  140.3962  142.8700 LP  0  0  0  0  0  0  0  0  0  0  0  0  # atno 17321 bound_to 7965
  139.8705  144.7071  150.8993 LP  0  0  0  0  0  0  0  0  0  0  0  0  # atno 17342 bound_to 10162
  140.7774  143.3742  151.1593 LP  0  0  0  0  0  0  0  0  0  0  0  0  # atno 17343 bound_to 10162
  157.6204  130.8651  149.9099 LP  0  0  0  0  0  0  0  0  0  0  0  0  # atno 17370 bound_to 10713
  156.0734  130.3682  150.0728 LP  0  0  0  0  0  0  0  0  0  0  0  0  # atno 17371 bound_to 10713
  139.9498  135.0177  156.8961 LP  0  0  0  0  0  0  0  0  0  0  0  0  # atno 17394 bound_to 11000
  140.5726  134.0429  155.7435 LP  0  0  0  0  0  0  0  0  0  0  0  0  # atno 17395 bound_to 11000

$$$$
