#       Name:                AV-unprocessed.smi:3185
#       Creating user name   scv26
#       Creation time:       Fri Mar 27 18:00:55 2020


#       File generated by GOLD software.
#

@<TRIPOS>MOLECULE
AV-unprocessed.smi:3185
    40    41     1
SMALL
NO_CHARGES


@<TRIPOS>ATOM
      1 ****        -5.9863   2.8950   0.0694 N.1            1 S1                 0.0000
      2 ****        -4.8463   2.8317   0.2553 C.1            1 S1                 0.0000
      3 ****        -3.3972   2.7510   0.4915 C.3            1 S1                 0.0000
      4 ****        -2.7207   1.6660  -0.3530 C.3            1 S1                 0.0000
      5 ****        -1.2101   1.6001  -0.1022 C.3            1 S1                 0.0000
      6 ****        -0.6279   0.5529  -0.9275 N.3            1 S1                 0.0000
      7 ****         0.8202   0.4543  -0.7686 C.3            1 S1                 0.0000
      8 ****         1.3863  -0.3320  -1.9679 C.3            1 S1                 0.0000
      9 ****         2.9138  -0.4626  -1.8745 C.3            1 S1                 0.0000
     10 ****         3.3424  -1.1302  -0.5597 C.3            1 S1                 0.0000
     11 ****         2.7693  -0.3880   0.6624 C.3            1 S1                 0.0000
     12 ****         1.2396  -0.1597   0.6003 C.3            1 S1                 0.0000
     13 ****         0.4707  -1.3462   0.9851 N.pl3          1 S1                 0.0000
     14 ****        -0.4538  -1.4475   2.0059 C.2            1 S1                 0.0000
     15 ****        -0.9427  -2.7220   2.0000 C.2            1 S1                 0.0000
     16 ****        -0.2515  -3.3410   0.9232 C.2            1 S1                 0.0000
     17 ****         0.5874  -2.5171   0.3186 N.2            1 S1                 0.0000
     18 ****        -2.9680   3.7288   0.2709 H              1 S1                 0.0000
     19 ****        -3.2421   2.5598   1.5536 H              1 S1                 0.0000
     20 ****        -3.1741   0.6996  -0.1283 H              1 S1                 0.0000
     21 ****        -2.9106   1.8608  -1.4097 H              1 S1                 0.0000
     22 ****        -0.7481   2.5582  -0.3433 H              1 S1                 0.0000
     23 ****        -1.0242   1.4010   0.9528 H              1 S1                 0.0000
     24 ****        -1.0549  -0.3391  -0.7197 H              1 S1                 0.0000
     25 ****         1.2331   1.4624  -0.8302 H              1 S1                 0.0000
     26 ****         0.9349  -1.3221  -2.0326 H              1 S1                 0.0000
     27 ****         1.1274   0.1770  -2.8971 H              1 S1                 0.0000
     28 ****         3.2899  -1.0365  -2.7218 H              1 S1                 0.0000
     29 ****         3.3681   0.5265  -1.9456 H              1 S1                 0.0000
     30 ****         3.0282  -2.1731  -0.5568 H              1 S1                 0.0000
     31 ****         4.4307  -1.1492  -0.4974 H              1 S1                 0.0000
     32 ****         3.0344  -0.9173   1.5783 H              1 S1                 0.0000
     33 ****         3.2597   0.5840   0.7284 H              1 S1                 0.0000
     34 ****         1.0265   0.5861   1.3669 H              1 S1                 0.0000
     35 ****        -0.6882  -0.6094   2.6454 H              1 S1                 0.0000
     36 ****        -1.6824  -3.1461   2.6625 H              1 S1                 0.0000
     37 ****        -0.3349  -4.3560   0.5638 H              1 S1                 0.0000
     38 ****        -6.9717   2.9497  -0.0913 LP             1 S1                 0.0000
     39 ****        -0.8102   0.8015  -1.8787 LP             1 S1                 0.0000
     40 ****         1.1797  -2.7165  -0.4620 LP             1 S1                 0.0000
@<TRIPOS>BOND
    1    1    2 3     
    2    2    3 1     
    3    3    4 1     
    4    3   18 1     
    5    3   19 1     
    6    4    5 1     
    7    4   20 1     
    8    4   21 1     
    9    5    6 1     
   10    5   22 1     
   11    5   23 1     
   12    6    7 1     
   13    6   24 1     
   14    7   12 1     
   15    7    8 1     
   16    7   25 1     
   17    8    9 1     
   18    8   26 1     
   19    8   27 1     
   20    9   10 1     
   21    9   28 1     
   22    9   29 1     
   23   10   11 1     
   24   10   30 1     
   25   10   31 1     
   26   11   12 1     
   27   11   32 1     
   28   11   33 1     
   29   12   13 1     
   30   12   34 1     
   31   13   17 1     
   32   13   14 1     
   33   14   15 2     
   34   14   35 1     
   35   15   16 1     
   36   15   36 1     
   37   16   17 2     
   38   16   37 1     
   39    1   38 1     
   40    6   39 1     
   41   17   40 1     
@<TRIPOS>SUBSTRUCTURE
      1 S1             1
@<TRIPOS>SET
LONE_PAIRS      STATIC     ATOMS    <user>   **** ""
3 38 39 40
DONOR_HYDROGENS      STATIC     ATOMS    <user>   **** ""
1 24
ATOM$BLUE        STATIC     ATOMS    COLORGROUP SYSTEM
3 38 39 40
ATOM$RED        STATIC     ATOMS    COLORGROUP SYSTEM
1 24
