AV-unprocessed.smi:2730|AV-procd|sdf|10528|dock9
  -GOLD-   2272014573D 1   1.00000     0.00000
 Structure written by MMmdl.
 43 44  0  0  0  0  0  0  0  0  1 V2000
  142.7246  134.7096  152.8071 C   0  0  0  0  0  0  0  0  0  0  0  0
  143.6274  135.9436  152.9526 C   0  0  0  0  0  0  0  0  0  0  0  0
  144.6422  136.1107  151.8033 C   0  0  2  0  0  0  0  0  0  0  0  0
  145.7955  135.0939  151.8879 C   0  0  0  0  0  0  0  0  0  0  0  0
  145.3924  133.7145  151.5727 C   0  0  0  0  0  0  0  0  0  0  0  0
  145.0749  132.6299  151.3245 N   0  0  0  0  0  0  0  0  0  0  0  0
  145.1788  137.4697  151.8017 N   0  0  0  0  0  0  0  0  0  0  0  0
  145.9313  138.0058  152.7733 C   0  0  0  0  0  0  0  0  0  0  0  0
  146.2481  137.4007  153.7978 O   0  0  0  0  0  0  0  0  0  0  0  0
  146.2812  139.2690  152.4751 N   0  0  0  0  0  0  0  0  0  0  0  0
  147.0666  140.1665  153.2439 C   0  0  0  0  0  0  0  0  0  0  0  0
  146.7224  141.4650  153.5043 N   0  0  0  0  0  0  0  0  0  0  0  0
  147.7721  141.8191  154.2338 C   0  0  0  0  0  0  0  0  0  0  0  0
  148.6697  140.8442  154.4053 N   0  0  0  0  0  0  0  0  0  0  0  0
  149.9301  140.8470  155.1319 C   0  0  0  0  0  0  0  0  0  0  0  0
  150.6533  139.4887  155.0181 C   0  0  0  0  0  0  0  0  0  0  0  0
  151.9890  139.5026  155.7793 C   0  0  0  0  0  0  0  0  0  0  0  0
  151.7880  139.9000  157.2506 C   0  0  0  0  0  0  0  0  0  0  0  0
  151.0683  141.2532  157.3690 C   0  0  0  0  0  0  0  0  0  0  0  0
  149.7309  141.2411  156.6105 C   0  0  0  0  0  0  0  0  0  0  0  0
  148.2192  139.7413  153.7564 N   0  0  0  0  0  0  0  0  0  0  0  0
  142.0621  134.6129  153.6674 H   0  0  0  0  0  0  0  0  0  0  0  0
  143.3163  133.7964  152.7402 H   0  0  0  0  0  0  0  0  0  0  0  0
  142.0988  134.7704  151.9167 H   0  0  0  0  0  0  0  0  0  0  0  0
  143.0075  136.8377  153.0281 H   0  0  0  0  0  0  0  0  0  0  0  0
  144.1607  135.8656  153.9001 H   0  0  0  0  0  0  0  0  0  0  0  0
  144.1104  135.9453  150.8641 H   0  0  0  0  0  0  0  0  0  0  0  0
  146.5949  135.3617  151.1964 H   0  0  0  0  0  0  0  0  0  0  0  0
  146.2271  135.0904  152.8893 H   0  0  0  0  0  0  0  0  0  0  0  0
  144.9675  138.0393  150.9954 H   0  0  0  0  0  0  0  0  0  0  0  0
  145.9478  139.6326  151.5947 H   0  0  0  0  0  0  0  0  0  0  0  0
  147.8887  142.8085  154.6509 H   0  0  0  0  0  0  0  0  0  0  0  0
  150.5629  141.6041  154.6655 H   0  0  0  0  0  0  0  0  0  0  0  0
  150.0228  138.6929  155.4170 H   0  0  0  0  0  0  0  0  0  0  0  0
  150.8306  139.2462  153.9696 H   0  0  0  0  0  0  0  0  0  0  0  0
  152.4599  138.5209  155.7207 H   0  0  0  0  0  0  0  0  0  0  0  0
  152.6747  140.2037  155.3018 H   0  0  0  0  0  0  0  0  0  0  0  0
  151.2058  139.1313  157.7604 H   0  0  0  0  0  0  0  0  0  0  0  0
  152.7518  139.9458  157.7586 H   0  0  0  0  0  0  0  0  0  0  0  0
  150.8980  141.4926  158.4189 H   0  0  0  0  0  0  0  0  0  0  0  0
  151.7069  142.0431  156.9713 H   0  0  0  0  0  0  0  0  0  0  0  0
  149.2628  142.2240  156.6755 H   0  0  0  0  0  0  0  0  0  0  0  0
  149.0495  140.5415  157.0971 H   0  0  0  0  0  0  0  0  0  0  0  0
  1  2  1  0  0  0  0
  1 22  1  0  0  0  0
  1 23  1  0  0  0  0
  1 24  1  0  0  0  0
  2  3  1  0  0  0  0
  2 25  1  0  0  0  0
  2 26  1  0  0  0  0
  3  4  1  0  0  0  0
  3  7  1  0  0  0  0
  3 27  1  0  0  0  0
  4  5  1  0  0  0  0
  4 28  1  0  0  0  0
  4 29  1  0  0  0  0
  5  6  3  0  0  0  0
  7  8  1  0  0  0  0
  7 30  1  0  0  0  0
  8  9  2  0  0  0  0
  8 10  1  0  0  0  0
 10 11  1  0  0  0  0
 10 31  1  0  0  0  0
 11 21  2  0  0  0  0
 11 12  1  0  0  0  0
 12 13  2  0  0  0  0
 13 14  1  0  0  0  0
 13 32  1  0  0  0  0
 14 15  1  0  0  0  0
 14 21  1  0  0  0  0
 15 20  1  0  0  0  0
 15 16  1  0  0  0  0
 15 33  1  0  0  0  0
 16 17  1  0  0  0  0
 16 34  1  0  0  0  0
 16 35  1  0  0  0  0
 17 18  1  0  0  0  0
 17 36  1  0  0  0  0
 17 37  1  0  0  0  0
 18 19  1  0  0  0  0
 18 38  1  0  0  0  0
 18 39  1  0  0  0  0
 19 20  1  0  0  0  0
 19 40  1  0  0  0  0
 19 41  1  0  0  0  0
 20 42  1  0  0  0  0
 20 43  1  0  0  0  0
M  END
> <s_m_source_file>
AV-unprocessed.smi

> <i_m_source_file_index>
2730

> <i_lp_mmshare_version>
43012

> <i_f3d_flags>
0

> <s_epik_input>
TiNDW0NIMl1bQ0BASF0oW0NIMl1bQ0gzXSlbTkhdQyg9TylbTkhdYzFuW2NIXW4objEpW0NIXTJbQ0gyXVtDSDJdW0NIMl1bQ0gyXVtDSDJdMg==

> <s_epik_cmdline>
J2VwaWtfcHl0aG9uJywgJy1waCcsICc3LjAnLCAnLXRuJywgJzgnLCAnLW1hJywgJzIwMCcsICctbWV0YWxfYmluZGluZycsICctaW1hZScsICc8aW5maWxlLm1hZT4nLCAnLW9tYWUnLCAnPG91dGZpbGUubWFlPic=

> <r_lp_tautomer_probability>
1

> <r_epik_Ionization_Penalty>
7.18854e-05

> <r_epik_Ionization_Penalty_Charging>
0

> <r_epik_Ionization_Penalty_Neutral>
7.18854e-05

> <r_epik_State_Penalty>
-0

> <r_epik_Charging_Adjusted_Penalty>
0

> <i_epik_Tot_Q>
0

> <i_epik_Tot_abs_Q>
0

> <r_epik_Metal_State_Penalty>
-0

> <b_epik_Metal_Only>
0

> <s_lp_Force_Field>
OPLS_2005

> <r_lp_Energy>
15.2848

> <b_lp_Chiralities_Consistent>
1

> <s_lp_Variant>
AV-unprocessed.smi:2730-1

> <Gold.Version>
5.8.1

> <Gold.Id.Protein>
6NUR|6NUR_protein|mol2

> <Gold.PLP.Fitness>
41.2240

> <Gold.PLP.PLP>
-36.4858

> <Gold.PLP.part.hbond>
-2.0000

> <Gold.PLP.part.metal>
0.0000

> <Gold.PLP.part.buried>
-4.6717

> <Gold.PLP.part.nonpolar>
-31.3085

> <Gold.PLP.part.repulsive>
2.1259

> <Gold.PLP.ligand.clash>
0.0000

> <Gold.PLP.ligand.torsion>
0.6244

> <Gold.PLP.Chemscore.Hbond>
0.9760

> <Gold.PLP.Chemscore.CHOScore>
1.0000

> <Gold.PLP.Chemscore.Metal>
0.0000

> <Gold.Chemscore.Hbonds>
donor molecule, donor type, donor heavy atom, donor atom, acceptor molecule, acceptor atom, score
      L1  H     7    30       P1 10171  1.00
      L1  C    13    32       P1  8028  1.00

> <Gold.PLP.Chemscore.Internal.Correction>
0.0591

> <Gold.Rescore>
     Score         DG    S(hbond)    S(metal)    S(lipo)     H(rot)  DE(clash)    DE(int)     intcor
      8.64     -10.27       0.93        0.00      54.20       1.82       0.06       1.57       ----

> <Gold.Chemscore.Fitness>
8.6355

> <Gold.Chemscore.DG>
-10.2664

> <Gold.Chemscore.ZeroCoef>
-5.4800

> <Gold.Chemscore.Hbond>
0.9330

> <Gold.Chemscore.Metal>
0.0000

> <Gold.Chemscore.Lipo>
54.2044

> <Gold.Chemscore.Internal_Hbond>
0.0000

> <Gold.Chemscore.DEClash>
0.0605

> <Gold.Chemscore.DEInternal>
1.5704

> <Gold.Chemscore.Rot>
1.8249

> <Gold.Chemscore.Internal.Correction>
   9.000000E+99

> <Gold.Chemscore.Hbonds>
donor molecule, donor type, donor heavy atom, donor atom, acceptor molecule, acceptor atom, score
      L1  H     7    30       P1 10171  0.95

> <Gold.Chemscore.Hbond.Weighted>
-3.1162

> <Gold.Chemscore.Metal.Weighted>
-0.0000

> <Gold.Chemscore.Lipo.Weighted>
-6.3419

> <Gold.Chemscore.Internal_Hbond.Weighted>
0.0000

> <Gold.Chemscore.DEClash.Weighted>
0.0605

> <Gold.Chemscore.DEInternal.Weighted>
1.5704

> <Gold.Chemscore.Rot.Weighted>
4.6718

> <Gold.Chemscore.Internal.Correction.Weighted>
   9.000000E+99

> <Gold.Protein.RotatedTorsions>
[ 6907 6896 6895 6894 ] final  165.18 input  -60.11 | X-H torsion
[ 7974 7965 7964 7962 ] final -123.29 input  175.53 | X-H torsion
[ 8008 7997 7996 7995 ] final  132.21 input   59.86 | X-H torsion
[ 10167 10162 10161 10158 ] final  103.94 input  -65.29 | X-H torsion
[ 10718 10713 10712 10709 ] final  164.81 input   66.30 | X-H torsion
[ 10763 10752 10751 10750 ] final   37.95 input  -60.55 | X-H torsion
[ 11005 11000 10999 10996 ] final  -96.15 input  -57.11 | X-H torsion

> <Gold.Protein.ActiveResidues>
 VAL166  LYS551  ARG553  GLY616  TRP617  ASP618  TYR619  PRO620  LYS621  CYS622 
 ASP623  PHE694  ASN695  SER759  ASP760  ASP761  ALA762  ILE779  LEU786  VAL792 
 PHE793  MET794  SER795  GLU796  ALA797  LYS798  CYS799  TRP800  GLU811  SER814 

> <Gold.Protein.RotatedAtoms>
  151.8983  133.3532  159.3821 H   0  0  0  0  0  0  0  0  0  0  0  0  # atno 6907 bound_to 6896
  150.7086  134.4854  159.5499 H   0  0  0  0  0  0  0  0  0  0  0  0  # atno 6908 bound_to 6896
  152.2437  134.8203  160.0507 H   0  0  0  0  0  0  0  0  0  0  0  0  # atno 6909 bound_to 6896
  145.0203  140.7982  143.4385 H   0  0  0  0  0  0  0  0  0  0  0  0  # atno 7974 bound_to 7965
  156.2980  140.2552  156.3051 H   0  0  0  0  0  0  0  0  0  0  0  0  # atno 8008 bound_to 7997
  154.9380  140.0397  157.2101 H   0  0  0  0  0  0  0  0  0  0  0  0  # atno 8009 bound_to 7997
  154.8154  140.2851  155.5828 H   0  0  0  0  0  0  0  0  0  0  0  0  # atno 8010 bound_to 7997
  139.7220  144.7056  151.0858 H   0  0  0  0  0  0  0  0  0  0  0  0  # atno 10167 bound_to 10162
  157.0890  131.0412  151.2545 H   0  0  0  0  0  0  0  0  0  0  0  0  # atno 10718 bound_to 10713
  153.0018  135.6263  154.2227 H   0  0  0  0  0  0  0  0  0  0  0  0  # atno 10763 bound_to 10752
  154.1969  135.2806  155.3005 H   0  0  0  0  0  0  0  0  0  0  0  0  # atno 10764 bound_to 10752
  154.5714  135.5675  153.7158 H   0  0  0  0  0  0  0  0  0  0  0  0  # atno 10765 bound_to 10752
  141.1420  133.8077  157.0531 H   0  0  0  0  0  0  0  0  0  0  0  0  # atno 11005 bound_to 11000
  145.1905  139.2304  143.5245 LP  0  0  0  0  0  0  0  0  0  0  0  0  # atno 17320 bound_to 7965
  146.3484  140.1700  142.8590 LP  0  0  0  0  0  0  0  0  0  0  0  0  # atno 17321 bound_to 7965
  140.7755  143.5154  150.9601 LP  0  0  0  0  0  0  0  0  0  0  0  0  # atno 17342 bound_to 10162
  139.8841  143.7035  152.3153 LP  0  0  0  0  0  0  0  0  0  0  0  0  # atno 17343 bound_to 10162
  157.4737  130.7724  149.7347 LP  0  0  0  0  0  0  0  0  0  0  0  0  # atno 17370 bound_to 10713
  155.9903  130.3945  150.3035 LP  0  0  0  0  0  0  0  0  0  0  0  0  # atno 17371 bound_to 10713
  140.0619  134.9750  157.1319 LP  0  0  0  0  0  0  0  0  0  0  0  0  # atno 17394 bound_to 11000
  140.3836  134.2260  155.7169 LP  0  0  0  0  0  0  0  0  0  0  0  0  # atno 17395 bound_to 11000

$$$$
