AV-unprocessed.smi:624|AV-procd|sdf|3099|dock7
  -GOLD-   22720 0 23D 1   1.00000     0.00000
 Structure written by MMmdl.
 30 32  0  0  0  0  0  0  0  0  1 V2000
  150.4469  141.3990  157.4481 O   0  0  0  0  0  0  0  0  0  0  0  0
  151.5666  141.0032  157.7708 C   0  0  0  0  0  0  0  0  0  0  0  0
  152.2334  139.9968  157.1826 N   0  0  0  0  0  0  0  0  0  0  0  0
  151.8273  139.2115  156.0748 C   0  0  0  0  0  0  0  0  0  0  0  0
  152.6033  138.1815  155.7172 N   0  0  0  0  0  0  0  0  0  0  0  0
  152.0921  137.5013  154.6186 N   0  0  0  0  0  0  0  0  0  0  0  0
  150.9500  138.0470  154.1895 C   0  0  0  0  0  0  0  0  0  0  0  0
  150.3833  139.4453  155.0852 S   0  0  0  0  0  0  0  0  0  0  0  0
  152.2823  141.5368  158.7716 N   0  0  0  0  0  0  0  0  0  0  0  0
  151.8731  142.6616  159.6069 C   0  0  0  0  0  0  0  0  0  0  0  0
  151.2492  143.7893  158.7996 C   0  0  0  0  0  0  0  0  0  0  0  0
  152.0943  144.7204  157.9617 C   0  0  0  0  0  0  0  0  0  0  0  0
  151.4107  145.2354  159.2067 C   0  0  0  0  0  0  0  0  0  0  0  0
  153.0323  143.1873  160.4344 C   0  0  0  0  0  0  0  0  0  0  0  0
  153.7632  142.2950  161.4089 C   0  0  0  0  0  0  0  0  0  0  0  0
  152.8998  143.4261  161.9201 C   0  0  0  0  0  0  0  0  0  0  0  0
  153.1420  139.7741  157.5614 H   0  0  0  0  0  0  0  0  0  0  0  0
  150.4379  137.6225  153.3386 H   0  0  0  0  0  0  0  0  0  0  0  0
  153.1904  141.1405  158.9657 H   0  0  0  0  0  0  0  0  0  0  0  0
  151.1186  142.3030  160.3105 H   0  0  0  0  0  0  0  0  0  0  0  0
  150.2839  143.5266  158.3703 H   0  0  0  0  0  0  0  0  0  0  0  0
  153.1757  144.6067  158.0003 H   0  0  0  0  0  0  0  0  0  0  0  0
  151.6925  145.0353  157.0007 H   0  0  0  0  0  0  0  0  0  0  0  0
  150.5523  145.8909  159.0770 H   0  0  0  0  0  0  0  0  0  0  0  0
  152.0417  145.4582  160.0648 H   0  0  0  0  0  0  0  0  0  0  0  0
  153.6515  143.9064  159.9006 H   0  0  0  0  0  0  0  0  0  0  0  0
  153.3922  141.2809  161.5459 H   0  0  0  0  0  0  0  0  0  0  0  0
  154.8423  142.4113  161.4840 H   0  0  0  0  0  0  0  0  0  0  0  0
  153.4028  144.2974  162.3346 H   0  0  0  0  0  0  0  0  0  0  0  0
  151.9622  143.1565  162.4019 H   0  0  0  0  0  0  0  0  0  0  0  0
  1  2  2  0  0  0  0
  2  3  1  0  0  0  0
  2  9  1  0  0  0  0
  3  4  1  0  0  0  0
  3 17  1  0  0  0  0
  4  8  1  0  0  0  0
  4  5  2  0  0  0  0
  5  6  1  0  0  0  0
  6  7  2  0  0  0  0
  7  8  1  0  0  0  0
  7 18  1  0  0  0  0
  9 10  1  0  0  0  0
  9 19  1  0  0  0  0
 10 11  1  0  0  0  0
 10 14  1  0  0  0  0
 10 20  1  0  0  0  0
 11 13  1  0  0  0  0
 11 12  1  0  0  0  0
 11 21  1  0  0  0  0
 12 13  1  0  0  0  0
 12 22  1  0  0  0  0
 12 23  1  0  0  0  0
 13 24  1  0  0  0  0
 13 25  1  0  0  0  0
 14 16  1  0  0  0  0
 14 15  1  0  0  0  0
 14 26  1  0  0  0  0
 15 16  1  0  0  0  0
 15 27  1  0  0  0  0
 15 28  1  0  0  0  0
 16 29  1  0  0  0  0
 16 30  1  0  0  0  0
M  END
> <s_m_source_file>
AV-unprocessed.smi

> <i_m_source_file_index>
624

> <i_lp_mmshare_version>
43012

> <i_f3d_flags>
0

> <s_epik_input>
W0NIMl0xW0NIMl1bQ0hdMVtDSF0oW0NIXTJbQ0gyXVtDSDJdMilbTkhdQyg9TylbTkhdYzNubltjSF1zMw==

> <s_epik_cmdline>
J2VwaWtfcHl0aG9uJywgJy1waCcsICc3LjAnLCAnLXRuJywgJzgnLCAnLW1hJywgJzIwMCcsICctbWV0YWxfYmluZGluZycsICctaW1hZScsICc8aW5maWxlLm1hZT4nLCAnLW9tYWUnLCAnPG91dGZpbGUubWFlPic=

> <r_lp_tautomer_probability>
1

> <r_epik_Ionization_Penalty>
0.000305758

> <r_epik_Ionization_Penalty_Charging>
0

> <r_epik_Ionization_Penalty_Neutral>
0.000305758

> <r_epik_State_Penalty>
-0

> <r_epik_Charging_Adjusted_Penalty>
0

> <i_epik_Tot_Q>
0

> <i_epik_Tot_abs_Q>
0

> <r_epik_Metal_State_Penalty>
0.165203

> <b_epik_Metal_Only>
0

> <s_lp_Force_Field>
OPLS_2005

> <r_lp_Energy>
21.213

> <b_lp_Chiralities_Consistent>
1

> <s_lp_Variant>
AV-unprocessed.smi:624-1

> <Gold.Version>
5.8.1

> <Gold.Id.Protein>
6NUR|6NUR_protein|mol2

> <Gold.PLP.Fitness>
46.2639

> <Gold.PLP.PLP>
-40.8423

> <Gold.PLP.part.hbond>
-1.0000

> <Gold.PLP.part.metal>
0.0000

> <Gold.PLP.part.buried>
-5.6017

> <Gold.PLP.part.nonpolar>
-34.6227

> <Gold.PLP.part.repulsive>
0.3761

> <Gold.PLP.ligand.clash>
0.0000

> <Gold.PLP.ligand.torsion>
1.4038

> <Gold.PLP.Chemscore.Hbond>
0.8800

> <Gold.PLP.Chemscore.CHOScore>
1.1592

> <Gold.PLP.Chemscore.Metal>
0.0000

> <Gold.Chemscore.Hbonds>
donor molecule, donor type, donor heavy atom, donor atom, acceptor molecule, acceptor atom, score
      P1  H 10752 10764       L1     6  0.80
      L1  C     7    18       P1  7948  0.71
      L1  C     7    18       P1  7949  0.42

> <Gold.PLP.Chemscore.Internal.Correction>
2.1117

> <Gold.Rescore>
     Score         DG    S(hbond)    S(metal)    S(lipo)     H(rot)  DE(clash)    DE(int)     intcor
     13.06     -15.85       0.88        0.00      96.71       1.52       0.02       2.77       ----

> <Gold.Chemscore.Fitness>
13.0561

> <Gold.Chemscore.DG>
-15.8457

> <Gold.Chemscore.ZeroCoef>
-5.4800

> <Gold.Chemscore.Hbond>
0.8829

> <Gold.Chemscore.Metal>
0.0000

> <Gold.Chemscore.Lipo>
96.7103

> <Gold.Chemscore.Internal_Hbond>
0.0000

> <Gold.Chemscore.DEClash>
0.0197

> <Gold.Chemscore.DEInternal>
2.7699

> <Gold.Chemscore.Rot>
1.5227

> <Gold.Chemscore.Internal.Correction>
   9.000000E+99

> <Gold.Chemscore.Hbonds>
donor molecule, donor type, donor heavy atom, donor atom, acceptor molecule, acceptor atom, score
      P1  H 10752 10764       L1     6  0.62

> <Gold.Chemscore.Hbond.Weighted>
-2.9488

> <Gold.Chemscore.Metal.Weighted>
-0.0000

> <Gold.Chemscore.Lipo.Weighted>
-11.3151

> <Gold.Chemscore.Internal_Hbond.Weighted>
0.0000

> <Gold.Chemscore.DEClash.Weighted>
0.0197

> <Gold.Chemscore.DEInternal.Weighted>
2.7699

> <Gold.Chemscore.Rot.Weighted>
3.8982

> <Gold.Chemscore.Internal.Correction.Weighted>
   9.000000E+99

> <Gold.Protein.RotatedTorsions>
[ 6907 6896 6895 6894 ] final   73.31 input  -60.11 | X-H torsion
[ 7974 7965 7964 7962 ] final  -33.56 input  175.53 | X-H torsion
[ 8008 7997 7996 7995 ] final  -73.42 input   59.86 | X-H torsion
[ 10167 10162 10161 10158 ] final  -63.67 input  -65.29 | X-H torsion
[ 10718 10713 10712 10709 ] final -131.99 input   66.30 | X-H torsion
[ 10763 10752 10751 10750 ] final  -74.45 input  -60.55 | X-H torsion
[ 11005 11000 10999 10996 ] final  -92.25 input  -57.11 | X-H torsion

> <Gold.Protein.ActiveResidues>
 VAL166  LYS551  ARG553  GLY616  TRP617  ASP618  TYR619  PRO620  LYS621  CYS622 
 ASP623  PHE694  ASN695  SER759  ASP760  ASP761  ALA762  ILE779  LEU786  VAL792 
 PHE793  MET794  SER795  GLU796  ALA797  LYS798  CYS799  TRP800  GLU811  SER814 

> <Gold.Protein.RotatedAtoms>
  152.4916  134.4441  159.9552 H   0  0  0  0  0  0  0  0  0  0  0  0  # atno 6907 bound_to 6896
  151.4428  133.3633  159.2792 H   0  0  0  0  0  0  0  0  0  0  0  0  # atno 6908 bound_to 6896
  150.9076  134.8515  159.7463 H   0  0  0  0  0  0  0  0  0  0  0  0  # atno 6909 bound_to 6896
  146.0900  140.5931  142.8868 H   0  0  0  0  0  0  0  0  0  0  0  0  # atno 7974 bound_to 7965
  154.5246  140.0779  156.8234 H   0  0  0  0  0  0  0  0  0  0  0  0  # atno 8008 bound_to 7997
  155.3504  140.3412  155.4221 H   0  0  0  0  0  0  0  0  0  0  0  0  # atno 8009 bound_to 7997
  156.1717  140.1622  156.8422 H   0  0  0  0  0  0  0  0  0  0  0  0  # atno 8010 bound_to 7997
  140.5854  143.2333  151.6253 H   0  0  0  0  0  0  0  0  0  0  0  0  # atno 10167 bound_to 10162
  156.2300  130.7032  151.0848 H   0  0  0  0  0  0  0  0  0  0  0  0  # atno 10718 bound_to 10713
  154.4732  135.5864  153.6336 H   0  0  0  0  0  0  0  0  0  0  0  0  # atno 10763 bound_to 10752
  152.9837  135.6072  154.3340 H   0  0  0  0  0  0  0  0  0  0  0  0  # atno 10764 bound_to 10752
  154.3224  135.2843  155.2492 H   0  0  0  0  0  0  0  0  0  0  0  0  # atno 10765 bound_to 10752
  141.1526  133.7808  156.9993 H   0  0  0  0  0  0  0  0  0  0  0  0  # atno 11005 bound_to 11000
  144.7353  140.4792  143.6908 LP  0  0  0  0  0  0  0  0  0  0  0  0  # atno 17320 bound_to 7965
  145.6056  139.1508  143.3104 LP  0  0  0  0  0  0  0  0  0  0  0  0  # atno 17321 bound_to 7965
  139.5195  144.3253  152.0875 LP  0  0  0  0  0  0  0  0  0  0  0  0  # atno 17342 bound_to 10162
  140.2409  144.4270  150.6260 LP  0  0  0  0  0  0  0  0  0  0  0  0  # atno 17343 bound_to 10162
  157.7129  131.0725  150.6436 LP  0  0  0  0  0  0  0  0  0  0  0  0  # atno 17370 bound_to 10713
  156.6503  130.4483  149.5721 LP  0  0  0  0  0  0  0  0  0  0  0  0  # atno 17371 bound_to 10713
  140.0950  134.9569  157.1836 LP  0  0  0  0  0  0  0  0  0  0  0  0  # atno 17394 bound_to 11000
  140.3394  134.2721  155.7214 LP  0  0  0  0  0  0  0  0  0  0  0  0  # atno 17395 bound_to 11000

$$$$
