AV-unprocessed.smi:3038|AV-procd|sdf|11589|dock10
  -GOLD-   2272016563D 1   1.00000     0.00000
 Structure written by MMmdl.
 37 39  0  0  0  0  0  0  0  0  2 V2000
  151.1457  139.8034  154.4690 O   0  0  0  0  0  0  0  0  0  0  0  0
  151.6542  139.5166  155.5522 C   0  0  0  0  0  0  0  0  0  0  0  0
  152.5104  138.2556  155.6842 C   0  0  0  0  0  0  0  0  0  0  0  0
  151.8807  137.2774  156.5522 N   0  0  0  0  0  0  0  0  0  0  0  0
  151.4014  137.3842  157.7933 C   0  0  0  0  0  0  0  0  0  0  0  0
  150.9199  136.2309  158.2316 N   0  0  0  0  0  0  0  0  0  0  0  0
  151.1296  135.3753  157.1630 N   0  0  0  0  0  0  0  0  0  0  0  0
  151.6993  135.9904  156.1636 N   0  0  0  0  0  0  0  0  0  0  0  0
  151.5099  140.2656  156.6574 N   0  0  0  0  0  0  0  0  0  0  0  0
  150.7278  141.4939  156.7480 C   0  0  2  0  0  0  0  0  0  0  0  0
  151.6518  142.7211  156.8537 C   0  0  0  0  0  0  0  0  0  0  0  0
  150.8410  144.0136  157.0645 C   0  0  0  0  0  0  0  0  0  0  0  0
  149.9370  143.9228  158.2400 N   0  3  2  0  0  0  0  0  0  0  0  0
  150.6477  144.0219  159.5366 C   0  0  0  0  0  0  0  0  0  0  0  0
  150.7016  145.4263  160.0918 C   0  0  0  0  0  0  0  0  0  0  0  0
  151.9337  144.8121  159.4659 C   0  0  0  0  0  0  0  0  0  0  0  0
  149.0276  142.7510  158.1560 C   0  0  0  0  0  0  0  0  0  0  0  0
  149.7990  141.4301  157.9718 C   0  0  0  0  0  0  0  0  0  0  0  0
  152.6664  137.8029  154.7040 H   0  0  0  0  0  0  0  0  0  0  0  0
  153.4930  138.5160  156.0805 H   0  0  0  0  0  0  0  0  0  0  0  0
  151.4113  138.2959  158.3723 H   0  0  0  0  0  0  0  0  0  0  0  0
  151.9668  139.9510  157.5018 H   0  0  0  0  0  0  0  0  0  0  0  0
  150.1066  141.5927  155.8555 H   0  0  0  0  0  0  0  0  0  0  0  0
  152.3563  142.5884  157.6759 H   0  0  0  0  0  0  0  0  0  0  0  0
  152.2546  142.8147  155.9496 H   0  0  0  0  0  0  0  0  0  0  0  0
  151.5095  144.8685  157.1730 H   0  0  0  0  0  0  0  0  0  0  0  0
  150.2349  144.2098  156.1792 H   0  0  0  0  0  0  0  0  0  0  0  0
  150.5658  143.1699  160.2086 H   0  0  0  0  0  0  0  0  0  0  0  0
  150.2020  146.2201  159.5395 H   0  0  0  0  0  0  0  0  0  0  0  0
  150.6968  145.5390  161.1742 H   0  0  0  0  0  0  0  0  0  0  0  0
  152.7398  144.5205  160.1363 H   0  0  0  0  0  0  0  0  0  0  0  0
  152.2505  145.1990  158.4988 H   0  0  0  0  0  0  0  0  0  0  0  0
  148.3981  142.7033  159.0452 H   0  0  0  0  0  0  0  0  0  0  0  0
  148.3536  142.8988  157.3111 H   0  0  0  0  0  0  0  0  0  0  0  0
  149.0920  140.6072  157.8589 H   0  0  0  0  0  0  0  0  0  0  0  0
  150.3781  141.2117  158.8701 H   0  0  0  0  0  0  0  0  0  0  0  0
  149.3445  144.7400  158.2001 H   0  0  0  0  0  0  0  0  0  0  0  0
  1  2  2  0  0  0  0
  2  3  1  0  0  0  0
  2  9  1  0  0  0  0
  3  4  1  0  0  0  0
  3 19  1  0  0  0  0
  3 20  1  0  0  0  0
  4  8  1  0  0  0  0
  4  5  1  0  0  0  0
  5  6  2  0  0  0  0
  5 21  1  0  0  0  0
  6  7  1  0  0  0  0
  7  8  2  0  0  0  0
  9 10  1  0  0  0  0
  9 22  1  0  0  0  0
 10 18  1  0  0  0  0
 10 11  1  0  0  0  0
 10 23  1  0  0  0  0
 11 12  1  0  0  0  0
 11 24  1  0  0  0  0
 11 25  1  0  0  0  0
 12 13  1  0  0  0  0
 12 26  1  0  0  0  0
 12 27  1  0  0  0  0
 13 14  1  0  0  0  0
 13 17  1  0  0  0  0
 13 37  1  0  0  0  0
 14 16  1  0  0  0  0
 14 15  1  0  0  0  0
 14 28  1  0  0  0  0
 15 16  1  0  0  0  0
 15 29  1  0  0  0  0
 15 30  1  0  0  0  0
 16 31  1  0  0  0  0
 16 32  1  0  0  0  0
 17 18  1  0  0  0  0
 17 33  1  0  0  0  0
 17 34  1  0  0  0  0
 18 35  1  0  0  0  0
 18 36  1  0  0  0  0
M  CHG  1  13   1
M  END
> <s_m_source_file>
AV-unprocessed.smi

> <i_m_source_file_index>
3038

> <i_lp_mmshare_version>
43012

> <i_f3d_flags>
0

> <s_epik_input>
bjFubltjSF1uMVtDSDJdQyg9TylbTkhdW0NIXTJbQ0gyXVtDSDJdTihbQ0gyXVtDSDJdMilbQ0hdM1tDSDJdW0NIMl0z

> <s_epik_cmdline>
J2VwaWtfcHl0aG9uJywgJy1waCcsICc3LjAnLCAnLXRuJywgJzgnLCAnLW1hJywgJzIwMCcsICctbWV0YWxfYmluZGluZycsICctaW1hZScsICc8aW5maWxlLm1hZT4nLCAnLW9tYWUnLCAnPG91dGZpbGUubWFlPic=

> <r_lp_tautomer_probability>
1

> <r_epik_Ionization_Penalty>
0.284275

> <r_epik_Ionization_Penalty_Charging>
0.284273

> <r_epik_Ionization_Penalty_Neutral>
2.31262e-06

> <r_epik_State_Penalty>
0.277002

> <r_epik_Charging_Adjusted_Penalty>
0.561274

> <i_epik_Tot_Q>
1

> <i_epik_Tot_abs_Q>
1

> <r_epik_Metal_State_Penalty>
0.277002

> <b_epik_Metal_Only>
0

> <s_lp_Force_Field>
OPLS_2005

> <r_lp_Energy>
29.3434

> <b_lp_Chiralities_Consistent>
1

> <s_lp_Variant>
AV-unprocessed.smi:3038-2

> <Gold.Version>
5.8.1

> <Gold.Id.Protein>
6NUR|6NUR_protein|mol2

> <Gold.PLP.Fitness>
38.0132

> <Gold.PLP.PLP>
-25.7376

> <Gold.PLP.part.hbond>
-6.0000

> <Gold.PLP.part.metal>
0.0000

> <Gold.PLP.part.buried>
0.1144

> <Gold.PLP.part.nonpolar>
-21.3908

> <Gold.PLP.part.repulsive>
0.2794

> <Gold.PLP.ligand.clash>
0.0000

> <Gold.PLP.ligand.torsion>
1.0894

> <Gold.PLP.Chemscore.Hbond>
4.3945

> <Gold.PLP.Chemscore.CHOScore>
0.0000

> <Gold.PLP.Chemscore.Metal>
0.0000

> <Gold.Chemscore.Hbonds>
donor molecule, donor type, donor heavy atom, donor atom, acceptor molecule, acceptor atom, score
      L1  H    13    37       P1  8029  1.69
      P1  H  6896  6908       L1     6  0.66
      P1  H  7989  7998       L1     1  0.98
      P1  H 10752 10765       L1     8  1.00

> <Gold.PLP.Chemscore.Internal.Correction>
1.2709

> <Gold.Rescore>
     Score         DG    S(hbond)    S(metal)    S(lipo)     H(rot)  DE(clash)    DE(int)     intcor
     14.00     -17.02       2.85        0.00      66.52       2.25       1.89       1.13       ----

> <Gold.Chemscore.Fitness>
14.0031

> <Gold.Chemscore.DG>
-17.0190

> <Gold.Chemscore.ZeroCoef>
-5.4800

> <Gold.Chemscore.Hbond>
2.8514

> <Gold.Chemscore.Metal>
0.0000

> <Gold.Chemscore.Lipo>
66.5173

> <Gold.Chemscore.Internal_Hbond>
0.0000

> <Gold.Chemscore.DEClash>
1.8885

> <Gold.Chemscore.DEInternal>
1.1275

> <Gold.Chemscore.Rot>
2.2528

> <Gold.Chemscore.Internal.Correction>
   9.000000E+99

> <Gold.Chemscore.Hbonds>
donor molecule, donor type, donor heavy atom, donor atom, acceptor molecule, acceptor atom, score
      L1  H    13    37       P1  8029  0.20
      P1  H  6896  6908       L1     6  0.23
      P1  H  7989  7998       L1     1  0.91
      P1  H 10752 10765       L1     8  0.70

> <Gold.Chemscore.Hbond.Weighted>
-9.5237

> <Gold.Chemscore.Metal.Weighted>
-0.0000

> <Gold.Chemscore.Lipo.Weighted>
-7.7825

> <Gold.Chemscore.Internal_Hbond.Weighted>
0.0000

> <Gold.Chemscore.DEClash.Weighted>
1.8885

> <Gold.Chemscore.DEInternal.Weighted>
1.1275

> <Gold.Chemscore.Rot.Weighted>
5.7672

> <Gold.Chemscore.Internal.Correction.Weighted>
   9.000000E+99

> <Gold.Protein.RotatedTorsions>
[ 6907 6896 6895 6894 ] final -156.34 input  -60.11 | X-H torsion
[ 7974 7965 7964 7962 ] final  -82.60 input  175.53 | X-H torsion
[ 8008 7997 7996 7995 ] final   61.11 input   59.86 | X-H torsion
[ 10167 10162 10161 10158 ] final -152.29 input  -65.29 | X-H torsion
[ 10718 10713 10712 10709 ] final   53.72 input   66.30 | X-H torsion
[ 10763 10752 10751 10750 ] final -145.08 input  -60.55 | X-H torsion
[ 11005 11000 10999 10996 ] final    0.43 input  -57.11 | X-H torsion

> <Gold.Protein.ActiveResidues>
 VAL166  LYS551  ARG553  GLY616  TRP617  ASP618  TYR619  PRO620  LYS621  CYS622 
 ASP623  PHE694  ASN695  SER759  ASP760  ASP761  ALA762  ILE779  LEU786  VAL792 
 PHE793  MET794  SER795  GLU796  ALA797  LYS798  CYS799  TRP800  GLU811  SER814 

> <Gold.Protein.RotatedAtoms>
  151.2862  133.4187  159.2629 H   0  0  0  0  0  0  0  0  0  0  0  0  # atno 6907 bound_to 6896
  151.0318  134.9545  159.8125 H   0  0  0  0  0  0  0  0  0  0  0  0  # atno 6908 bound_to 6896
  152.5347  134.2822  159.9064 H   0  0  0  0  0  0  0  0  0  0  0  0  # atno 6909 bound_to 6896
  145.5311  140.9521  143.1602 H   0  0  0  0  0  0  0  0  0  0  0  0  # atno 7974 bound_to 7965
  155.5931  140.3493  155.4572 H   0  0  0  0  0  0  0  0  0  0  0  0  # atno 8008 bound_to 7997
  156.0286  140.1269  157.0307 H   0  0  0  0  0  0  0  0  0  0  0  0  # atno 8009 bound_to 7997
  154.4343  140.1048  156.6052 H   0  0  0  0  0  0  0  0  0  0  0  0  # atno 8010 bound_to 7997
  139.7194  143.8981  152.2498 H   0  0  0  0  0  0  0  0  0  0  0  0  # atno 10167 bound_to 10162
  157.5192  130.8553  149.8536 H   0  0  0  0  0  0  0  0  0  0  0  0  # atno 10718 bound_to 10713
  154.8400  135.3423  154.6447 H   0  0  0  0  0  0  0  0  0  0  0  0  # atno 10763 bound_to 10752
  153.7059  135.6967  153.5055 H   0  0  0  0  0  0  0  0  0  0  0  0  # atno 10764 bound_to 10752
  153.2488  135.4360  155.0730 H   0  0  0  0  0  0  0  0  0  0  0  0  # atno 10765 bound_to 10752
  140.6266  133.9613  155.8252 H   0  0  0  0  0  0  0  0  0  0  0  0  # atno 11005 bound_to 11000
  144.7625  139.6922  143.7228 LP  0  0  0  0  0  0  0  0  0  0  0  0  # atno 17320 bound_to 7965
  146.2043  139.5358  142.9723 LP  0  0  0  0  0  0  0  0  0  0  0  0  # atno 17321 bound_to 7965
  139.8872  144.6985  150.8811 LP  0  0  0  0  0  0  0  0  0  0  0  0  # atno 17342 bound_to 10162
  140.7750  143.3614  151.1821 LP  0  0  0  0  0  0  0  0  0  0  0  0  # atno 17343 bound_to 10162
  156.0342  130.3756  150.1606 LP  0  0  0  0  0  0  0  0  0  0  0  0  # atno 17370 bound_to 10713
  156.9794  130.9859  151.3441 LP  0  0  0  0  0  0  0  0  0  0  0  0  # atno 17371 bound_to 10713
  141.0705  134.0213  157.3533 LP  0  0  0  0  0  0  0  0  0  0  0  0  # atno 17394 bound_to 11000
  139.9132  135.0193  156.7777 LP  0  0  0  0  0  0  0  0  0  0  0  0  # atno 17395 bound_to 11000

$$$$
