AV-unprocessed.smi:2685|AV-procd|sdf|10382|dock5
  -GOLD-   2272014413D 1   1.00000     0.00000
 Structure written by MMmdl.
 22 22  0  0  0  0  0  0  0  0  2 V2000
  152.2678  139.1214  157.7532 C   0  0  0  0  0  0  0  0  0  0  0  0
  151.4900  140.3428  157.2960 C   0  0  0  0  0  0  0  0  0  0  0  0
  151.5228  141.4093  158.0124 N   0  0  0  0  0  0  0  0  0  0  0  0
  150.8321  142.5672  157.6222 C   0  0  0  0  0  0  0  0  0  0  0  0
  150.8428  143.6020  158.2851 O   0  0  0  0  0  0  0  0  0  0  0  0
  150.1315  142.5260  156.4638 N   0  0  0  0  0  0  0  0  0  0  0  0
  150.0627  141.3887  155.6571 C   0  0  0  0  0  0  0  0  0  0  0  0
  149.2301  141.5635  154.4007 C   0  0  0  0  0  0  0  0  0  0  0  0
  150.7115  140.2627  156.0227 C   0  0  0  0  0  0  0  0  0  0  0  0
  150.7067  138.9707  155.2041 C   0  0  0  0  0  0  0  0  0  0  0  0
  152.0923  138.4725  154.7760 C   0  0  0  0  0  0  0  0  0  0  0  0
  153.0402  139.2742  154.9214 O   0  0  0  0  0  0  0  0  0  0  0  0
  152.1925  137.3127  154.3172 O   0  5  0  0  0  0  0  0  0  0  0  0
  149.6314  143.3468  156.1550 H   0  0  0  0  0  0  0  0  0  0  0  0
  152.9400  138.7760  156.9676 H   0  0  0  0  0  0  0  0  0  0  0  0
  151.5864  138.3130  158.0182 H   0  0  0  0  0  0  0  0  0  0  0  0
  152.8727  139.3522  158.6310 H   0  0  0  0  0  0  0  0  0  0  0  0
  149.8288  141.3379  153.5177 H   0  0  0  0  0  0  0  0  0  0  0  0
  148.8557  142.5833  154.3029 H   0  0  0  0  0  0  0  0  0  0  0  0
  148.3735  140.8893  154.4173 H   0  0  0  0  0  0  0  0  0  0  0  0
  150.1931  138.1760  155.7443 H   0  0  0  0  0  0  0  0  0  0  0  0
  150.1157  139.1221  154.3010 H   0  0  0  0  0  0  0  0  0  0  0  0
  1  2  1  0  0  0  0
  1 15  1  0  0  0  0
  1 16  1  0  0  0  0
  1 17  1  0  0  0  0
  2  9  1  0  0  0  0
  2  3  2  0  0  0  0
  3  4  1  0  0  0  0
  4  5  2  0  0  0  0
  4  6  1  0  0  0  0
  6 14  1  0  0  0  0
  6  7  1  0  0  0  0
  7  8  1  0  0  0  0
  7  9  2  0  0  0  0
  8 18  1  0  0  0  0
  8 19  1  0  0  0  0
  8 20  1  0  0  0  0
  9 10  1  0  0  0  0
 10 11  1  0  0  0  0
 10 21  1  0  0  0  0
 10 22  1  0  0  0  0
 11 12  2  0  0  0  0
 11 13  1  0  0  0  0
M  CHG  1  13  -1
M  END
> <s_m_source_file>
AV-unprocessed.smi

> <i_m_source_file_index>
2685

> <i_lp_mmshare_version>
43012

> <i_f3d_flags>
0

> <s_epik_input>
W0NIM11jMW5jKD1PKVtuSF1jKFtDSDNdKWMxW0NIMl1DKD1PKVtPSF0=

> <s_epik_cmdline>
J2VwaWtfcHl0aG9uJywgJy1waCcsICc3LjAnLCAnLXRuJywgJzgnLCAnLW1hJywgJzIwMCcsICctbWV0YWxfYmluZGluZycsICctaW1hZScsICc8aW5maWxlLm1hZT4nLCAnLW9tYWUnLCAnPG91dGZpbGUubWFlPic=

> <r_lp_tautomer_probability>
1

> <r_epik_Ionization_Penalty>
0.00220208

> <r_epik_Ionization_Penalty_Charging>
0.000649408

> <r_epik_Ionization_Penalty_Neutral>
0.00155267

> <r_epik_State_Penalty>
-0

> <r_epik_Charging_Adjusted_Penalty>
0.000649408

> <i_epik_Tot_Q>
-1

> <i_epik_Tot_abs_Q>
1

> <r_epik_Metal_State_Penalty>
0.0484136

> <b_epik_Metal_Only>
0

> <s_lp_Force_Field>
OPLS_2005

> <r_lp_Energy>
-3.03599

> <b_lp_Chiralities_Consistent>
1

> <s_lp_Variant>
AV-unprocessed.smi:2685-1

> <Gold.Version>
5.8.1

> <Gold.Id.Protein>
6NUR|6NUR_protein|mol2

> <Gold.PLP.Fitness>
39.0801

> <Gold.PLP.PLP>
-25.1179

> <Gold.PLP.part.hbond>
-3.9754

> <Gold.PLP.part.metal>
0.0000

> <Gold.PLP.part.buried>
-3.7847

> <Gold.PLP.part.nonpolar>
-18.5345

> <Gold.PLP.part.repulsive>
0.3909

> <Gold.PLP.ligand.clash>
0.0000

> <Gold.PLP.ligand.torsion>
0.1447

> <Gold.PLP.Chemscore.Hbond>
4.7501

> <Gold.PLP.Chemscore.CHOScore>
0.0000

> <Gold.PLP.Chemscore.Metal>
0.0000

> <Gold.Chemscore.Hbonds>
donor molecule, donor type, donor heavy atom, donor atom, acceptor molecule, acceptor atom, score
      L1  H     6    14       P1  8028  1.00
      P1  H  7997  8009       L1    12  2.00
      P1  H 10752 10765       L1    13  1.70

> <Gold.PLP.Chemscore.Internal.Correction>
0.0013

> <Gold.Rescore>
     Score         DG    S(hbond)    S(metal)    S(lipo)     H(rot)  DE(clash)    DE(int)     intcor
     15.30     -15.46       2.79        0.00      38.73       1.52       0.03       0.13       ----

> <Gold.Chemscore.Fitness>
15.3005

> <Gold.Chemscore.DG>
-15.4584

> <Gold.Chemscore.ZeroCoef>
-5.4800

> <Gold.Chemscore.Hbond>
2.7949

> <Gold.Chemscore.Metal>
0.0000

> <Gold.Chemscore.Lipo>
38.7334

> <Gold.Chemscore.Internal_Hbond>
0.0000

> <Gold.Chemscore.DEClash>
0.0290

> <Gold.Chemscore.DEInternal>
0.1288

> <Gold.Chemscore.Rot>
1.5189

> <Gold.Chemscore.Internal.Correction>
   9.000000E+99

> <Gold.Chemscore.Hbonds>
donor molecule, donor type, donor heavy atom, donor atom, acceptor molecule, acceptor atom, score
      L1  H     6    14       P1  8028  1.00
      P1  H  7997  8009       L1    12  0.99
      P1  H 10752 10765       L1    13  0.83

> <Gold.Chemscore.Hbond.Weighted>
-9.3350

> <Gold.Chemscore.Metal.Weighted>
-0.0000

> <Gold.Chemscore.Lipo.Weighted>
-4.5318

> <Gold.Chemscore.Internal_Hbond.Weighted>
0.0000

> <Gold.Chemscore.DEClash.Weighted>
0.0290

> <Gold.Chemscore.DEInternal.Weighted>
0.1288

> <Gold.Chemscore.Rot.Weighted>
3.8884

> <Gold.Chemscore.Internal.Correction.Weighted>
   9.000000E+99

> <Gold.Protein.RotatedTorsions>
[ 6907 6896 6895 6894 ] final  -40.75 input  -60.11 | X-H torsion
[ 7974 7965 7964 7962 ] final   13.05 input  175.53 | X-H torsion
[ 8008 7997 7996 7995 ] final -137.72 input   59.86 | X-H torsion
[ 10167 10162 10161 10158 ] final  -74.45 input  -65.29 | X-H torsion
[ 10718 10713 10712 10709 ] final -160.64 input   66.30 | X-H torsion
[ 10763 10752 10751 10750 ] final  161.26 input  -60.55 | X-H torsion
[ 11005 11000 10999 10996 ] final -158.96 input  -57.11 | X-H torsion

> <Gold.Protein.ActiveResidues>
 VAL166  LYS551  ARG553  GLY616  TRP617  ASP618  TYR619  PRO620  LYS621  CYS622 
 ASP623  PHE694  ASN695  SER759  ASP760  ASP761  ALA762  ILE779  LEU786  VAL792 
 PHE793  MET794  SER795  GLU796  ALA797  LYS798  CYS799  TRP800  GLU811  SER814 

> <Gold.Protein.RotatedAtoms>
  150.9747  134.9114  159.7808 H   0  0  0  0  0  0  0  0  0  0  0  0  # atno 6907 bound_to 6896
  152.5202  134.3492  159.9255 H   0  0  0  0  0  0  0  0  0  0  0  0  # atno 6908 bound_to 6896
  151.3500  133.3888  159.2714 H   0  0  0  0  0  0  0  0  0  0  0  0  # atno 6909 bound_to 6896
  146.2338  139.9246  142.8505 H   0  0  0  0  0  0  0  0  0  0  0  0  # atno 7974 bound_to 7965
  155.4164  140.0515  157.3028 H   0  0  0  0  0  0  0  0  0  0  0  0  # atno 8008 bound_to 7997
  154.4922  140.2124  155.9482 H   0  0  0  0  0  0  0  0  0  0  0  0  # atno 8009 bound_to 7997
  156.1358  140.3163  155.8423 H   0  0  0  0  0  0  0  0  0  0  0  0  # atno 8010 bound_to 7997
  140.5025  143.2358  151.7728 H   0  0  0  0  0  0  0  0  0  0  0  0  # atno 10167 bound_to 10162
  156.5850  130.8745  151.2874 H   0  0  0  0  0  0  0  0  0  0  0  0  # atno 10718 bound_to 10713
  154.2602  135.2769  155.2781 H   0  0  0  0  0  0  0  0  0  0  0  0  # atno 10763 bound_to 10752
  154.5391  135.5708  153.6827 H   0  0  0  0  0  0  0  0  0  0  0  0  # atno 10764 bound_to 10752
  152.9964  135.6246  154.2752 H   0  0  0  0  0  0  0  0  0  0  0  0  # atno 10765 bound_to 10752
  140.6479  134.4482  157.5234 H   0  0  0  0  0  0  0  0  0  0  0  0  # atno 11005 bound_to 11000
  145.2103  140.9892  143.4104 LP  0  0  0  0  0  0  0  0  0  0  0  0  # atno 17320 bound_to 7965
  144.9697  139.3893  143.6315 LP  0  0  0  0  0  0  0  0  0  0  0  0  # atno 17321 bound_to 7965
  139.4875  144.4502  151.9663 LP  0  0  0  0  0  0  0  0  0  0  0  0  # atno 17342 bound_to 10162
  140.3591  144.2995  150.5936 LP  0  0  0  0  0  0  0  0  0  0  0  0  # atno 17343 bound_to 10162
  157.7317  130.9705  150.1895 LP  0  0  0  0  0  0  0  0  0  0  0  0  # atno 17370 bound_to 10713
  156.2599  130.3709  149.8142 LP  0  0  0  0  0  0  0  0  0  0  0  0  # atno 17371 bound_to 10713
  139.9056  134.8456  156.1719 LP  0  0  0  0  0  0  0  0  0  0  0  0  # atno 17394 bound_to 11000
  141.0558  133.6866  156.1858 LP  0  0  0  0  0  0  0  0  0  0  0  0  # atno 17395 bound_to 11000

$$$$
