AV-unprocessed.smi:836|AV-procd|sdf|3891|dock3
  -GOLD-   22720 1343D 1   1.00000     0.00000
 Structure written by MMmdl.
 38 39  0  0  0  0  0  0  0  0  1 V2000
  149.7505  140.9860  156.5688 C   0  0  0  0  0  0  0  0  0  0  0  0
  150.4777  139.7099  157.0156 C   0  0  2  0  0  0  0  0  0  0  0  0
  150.0544  139.2880  158.4357 C   0  0  0  0  0  0  0  0  0  0  0  0
  150.7825  138.0100  158.8892 C   0  0  0  0  0  0  0  0  0  0  0  0
  152.3160  138.1480  158.7958 C   0  0  2  0  0  0  0  0  0  0  0  0
  152.8242  139.0834  159.7958 N   0  0  0  0  0  0  0  0  0  0  0  0
  154.0399  139.6528  159.7957 C   0  0  0  0  0  0  0  0  0  0  0  0
  154.8946  139.4290  158.9390 O   0  0  0  0  0  0  0  0  0  0  0  0
  154.3436  140.6167  160.9455 C   0  0  0  0  0  0  0  0  0  0  0  0
  153.6099  141.8635  160.8058 N   0  0  0  0  0  0  0  0  0  0  0  0
  153.0955  142.6711  161.7971 C   0  0  0  0  0  0  0  0  0  0  0  0
  152.5064  143.7395  161.1845 C   0  0  0  0  0  0  0  0  0  0  0  0
  152.7116  143.4995  159.7946 C   0  0  0  0  0  0  0  0  0  0  0  0
  152.2808  144.3457  158.6255 C   0  0  0  0  0  0  0  0  0  0  0  0
  151.3791  143.6950  157.8906 F   0  0  0  0  0  0  0  0  0  0  0  0
  151.7386  145.4825  159.0624 F   0  0  0  0  0  0  0  0  0  0  0  0
  153.3335  144.6318  157.8597 F   0  0  0  0  0  0  0  0  0  0  0  0
  153.3717  142.3701  159.5766 N   0  0  0  0  0  0  0  0  0  0  0  0
  152.7413  138.5998  157.3857 C   0  0  0  0  0  0  0  0  0  0  0  0
  152.0074  139.8762  156.9365 C   0  0  0  0  0  0  0  0  0  0  0  0
  149.9945  141.8288  157.2162 H   0  0  0  0  0  0  0  0  0  0  0  0
  148.6689  140.8501  156.5914 H   0  0  0  0  0  0  0  0  0  0  0  0
  150.0260  141.2582  155.5494 H   0  0  0  0  0  0  0  0  0  0  0  0
  150.1911  138.9118  156.3292 H   0  0  0  0  0  0  0  0  0  0  0  0
  150.2601  140.0966  159.1388 H   0  0  0  0  0  0  0  0  0  0  0  0
  148.9772  139.1220  158.4687 H   0  0  0  0  0  0  0  0  0  0  0  0
  150.4844  137.7509  159.9058 H   0  0  0  0  0  0  0  0  0  0  0  0
  150.4619  137.1781  158.2607 H   0  0  0  0  0  0  0  0  0  0  0  0
  152.7656  137.1708  158.9814 H   0  0  0  0  0  0  0  0  0  0  0  0
  152.1943  139.3280  160.5466 H   0  0  0  0  0  0  0  0  0  0  0  0
  154.0890  140.1449  161.8959 H   0  0  0  0  0  0  0  0  0  0  0  0
  155.4105  140.8422  160.9735 H   0  0  0  0  0  0  0  0  0  0  0  0
  153.1951  142.4228  162.8437 H   0  0  0  0  0  0  0  0  0  0  0  0
  152.0056  144.5708  161.6582 H   0  0  0  0  0  0  0  0  0  0  0  0
  153.8200  138.7573  157.3494 H   0  0  0  0  0  0  0  0  0  0  0  0
  152.5291  137.7995  156.6756 H   0  0  0  0  0  0  0  0  0  0  0  0
  152.3022  140.1240  155.9162 H   0  0  0  0  0  0  0  0  0  0  0  0
  152.3203  140.7171  157.5569 H   0  0  0  0  0  0  0  0  0  0  0  0
  1  2  1  0  0  0  0
  1 21  1  0  0  0  0
  1 22  1  0  0  0  0
  1 23  1  0  0  0  0
  2 20  1  0  0  0  0
  2  3  1  0  0  0  0
  2 24  1  0  0  0  0
  3  4  1  0  0  0  0
  3 25  1  0  0  0  0
  3 26  1  0  0  0  0
  4  5  1  0  0  0  0
  4 27  1  0  0  0  0
  4 28  1  0  0  0  0
  5  6  1  0  0  0  0
  5 19  1  0  0  0  0
  5 29  1  0  0  0  0
  6  7  1  0  0  0  0
  6 30  1  0  0  0  0
  7  8  2  0  0  0  0
  7  9  1  0  0  0  0
  9 10  1  0  0  0  0
  9 31  1  0  0  0  0
  9 32  1  0  0  0  0
 10 18  1  0  0  0  0
 10 11  1  0  0  0  0
 11 12  2  0  0  0  0
 11 33  1  0  0  0  0
 12 13  1  0  0  0  0
 12 34  1  0  0  0  0
 13 14  1  0  0  0  0
 13 18  2  0  0  0  0
 14 15  1  0  0  0  0
 14 16  1  0  0  0  0
 14 17  1  0  0  0  0
 19 20  1  0  0  0  0
 19 35  1  0  0  0  0
 19 36  1  0  0  0  0
 20 37  1  0  0  0  0
 20 38  1  0  0  0  0
M  END
> <s_m_source_file>
AV-unprocessed.smi

> <i_m_source_file_index>
836

> <i_lp_mmshare_version>
43012

> <i_f3d_flags>
0

> <s_epik_input>
W0NIM11bQ0BASF0xW0NIMl1bQ0gyXVtDQEhdKFtDSDJdW0NIMl0xKVtOSF1DKD1PKVtDSDJdbjJbY0hdW2NIXWMobjIpQyhGKShGKUY=

> <s_epik_cmdline>
J2VwaWtfcHl0aG9uJywgJy1waCcsICc3LjAnLCAnLXRuJywgJzgnLCAnLW1hJywgJzIwMCcsICctbWV0YWxfYmluZGluZycsICctaW1hZScsICc8aW5maWxlLm1hZT4nLCAnLW9tYWUnLCAnPG91dGZpbGUubWFlPic=

> <r_lp_tautomer_probability>
1

> <r_epik_Ionization_Penalty>
8.28749e-08

> <r_epik_Ionization_Penalty_Charging>
0

> <r_epik_Ionization_Penalty_Neutral>
8.28749e-08

> <r_epik_State_Penalty>
-0

> <r_epik_Charging_Adjusted_Penalty>
0

> <i_epik_Tot_Q>
0

> <i_epik_Tot_abs_Q>
0

> <r_epik_Metal_State_Penalty>
-0

> <b_epik_Metal_Only>
0

> <s_lp_Force_Field>
OPLS_2005

> <r_lp_Energy>
10.0253

> <b_lp_Chiralities_Consistent>
1

> <s_lp_Variant>
AV-unprocessed.smi:836-2

> <Gold.Version>
5.8.1

> <Gold.Id.Protein>
6NUR|6NUR_protein|mol2

> <Gold.PLP.Fitness>
47.6024

> <Gold.PLP.PLP>
-46.1884

> <Gold.PLP.part.hbond>
-1.0000

> <Gold.PLP.part.metal>
0.0000

> <Gold.PLP.part.buried>
-5.3872

> <Gold.PLP.part.nonpolar>
-39.6446

> <Gold.PLP.part.repulsive>
0.0802

> <Gold.PLP.ligand.clash>
0.0000

> <Gold.PLP.ligand.torsion>
0.8037

> <Gold.PLP.Chemscore.Hbond>
1.0000

> <Gold.PLP.Chemscore.CHOScore>
0.0000

> <Gold.PLP.Chemscore.Metal>
0.0000

> <Gold.Chemscore.Hbonds>
donor molecule, donor type, donor heavy atom, donor atom, acceptor molecule, acceptor atom, score
      P1  H  7997  8010       L1     8  1.00

> <Gold.PLP.Chemscore.Internal.Correction>
0.0212

> <Gold.Rescore>
     Score         DG    S(hbond)    S(metal)    S(lipo)     H(rot)  DE(clash)    DE(int)     intcor
     12.42     -14.68       1.00        0.00      83.94       1.54       0.06       2.20       ----

> <Gold.Chemscore.Fitness>
12.4199

> <Gold.Chemscore.DG>
-14.6805

> <Gold.Chemscore.ZeroCoef>
-5.4800

> <Gold.Chemscore.Hbond>
0.9961

> <Gold.Chemscore.Metal>
0.0000

> <Gold.Chemscore.Lipo>
83.9439

> <Gold.Chemscore.Internal_Hbond>
0.0000

> <Gold.Chemscore.DEClash>
0.0567

> <Gold.Chemscore.DEInternal>
2.2039

> <Gold.Chemscore.Rot>
1.5422

> <Gold.Chemscore.Internal.Correction>
   9.000000E+99

> <Gold.Chemscore.Hbonds>
donor molecule, donor type, donor heavy atom, donor atom, acceptor molecule, acceptor atom, score
      P1  H  7997  8010       L1     8  1.00

> <Gold.Chemscore.Hbond.Weighted>
-3.3270

> <Gold.Chemscore.Metal.Weighted>
-0.0000

> <Gold.Chemscore.Lipo.Weighted>
-9.8214

> <Gold.Chemscore.Internal_Hbond.Weighted>
0.0000

> <Gold.Chemscore.DEClash.Weighted>
0.0567

> <Gold.Chemscore.DEInternal.Weighted>
2.2039

> <Gold.Chemscore.Rot.Weighted>
3.9479

> <Gold.Chemscore.Internal.Correction.Weighted>
   9.000000E+99

> <Gold.Protein.RotatedTorsions>
[ 6907 6896 6895 6894 ] final  -52.77 input  -60.11 | X-H torsion
[ 7974 7965 7964 7962 ] final  -76.04 input  175.53 | X-H torsion
[ 8008 7997 7996 7995 ] final    8.68 input   59.86 | X-H torsion
[ 10167 10162 10161 10158 ] final    2.55 input  -65.29 | X-H torsion
[ 10718 10713 10712 10709 ] final    2.70 input   66.30 | X-H torsion
[ 10763 10752 10751 10750 ] final  179.35 input  -60.55 | X-H torsion
[ 11005 11000 10999 10996 ] final -123.01 input  -57.11 | X-H torsion

> <Gold.Protein.ActiveResidues>
 VAL166  LYS551  ARG553  GLY616  TRP617  ASP618  TYR619  PRO620  LYS621  CYS622 
 ASP623  PHE694  ASN695  SER759  ASP760  ASP761  ALA762  ILE779  LEU786  VAL792 
 PHE793  MET794  SER795  GLU796  ALA797  LYS798  CYS799  TRP800  GLU811  SER814 

> <Gold.Protein.RotatedAtoms>
  150.8487  134.7805  159.6991 H   0  0  0  0  0  0  0  0  0  0  0  0  # atno 6907 bound_to 6896
  152.4558  134.5292  159.9816 H   0  0  0  0  0  0  0  0  0  0  0  0  # atno 6908 bound_to 6896
  151.5417  133.3393  159.2972 H   0  0  0  0  0  0  0  0  0  0  0  0  # atno 6909 bound_to 6896
  145.6181  140.9370  143.1153 H   0  0  0  0  0  0  0  0  0  0  0  0  # atno 7974 bound_to 7965
  154.7701  140.2800  155.6145 H   0  0  0  0  0  0  0  0  0  0  0  0  # atno 8008 bound_to 7997
  156.2932  140.2643  156.2428 H   0  0  0  0  0  0  0  0  0  0  0  0  # atno 8009 bound_to 7997
  154.9911  140.0373  157.2309 H   0  0  0  0  0  0  0  0  0  0  0  0  # atno 8010 bound_to 7997
  140.6629  143.7256  150.7773 H   0  0  0  0  0  0  0  0  0  0  0  0  # atno 10167 bound_to 10162
  156.8668  130.5606  149.5659 H   0  0  0  0  0  0  0  0  0  0  0  0  # atno 10718 bound_to 10713
  154.5196  135.2793  155.1274 H   0  0  0  0  0  0  0  0  0  0  0  0  # atno 10763 bound_to 10752
  154.2837  135.6280  153.5361 H   0  0  0  0  0  0  0  0  0  0  0  0  # atno 10764 bound_to 10752
  152.9934  135.5657  154.5681 H   0  0  0  0  0  0  0  0  0  0  0  0  # atno 10765 bound_to 10752
  140.9951  134.0483  157.3607 H   0  0  0  0  0  0  0  0  0  0  0  0  # atno 11005 bound_to 11000
  144.7242  139.7930  143.7371 LP  0  0  0  0  0  0  0  0  0  0  0  0  # atno 17320 bound_to 7965
  146.1452  139.4519  143.0083 LP  0  0  0  0  0  0  0  0  0  0  0  0  # atno 17321 bound_to 7965
  140.0928  143.4862  152.2469 LP  0  0  0  0  0  0  0  0  0  0  0  0  # atno 17342 bound_to 10162
  139.5869  144.7534  151.3499 LP  0  0  0  0  0  0  0  0  0  0  0  0  # atno 17343 bound_to 10162
  156.0747  130.5772  150.9451 LP  0  0  0  0  0  0  0  0  0  0  0  0  # atno 17370 bound_to 10713
  157.6218  131.0929  150.8607 LP  0  0  0  0  0  0  0  0  0  0  0  0  # atno 17371 bound_to 10713
  139.9011  135.0165  156.7272 LP  0  0  0  0  0  0  0  0  0  0  0  0  # atno 17394 bound_to 11000
  140.6978  133.9333  155.8005 LP  0  0  0  0  0  0  0  0  0  0  0  0  # atno 17395 bound_to 11000

$$$$
