#       Name:                AV-unprocessed.smi:1098
#       Creating user name   scv26
#       Creation time:       Fri Mar 27 03:29:05 2020


#       File generated by GOLD software.
#

@<TRIPOS>MOLECULE
AV-unprocessed.smi:1098
    46    47     1
SMALL
NO_CHARGES


@<TRIPOS>ATOM
      1 ****        -8.4218   0.9858   1.0369 C.3            1 S1                 0.0000
      2 ****        -6.9039   0.7864   1.0207 C.3            1 S1                 0.0000
      3 ****        -6.4091  -0.4579  -0.2063 S.3            1 S1                 0.0000
      4 ****        -4.6462  -0.5809  -0.1538 C.ar           1 S1                 0.0000
      5 ****        -3.9645  -1.4123  -1.0628 C.ar           1 S1                 0.0000
      6 ****        -2.5601  -1.4787  -0.9837 C.ar           1 S1                 0.0000
      7 ****        -1.8926  -0.7056  -0.0020 C.ar           1 S1                 0.0000
      8 ****        -0.4847  -0.6987   0.1932 N.am           1 S1                 0.0000
      9 ****         0.4831  -1.0577  -0.6677 C.2            1 S1                 0.0000
     10 ****         0.3040  -1.4448  -1.8218 O.2            1 S1                 0.0000
     11 ****         1.6976  -0.9215  -0.1158 N.am           1 S1                 0.0000
     12 ****         2.9653  -1.2313  -0.7768 C.3            1 S1                 0.0000
     13 ****         4.0781  -1.4486   0.2645 C.3            1 S1                 0.0000
     14 ****         4.5080  -0.1317   0.9370 C.3            1 S1                 0.0000
     15 ****         4.9124   0.8781  -0.0724 N.4            1 S1                 1.0000
     16 ****         5.4479   2.1097   0.5464 C.3            1 S1                 0.0000
     17 ****         3.8261   1.1599  -1.0430 C.3            1 S1                 0.0000
     18 ****         3.3844  -0.1245  -1.7663 C.3            1 S1                 0.0000
     19 ****        -2.6816   0.0806   0.8650 C.ar           1 S1                 0.0000
     20 ****        -4.0277   0.1524   0.7960 N.ar           1 S1                 0.0000
     21 ****        -8.7062   1.7414   1.7697 H              1 S1                 0.0000
     22 ****        -8.9373   0.0601   1.2955 H              1 S1                 0.0000
     23 ****        -8.7858   1.3130   0.0624 H              1 S1                 0.0000
     24 ****        -6.4077   1.7295   0.7890 H              1 S1                 0.0000
     25 ****        -6.5600   0.4719   2.0065 H              1 S1                 0.0000
     26 ****        -4.5029  -1.9888  -1.8006 H              1 S1                 0.0000
     27 ****        -2.0315  -2.1277  -1.6641 H              1 S1                 0.0000
     28 ****        -0.1758  -0.3292   1.0804 H              1 S1                 0.0000
     29 ****         1.7480  -0.5963   0.8386 H              1 S1                 0.0000
     30 ****         2.8343  -2.1640  -1.3288 H              1 S1                 0.0000
     31 ****         3.7572  -2.1681   1.0191 H              1 S1                 0.0000
     32 ****         4.9441  -1.8939  -0.2275 H              1 S1                 0.0000
     33 ****         3.6956   0.2663   1.5472 H              1 S1                 0.0000
     34 ****         5.3423  -0.3264   1.6121 H              1 S1                 0.0000
     35 ****         4.6834   2.6154   1.1377 H              1 S1                 0.0000
     36 ****         5.8026   2.8016  -0.2183 H              1 S1                 0.0000
     37 ****         6.2893   1.8781   1.2004 H              1 S1                 0.0000
     38 ****         2.9795   1.6141  -0.5258 H              1 S1                 0.0000
     39 ****         4.1736   1.8869  -1.7779 H              1 S1                 0.0000
     40 ****         4.2118  -0.4892  -2.3766 H              1 S1                 0.0000
     41 ****         2.5755   0.0980  -2.4629 H              1 S1                 0.0000
     42 ****        -2.2182   0.6762   1.6380 H              1 S1                 0.0000
     43 ****         5.6715   0.4706  -0.6000 H              1 S1                 0.0000
     44 ****        -0.6240  -1.5121  -2.1883 LP             1 S1                 0.0000
     45 ****         1.0865  -1.6920  -2.3934 LP             1 S1                 0.0000
     46 ****        -4.5483   0.7285   1.4261 LP             1 S1                 0.0000
@<TRIPOS>BOND
    1    1    2 1     
    2    1   21 1     
    3    1   22 1     
    4    1   23 1     
    5    2    3 1     
    6    2   24 1     
    7    2   25 1     
    8    3    4 1     
    9    4   20 ar    
   10    4    5 ar    
   11    5    6 ar    
   12    5   26 1     
   13    6    7 ar    
   14    6   27 1     
   15    7    8 1     
   16    7   19 ar    
   17    8    9 am    
   18    8   28 1     
   19    9   10 2     
   20    9   11 am    
   21   11   12 1     
   22   11   29 1     
   23   12   18 1     
   24   12   13 1     
   25   12   30 1     
   26   13   14 1     
   27   13   31 1     
   28   13   32 1     
   29   14   15 1     
   30   14   33 1     
   31   14   34 1     
   32   15   16 1     
   33   15   17 1     
   34   15   43 1     
   35   16   35 1     
   36   16   36 1     
   37   16   37 1     
   38   17   18 1     
   39   17   38 1     
   40   17   39 1     
   41   18   40 1     
   42   18   41 1     
   43   19   20 ar    
   44   19   42 1     
   45   10   44 1     
   46   10   45 1     
   47   20   46 1     
@<TRIPOS>SUBSTRUCTURE
      1 S1             1
@<TRIPOS>SET
LONE_PAIRS      STATIC     ATOMS    <user>   **** ""
3 44 45 46
DONOR_HYDROGENS      STATIC     ATOMS    <user>   **** ""
3 28 29 43
ATOM$BLUE        STATIC     ATOMS    COLORGROUP SYSTEM
3 44 45 46
ATOM$RED        STATIC     ATOMS    COLORGROUP SYSTEM
3 28 29 43
