AV-unprocessed.smi:1734|AV-procd|sdf|6987|dock6
  -GOLD-   22720 8203D 1   1.00000     0.00000
 Structure written by MMmdl.
 51 53  0  0  0  0  0  0  0  0  2 V2000
  147.7790  133.3644  152.0821 C   0  0  0  0  0  0  0  0  0  0  0  0
  146.4164  133.4046  151.4093 C   0  0  0  0  0  0  0  0  0  0  0  0
  145.7284  132.1958  151.1709 C   0  0  0  0  0  0  0  0  0  0  0  0
  144.4696  132.2348  150.5477 C   0  0  0  0  0  0  0  0  0  0  0  0
  143.9479  133.4892  150.1880 C   0  0  0  0  0  0  0  0  0  0  0  0
  144.5981  134.6494  150.4126 N   0  0  0  0  0  0  0  0  0  0  0  0
  145.8153  134.6290  151.0120 C   0  0  0  0  0  0  0  0  0  0  0  0
  146.5600  135.8126  151.2773 N   0  0  0  0  0  0  0  0  0  0  0  0
  146.1000  137.0455  151.5527 C   0  0  0  0  0  0  0  0  0  0  0  0
  144.9138  137.3693  151.6203 O   0  0  0  0  0  0  0  0  0  0  0  0
  147.1080  137.9032  151.7669 N   0  0  0  0  0  0  0  0  0  0  0  0
  146.9401  139.3072  152.1238 C   0  0  0  0  0  0  0  0  0  0  0  0
  146.7240  139.5413  153.6468 C   0  0  1  0  0  0  0  0  0  0  0  0
  148.0262  139.4265  154.4894 C   0  0  1  0  0  0  0  0  0  0  0  0
  148.7129  138.0732  154.3939 C   0  0  0  0  0  0  0  0  0  0  0  0
  150.1103  138.3812  154.9168 C   0  0  0  0  0  0  0  0  0  0  0  0
  150.3842  139.7106  154.4941 O   0  0  0  0  0  0  0  0  0  0  0  0
  149.1825  140.3422  154.0644 C   0  0  0  0  0  0  0  0  0  0  0  0
  146.0540  140.8491  153.9168 N   0  3  0  0  0  0  0  0  0  0  0  0
  145.6153  141.0827  155.3162 C   0  0  0  0  0  0  0  0  0  0  0  0
  144.7878  142.3763  155.3942 C   0  0  0  0  0  0  0  0  0  0  0  0
  145.5620  143.4662  154.9072 O   0  0  0  0  0  0  0  0  0  0  0  0
  145.9338  143.2945  153.5443 C   0  0  0  0  0  0  0  0  0  0  0  0
  146.7913  142.0263  153.3956 C   0  0  0  0  0  0  0  0  0  0  0  0
  148.0691  132.3431  152.3303 H   0  0  0  0  0  0  0  0  0  0  0  0
  147.7668  133.9428  153.0065 H   0  0  0  0  0  0  0  0  0  0  0  0
  148.5417  133.7791  151.4223 H   0  0  0  0  0  0  0  0  0  0  0  0
  146.1575  131.2478  151.4605 H   0  0  0  0  0  0  0  0  0  0  0  0
  143.9185  131.3272  150.3506 H   0  0  0  0  0  0  0  0  0  0  0  0
  142.9837  133.5639  149.7072 H   0  0  0  0  0  0  0  0  0  0  0  0
  147.5630  135.7015  151.2639 H   0  0  0  0  0  0  0  0  0  0  0  0
  148.0542  137.5596  151.6884 H   0  0  0  0  0  0  0  0  0  0  0  0
  147.8328  139.8322  151.7839 H   0  0  0  0  0  0  0  0  0  0  0  0
  146.1107  139.7105  151.5420 H   0  0  0  0  0  0  0  0  0  0  0  0
  146.0458  138.7717  154.0184 H   0  0  0  0  0  0  0  0  0  0  0  0
  147.8067  139.6260  155.5392 H   0  0  0  0  0  0  0  0  0  0  0  0
  148.2160  137.2944  154.9732 H   0  0  0  0  0  0  0  0  0  0  0  0
  148.7673  137.7439  153.3551 H   0  0  0  0  0  0  0  0  0  0  0  0
  150.1236  138.3527  156.0071 H   0  0  0  0  0  0  0  0  0  0  0  0
  150.8602  137.6806  154.5488 H   0  0  0  0  0  0  0  0  0  0  0  0
  149.2231  140.4406  152.9788 H   0  0  0  0  0  0  0  0  0  0  0  0
  149.1043  141.3415  154.4926 H   0  0  0  0  0  0  0  0  0  0  0  0
  145.0160  140.2467  155.6752 H   0  0  0  0  0  0  0  0  0  0  0  0
  146.4798  141.1685  155.9756 H   0  0  0  0  0  0  0  0  0  0  0  0
  143.8641  142.2836  154.8202 H   0  0  0  0  0  0  0  0  0  0  0  0
  144.5024  142.5792  156.4266 H   0  0  0  0  0  0  0  0  0  0  0  0
  145.0431  143.2390  152.9163 H   0  0  0  0  0  0  0  0  0  0  0  0
  146.4977  144.1692  153.2193 H   0  0  0  0  0  0  0  0  0  0  0  0
  147.7303  142.1533  153.9348 H   0  0  0  0  0  0  0  0  0  0  0  0
  147.0422  141.8774  152.3447 H   0  0  0  0  0  0  0  0  0  0  0  0
  145.2054  140.8161  153.3700 H   0  0  0  0  0  0  0  0  0  0  0  0
  1  2  1  0  0  0  0
  1 25  1  0  0  0  0
  1 26  1  0  0  0  0
  1 27  1  0  0  0  0
  2  7  1  0  0  0  0
  2  3  2  0  0  0  0
  3  4  1  0  0  0  0
  3 28  1  0  0  0  0
  4  5  2  0  0  0  0
  4 29  1  0  0  0  0
  5  6  1  0  0  0  0
  5 30  1  0  0  0  0
  6  7  2  0  0  0  0
  7  8  1  0  0  0  0
  8  9  1  0  0  0  0
  8 31  1  0  0  0  0
  9 10  2  0  0  0  0
  9 11  1  0  0  0  0
 11 12  1  0  0  0  0
 11 32  1  0  0  0  0
 12 13  1  0  0  0  0
 12 33  1  0  0  0  0
 12 34  1  0  0  0  0
 13 14  1  0  0  0  0
 13 19  1  0  0  0  0
 13 35  1  0  0  0  0
 14 18  1  0  0  0  0
 14 15  1  0  0  0  0
 14 36  1  0  0  0  0
 15 16  1  0  0  0  0
 15 37  1  0  0  0  0
 15 38  1  0  0  0  0
 16 17  1  0  0  0  0
 16 39  1  0  0  0  0
 16 40  1  0  0  0  0
 17 18  1  0  0  0  0
 18 41  1  0  0  0  0
 18 42  1  0  0  0  0
 19 24  1  0  0  0  0
 19 20  1  0  0  0  0
 19 51  1  0  0  0  0
 20 21  1  0  0  0  0
 20 43  1  0  0  0  0
 20 44  1  0  0  0  0
 21 22  1  0  0  0  0
 21 45  1  0  0  0  0
 21 46  1  0  0  0  0
 22 23  1  0  0  0  0
 23 24  1  0  0  0  0
 23 47  1  0  0  0  0
 23 48  1  0  0  0  0
 24 49  1  0  0  0  0
 24 50  1  0  0  0  0
M  CHG  1  19   1
M  END
> <s_m_source_file>
AV-unprocessed.smi

> <i_m_source_file_index>
1734

> <i_lp_mmshare_version>
43012

> <i_f3d_flags>
0

> <s_epik_input>
W0NIM11jMVtjSF1bY0hdW2NIXW5jMVtOSF1DKD1PKVtOSF1bQ0gyXVtDQEhdKFtDQEBIXTJbQ0gyXVtDSDJdT1tDSDJdMilOM1tDSDJdW0NIMl1PW0NIMl1bQ0gyXTM=

> <s_epik_cmdline>
J2VwaWtfcHl0aG9uJywgJy1waCcsICc3LjAnLCAnLXRuJywgJzgnLCAnLW1hJywgJzIwMCcsICctbWV0YWxfYmluZGluZycsICctaW1hZScsICc8aW5maWxlLm1hZT4nLCAnLW9tYWUnLCAnPG91dGZpbGUubWFlPic=

> <r_epik_Ionization_Penalty>
0.983302

> <r_epik_Ionization_Penalty_Charging>
0.98326

> <r_epik_Ionization_Penalty_Neutral>
4.21967e-05

> <r_epik_State_Penalty>
1.0303

> <r_epik_Charging_Adjusted_Penalty>
2.01356

> <i_epik_Tot_Q>
1

> <i_epik_Tot_abs_Q>
1

> <r_epik_Metal_State_Penalty>
1.03031

> <b_epik_Metal_Only>
0

> <s_lp_Force_Field>
OPLS_2005

> <r_lp_Energy>
38.82

> <b_lp_Chiralities_Consistent>
1

> <s_lp_Variant>
AV-unprocessed.smi:1734-8

> <Gold.Version>
5.8.1

> <Gold.Id.Protein>
6NUR|6NUR_protein|mol2

> <Gold.PLP.Fitness>
55.5019

> <Gold.PLP.PLP>
-38.3063

> <Gold.PLP.part.hbond>
-4.0000

> <Gold.PLP.part.metal>
0.0000

> <Gold.PLP.part.buried>
-5.3130

> <Gold.PLP.part.nonpolar>
-31.1786

> <Gold.PLP.part.repulsive>
1.7792

> <Gold.PLP.ligand.clash>
0.0000

> <Gold.PLP.ligand.torsion>
0.6270

> <Gold.PLP.Chemscore.Hbond>
4.9745

> <Gold.PLP.Chemscore.CHOScore>
1.0000

> <Gold.PLP.Chemscore.Metal>
0.0000

> <Gold.Chemscore.Hbonds>
donor molecule, donor type, donor heavy atom, donor atom, acceptor molecule, acceptor atom, score
      L1  H     8    31       P1  7948  0.94
      L1  H    11    32       P1  7948  0.88
      L1  H    19    51       P1 10175  2.00
      P1  H  7989  7998       L1    17  0.85
      L1  C     5    30       P1 10186  1.00

> <Gold.PLP.Chemscore.Internal.Correction>
0.5261

> <Gold.Rescore>
     Score         DG    S(hbond)    S(metal)    S(lipo)     H(rot)  DE(clash)    DE(int)     intcor
     19.37     -24.88       3.80        0.00      94.40       1.70       2.81       2.70       ----

> <Gold.Chemscore.Fitness>
19.3651

> <Gold.Chemscore.DG>
-24.8753

> <Gold.Chemscore.ZeroCoef>
-5.4800

> <Gold.Chemscore.Hbond>
3.8021

> <Gold.Chemscore.Metal>
0.0000

> <Gold.Chemscore.Lipo>
94.4007

> <Gold.Chemscore.Internal_Hbond>
0.0000

> <Gold.Chemscore.DEClash>
2.8071

> <Gold.Chemscore.DEInternal>
2.7031

> <Gold.Chemscore.Rot>
1.6986

> <Gold.Chemscore.Internal.Correction>
   9.000000E+99

> <Gold.Chemscore.Hbonds>
donor molecule, donor type, donor heavy atom, donor atom, acceptor molecule, acceptor atom, score
      L1  H     8    31       P1  7948  0.74
      L1  H    11    32       P1  7948  0.84
      L1  H    19    51       P1 10175  0.78
      P1  H  7989  7998       L1    17  0.14

> <Gold.Chemscore.Hbond.Weighted>
-12.6989

> <Gold.Chemscore.Metal.Weighted>
-0.0000

> <Gold.Chemscore.Lipo.Weighted>
-11.0449

> <Gold.Chemscore.Internal_Hbond.Weighted>
0.0000

> <Gold.Chemscore.DEClash.Weighted>
2.8071

> <Gold.Chemscore.DEInternal.Weighted>
2.7031

> <Gold.Chemscore.Rot.Weighted>
4.3485

> <Gold.Chemscore.Internal.Correction.Weighted>
   9.000000E+99

> <Gold.Protein.RotatedTorsions>
[ 6907 6896 6895 6894 ] final  -78.97 input  -60.11 | X-H torsion
[ 7974 7965 7964 7962 ] final -144.14 input  175.53 | X-H torsion
[ 8008 7997 7996 7995 ] final -169.50 input   59.86 | X-H torsion
[ 10167 10162 10161 10158 ] final  170.07 input  -65.29 | X-H torsion
[ 10718 10713 10712 10709 ] final  115.46 input   66.30 | X-H torsion
[ 10763 10752 10751 10750 ] final   29.21 input  -60.55 | X-H torsion
[ 11005 11000 10999 10996 ] final  -99.31 input  -57.11 | X-H torsion

> <Gold.Protein.ActiveResidues>
 VAL166  LYS551  ARG553  GLY616  TRP617  ASP618  TYR619  PRO620  LYS621  CYS622 
 ASP623  PHE694  ASN695  SER759  ASP760  ASP761  ALA762  ILE779  LEU786  VAL792 
 PHE793  MET794  SER795  GLU796  ALA797  LYS798  CYS799  TRP800  GLU811  SER814 

> <Gold.Protein.RotatedAtoms>
  150.6960  134.4191  159.5196 H   0  0  0  0  0  0  0  0  0  0  0  0  # atno 6907 bound_to 6896
  152.1937  134.8647  160.0524 H   0  0  0  0  0  0  0  0  0  0  0  0  # atno 6908 bound_to 6896
  151.9593  133.3655  159.4066 H   0  0  0  0  0  0  0  0  0  0  0  0  # atno 6909 bound_to 6896
  144.8319  140.5747  143.5510 H   0  0  0  0  0  0  0  0  0  0  0  0  # atno 7974 bound_to 7965
  155.9058  140.1049  157.1316 H   0  0  0  0  0  0  0  0  0  0  0  0  # atno 8008 bound_to 7997
  154.4032  140.1284  156.4558 H   0  0  0  0  0  0  0  0  0  0  0  0  # atno 8009 bound_to 7997
  155.7369  140.3467  155.5088 H   0  0  0  0  0  0  0  0  0  0  0  0  # atno 8010 bound_to 7997
  139.5009  144.3637  151.9798 H   0  0  0  0  0  0  0  0  0  0  0  0  # atno 10167 bound_to 10162
  157.6220  131.1013  150.7333 H   0  0  0  0  0  0  0  0  0  0  0  0  # atno 10718 bound_to 10713
  153.0444  135.6494  154.0855 H   0  0  0  0  0  0  0  0  0  0  0  0  # atno 10763 bound_to 10752
  154.0556  135.2892  155.3335 H   0  0  0  0  0  0  0  0  0  0  0  0  # atno 10764 bound_to 10752
  154.6691  135.5363  153.8181 H   0  0  0  0  0  0  0  0  0  0  0  0  # atno 10765 bound_to 10752
  141.1313  133.8311  157.0954 H   0  0  0  0  0  0  0  0  0  0  0  0  # atno 11005 bound_to 11000
  145.4878  139.1491  143.3726 LP  0  0  0  0  0  0  0  0  0  0  0  0  # atno 17320 bound_to 7965
  146.2621  140.5016  142.8849 LP  0  0  0  0  0  0  0  0  0  0  0  0  # atno 17321 bound_to 7965
  140.3073  144.3578  150.6043 LP  0  0  0  0  0  0  0  0  0  0  0  0  # atno 17342 bound_to 10162
  140.5826  143.2172  151.7400 LP  0  0  0  0  0  0  0  0  0  0  0  0  # atno 17343 bound_to 10162
  156.7689  130.4822  149.5422 LP  0  0  0  0  0  0  0  0  0  0  0  0  # atno 17370 bound_to 10713
  156.1371  130.6219  151.0415 LP  0  0  0  0  0  0  0  0  0  0  0  0  # atno 17371 bound_to 10713
  140.0366  134.9875  157.0883 LP  0  0  0  0  0  0  0  0  0  0  0  0  # atno 17394 bound_to 11000
  140.4201  134.1890  155.7164 LP  0  0  0  0  0  0  0  0  0  0  0  0  # atno 17395 bound_to 11000

$$$$
