AV-unprocessed.smi:1295|AV-procd|sdf|5406|dock1
  -GOLD-   22720 4563D 1   1.00000     0.00000
 Structure written by MMmdl.
 43 44  0  0  0  0  0  0  0  0  1 V2000
  151.4304  143.1496  157.1692 C   0  0  0  0  0  0  0  0  0  0  0  0
  150.9918  141.8890  156.4560 C   0  0  0  0  0  0  0  0  0  0  0  0
  149.9157  142.0772  155.6046 N   0  0  0  0  0  0  0  0  0  0  0  0
  149.4433  140.9802  154.9059 C   0  0  0  0  0  0  0  0  0  0  0  0
  148.2638  141.2721  153.9940 C   0  0  0  0  0  0  0  0  0  0  0  0
  150.0113  139.7562  155.0526 C   0  0  0  0  0  0  0  0  0  0  0  0
  149.5141  138.5212  154.3035 C   0  0  0  0  0  0  0  0  0  0  0  0
  149.1220  137.3317  155.1830 C   0  0  0  0  0  0  0  0  0  0  0  0
  149.0870  137.4530  156.4073 O   0  0  0  0  0  0  0  0  0  0  0  0
  148.8257  136.1912  154.5409 N   0  0  0  0  0  0  0  0  0  0  0  0
  148.3866  134.9387  155.1595 C   0  0  1  0  0  0  0  0  0  0  0  0
  147.0045  134.5435  154.6020 C   0  0  0  0  0  0  0  0  0  0  0  0
  147.0766  134.0994  153.1306 C   0  0  0  0  0  0  0  0  0  0  0  0
  148.0943  132.9646  152.9412 C   0  0  0  0  0  0  0  0  0  0  0  0
  149.4805  133.3593  153.4757 C   0  0  0  0  0  0  0  0  0  0  0  0
  149.4160  133.7976  154.9536 C   0  0  1  0  0  0  0  0  0  0  0  0
  150.8124  134.1340  155.5044 C   0  0  0  0  0  0  0  0  0  0  0  0
  151.1559  139.6157  155.9837 C   0  0  0  0  0  0  0  0  0  0  0  0
  151.7064  138.5313  156.1694 O   0  0  0  0  0  0  0  0  0  0  0  0
  151.6012  140.7615  156.6628 N   0  0  0  0  0  0  0  0  0  0  0  0
  149.4613  142.9690  155.4696 H   0  0  0  0  0  0  0  0  0  0  0  0
  152.3656  142.9881  157.7070 H   0  0  0  0  0  0  0  0  0  0  0  0
  150.6718  143.4606  157.8879 H   0  0  0  0  0  0  0  0  0  0  0  0
  151.5850  143.9594  156.4554 H   0  0  0  0  0  0  0  0  0  0  0  0
  148.5191  141.0514  152.9575 H   0  0  0  0  0  0  0  0  0  0  0  0
  147.9637  142.3192  154.0482 H   0  0  0  0  0  0  0  0  0  0  0  0
  147.4037  140.6637  154.2750 H   0  0  0  0  0  0  0  0  0  0  0  0
  150.2558  138.1794  153.5813 H   0  0  0  0  0  0  0  0  0  0  0  0
  148.6550  138.8136  153.6987 H   0  0  0  0  0  0  0  0  0  0  0  0
  148.8912  136.1923  153.5332 H   0  0  0  0  0  0  0  0  0  0  0  0
  148.2652  135.0934  156.2331 H   0  0  0  0  0  0  0  0  0  0  0  0
  146.5978  133.7270  155.2002 H   0  0  0  0  0  0  0  0  0  0  0  0
  146.3039  135.3729  154.7080 H   0  0  0  0  0  0  0  0  0  0  0  0
  146.0921  133.7740  152.7935 H   0  0  0  0  0  0  0  0  0  0  0  0
  147.3514  134.9464  152.5008 H   0  0  0  0  0  0  0  0  0  0  0  0
  147.7445  132.0707  153.4591 H   0  0  0  0  0  0  0  0  0  0  0  0
  148.1646  132.7016  151.8855 H   0  0  0  0  0  0  0  0  0  0  0  0
  150.1629  132.5155  153.3683 H   0  0  0  0  0  0  0  0  0  0  0  0
  149.8921  134.1645  152.8657 H   0  0  0  0  0  0  0  0  0  0  0  0
  149.0565  132.9409  155.5257 H   0  0  0  0  0  0  0  0  0  0  0  0
  151.2814  134.9466  154.9492 H   0  0  0  0  0  0  0  0  0  0  0  0
  151.4749  133.2704  155.4423 H   0  0  0  0  0  0  0  0  0  0  0  0
  150.7589  134.4324  156.5517 H   0  0  0  0  0  0  0  0  0  0  0  0
  1 22  1  0  0  0  0
  1 23  1  0  0  0  0
  1 24  1  0  0  0  0
  1  2  1  0  0  0  0
  2  3  1  0  0  0  0
  2 20  2  0  0  0  0
  3  4  1  0  0  0  0
  3 21  1  0  0  0  0
  4  6  2  0  0  0  0
  4  5  1  0  0  0  0
  5 25  1  0  0  0  0
  5 26  1  0  0  0  0
  5 27  1  0  0  0  0
  6 18  1  0  0  0  0
  6  7  1  0  0  0  0
  7  8  1  0  0  0  0
  7 28  1  0  0  0  0
  7 29  1  0  0  0  0
  8  9  2  0  0  0  0
  8 10  1  0  0  0  0
 10 11  1  0  0  0  0
 10 30  1  0  0  0  0
 11 16  1  0  0  0  0
 11 12  1  0  0  0  0
 11 31  1  0  0  0  0
 12 13  1  0  0  0  0
 12 32  1  0  0  0  0
 12 33  1  0  0  0  0
 13 14  1  0  0  0  0
 13 34  1  0  0  0  0
 13 35  1  0  0  0  0
 14 15  1  0  0  0  0
 14 36  1  0  0  0  0
 14 37  1  0  0  0  0
 15 16  1  0  0  0  0
 15 38  1  0  0  0  0
 15 39  1  0  0  0  0
 16 17  1  0  0  0  0
 16 40  1  0  0  0  0
 17 41  1  0  0  0  0
 17 42  1  0  0  0  0
 17 43  1  0  0  0  0
 18 19  2  0  0  0  0
 18 20  1  0  0  0  0
M  END
> <s_m_source_file>
AV-unprocessed.smi

> <i_m_source_file_index>
1295

> <i_lp_mmshare_version>
43012

> <i_f3d_flags>
0

> <s_epik_input>
W0NIM11jMW5jKFtDSDNdKWMoYyg9TylbbkhdMSlbQ0gyXUMoPU8pW05IXVtDQEBIXTJbQ0gyXVtDSDJdW0NIMl1bQ0gyXVtDQEhdMltDSDNd

> <s_epik_cmdline>
J2VwaWtfcHl0aG9uJywgJy1waCcsICc3LjAnLCAnLXRuJywgJzgnLCAnLW1hJywgJzIwMCcsICctbWV0YWxfYmluZGluZycsICctaW1hZScsICc8aW5maWxlLm1hZT4nLCAnLW9tYWUnLCAnPG91dGZpbGUubWFlPic=

> <r_lp_tautomer_probability>
0.156392

> <r_epik_Ionization_Penalty>
0.0136057

> <r_epik_Ionization_Penalty_Charging>
0.0134742

> <r_epik_Ionization_Penalty_Neutral>
0.000131572

> <r_epik_State_Penalty>
1.15342

> <r_epik_Charging_Adjusted_Penalty>
1.16689

> <i_epik_Tot_Q>
0

> <i_epik_Tot_abs_Q>
0

> <r_epik_Metal_State_Penalty>
1.31351

> <b_epik_Metal_Only>
0

> <s_lp_Force_Field>
OPLS_2005

> <r_lp_Energy>
15.3468

> <b_lp_Chiralities_Consistent>
1

> <s_lp_Variant>
AV-unprocessed.smi:1295-6

> <Gold.Version>
5.8.1

> <Gold.Id.Protein>
6NUR|6NUR_protein|mol2

> <Gold.PLP.Fitness>
37.7792

> <Gold.PLP.PLP>
-31.9260

> <Gold.PLP.part.hbond>
-2.0000

> <Gold.PLP.part.metal>
0.0000

> <Gold.PLP.part.buried>
-2.3819

> <Gold.PLP.part.nonpolar>
-27.1353

> <Gold.PLP.part.repulsive>
0.1934

> <Gold.PLP.ligand.clash>
0.0000

> <Gold.PLP.ligand.torsion>
0.0792

> <Gold.PLP.Chemscore.Hbond>
2.0000

> <Gold.PLP.Chemscore.CHOScore>
0.0000

> <Gold.PLP.Chemscore.Metal>
0.0000

> <Gold.Chemscore.Hbonds>
donor molecule, donor type, donor heavy atom, donor atom, acceptor molecule, acceptor atom, score
      L1  H     3    21       P1  8028  1.00
      L1  H    10    30       P1  7948  1.00

> <Gold.PLP.Chemscore.Internal.Correction>
0.0117

> <Gold.Rescore>
     Score         DG    S(hbond)    S(metal)    S(lipo)     H(rot)  DE(clash)    DE(int)     intcor
     14.40     -16.44       1.99        0.00      69.18       1.48       0.08       1.95       ----

> <Gold.Chemscore.Fitness>
14.4037

> <Gold.Chemscore.DG>
-16.4380

> <Gold.Chemscore.ZeroCoef>
-5.4800

> <Gold.Chemscore.Hbond>
1.9918

> <Gold.Chemscore.Metal>
0.0000

> <Gold.Chemscore.Lipo>
69.1834

> <Gold.Chemscore.Internal_Hbond>
0.0000

> <Gold.Chemscore.DEClash>
0.0820

> <Gold.Chemscore.DEInternal>
1.9523

> <Gold.Chemscore.Rot>
1.4801

> <Gold.Chemscore.Internal.Correction>
   9.000000E+99

> <Gold.Chemscore.Hbonds>
donor molecule, donor type, donor heavy atom, donor atom, acceptor molecule, acceptor atom, score
      L1  H     3    21       P1  8028  1.00
      L1  H    10    30       P1  7948  0.99

> <Gold.Chemscore.Hbond.Weighted>
-6.6526

> <Gold.Chemscore.Metal.Weighted>
-0.0000

> <Gold.Chemscore.Lipo.Weighted>
-8.0945

> <Gold.Chemscore.Internal_Hbond.Weighted>
0.0000

> <Gold.Chemscore.DEClash.Weighted>
0.0820

> <Gold.Chemscore.DEInternal.Weighted>
1.9523

> <Gold.Chemscore.Rot.Weighted>
3.7891

> <Gold.Chemscore.Internal.Correction.Weighted>
   9.000000E+99

> <Gold.Protein.RotatedTorsions>
[ 6907 6896 6895 6894 ] final  -15.12 input  -60.11 | X-H torsion
[ 7974 7965 7964 7962 ] final  123.54 input  175.53 | X-H torsion
[ 8008 7997 7996 7995 ] final -130.47 input   59.86 | X-H torsion
[ 10167 10162 10161 10158 ] final -133.07 input  -65.29 | X-H torsion
[ 10718 10713 10712 10709 ] final   46.12 input   66.30 | X-H torsion
[ 10763 10752 10751 10750 ] final   97.71 input  -60.55 | X-H torsion
[ 11005 11000 10999 10996 ] final  123.48 input  -57.11 | X-H torsion

> <Gold.Protein.ActiveResidues>
 VAL166  LYS551  ARG553  GLY616  TRP617  ASP618  TYR619  PRO620  LYS621  CYS622 
 ASP623  PHE694  ASN695  SER759  ASP760  ASP761  ALA762  ILE779  LEU786  VAL792 
 PHE793  MET794  SER795  GLU796  ALA797  LYS798  CYS799  TRP800  GLU811  SER814 

> <Gold.Protein.RotatedAtoms>
  151.3288  135.0836  159.9331 H   0  0  0  0  0  0  0  0  0  0  0  0  # atno 6907 bound_to 6896
  152.5239  133.9564  159.7706 H   0  0  0  0  0  0  0  0  0  0  0  0  # atno 6908 bound_to 6896
  150.9898  133.6108  159.2740 H   0  0  0  0  0  0  0  0  0  0  0  0  # atno 6909 bound_to 6896
  145.0947  139.3561  143.4842 H   0  0  0  0  0  0  0  0  0  0  0  0  # atno 7974 bound_to 7965
  155.2963  140.0450  157.3026 H   0  0  0  0  0  0  0  0  0  0  0  0  # atno 8008 bound_to 7997
  154.5512  140.2318  155.8450 H   0  0  0  0  0  0  0  0  0  0  0  0  # atno 8009 bound_to 7997
  156.1968  140.3036  155.9451 H   0  0  0  0  0  0  0  0  0  0  0  0  # atno 8010 bound_to 7997
  139.9020  143.6596  152.2593 H   0  0  0  0  0  0  0  0  0  0  0  0  # atno 10167 bound_to 10162
  157.4447  130.8102  149.7729 H   0  0  0  0  0  0  0  0  0  0  0  0  # atno 10718 bound_to 10713
  153.2802  135.4173  155.1071 H   0  0  0  0  0  0  0  0  0  0  0  0  # atno 10763 bound_to 10752
  154.8487  135.3493  154.6122 H   0  0  0  0  0  0  0  0  0  0  0  0  # atno 10764 bound_to 10752
  153.6543  135.7051  153.5256 H   0  0  0  0  0  0  0  0  0  0  0  0  # atno 10765 bound_to 10752
  139.9314  134.9641  156.8266 H   0  0  0  0  0  0  0  0  0  0  0  0  # atno 11005 bound_to 11000
  146.3531  140.0798  142.8618 LP  0  0  0  0  0  0  0  0  0  0  0  0  # atno 17320 bound_to 7965
  145.1024  140.9354  143.4704 LP  0  0  0  0  0  0  0  0  0  0  0  0  # atno 17321 bound_to 7965
  139.7017  144.7634  151.1262 LP  0  0  0  0  0  0  0  0  0  0  0  0  # atno 17342 bound_to 10162
  140.7704  143.5449  150.9270 LP  0  0  0  0  0  0  0  0  0  0  0  0  # atno 17343 bound_to 10162
  155.9963  130.3907  150.2786 LP  0  0  0  0  0  0  0  0  0  0  0  0  # atno 17370 bound_to 10713
  157.0953  131.0181  151.3106 LP  0  0  0  0  0  0  0  0  0  0  0  0  # atno 17371 bound_to 10713
  140.6191  134.0011  155.7610 LP  0  0  0  0  0  0  0  0  0  0  0  0  # atno 17394 bound_to 11000
  141.0905  133.9923  157.3244 LP  0  0  0  0  0  0  0  0  0  0  0  0  # atno 17395 bound_to 11000

$$$$
