AV-unprocessed.smi:212|AV-procd|sdf|1632|dock9
  -GOLD-   2262019593D 1   1.00000     0.00000
 Structure written by MMmdl.
 65 68  0  0  0  0  0  0  0  0  2 V2000
  150.7356  135.4653  156.2896 C   0  0  0  0  0  0  0  0  0  0  0  0
  149.7774  136.0899  155.2567 C   0  0  1  0  0  0  0  0  0  0  0  0
  148.3411  135.5431  155.3804 C   0  0  0  0  0  0  0  0  0  0  0  0
  147.4660  136.1080  154.3194 N   0  3  1  0  0  0  0  0  0  0  0  0
  146.0957  135.5290  154.3158 C   0  0  0  0  0  0  0  0  0  0  0  0
  145.4758  135.4507  152.8998 C   0  0  0  0  0  0  0  0  0  0  0  0
  145.2612  133.9812  152.4997 C   0  0  0  0  0  0  0  0  0  0  0  0
  144.1509  136.2289  152.7969 C   0  0  0  0  0  0  0  0  0  0  0  0
  146.3824  135.9908  151.9591 O   0  0  0  0  0  0  0  0  0  0  0  0
  147.4672  137.5937  154.3235 C   0  0  0  0  0  0  0  0  0  0  0  0
  148.9002  138.1614  154.2567 C   0  0  0  0  0  0  0  0  0  0  0  0
  149.7823  137.5564  155.2514 N   0  0  0  0  0  0  0  0  0  0  0  0
  149.8222  138.1924  156.4465 C   0  0  0  0  0  0  0  0  0  0  0  0
  149.4776  137.5365  157.5850 N   0  0  0  0  0  0  0  0  0  0  0  0
  149.5318  138.1680  158.7619 C   0  0  0  0  0  0  0  0  0  0  0  0
  149.8958  139.4266  159.0181 N   0  0  0  0  0  0  0  0  0  0  0  0
  150.2407  140.0852  157.8744 C   0  0  0  0  0  0  0  0  0  0  0  0
  150.2309  139.5469  156.5580 C   0  0  0  0  0  0  0  0  0  0  0  0
  150.6423  140.5081  155.6439 N   0  0  0  0  0  0  0  0  0  0  0  0
  150.8778  141.5610  156.3792 C   0  0  0  0  0  0  0  0  0  0  0  0
  150.6599  141.3958  157.7284 N   0  0  0  0  0  0  0  0  0  0  0  0
  150.8424  142.3973  158.7633 C   0  0  0  0  0  0  0  0  0  0  0  0
  152.1509  143.2193  158.6219 C   0  0  1  0  0  0  0  0  0  0  0  0
  151.9234  144.5790  157.9123 C   0  0  0  0  0  0  0  0  0  0  0  0
  151.8004  144.4313  156.5123 O   0  0  0  0  0  0  0  0  0  0  0  0
  152.8106  143.4234  160.0109 C   0  0  1  0  0  0  0  0  0  0  0  0
  151.9151  144.0621  161.0601 C   0  0  0  0  0  0  0  0  0  0  0  0
  152.6318  143.6990  162.3531 C   0  0  0  0  0  0  0  0  0  0  0  0
  153.1399  142.3908  162.1324 O   0  0  0  0  0  0  0  0  0  0  0  0
  153.2139  142.1292  160.7333 C   0  0  0  0  0  0  0  0  0  0  0  0
  150.7760  134.3819  156.1741 H   0  0  0  0  0  0  0  0  0  0  0  0
  150.4227  135.6714  157.3137 H   0  0  0  0  0  0  0  0  0  0  0  0
  151.7503  135.8445  156.1643 H   0  0  0  0  0  0  0  0  0  0  0  0
  150.1516  135.7937  154.2756 H   0  0  0  0  0  0  0  0  0  0  0  0
  148.3611  134.4566  155.3026 H   0  0  0  0  0  0  0  0  0  0  0  0
  147.9251  135.7760  156.3615 H   0  0  0  0  0  0  0  0  0  0  0  0
  146.1010  134.5473  154.7929 H   0  0  0  0  0  0  0  0  0  0  0  0
  145.4400  136.1450  154.9337 H   0  0  0  0  0  0  0  0  0  0  0  0
  144.5604  133.4873  153.1739 H   0  0  0  0  0  0  0  0  0  0  0  0
  146.1957  133.4193  152.5288 H   0  0  0  0  0  0  0  0  0  0  0  0
  144.8580  133.8957  151.4895 H   0  0  0  0  0  0  0  0  0  0  0  0
  143.4180  135.8534  153.5115 H   0  0  0  0  0  0  0  0  0  0  0  0
  143.7143  136.1374  151.8015 H   0  0  0  0  0  0  0  0  0  0  0  0
  144.2875  137.2929  152.9926 H   0  0  0  0  0  0  0  0  0  0  0  0
  147.2635  135.8399  152.2674 H   0  0  0  0  0  0  0  0  0  0  0  0
  146.8972  137.9618  153.4697 H   0  0  0  0  0  0  0  0  0  0  0  0
  146.9547  137.9506  155.2172 H   0  0  0  0  0  0  0  0  0  0  0  0
  149.3245  137.9670  153.2710 H   0  0  0  0  0  0  0  0  0  0  0  0
  148.8827  139.2461  154.3740 H   0  0  0  0  0  0  0  0  0  0  0  0
  149.2437  137.5813  159.6218 H   0  0  0  0  0  0  0  0  0  0  0  0
  151.2152  142.4959  155.9556 H   0  0  0  0  0  0  0  0  0  0  0  0
  149.9789  143.0638  158.7576 H   0  0  0  0  0  0  0  0  0  0  0  0
  150.8187  141.8752  159.7197 H   0  0  0  0  0  0  0  0  0  0  0  0
  152.8496  142.6388  158.0168 H   0  0  0  0  0  0  0  0  0  0  0  0
  151.0390  145.0800  158.3076 H   0  0  0  0  0  0  0  0  0  0  0  0
  152.7616  145.2552  158.0727 H   0  0  0  0  0  0  0  0  0  0  0  0
  150.8836  144.4720  156.2859 H   0  0  0  0  0  0  0  0  0  0  0  0
  153.6993  144.0469  159.8987 H   0  0  0  0  0  0  0  0  0  0  0  0
  151.8064  145.1402  160.9383 H   0  0  0  0  0  0  0  0  0  0  0  0
  150.9215  143.6115  161.0435 H   0  0  0  0  0  0  0  0  0  0  0  0
  153.4687  144.3762  162.5275 H   0  0  0  0  0  0  0  0  0  0  0  0
  151.9767  143.7350  163.2235 H   0  0  0  0  0  0  0  0  0  0  0  0
  152.5200  141.3194  160.5038 H   0  0  0  0  0  0  0  0  0  0  0  0
  154.2162  141.7999  160.4583 H   0  0  0  0  0  0  0  0  0  0  0  0
  147.8808  135.8386  153.4390 H   0  0  0  0  0  0  0  0  0  0  0  0
  1  2  1  0  0  0  0
  1 31  1  0  0  0  0
  1 32  1  0  0  0  0
  1 33  1  0  0  0  0
  2 12  1  0  0  0  0
  2  3  1  0  0  0  0
  2 34  1  0  0  0  0
  3  4  1  0  0  0  0
  3 35  1  0  0  0  0
  3 36  1  0  0  0  0
  4  5  1  0  0  0  0
  4 10  1  0  0  0  0
  4 65  1  0  0  0  0
  5  6  1  0  0  0  0
  5 37  1  0  0  0  0
  5 38  1  0  0  0  0
  6  7  1  0  0  0  0
  6  8  1  0  0  0  0
  6  9  1  0  0  0  0
  7 39  1  0  0  0  0
  7 40  1  0  0  0  0
  7 41  1  0  0  0  0
  8 42  1  0  0  0  0
  8 43  1  0  0  0  0
  8 44  1  0  0  0  0
  9 45  1  0  0  0  0
 10 11  1  0  0  0  0
 10 46  1  0  0  0  0
 10 47  1  0  0  0  0
 11 12  1  0  0  0  0
 11 48  1  0  0  0  0
 11 49  1  0  0  0  0
 12 13  1  0  0  0  0
 13 18  1  0  0  0  0
 13 14  2  0  0  0  0
 14 15  1  0  0  0  0
 15 16  2  0  0  0  0
 15 50  1  0  0  0  0
 16 17  1  0  0  0  0
 17 21  1  0  0  0  0
 17 18  2  0  0  0  0
 18 19  1  0  0  0  0
 19 20  2  0  0  0  0
 20 21  1  0  0  0  0
 20 51  1  0  0  0  0
 21 22  1  0  0  0  0
 22 23  1  0  0  0  0
 22 52  1  0  0  0  0
 22 53  1  0  0  0  0
 23 24  1  0  0  0  0
 23 26  1  0  0  0  0
 23 54  1  0  0  0  0
 24 25  1  0  0  0  0
 24 55  1  0  0  0  0
 24 56  1  0  0  0  0
 25 57  1  0  0  0  0
 26 30  1  0  0  0  0
 26 27  1  0  0  0  0
 26 58  1  0  0  0  0
 27 28  1  0  0  0  0
 27 59  1  0  0  0  0
 27 60  1  0  0  0  0
 28 29  1  0  0  0  0
 28 61  1  0  0  0  0
 28 62  1  0  0  0  0
 29 30  1  0  0  0  0
 30 63  1  0  0  0  0
 30 64  1  0  0  0  0
M  CHG  1   4   1
M  END
> <s_m_source_file>
AV-unprocessed.smi

> <i_m_source_file_index>
212

> <i_lp_mmshare_version>
43012

> <i_f3d_flags>
0

> <s_epik_input>
W0NIM11bQ0BASF0xW0NIMl1OKFtDSDJdQyhbQ0gzXSkoW0NIM10pW09IXSlbQ0gyXVtDSDJdTjFjKG5bY0hdbjIpYyhjMjMpbltjSF1uM1tDSDJdW0NASF0oW0NIMl1bT0hdKVtDQEBIXTRbQ0gyXVtDSDJdT1tDSDJdNA==

> <s_epik_cmdline>
J2VwaWtfcHl0aG9uJywgJy1waCcsICc3LjAnLCAnLXRuJywgJzgnLCAnLW1hJywgJzIwMCcsICctbWV0YWxfYmluZGluZycsICctaW1hZScsICc8aW5maWxlLm1hZT4nLCAnLW9tYWUnLCAnPG91dGZpbGUubWFlPic=

> <r_lp_tautomer_probability>
1

> <r_epik_Ionization_Penalty>
0.00182193

> <r_epik_Ionization_Penalty_Charging>
0.00173996

> <r_epik_Ionization_Penalty_Neutral>
8.19718e-05

> <r_epik_State_Penalty>
-0

> <r_epik_Charging_Adjusted_Penalty>
0.00173996

> <i_epik_Tot_Q>
1

> <i_epik_Tot_abs_Q>
1

> <r_epik_Metal_State_Penalty>
-0

> <b_epik_Metal_Only>
0

> <s_lp_Force_Field>
OPLS_2005

> <r_lp_Energy>
59.0262

> <b_lp_Chiralities_Consistent>
1

> <s_lp_Variant>
AV-unprocessed.smi:212-16

> <Gold.Version>
5.8.1

> <Gold.Id.Protein>
6NUR|6NUR_protein|mol2

> <Gold.PLP.Fitness>
52.3826

> <Gold.PLP.PLP>
-43.6554

> <Gold.PLP.part.hbond>
-4.2381

> <Gold.PLP.part.metal>
0.0000

> <Gold.PLP.part.buried>
-0.4960

> <Gold.PLP.part.nonpolar>
-38.1684

> <Gold.PLP.part.repulsive>
0.2439

> <Gold.PLP.ligand.clash>
0.0816

> <Gold.PLP.ligand.torsion>
2.6949

> <Gold.PLP.Chemscore.Hbond>
4.3721

> <Gold.PLP.Chemscore.CHOScore>
0.0000

> <Gold.PLP.Chemscore.Metal>
0.0000

> <Gold.Chemscore.Hbonds>
donor molecule, donor type, donor heavy atom, donor atom, acceptor molecule, acceptor atom, score
      L1  H     4    65       P1  7948  2.00
      L1  H     9    45       P1  7948  0.80
      L1  H    25    57       P1  8028  0.89
      P1  H  7989  7998       L1    19  0.11

> <Gold.PLP.Chemscore.Internal.Correction>
1.0825

> <Gold.Rescore>
     Score         DG    S(hbond)    S(metal)    S(lipo)     H(rot)  DE(clash)    DE(int)     intcor
     13.42     -18.82       2.91        0.00     111.64       3.68       0.99       4.41       ----

> <Gold.Chemscore.Fitness>
13.4177

> <Gold.Chemscore.DG>
-18.8228

> <Gold.Chemscore.ZeroCoef>
-5.4800

> <Gold.Chemscore.Hbond>
2.9056

> <Gold.Chemscore.Metal>
0.0000

> <Gold.Chemscore.Lipo>
111.6411

> <Gold.Chemscore.Internal_Hbond>
0.0000

> <Gold.Chemscore.DEClash>
0.9910

> <Gold.Chemscore.DEInternal>
4.4142

> <Gold.Chemscore.Rot>
3.6812

> <Gold.Chemscore.Internal.Correction>
   9.000000E+99

> <Gold.Chemscore.Hbonds>
donor molecule, donor type, donor heavy atom, donor atom, acceptor molecule, acceptor atom, score
      L1  H     4    65       P1  7948  0.95
      L1  H     9    45       P1  7948  0.80
      L1  H    25    57       P1  8028  0.86
      P1  H  7989  7998       L1    19  0.08

> <Gold.Chemscore.Hbond.Weighted>
-9.7048

> <Gold.Chemscore.Metal.Weighted>
-0.0000

> <Gold.Chemscore.Lipo.Weighted>
-13.0620

> <Gold.Chemscore.Internal_Hbond.Weighted>
0.0000

> <Gold.Chemscore.DEClash.Weighted>
0.9910

> <Gold.Chemscore.DEInternal.Weighted>
4.4142

> <Gold.Chemscore.Rot.Weighted>
9.4239

> <Gold.Chemscore.Internal.Correction.Weighted>
   9.000000E+99

> <Gold.Protein.RotatedTorsions>
[ 6907 6896 6895 6894 ] final -145.12 input  -60.11 | X-H torsion
[ 7974 7965 7964 7962 ] final  129.04 input  175.53 | X-H torsion
[ 8008 7997 7996 7995 ] final  -40.31 input   59.86 | X-H torsion
[ 10167 10162 10161 10158 ] final  -94.64 input  -65.29 | X-H torsion
[ 10718 10713 10712 10709 ] final -147.10 input   66.30 | X-H torsion
[ 10763 10752 10751 10750 ] final   94.49 input  -60.55 | X-H torsion
[ 11005 11000 10999 10996 ] final  128.16 input  -57.11 | X-H torsion

> <Gold.Protein.ActiveResidues>
 VAL166  LYS551  ARG553  GLY616  TRP617  ASP618  TYR619  PRO620  LYS621  CYS622 
 ASP623  PHE694  ASN695  SER759  ASP760  ASP761  ALA762  ILE779  LEU786  VAL792 
 PHE793  MET794  SER795  GLU796  ALA797  LYS798  CYS799  TRP800  GLU811  SER814 

> <Gold.Protein.RotatedAtoms>
  151.1234  133.5088  159.2601 H   0  0  0  0  0  0  0  0  0  0  0  0  # atno 6907 bound_to 6896
  151.1837  135.0372  159.8813 H   0  0  0  0  0  0  0  0  0  0  0  0  # atno 6908 bound_to 6896
  152.5457  134.1082  159.8400 H   0  0  0  0  0  0  0  0  0  0  0  0  # atno 6909 bound_to 6896
  145.0329  139.4030  143.5140 H   0  0  0  0  0  0  0  0  0  0  0  0  # atno 7974 bound_to 7965
  154.4013  140.1528  156.3006 H   0  0  0  0  0  0  0  0  0  0  0  0  # atno 8008 bound_to 7997
  155.8704  140.3449  155.5795 H   0  0  0  0  0  0  0  0  0  0  0  0  # atno 8009 bound_to 7997
  155.7781  140.0839  157.2064 H   0  0  0  0  0  0  0  0  0  0  0  0  # atno 8010 bound_to 7997
  140.3124  143.3097  152.0134 H   0  0  0  0  0  0  0  0  0  0  0  0  # atno 10167 bound_to 10162
  156.4033  130.7945  151.2157 H   0  0  0  0  0  0  0  0  0  0  0  0  # atno 10718 bound_to 10713
  153.2423  135.4288  155.0710 H   0  0  0  0  0  0  0  0  0  0  0  0  # atno 10763 bound_to 10752
  154.8346  135.3405  154.6632 H   0  0  0  0  0  0  0  0  0  0  0  0  # atno 10764 bound_to 10752
  153.7055  135.7026  153.5108 H   0  0  0  0  0  0  0  0  0  0  0  0  # atno 10765 bound_to 10752
  139.9546  134.9615  156.8961 H   0  0  0  0  0  0  0  0  0  0  0  0  # atno 11005 bound_to 11000
  146.3501  139.9889  142.8688 LP  0  0  0  0  0  0  0  0  0  0  0  0  # atno 17320 bound_to 7965
  145.1746  140.9738  143.4301 LP  0  0  0  0  0  0  0  0  0  0  0  0  # atno 17321 bound_to 7965
  139.4891  144.6374  151.6947 LP  0  0  0  0  0  0  0  0  0  0  0  0  # atno 17342 bound_to 10162
  140.5556  144.0353  150.6146 LP  0  0  0  0  0  0  0  0  0  0  0  0  # atno 17343 bound_to 10162
  157.7504  131.0280  150.4030 LP  0  0  0  0  0  0  0  0  0  0  0  0  # atno 17370 bound_to 10713
  156.4314  130.3973  149.6758 LP  0  0  0  0  0  0  0  0  0  0  0  0  # atno 17371 bound_to 10713
  140.5640  134.0507  155.7408 LP  0  0  0  0  0  0  0  0  0  0  0  0  # atno 17394 bound_to 11000
  141.1215  133.9454  157.2720 LP  0  0  0  0  0  0  0  0  0  0  0  0  # atno 17395 bound_to 11000

$$$$
