#       Name:                AV-unprocessed.smi:2962
#       Creating user name   scv26
#       Creation time:       Fri Mar 27 16:22:15 2020


#       File generated by GOLD software.
#

@<TRIPOS>MOLECULE
AV-unprocessed.smi:2962
    41    42     1
SMALL
NO_CHARGES


@<TRIPOS>ATOM
      1 ****        -2.3952   3.3321   1.5718 C.3            1 S1                 0.0000
      2 ****        -1.8720   2.0776   1.1734 O.3            1 S1                 0.0000
      3 ****        -2.2856   1.7052  -0.1314 C.3            1 S1                 0.0000
      4 ****        -1.6724   0.3462  -0.4962 C.3            1 S1                 0.0000
      5 ****        -0.2070   0.3504  -0.3882 N.pl3          1 S1                 0.0000
      6 ****         0.6070  -0.0628   0.6222 C.2            1 S1                 0.0000
      7 ****         0.1021  -0.7645   2.1572 S.3            1 S1                 0.0000
      8 ****         0.4960  -2.5305   2.0097 C.3            1 S1                 0.0000
      9 ****         0.1860  -3.2603   3.3259 C.3            1 S1                 0.0000
     10 ****        -0.2427  -3.1727   0.8286 C.2            1 S1                 0.0000
     11 ****         0.4776  -3.4582  -0.2596 N.am           1 S1                 0.0000
     12 ****        -1.4507  -3.3927   0.8871 O.2            1 S1                 0.0000
     13 ****         1.8937   0.1445   0.2307 N.pl3          1 S1                 1.0000
     14 ****         1.9049   0.7073  -1.0469 C.ar           1 S1                 0.0000
     15 ****         2.9631   1.0981  -1.8615 C.ar           1 S1                 0.0000
     16 ****         2.6265   1.6432  -3.1181 C.ar           1 S1                 0.0000
     17 ****         1.2829   1.7823  -3.5228 C.ar           1 S1                 0.0000
     18 ****         0.2178   1.3816  -2.6895 C.ar           1 S1                 0.0000
     19 ****         0.5590   0.8434  -1.4493 C.ar           1 S1                 0.0000
     20 ****        -2.0593   3.5654   2.5820 H              1 S1                 0.0000
     21 ****        -3.4860   3.3230   1.5738 H              1 S1                 0.0000
     22 ****        -2.0524   4.1292   0.9106 H              1 S1                 0.0000
     23 ****        -3.3739   1.6428  -0.1764 H              1 S1                 0.0000
     24 ****        -1.9727   2.4629  -0.8512 H              1 S1                 0.0000
     25 ****        -2.0539  -0.4270   0.1713 H              1 S1                 0.0000
     26 ****        -1.9521   0.0462  -1.5065 H              1 S1                 0.0000
     27 ****         1.5696  -2.6039   1.8295 H              1 S1                 0.0000
     28 ****         0.4132  -4.3246   3.2525 H              1 S1                 0.0000
     29 ****        -0.8643  -3.1609   3.6032 H              1 S1                 0.0000
     30 ****         0.7820  -2.8549   4.1441 H              1 S1                 0.0000
     31 ****         0.0345  -3.8680  -1.0688 H              1 S1                 0.0000
     32 ****         1.4653  -3.2477  -0.2728 H              1 S1                 0.0000
     33 ****         3.9933   0.9941  -1.5538 H              1 S1                 0.0000
     34 ****         3.4147   1.9620  -3.7847 H              1 S1                 0.0000
     35 ****         1.0645   2.2054  -4.4926 H              1 S1                 0.0000
     36 ****        -0.8083   1.4934  -3.0076 H              1 S1                 0.0000
     37 ****         2.7005  -0.0765   0.8000 H              1 S1                 0.0000
     38 ****        -2.1833   1.3807   1.8194 LP             1 S1                 0.0000
     39 ****        -0.8734   2.1265   1.1914 LP             1 S1                 0.0000
     40 ****        -1.9634  -3.1525   1.7114 LP             1 S1                 0.0000
     41 ****        -1.9208  -3.8118   0.1103 LP             1 S1                 0.0000
@<TRIPOS>BOND
    1    1    2 1     
    2    1   20 1     
    3    1   21 1     
    4    1   22 1     
    5    2    3 1     
    6    3    4 1     
    7    3   23 1     
    8    3   24 1     
    9    4    5 1     
   10    4   25 1     
   11    4   26 1     
   12    5   19 1     
   13    5    6 1     
   14    6    7 1     
   15    6   13 2     
   16    7    8 1     
   17    8    9 1     
   18    8   10 1     
   19    8   27 1     
   20    9   28 1     
   21    9   29 1     
   22    9   30 1     
   23   10   11 am    
   24   10   12 2     
   25   11   31 1     
   26   11   32 1     
   27   13   14 1     
   28   13   37 1     
   29   14   19 ar    
   30   14   15 ar    
   31   15   16 ar    
   32   15   33 1     
   33   16   17 ar    
   34   16   34 1     
   35   17   18 ar    
   36   17   35 1     
   37   18   19 ar    
   38   18   36 1     
   39    2   38 1     
   40    2   39 1     
   41   12   40 1     
   42   12   41 1     
@<TRIPOS>SUBSTRUCTURE
      1 S1             1
@<TRIPOS>SET
LONE_PAIRS      STATIC     ATOMS    <user>   **** ""
4 38 39 40 41
DONOR_HYDROGENS      STATIC     ATOMS    <user>   **** ""
3 31 32 37
ATOM$BLUE        STATIC     ATOMS    COLORGROUP SYSTEM
4 38 39 40 41
ATOM$RED        STATIC     ATOMS    COLORGROUP SYSTEM
3 31 32 37
