#       Name:                AV-unprocessed.smi:2062
#       Creating user name   scv26
#       Creation time:       Fri Mar 27 11:09:14 2020


#       File generated by GOLD software.
#

@<TRIPOS>MOLECULE
AV-unprocessed.smi:2062
    48    49     1
SMALL
NO_CHARGES


@<TRIPOS>ATOM
      1 ****        -1.9313   2.1039   4.3089 C.3            1 S1                 0.0000
      2 ****        -2.2795   1.5751   2.9074 C.3            1 S1                 0.0000
      3 ****        -3.8030   1.4972   2.7284 C.3            1 S1                 0.0000
      4 ****        -1.6313   0.2010   2.6337 C.3            1 S1                 0.0000
      5 ****        -0.1439   0.2528   2.6266 N.4            1 S1                 1.0000
      6 ****         0.4974  -1.0415   2.9630 C.3            1 S1                 0.0000
      7 ****         0.4763  -2.0007   1.7602 C.3            1 S1                 0.0000
      8 ****         1.1192  -1.3793   0.6554 O.3            1 S1                 0.0000
      9 ****         0.4519  -0.1946   0.2299 C.3            1 S1                 0.0000
     10 ****         1.1780   0.3507  -1.0067 C.3            1 S1                 0.0000
     11 ****         1.0684  -0.5854  -2.1168 N.am           1 S1                 0.0000
     12 ****         1.5467  -0.3790  -3.3497 C.2            1 S1                 0.0000
     13 ****         2.1307   0.6747  -3.6126 O.2            1 S1                 0.0000
     14 ****         1.3168  -1.4061  -4.1981 N.pl3          1 S1                -1.0000
     15 ****         1.7499  -1.3391  -5.4677 C.2            1 S1                 0.0000
     16 ****         2.8733  -1.9328  -5.8870 N.2            1 S1                 0.0000
     17 ****         3.1294  -1.7398  -7.2457 C.2            1 S1                 0.0000
     18 ****         2.1736  -0.9897  -7.8780 C.2            1 S1                 0.0000
     19 ****         0.9160  -0.4997  -6.7788 S.3            1 S1                 0.0000
     20 ****         0.4548   0.8235   1.3921 C.3            1 S1                 0.0000
     21 ****        -2.2783   1.4235   5.0873 H              1 S1                 0.0000
     22 ****        -2.3949   3.0746   4.4875 H              1 S1                 0.0000
     23 ****        -0.8558   2.2318   4.4332 H              1 S1                 0.0000
     24 ****        -1.9148   2.2968   2.1771 H              1 S1                 0.0000
     25 ****        -4.2505   0.7941   3.4320 H              1 S1                 0.0000
     26 ****        -4.0653   1.1722   1.7212 H              1 S1                 0.0000
     27 ****        -4.2686   2.4700   2.8893 H              1 S1                 0.0000
     28 ****        -1.9671  -0.4902   3.4080 H              1 S1                 0.0000
     29 ****        -1.9951  -0.2101   1.6921 H              1 S1                 0.0000
     30 ****         1.5321  -0.8471   3.2483 H              1 S1                 0.0000
     31 ****         0.0217  -1.4956   3.8329 H              1 S1                 0.0000
     32 ****         1.0100  -2.9192   2.0047 H              1 S1                 0.0000
     33 ****        -0.5429  -2.2869   1.4960 H              1 S1                 0.0000
     34 ****        -0.5735  -0.4377  -0.0529 H              1 S1                 0.0000
     35 ****         0.7400   1.3050  -1.3035 H              1 S1                 0.0000
     36 ****         2.2302   0.5325  -0.7824 H              1 S1                 0.0000
     37 ****         0.6021  -1.4627  -1.9382 H              1 S1                 0.0000
     38 ****         4.0170  -2.1748  -7.6807 H              1 S1                 0.0000
     39 ****         2.1315  -0.6978  -8.9163 H              1 S1                 0.0000
     40 ****        -0.0522   1.7420   1.0991 H              1 S1                 0.0000
     41 ****         1.4836   1.1066   1.6195 H              1 S1                 0.0000
     42 ****         0.0973   0.8804   3.3805 H              1 S1                 0.0000
     43 ****         1.1420  -2.0257  -0.1072 LP             1 S1                 0.0000
     44 ****         2.0541  -1.1430   0.9201 LP             1 S1                 0.0000
     45 ****         2.2459   1.3724  -2.9055 LP             1 S1                 0.0000
     46 ****         2.4891   0.8316  -4.5329 LP             1 S1                 0.0000
     47 ****         0.8240  -2.2161  -3.8802 LP             1 S1                 0.0000
     48 ****         3.4711  -2.4630  -5.2858 LP             1 S1                 0.0000
@<TRIPOS>BOND
    1    1    2 1     
    2    1   21 1     
    3    1   22 1     
    4    1   23 1     
    5    2    3 1     
    6    2    4 1     
    7    2   24 1     
    8    3   25 1     
    9    3   26 1     
   10    3   27 1     
   11    4    5 1     
   12    4   28 1     
   13    4   29 1     
   14    5   20 1     
   15    5    6 1     
   16    5   42 1     
   17    6    7 1     
   18    6   30 1     
   19    6   31 1     
   20    7    8 1     
   21    7   32 1     
   22    7   33 1     
   23    8    9 1     
   24    9   10 1     
   25    9   20 1     
   26    9   34 1     
   27   10   11 1     
   28   10   35 1     
   29   10   36 1     
   30   11   12 am    
   31   11   37 1     
   32   12   13 2     
   33   12   14 1     
   34   14   15 1     
   35   15   19 1     
   36   15   16 2     
   37   16   17 1     
   38   17   18 2     
   39   17   38 1     
   40   18   19 1     
   41   18   39 1     
   42   20   40 1     
   43   20   41 1     
   44    8   43 1     
   45    8   44 1     
   46   13   45 1     
   47   13   46 1     
   48   14   47 1     
   49   16   48 1     
@<TRIPOS>SUBSTRUCTURE
      1 S1             1
@<TRIPOS>SET
LONE_PAIRS      STATIC     ATOMS    <user>   **** ""
6 43 44 45 46 47 48
DONOR_HYDROGENS      STATIC     ATOMS    <user>   **** ""
2 42 37
ATOM$BLUE        STATIC     ATOMS    COLORGROUP SYSTEM
6 43 44 45 46 47 48
ATOM$RED        STATIC     ATOMS    COLORGROUP SYSTEM
2 42 37
