AV-unprocessed.smi:21|AV-procd|sdf|124|dock4
  -GOLD-   2262015303D 1   1.00000     0.00000
 Structure written by MMmdl.
 62 65  0  0  0  0  0  0  0  0  2 V2000
  145.1239  132.4802  151.0673 C   0  0  0  0  0  0  0  0  0  0  0  0
  145.8549  132.1768  152.2448 O   0  0  0  0  0  0  0  0  0  0  0  0
  146.8429  133.1453  152.5659 C   0  0  2  0  0  0  0  0  0  0  0  0
  147.6175  132.8088  153.8341 C   0  0  0  0  0  0  0  0  0  0  0  0
  148.1406  134.1667  154.3295 C   0  0  2  0  0  0  0  0  0  0  0  0
  148.4117  134.2216  155.8577 C   0  0  0  0  0  0  0  0  0  0  0  0
  149.6985  134.8280  156.2074 N   0  0  0  0  0  0  0  0  0  0  0  0
  150.8047  133.9211  156.5047 C   0  0  0  0  0  0  0  0  0  0  0  0
  149.7026  136.0569  156.7959 C   0  0  0  0  0  0  0  0  0  0  0  0
  148.5597  136.5086  157.3804 N   0  0  0  0  0  0  0  0  0  0  0  0
  148.5002  137.7344  157.9070 C   0  0  0  0  0  0  0  0  0  0  0  0
  149.4507  138.6678  157.9524 N   0  0  0  0  0  0  0  0  0  0  0  0
  150.6072  138.2197  157.3875 C   0  0  0  0  0  0  0  0  0  0  0  0
  150.8255  136.9379  156.8053 C   0  0  0  0  0  0  0  0  0  0  0  0
  152.1394  136.8507  156.3561 N   0  0  0  0  0  0  0  0  0  0  0  0
  152.6560  138.0167  156.6305 C   0  0  0  0  0  0  0  0  0  0  0  0
  151.7974  138.9060  157.2327 N   0  0  0  0  0  0  0  0  0  0  0  0
  152.0882  140.2728  157.6233 C   0  0  0  0  0  0  0  0  0  0  0  0
  150.8970  141.2471  157.4158 C   0  0  2  0  0  0  0  0  0  0  0  0
  150.5543  141.4519  155.9171 C   0  0  0  0  0  0  0  0  0  0  0  0
  150.7683  140.2816  155.1538 O   0  0  0  0  0  0  0  0  0  0  0  0
  151.1795  142.6041  158.1120 C   0  0  2  0  0  0  0  0  0  0  0  0
  151.9250  143.6185  157.2603 C   0  0  0  0  0  0  0  0  0  0  0  0
  152.4552  144.5900  158.3066 C   0  0  0  0  0  0  0  0  0  0  0  0
  152.7665  143.7852  159.4358 O   0  0  0  0  0  0  0  0  0  0  0  0
  152.1123  142.5239  159.3294 C   0  0  0  0  0  0  0  0  0  0  0  0
  147.1695  135.1759  153.8078 N   0  3  2  0  0  0  0  0  0  0  0  0
  146.5295  136.0914  154.7819 C   0  0  0  0  0  0  0  0  0  0  0  0
  146.1922  134.4719  152.9460 C   0  0  0  0  0  0  0  0  0  0  0  0
  147.5276  133.3013  151.7301 H   0  0  0  0  0  0  0  0  0  0  0  0
  149.0747  134.3771  153.8072 H   0  0  0  0  0  0  0  0  0  0  0  0
  144.3671  131.7135  150.9021 H   0  0  0  0  0  0  0  0  0  0  0  0
  145.7683  132.5029  150.1880 H   0  0  0  0  0  0  0  0  0  0  0  0
  144.6159  133.4413  151.1544 H   0  0  0  0  0  0  0  0  0  0  0  0
  146.9316  132.3808  154.5663 H   0  0  0  0  0  0  0  0  0  0  0  0
  148.4161  132.0879  153.6580 H   0  0  0  0  0  0  0  0  0  0  0  0
  147.6483  134.8336  156.3377 H   0  0  0  0  0  0  0  0  0  0  0  0
  148.3051  133.2351  156.3013 H   0  0  0  0  0  0  0  0  0  0  0  0
  151.7643  134.4199  156.3624 H   0  0  0  0  0  0  0  0  0  0  0  0
  150.7830  133.0547  155.8432 H   0  0  0  0  0  0  0  0  0  0  0  0
  150.7489  133.5625  157.5332 H   0  0  0  0  0  0  0  0  0  0  0  0
  147.5524  138.0103  158.3454 H   0  0  0  0  0  0  0  0  0  0  0  0
  153.6781  138.2668  156.3856 H   0  0  0  0  0  0  0  0  0  0  0  0
  152.3899  140.2469  158.6702 H   0  0  0  0  0  0  0  0  0  0  0  0
  152.9568  140.6168  157.0603 H   0  0  0  0  0  0  0  0  0  0  0  0
  150.0197  140.8170  157.9021 H   0  0  0  0  0  0  0  0  0  0  0  0
  149.5052  141.7116  155.7838 H   0  0  0  0  0  0  0  0  0  0  0  0
  151.1345  142.2736  155.4963 H   0  0  0  0  0  0  0  0  0  0  0  0
  149.9761  139.7665  155.1677 H   0  0  0  0  0  0  0  0  0  0  0  0
  150.2356  143.0520  158.4277 H   0  0  0  0  0  0  0  0  0  0  0  0
  152.7550  143.1428  156.7357 H   0  0  0  0  0  0  0  0  0  0  0  0
  151.2918  144.1136  156.5235 H   0  0  0  0  0  0  0  0  0  0  0  0
  153.3244  145.1492  157.9596 H   0  0  0  0  0  0  0  0  0  0  0  0
  151.6811  145.3047  158.5888 H   0  0  0  0  0  0  0  0  0  0  0  0
  151.5738  142.2944  160.2491 H   0  0  0  0  0  0  0  0  0  0  0  0
  152.8758  141.7579  159.1868 H   0  0  0  0  0  0  0  0  0  0  0  0
  145.9525  135.5433  155.5277 H   0  0  0  0  0  0  0  0  0  0  0  0
  145.8485  136.7686  154.2652 H   0  0  0  0  0  0  0  0  0  0  0  0
  147.2709  136.7077  155.2902 H   0  0  0  0  0  0  0  0  0  0  0  0
  145.9187  135.0689  152.0756 H   0  0  0  0  0  0  0  0  0  0  0  0
  145.2812  134.2759  153.5149 H   0  0  0  0  0  0  0  0  0  0  0  0
  147.7096  135.7638  153.1887 H   0  0  0  0  0  0  0  0  0  0  0  0
  1  2  1  0  0  0  0
  1 32  1  0  0  0  0
  1 33  1  0  0  0  0
  1 34  1  0  0  0  0
  2  3  1  0  0  0  0
  3 30  1  0  0  0  0
  3 29  1  0  0  0  0
  3  4  1  0  0  0  0
  4  5  1  0  0  0  0
  4 35  1  0  0  0  0
  4 36  1  0  0  0  0
  5 31  1  0  0  0  0
  5  6  1  0  0  0  0
  5 27  1  0  0  0  0
  6  7  1  0  0  0  0
  6 37  1  0  0  0  0
  6 38  1  0  0  0  0
  7  8  1  0  0  0  0
  7  9  1  0  0  0  0
  8 39  1  0  0  0  0
  8 40  1  0  0  0  0
  8 41  1  0  0  0  0
  9 14  1  0  0  0  0
  9 10  2  0  0  0  0
 10 11  1  0  0  0  0
 11 12  2  0  0  0  0
 11 42  1  0  0  0  0
 12 13  1  0  0  0  0
 13 17  1  0  0  0  0
 13 14  2  0  0  0  0
 14 15  1  0  0  0  0
 15 16  2  0  0  0  0
 16 17  1  0  0  0  0
 16 43  1  0  0  0  0
 17 18  1  0  0  0  0
 18 19  1  0  0  0  0
 18 44  1  0  0  0  0
 18 45  1  0  0  0  0
 19 20  1  0  0  0  0
 19 22  1  0  0  0  0
 19 46  1  0  0  0  0
 20 21  1  0  0  0  0
 20 47  1  0  0  0  0
 20 48  1  0  0  0  0
 21 49  1  0  0  0  0
 22 26  1  0  0  0  0
 22 23  1  0  0  0  0
 22 50  1  0  0  0  0
 23 24  1  0  0  0  0
 23 51  1  0  0  0  0
 23 52  1  0  0  0  0
 24 25  1  0  0  0  0
 24 53  1  0  0  0  0
 24 54  1  0  0  0  0
 25 26  1  0  0  0  0
 26 55  1  0  0  0  0
 26 56  1  0  0  0  0
 27 28  1  0  0  0  0
 27 29  1  0  0  0  0
 27 62  1  0  0  0  0
 28 57  1  0  0  0  0
 28 58  1  0  0  0  0
 28 59  1  0  0  0  0
 29 60  1  0  0  0  0
 29 61  1  0  0  0  0
M  CHG  1  27   1
M  END
> <s_m_source_file>
AV-unprocessed.smi

> <i_m_source_file_index>
21

> <i_lp_mmshare_version>
43012

> <i_f3d_flags>
0

> <s_epik_input>
W0NIM11PW0NASF0xW0NIMl1bQ0BIXShOKFtDSDNdKVtDSDJdMSlbQ0gyXU4oW0NIM10pYyhuW2NIXW4yKWMoYzIzKW5bY0hdbjNbQ0gyXVtDQEhdKFtDSDJdW09IXSlbQ0BASF00W0NIMl1bQ0gyXU9bQ0gyXTQ=

> <s_epik_cmdline>
J2VwaWtfcHl0aG9uJywgJy1waCcsICc3LjAnLCAnLXRuJywgJzgnLCAnLW1hJywgJzIwMCcsICctbWV0YWxfYmluZGluZycsICctaW1hZScsICc8aW5maWxlLm1hZT4nLCAnLW9tYWUnLCAnPG91dGZpbGUubWFlPic=

> <r_lp_tautomer_probability>
1

> <r_epik_Ionization_Penalty>
0.0157465

> <r_epik_Ionization_Penalty_Charging>
0.015354

> <r_epik_Ionization_Penalty_Neutral>
0.000392529

> <r_epik_State_Penalty>
0.0120612

> <r_epik_Charging_Adjusted_Penalty>
0.0274152

> <i_epik_Tot_Q>
1

> <i_epik_Tot_abs_Q>
1

> <r_epik_Metal_State_Penalty>
0.0121253

> <b_epik_Metal_Only>
0

> <s_lp_Force_Field>
OPLS_2005

> <r_lp_Energy>
59.9963

> <b_lp_Chiralities_Consistent>
1

> <s_lp_Variant>
AV-unprocessed.smi:21-4

> <Gold.Version>
5.8.1

> <Gold.Id.Protein>
6NUR|6NUR_protein|mol2

> <Gold.PLP.Fitness>
49.7190

> <Gold.PLP.PLP>
-42.1193

> <Gold.PLP.part.hbond>
-3.0000

> <Gold.PLP.part.metal>
0.0000

> <Gold.PLP.part.buried>
-6.2047

> <Gold.PLP.part.nonpolar>
-32.9860

> <Gold.PLP.part.repulsive>
0.1138

> <Gold.PLP.ligand.clash>
0.0000

> <Gold.PLP.ligand.torsion>
2.6282

> <Gold.PLP.Chemscore.Hbond>
3.9600

> <Gold.PLP.Chemscore.CHOScore>
0.0000

> <Gold.PLP.Chemscore.Metal>
0.0000

> <Gold.Chemscore.Hbonds>
donor molecule, donor type, donor heavy atom, donor atom, acceptor molecule, acceptor atom, score
      L1  H    27    62       P1  7948  2.00
      P1  H  7989  7998       L1    21  1.00
      P1  H 10752 10764       L1    15  0.73

> <Gold.PLP.Chemscore.Internal.Correction>
0.9761

> <Gold.Rescore>
     Score         DG    S(hbond)    S(metal)    S(lipo)     H(rot)  DE(clash)    DE(int)     intcor
     13.63     -18.82       2.76        0.00     102.55       3.08       0.21       4.98       ----

> <Gold.Chemscore.Fitness>
13.6300

> <Gold.Chemscore.DG>
-18.8177

> <Gold.Chemscore.ZeroCoef>
-5.4800

> <Gold.Chemscore.Hbond>
2.7586

> <Gold.Chemscore.Metal>
0.0000

> <Gold.Chemscore.Lipo>
102.5476

> <Gold.Chemscore.Internal_Hbond>
0.0000

> <Gold.Chemscore.DEClash>
0.2098

> <Gold.Chemscore.DEInternal>
4.9780

> <Gold.Chemscore.Rot>
3.0758

> <Gold.Chemscore.Internal.Correction>
   9.000000E+99

> <Gold.Chemscore.Hbonds>
donor molecule, donor type, donor heavy atom, donor atom, acceptor molecule, acceptor atom, score
      L1  H    27    62       P1  7948  0.99
      P1  H  7989  7998       L1    21  0.53
      P1  H 10752 10764       L1    15  0.70

> <Gold.Chemscore.Hbond.Weighted>
-9.2138

> <Gold.Chemscore.Metal.Weighted>
-0.0000

> <Gold.Chemscore.Lipo.Weighted>
-11.9981

> <Gold.Chemscore.Internal_Hbond.Weighted>
0.0000

> <Gold.Chemscore.DEClash.Weighted>
0.2098

> <Gold.Chemscore.DEInternal.Weighted>
4.9780

> <Gold.Chemscore.Rot.Weighted>
7.8741

> <Gold.Chemscore.Internal.Correction.Weighted>
   9.000000E+99

> <Gold.Protein.RotatedTorsions>
[ 6907 6896 6895 6894 ] final   92.40 input  -60.11 | X-H torsion
[ 7974 7965 7964 7962 ] final   38.23 input  175.53 | X-H torsion
[ 8008 7997 7996 7995 ] final   44.90 input   59.86 | X-H torsion
[ 10167 10162 10161 10158 ] final -172.16 input  -65.29 | X-H torsion
[ 10718 10713 10712 10709 ] final   88.36 input   66.30 | X-H torsion
[ 10763 10752 10751 10750 ] final  -29.57 input  -60.55 | X-H torsion
[ 11005 11000 10999 10996 ] final   23.72 input  -57.11 | X-H torsion

> <Gold.Protein.ActiveResidues>
 VAL166  LYS551  ARG553  GLY616  TRP617  ASP618  TYR619  PRO620  LYS621  CYS622 
 ASP623  PHE694  ASN695  SER759  ASP760  ASP761  ALA762  ILE779  LEU786  VAL792 
 PHE793  MET794  SER795  GLU796  ALA797  LYS798  CYS799  TRP800  GLU811  SER814 

> <Gold.Protein.RotatedAtoms>
  152.5452  134.1508  159.8517 H   0  0  0  0  0  0  0  0  0  0  0  0  # atno 6907 bound_to 6896
  151.1535  133.4884  159.2602 H   0  0  0  0  0  0  0  0  0  0  0  0  # atno 6908 bound_to 6896
  151.1447  135.0208  159.8696 H   0  0  0  0  0  0  0  0  0  0  0  0  # atno 6909 bound_to 6896
  146.1077  139.5797  142.9372 H   0  0  0  0  0  0  0  0  0  0  0  0  # atno 7974 bound_to 7965
  155.3270  140.3400  155.4240 H   0  0  0  0  0  0  0  0  0  0  0  0  # atno 8008 bound_to 7997
  156.1881  140.1687  156.8183 H   0  0  0  0  0  0  0  0  0  0  0  0  # atno 8009 bound_to 7997
  154.5409  140.0725  156.8492 H   0  0  0  0  0  0  0  0  0  0  0  0  # atno 8010 bound_to 7997
  139.5760  144.1531  152.1451 H   0  0  0  0  0  0  0  0  0  0  0  0  # atno 10167 bound_to 10162
  157.6948  131.0291  150.3262 H   0  0  0  0  0  0  0  0  0  0  0  0  # atno 10718 bound_to 10713
  153.7668  135.6915  153.4914 H   0  0  0  0  0  0  0  0  0  0  0  0  # atno 10763 bound_to 10752
  153.1901  135.4474  155.0137 H   0  0  0  0  0  0  0  0  0  0  0  0  # atno 10764 bound_to 10752
  154.8133  135.3387  154.7180 H   0  0  0  0  0  0  0  0  0  0  0  0  # atno 10765 bound_to 10752
  140.3666  134.2068  155.7669 H   0  0  0  0  0  0  0  0  0  0  0  0  # atno 11005 bound_to 11000
  145.5727  141.0392  143.2165 LP  0  0  0  0  0  0  0  0  0  0  0  0  # atno 17320 bound_to 7965
  144.7485  139.7256  143.7282 LP  0  0  0  0  0  0  0  0  0  0  0  0  # atno 17321 bound_to 7965
  140.1074  144.5487  150.6948 LP  0  0  0  0  0  0  0  0  0  0  0  0  # atno 17342 bound_to 10162
  140.7043  143.2456  151.4773 LP  0  0  0  0  0  0  0  0  0  0  0  0  # atno 17343 bound_to 10162
  156.3743  130.3869  149.7151 LP  0  0  0  0  0  0  0  0  0  0  0  0  # atno 17370 bound_to 10713
  156.4555  130.7927  151.2948 LP  0  0  0  0  0  0  0  0  0  0  0  0  # atno 17371 bound_to 10713
  141.1968  133.8075  157.0657 LP  0  0  0  0  0  0  0  0  0  0  0  0  # atno 17394 bound_to 11000
  140.0585  134.9768  157.1263 LP  0  0  0  0  0  0  0  0  0  0  0  0  # atno 17395 bound_to 11000

$$$$
