AV-unprocessed.smi:911|AV-procd|sdf|4136|dock8
  -GOLD-   22720 2 43D 1   1.00000     0.00000
 Structure written by MMmdl.
 47 49  0  0  0  0  0  0  0  0  3 V2000
  144.6151  134.3626  160.4287 C   0  0  0  0  0  0  0  0  0  0  0  0
  145.4842  134.9694  161.5657 C   0  0  0  0  0  0  0  0  0  0  0  0
  144.5636  134.9966  162.8182 C   0  0  0  0  0  0  0  0  0  0  0  0
  146.8299  134.2508  161.7898 C   0  0  2  0  0  0  0  0  0  0  0  0
  147.5348  135.1193  162.8557 C   0  0  0  0  0  0  0  0  0  0  0  0
  147.0738  136.5428  162.4858 C   0  0  0  0  0  0  0  0  0  0  0  0
  146.2016  136.3034  161.2220 C   0  0  2  0  0  0  0  0  0  0  0  0
  145.2787  137.4894  160.8932 C   0  0  0  0  0  0  0  0  0  0  0  0
  147.1444  135.8931  160.0455 C   0  0  1  0  0  0  0  0  0  0  0  0
  148.3006  136.7706  159.8597 N   0  0  0  0  0  0  0  0  0  0  0  0
  149.3287  136.5373  159.0304 C   0  0  0  0  0  0  0  0  0  0  0  0
  149.4078  135.5368  158.3161 O   0  0  0  0  0  0  0  0  0  0  0  0
  150.4181  137.6180  158.9908 C   0  0  0  0  0  0  0  0  0  0  0  0
  150.4668  138.3427  157.7100 N   0  0  0  0  0  0  0  0  0  0  0  0
  151.6120  138.1550  156.9106 C   0  0  0  0  0  0  0  0  0  0  0  0
  151.7680  138.7779  155.7259 C   0  0  0  0  0  0  0  0  0  0  0  0
  152.9538  138.5799  154.9220 N   0  3  0  0  0  0  0  0  0  0  0  0
  153.4564  137.4615  154.8807 O   0  0  0  0  0  0  0  0  0  0  0  0
  153.4222  139.5330  154.3068 O   0  5  0  0  0  0  0  0  0  0  0  0
  150.7066  139.6616  155.2840 C   0  0  0  0  0  0  0  0  0  0  0  0
  149.6107  139.8477  156.0455 C   0  0  0  0  0  0  0  0  0  0  0  0
  149.4455  139.1733  157.3371 C   0  0  0  0  0  0  0  0  0  0  0  0
  148.4500  139.3450  158.0409 O   0  0  0  0  0  0  0  0  0  0  0  0
  147.5858  134.4712  160.4610 C   0  0  0  0  0  0  0  0  0  0  0  0
  144.2595  133.3699  160.7063 H   0  0  0  0  0  0  0  0  0  0  0  0
  145.1166  134.2494  159.4704 H   0  0  0  0  0  0  0  0  0  0  0  0
  143.7337  134.9781  160.2463 H   0  0  0  0  0  0  0  0  0  0  0  0
  145.0224  135.3896  163.7225 H   0  0  0  0  0  0  0  0  0  0  0  0
  144.2206  133.9908  163.0621 H   0  0  0  0  0  0  0  0  0  0  0  0
  143.6746  135.6001  162.6328 H   0  0  0  0  0  0  0  0  0  0  0  0
  146.7505  133.2004  162.0718 H   0  0  0  0  0  0  0  0  0  0  0  0
  147.2210  134.8514  163.8649 H   0  0  0  0  0  0  0  0  0  0  0  0
  148.6201  135.0174  162.8201 H   0  0  0  0  0  0  0  0  0  0  0  0
  146.4909  136.9840  163.2946 H   0  0  0  0  0  0  0  0  0  0  0  0
  147.9123  137.2194  162.3231 H   0  0  0  0  0  0  0  0  0  0  0  0
  145.8551  138.3951  160.7045 H   0  0  0  0  0  0  0  0  0  0  0  0
  144.5965  137.7031  161.7159 H   0  0  0  0  0  0  0  0  0  0  0  0
  144.6780  137.2904  160.0058 H   0  0  0  0  0  0  0  0  0  0  0  0
  146.5888  135.8372  159.1083 H   0  0  0  0  0  0  0  0  0  0  0  0
  148.3159  137.6208  160.4041 H   0  0  0  0  0  0  0  0  0  0  0  0
  150.2379  138.3105  159.8140 H   0  0  0  0  0  0  0  0  0  0  0  0
  151.3881  137.1659  159.2077 H   0  0  0  0  0  0  0  0  0  0  0  0
  152.3475  137.4847  157.3318 H   0  0  0  0  0  0  0  0  0  0  0  0
  150.7827  140.1809  154.3398 H   0  0  0  0  0  0  0  0  0  0  0  0
  148.8325  140.5109  155.6974 H   0  0  0  0  0  0  0  0  0  0  0  0
  148.6654  134.3765  160.5868 H   0  0  0  0  0  0  0  0  0  0  0  0
  147.2956  133.7356  159.7106 H   0  0  0  0  0  0  0  0  0  0  0  0
  1  2  1  0  0  0  0
  1 25  1  0  0  0  0
  1 26  1  0  0  0  0
  1 27  1  0  0  0  0
  2  7  1  0  0  0  0
  2  3  1  0  0  0  0
  2  4  1  0  0  0  0
  3 28  1  0  0  0  0
  3 29  1  0  0  0  0
  3 30  1  0  0  0  0
  4 24  1  0  0  0  0
  4  5  1  0  0  0  0
  4 31  1  0  0  0  0
  5  6  1  0  0  0  0
  5 32  1  0  0  0  0
  5 33  1  0  0  0  0
  6  7  1  0  0  0  0
  6 34  1  0  0  0  0
  6 35  1  0  0  0  0
  7  8  1  0  0  0  0
  7  9  1  0  0  0  0
  8 36  1  0  0  0  0
  8 37  1  0  0  0  0
  8 38  1  0  0  0  0
  9 10  1  0  0  0  0
  9 24  1  0  0  0  0
  9 39  1  0  0  0  0
 10 11  1  0  0  0  0
 10 40  1  0  0  0  0
 11 12  2  0  0  0  0
 11 13  1  0  0  0  0
 13 14  1  0  0  0  0
 13 41  1  0  0  0  0
 13 42  1  0  0  0  0
 14 22  1  0  0  0  0
 14 15  1  0  0  0  0
 15 16  2  0  0  0  0
 15 43  1  0  0  0  0
 16 17  1  0  0  0  0
 16 20  1  0  0  0  0
 17 18  2  0  0  0  0
 17 19  1  0  0  0  0
 20 21  2  0  0  0  0
 20 44  1  0  0  0  0
 21 22  1  0  0  0  0
 21 45  1  0  0  0  0
 22 23  2  0  0  0  0
 24 46  1  0  0  0  0
 24 47  1  0  0  0  0
M  CHG  1  17   1
M  CHG  1  19  -1
M  END
> <s_m_source_file>
AV-unprocessed.smi

> <i_m_source_file_index>
911

> <i_lp_mmshare_version>
43012

> <i_f3d_flags>
0

> <s_epik_input>
W0NIM11bQ0BdMTJDKFtDSDNdKShbQ0gzXSlbQ0BIXShbQ0gyXVtDSDJdMSlbQ0gyXVtDQEBIXTJbTkhdQyg9TylbQ0gyXW4zW2NIXWMoW04rXSg9TylbTy1dKVtjSF1bY0hdYzM9Tw==

> <s_epik_cmdline>
J2VwaWtfcHl0aG9uJywgJy1waCcsICc3LjAnLCAnLXRuJywgJzgnLCAnLW1hJywgJzIwMCcsICctbWV0YWxfYmluZGluZycsICctaW1hZScsICc8aW5maWxlLm1hZT4nLCAnLW9tYWUnLCAnPG91dGZpbGUubWFlPic=

> <r_lp_tautomer_probability>
1

> <r_epik_Ionization_Penalty>
2.04092e-08

> <r_epik_Ionization_Penalty_Charging>
8.54191e-11

> <r_epik_Ionization_Penalty_Neutral>
2.03238e-08

> <r_epik_State_Penalty>
-0

> <r_epik_Charging_Adjusted_Penalty>
8.54191e-11

> <i_epik_Tot_Q>
0

> <i_epik_Tot_abs_Q>
2

> <r_epik_Metal_State_Penalty>
-0

> <b_epik_Metal_Only>
0

> <s_lp_Force_Field>
OPLS_2005

> <r_lp_Energy>
67.3082

> <b_lp_Chiralities_Consistent>
1

> <s_lp_Variant>
AV-unprocessed.smi:911-1

> <Gold.Version>
5.8.1

> <Gold.Id.Protein>
6NUR|6NUR_protein|mol2

> <Gold.PLP.Fitness>
41.9694

> <Gold.PLP.PLP>
-36.9939

> <Gold.PLP.part.hbond>
-4.7308

> <Gold.PLP.part.metal>
0.0000

> <Gold.PLP.part.buried>
-4.8828

> <Gold.PLP.part.nonpolar>
-29.1906

> <Gold.PLP.part.repulsive>
0.2604

> <Gold.PLP.ligand.clash>
0.0000

> <Gold.PLP.ligand.torsion>
0.7059

> <Gold.PLP.Chemscore.Hbond>
2.1215

> <Gold.PLP.Chemscore.CHOScore>
0.0000

> <Gold.PLP.Chemscore.Metal>
0.0000

> <Gold.Chemscore.Hbonds>
donor molecule, donor type, donor heavy atom, donor atom, acceptor molecule, acceptor atom, score
      P1  H  6896  6909       L1    12  0.93
      P1  H  7989  7998       L1    19  0.04
      P1  H  7997  8009       L1    19  0.75

> <Gold.PLP.Chemscore.Internal.Correction>
0.0229

> <Gold.Rescore>
     Score         DG    S(hbond)    S(metal)    S(lipo)     H(rot)  DE(clash)    DE(int)     intcor
     16.19     -18.47       1.95        0.00      88.83       1.53       0.50       1.78       ----

> <Gold.Chemscore.Fitness>
16.1902

> <Gold.Chemscore.DG>
-18.4655

> <Gold.Chemscore.ZeroCoef>
-5.4800

> <Gold.Chemscore.Hbond>
1.9469

> <Gold.Chemscore.Metal>
0.0000

> <Gold.Chemscore.Lipo>
88.8350

> <Gold.Chemscore.Internal_Hbond>
0.0000

> <Gold.Chemscore.DEClash>
0.4996

> <Gold.Chemscore.DEInternal>
1.7757

> <Gold.Chemscore.Rot>
1.5277

> <Gold.Chemscore.Internal.Correction>
   9.000000E+99

> <Gold.Chemscore.Hbonds>
donor molecule, donor type, donor heavy atom, donor atom, acceptor molecule, acceptor atom, score
      P1  H  6896  6909       L1    12  0.30
      P1  H  7989  7998       L1    19  0.04
      P1  H  7997  8009       L1    19  0.09
      P1  H 10752 10765       L1    18  0.06

> <Gold.Chemscore.Hbond.Weighted>
-6.5028

> <Gold.Chemscore.Metal.Weighted>
-0.0000

> <Gold.Chemscore.Lipo.Weighted>
-10.3937

> <Gold.Chemscore.Internal_Hbond.Weighted>
0.0000

> <Gold.Chemscore.DEClash.Weighted>
0.4996

> <Gold.Chemscore.DEInternal.Weighted>
1.7757

> <Gold.Chemscore.Rot.Weighted>
3.9110

> <Gold.Chemscore.Internal.Correction.Weighted>
   9.000000E+99

> <Gold.Protein.RotatedTorsions>
[ 6907 6896 6895 6894 ] final   31.77 input  -60.11 | X-H torsion
[ 7974 7965 7964 7962 ] final -114.57 input  175.53 | X-H torsion
[ 8008 7997 7996 7995 ] final -132.85 input   59.86 | X-H torsion
[ 10167 10162 10161 10158 ] final  116.41 input  -65.29 | X-H torsion
[ 10718 10713 10712 10709 ] final   69.17 input   66.30 | X-H torsion
[ 10763 10752 10751 10750 ] final -155.68 input  -60.55 | X-H torsion
[ 11005 11000 10999 10996 ] final  177.84 input  -57.11 | X-H torsion

> <Gold.Protein.ActiveResidues>
 VAL166  LYS551  ARG553  GLY616  TRP617  ASP618  TYR619  PRO620  LYS621  CYS622 
 ASP623  PHE694  ASN695  SER759  ASP760  ASP761  ALA762  ILE779  LEU786  VAL792 
 PHE793  MET794  SER795  GLU796  ALA797  LYS798  CYS799  TRP800  GLU811  SER814 

> <Gold.Protein.RotatedAtoms>
  152.0650  134.9570  160.0574 H   0  0  0  0  0  0  0  0  0  0  0  0  # atno 6907 bound_to 6896
  152.0918  133.4200  159.4555 H   0  0  0  0  0  0  0  0  0  0  0  0  # atno 6908 bound_to 6896
  150.6837  134.2782  159.4659 H   0  0  0  0  0  0  0  0  0  0  0  0  # atno 6909 bound_to 6896
  145.1185  140.8655  143.3827 H   0  0  0  0  0  0  0  0  0  0  0  0  # atno 7974 bound_to 7965
  155.3358  140.0469  157.3044 H   0  0  0  0  0  0  0  0  0  0  0  0  # atno 8008 bound_to 7997
  154.5304  140.2255  155.8780 H   0  0  0  0  0  0  0  0  0  0  0  0  # atno 8009 bound_to 7997
  156.1782  140.3080  155.9105 H   0  0  0  0  0  0  0  0  0  0  0  0  # atno 8010 bound_to 7997
  139.6249  144.7107  151.2554 H   0  0  0  0  0  0  0  0  0  0  0  0  # atno 10167 bound_to 10162
  157.6331  130.9412  150.0477 H   0  0  0  0  0  0  0  0  0  0  0  0  # atno 10718 bound_to 10713
  154.7769  135.3162  154.8072 H   0  0  0  0  0  0  0  0  0  0  0  0  # atno 10763 bound_to 10752
  153.8793  135.6836  153.4772 H   0  0  0  0  0  0  0  0  0  0  0  0  # atno 10764 bound_to 10752
  153.1395  135.4745  154.9411 H   0  0  0  0  0  0  0  0  0  0  0  0  # atno 10765 bound_to 10752
  140.3885  134.6883  157.4493 H   0  0  0  0  0  0  0  0  0  0  0  0  # atno 11005 bound_to 11000
  145.0766  139.2991  143.5805 LP  0  0  0  0  0  0  0  0  0  0  0  0  # atno 17320 bound_to 7965
  146.3522  140.0259  142.8654 LP  0  0  0  0  0  0  0  0  0  0  0  0  # atno 17321 bound_to 7965
  140.7405  143.6586  150.8184 LP  0  0  0  0  0  0  0  0  0  0  0  0  # atno 17342 bound_to 10162
  140.0203  143.5550  152.2803 LP  0  0  0  0  0  0  0  0  0  0  0  0  # atno 17343 bound_to 10162
  156.1549  130.3643  149.9384 LP  0  0  0  0  0  0  0  0  0  0  0  0  # atno 17370 bound_to 10713
  156.7395  130.9074  151.3631 LP  0  0  0  0  0  0  0  0  0  0  0  0  # atno 17371 bound_to 10713
  140.0425  134.6247  155.8963 LP  0  0  0  0  0  0  0  0  0  0  0  0  # atno 17394 bound_to 11000
  141.1899  133.6567  156.5388 LP  0  0  0  0  0  0  0  0  0  0  0  0  # atno 17395 bound_to 11000

$$$$
