#       Name:                AV-unprocessed.smi:1830
#       Creating user name   scv26
#       Creation time:       Fri Mar 27 09:11:47 2020


#       File generated by GOLD software.
#

@<TRIPOS>MOLECULE
AV-unprocessed.smi:1830
    59    62     1
SMALL
NO_CHARGES


@<TRIPOS>ATOM
      1 ****         1.1699   2.3779  -2.1616 O.2            1 S1                 0.0000
      2 ****         0.7549   1.2463  -2.4121 C.2            1 S1                 0.0000
      3 ****         1.5354   0.1581  -2.4585 N.am           1 S1                 0.0000
      4 ****         2.9348   0.1148  -2.0431 C.3            1 S1                 0.0000
      5 ****         3.0829  -0.0913  -0.5204 C.3            1 S1                 0.0000
      6 ****         2.3507  -1.3573  -0.0008 C.3            1 S1                 0.0000
      7 ****         2.4330  -1.3823   1.4704 N.4            1 S1                 1.0000
      8 ****         1.7941  -2.5026   2.1840 C.3            1 S1                 0.0000
      9 ****         1.4520  -1.9453   3.5806 C.3            1 S1                 0.0000
     10 ****         1.8532  -0.4607   3.5462 C.3            1 S1                 0.0000
     11 ****         1.8837  -0.1562   2.0530 C.3            1 S1                 0.0000
     12 ****         2.7164   1.0371   1.5721 C.3            1 S1                 0.0000
     13 ****         2.6116   1.0847   0.1493 O.3            1 S1                 0.0000
     14 ****        -0.5322   0.9313  -2.6227 N.am           1 S1                 0.0000
     15 ****        -1.6413   1.7639  -2.3222 C.ar           1 S1                 0.0000
     16 ****        -1.7014   3.0791  -2.8391 C.ar           1 S1                 0.0000
     17 ****        -2.8378   3.8659  -2.5860 C.ar           1 S1                 0.0000
     18 ****        -3.8818   3.3002  -1.8350 C.ar           1 S1                 0.0000
     19 ****        -3.8412   2.0449  -1.3439 N.ar           1 S1                 0.0000
     20 ****        -2.7454   1.2770  -1.5643 C.ar           1 S1                 0.0000
     21 ****        -2.7533  -0.0197  -0.9963 N.3            1 S1                 0.0000
     22 ****        -3.9669  -0.5573  -0.3896 C.3            1 S1                 0.0000
     23 ****        -3.5052  -1.7600   0.4297 C.3            1 S1                 0.0000
     24 ****        -2.1356  -1.3110   0.9281 C.3            1 S1                 0.0000
     25 ****        -1.5950  -0.4652  -0.2278 C.3            1 S1                 0.0000
     26 ****         1.1056  -0.7228  -2.7000 H              1 S1                 0.0000
     27 ****         3.4102  -0.7128  -2.5699 H              1 S1                 0.0000
     28 ****         3.4581   1.0187  -2.3592 H              1 S1                 0.0000
     29 ****         4.1467  -0.1881  -0.2969 H              1 S1                 0.0000
     30 ****         1.3019  -1.3601  -0.2971 H              1 S1                 0.0000
     31 ****         2.8054  -2.2593  -0.4114 H              1 S1                 0.0000
     32 ****         0.8833  -2.8095   1.6681 H              1 S1                 0.0000
     33 ****         2.4636  -3.3618   2.2302 H              1 S1                 0.0000
     34 ****         0.3825  -2.0478   3.7686 H              1 S1                 0.0000
     35 ****         1.9777  -2.4784   4.3733 H              1 S1                 0.0000
     36 ****         1.1606   0.1787   4.0945 H              1 S1                 0.0000
     37 ****         2.8466  -0.3329   3.9785 H              1 S1                 0.0000
     38 ****         0.8541  -0.0333   1.7098 H              1 S1                 0.0000
     39 ****         2.3323   1.9675   1.9904 H              1 S1                 0.0000
     40 ****         3.7608   0.9469   1.8747 H              1 S1                 0.0000
     41 ****        -0.7400  -0.0489  -2.7461 H              1 S1                 0.0000
     42 ****        -0.8960   3.4805  -3.4365 H              1 S1                 0.0000
     43 ****        -2.9114   4.8735  -2.9676 H              1 S1                 0.0000
     44 ****        -4.7751   3.8692  -1.6240 H              1 S1                 0.0000
     45 ****        -4.4232   0.1792   0.2731 H              1 S1                 0.0000
     46 ****        -4.6991  -0.8395  -1.1465 H              1 S1                 0.0000
     47 ****        -4.1928  -2.0138   1.2367 H              1 S1                 0.0000
     48 ****        -3.3993  -2.6333  -0.2155 H              1 S1                 0.0000
     49 ****        -2.2540  -0.6880   1.8155 H              1 S1                 0.0000
     50 ****        -1.4813  -2.1438   1.1865 H              1 S1                 0.0000
     51 ****        -0.9705  -1.0808  -0.8746 H              1 S1                 0.0000
     52 ****        -0.9941   0.3690   0.1364 H              1 S1                 0.0000
     53 ****         3.4115  -1.4032   1.7199 H              1 S1                 0.0000
     54 ****         2.1418   2.5247  -1.9777 LP             1 S1                 0.0000
     55 ****         0.5351   3.1504  -2.1420 LP             1 S1                 0.0000
     56 ****         1.6492   1.2154  -0.0889 LP             1 S1                 0.0000
     57 ****         3.1448   1.8652  -0.1773 LP             1 S1                 0.0000
     58 ****        -4.6132   1.6832  -0.8213 LP             1 S1                 0.0000
     59 ****        -2.6986  -0.4280  -1.9075 LP             1 S1                 0.0000
@<TRIPOS>BOND
    1    1    2 2     
    2    2    3 am    
    3    2   14 am    
    4    3    4 1     
    5    3   26 1     
    6    4    5 1     
    7    4   27 1     
    8    4   28 1     
    9    5   13 1     
   10    5    6 1     
   11    5   29 1     
   12    6    7 1     
   13    6   30 1     
   14    6   31 1     
   15    7   11 1     
   16    7    8 1     
   17    7   53 1     
   18    8    9 1     
   19    8   32 1     
   20    8   33 1     
   21    9   10 1     
   22    9   34 1     
   23    9   35 1     
   24   10   11 1     
   25   10   36 1     
   26   10   37 1     
   27   11   12 1     
   28   11   38 1     
   29   12   13 1     
   30   12   39 1     
   31   12   40 1     
   32   14   15 1     
   33   14   41 1     
   34   15   20 ar    
   35   15   16 ar    
   36   16   17 ar    
   37   16   42 1     
   38   17   18 ar    
   39   17   43 1     
   40   18   19 ar    
   41   18   44 1     
   42   19   20 ar    
   43   20   21 1     
   44   21   25 1     
   45   21   22 1     
   46   22   23 1     
   47   22   45 1     
   48   22   46 1     
   49   23   24 1     
   50   23   47 1     
   51   23   48 1     
   52   24   25 1     
   53   24   49 1     
   54   24   50 1     
   55   25   51 1     
   56   25   52 1     
   57    1   54 1     
   58    1   55 1     
   59   13   56 1     
   60   13   57 1     
   61   19   58 1     
   62   21   59 1     
@<TRIPOS>SUBSTRUCTURE
      1 S1             1
@<TRIPOS>SET
LONE_PAIRS      STATIC     ATOMS    <user>   **** ""
6 54 55 56 57 58 59
DONOR_HYDROGENS      STATIC     ATOMS    <user>   **** ""
3 26 53 41
ATOM$BLUE        STATIC     ATOMS    COLORGROUP SYSTEM
6 54 55 56 57 58 59
ATOM$RED        STATIC     ATOMS    COLORGROUP SYSTEM
3 26 53 41
