AV-unprocessed.smi:1138|AV-procd|sdf|4867|dock2
  -GOLD-   22720 3433D 1   1.00000     0.00000
 Structure written by MMmdl.
 50 52  0  0  0  0  0  0  0  0  2 V2000
  151.7779  144.2261  157.0380 C   0  0  0  0  0  0  0  0  0  0  0  0
  151.9298  142.7903  157.2351 N   0  0  0  0  0  0  0  0  0  0  0  0
  152.7583  142.2798  158.3215 C   0  0  0  0  0  0  0  0  0  0  0  0
  151.2507  141.8892  156.3866 C   0  0  0  0  0  0  0  0  0  0  0  0
  151.7223  140.5832  156.1066 C   0  0  0  0  0  0  0  0  0  0  0  0
  150.9849  139.7393  155.2511 C   0  0  0  0  0  0  0  0  0  0  0  0
  149.7860  140.2018  154.6701 C   0  0  0  0  0  0  0  0  0  0  0  0
  149.0692  139.3077  153.8295 N   0  0  0  0  0  0  0  0  0  0  0  0
  147.7395  139.1813  153.6793 C   0  0  0  0  0  0  0  0  0  0  0  0
  146.8911  139.8748  154.2397 O   0  0  0  0  0  0  0  0  0  0  0  0
  147.4424  138.2033  152.8119 N   0  0  0  0  0  0  0  0  0  0  0  0
  146.0954  137.8112  152.4084 C   0  0  0  0  0  0  0  0  0  0  0  0
  145.3927  137.0993  153.5848 C   0  0  0  0  0  0  0  0  0  0  0  0
  144.0518  136.4826  153.1482 C   0  0  0  0  0  0  0  0  0  0  0  0
  144.2958  135.5720  152.0233 N   0  0  0  0  0  0  0  0  0  0  0  0
  144.2549  134.2227  152.1573 C   0  0  0  0  0  0  0  0  0  0  0  0
  143.9610  133.6751  153.2209 O   0  0  0  0  0  0  0  0  0  0  0  0
  144.5610  133.4079  150.9397 C   0  0  0  0  0  0  0  0  0  0  0  0
  143.4661  132.5145  150.3854 C   0  0  0  0  0  0  0  0  0  0  0  0
  144.6337  131.9052  151.1161 C   0  0  0  0  0  0  0  0  0  0  0  0
  144.7657  136.3051  150.8393 C   0  0  0  0  0  0  0  0  0  0  0  0
  146.1451  136.9128  151.1504 C   0  0  0  0  0  0  0  0  0  0  0  0
  149.3515  141.5108  154.9866 C   0  0  0  0  0  0  0  0  0  0  0  0
  150.0878  142.2848  155.8132 N   0  3  0  0  0  0  0  0  0  0  0  0
  152.1667  144.5223  156.0631 H   0  0  0  0  0  0  0  0  0  0  0  0
  152.3193  144.7900  157.7980 H   0  0  0  0  0  0  0  0  0  0  0  0
  150.7274  144.5126  157.0977 H   0  0  0  0  0  0  0  0  0  0  0  0
  153.5251  141.6063  157.9370 H   0  0  0  0  0  0  0  0  0  0  0  0
  152.1489  141.7368  159.0444 H   0  0  0  0  0  0  0  0  0  0  0  0
  153.2632  143.0894  158.8490 H   0  0  0  0  0  0  0  0  0  0  0  0
  152.6387  140.2097  156.5386 H   0  0  0  0  0  0  0  0  0  0  0  0
  151.3442  138.7421  155.0421 H   0  0  0  0  0  0  0  0  0  0  0  0
  149.6378  138.7168  153.2404 H   0  0  0  0  0  0  0  0  0  0  0  0
  148.2050  137.6882  152.3967 H   0  0  0  0  0  0  0  0  0  0  0  0
  145.5157  138.7052  152.1706 H   0  0  0  0  0  0  0  0  0  0  0  0
  146.0347  136.3090  153.9775 H   0  0  0  0  0  0  0  0  0  0  0  0
  145.2302  137.8005  154.4042 H   0  0  0  0  0  0  0  0  0  0  0  0
  143.5742  135.9895  153.9960 H   0  0  0  0  0  0  0  0  0  0  0  0
  143.3608  137.2675  152.8372 H   0  0  0  0  0  0  0  0  0  0  0  0
  145.2124  133.8708  150.2005 H   0  0  0  0  0  0  0  0  0  0  0  0
  142.5005  132.4851  150.8872 H   0  0  0  0  0  0  0  0  0  0  0  0
  143.4245  132.3988  149.3042 H   0  0  0  0  0  0  0  0  0  0  0  0
  145.3862  131.3771  150.5343 H   0  0  0  0  0  0  0  0  0  0  0  0
  144.4461  131.4958  152.1074 H   0  0  0  0  0  0  0  0  0  0  0  0
  144.8272  135.6975  149.9379 H   0  0  0  0  0  0  0  0  0  0  0  0
  144.0553  137.0986  150.6031 H   0  0  0  0  0  0  0  0  0  0  0  0
  146.4981  137.4856  150.2920 H   0  0  0  0  0  0  0  0  0  0  0  0
  146.8643  136.1058  151.2995 H   0  0  0  0  0  0  0  0  0  0  0  0
  148.4430  141.9702  154.6278 H   0  0  0  0  0  0  0  0  0  0  0  0
  149.7446  143.2230  156.0200 H   0  0  0  0  0  0  0  0  0  0  0  0
  1  2  1  0  0  0  0
  1 25  1  0  0  0  0
  1 26  1  0  0  0  0
  1 27  1  0  0  0  0
  2  3  1  0  0  0  0
  2  4  1  0  0  0  0
  3 28  1  0  0  0  0
  3 29  1  0  0  0  0
  3 30  1  0  0  0  0
  4 24  1  0  0  0  0
  4  5  2  0  0  0  0
  5  6  1  0  0  0  0
  5 31  1  0  0  0  0
  6  7  2  0  0  0  0
  6 32  1  0  0  0  0
  7  8  1  0  0  0  0
  7 23  1  0  0  0  0
  8  9  1  0  0  0  0
  8 33  1  0  0  0  0
  9 10  2  0  0  0  0
  9 11  1  0  0  0  0
 11 12  1  0  0  0  0
 11 34  1  0  0  0  0
 12 22  1  0  0  0  0
 12 13  1  0  0  0  0
 12 35  1  0  0  0  0
 13 14  1  0  0  0  0
 13 36  1  0  0  0  0
 13 37  1  0  0  0  0
 14 15  1  0  0  0  0
 14 38  1  0  0  0  0
 14 39  1  0  0  0  0
 15 16  1  0  0  0  0
 15 21  1  0  0  0  0
 16 17  2  0  0  0  0
 16 18  1  0  0  0  0
 18 20  1  0  0  0  0
 18 19  1  0  0  0  0
 18 40  1  0  0  0  0
 19 20  1  0  0  0  0
 19 41  1  0  0  0  0
 19 42  1  0  0  0  0
 20 43  1  0  0  0  0
 20 44  1  0  0  0  0
 21 22  1  0  0  0  0
 21 45  1  0  0  0  0
 21 46  1  0  0  0  0
 22 47  1  0  0  0  0
 22 48  1  0  0  0  0
 23 24  2  0  0  0  0
 23 49  1  0  0  0  0
 24 50  1  0  0  0  0
M  CHG  1  24   1
M  END
> <s_m_source_file>
AV-unprocessed.smi

> <i_m_source_file_index>
1138

> <i_lp_mmshare_version>
43012

> <i_f3d_flags>
0

> <s_epik_input>
W0NIM11OKFtDSDNdKWMxW2NIXVtjSF1jKFtjSF1uMSlbTkhdQyg9TylbTkhdW0NIXTJbQ0gyXVtDSDJdTihbQ0gyXVtDSDJdMilDKD1PKVtDSF0zW0NIMl1bQ0gyXTM=

> <s_epik_cmdline>
J2VwaWtfcHl0aG9uJywgJy1waCcsICc3LjAnLCAnLXRuJywgJzgnLCAnLW1hJywgJzIwMCcsICctbWV0YWxfYmluZGluZycsICctaW1hZScsICc8aW5maWxlLm1hZT4nLCAnLW9tYWUnLCAnPG91dGZpbGUubWFlPic=

> <r_lp_tautomer_probability>
0.999994

> <r_epik_Ionization_Penalty>
0.25564

> <r_epik_Ionization_Penalty_Charging>
0.25562

> <r_epik_Ionization_Penalty_Neutral>
1.99621e-05

> <r_epik_State_Penalty>
0.247139

> <r_epik_Charging_Adjusted_Penalty>
0.502759

> <i_epik_Tot_Q>
1

> <i_epik_Tot_abs_Q>
1

> <r_epik_Metal_State_Penalty>
0.536902

> <b_epik_Metal_Only>
0

> <s_lp_Force_Field>
OPLS_2005

> <r_lp_Energy>
38.8624

> <b_lp_Chiralities_Consistent>
1

> <s_lp_Variant>
AV-unprocessed.smi:1138-1

> <Gold.Version>
5.8.1

> <Gold.Id.Protein>
6NUR|6NUR_protein|mol2

> <Gold.PLP.Fitness>
50.5413

> <Gold.PLP.PLP>
-43.1351

> <Gold.PLP.part.hbond>
-3.9099

> <Gold.PLP.part.metal>
0.0000

> <Gold.PLP.part.buried>
5.8091

> <Gold.PLP.part.nonpolar>
-45.4514

> <Gold.PLP.part.repulsive>
0.5642

> <Gold.PLP.ligand.clash>
0.0000

> <Gold.PLP.ligand.torsion>
0.7684

> <Gold.PLP.Chemscore.Hbond>
2.9440

> <Gold.PLP.Chemscore.CHOScore>
0.0000

> <Gold.PLP.Chemscore.Metal>
0.0000

> <Gold.Chemscore.Hbonds>
donor molecule, donor type, donor heavy atom, donor atom, acceptor molecule, acceptor atom, score
      L1  H    11    34       P1  7948  1.00
      L1  H    24    50       P1  8028  2.00

> <Gold.PLP.Chemscore.Internal.Correction>
0.1110

> <Gold.Rescore>
     Score         DG    S(hbond)    S(metal)    S(lipo)     H(rot)  DE(clash)    DE(int)     intcor
     17.70     -21.45       1.89        0.00     108.84       1.21       2.63       1.11       ----

> <Gold.Chemscore.Fitness>
17.7023

> <Gold.Chemscore.DG>
-21.4460

> <Gold.Chemscore.ZeroCoef>
-5.4800

> <Gold.Chemscore.Hbond>
1.8931

> <Gold.Chemscore.Metal>
0.0000

> <Gold.Chemscore.Lipo>
108.8361

> <Gold.Chemscore.Internal_Hbond>
0.0000

> <Gold.Chemscore.DEClash>
2.6327

> <Gold.Chemscore.DEInternal>
1.1110

> <Gold.Chemscore.Rot>
1.2074

> <Gold.Chemscore.Internal.Correction>
   9.000000E+99

> <Gold.Chemscore.Hbonds>
donor molecule, donor type, donor heavy atom, donor atom, acceptor molecule, acceptor atom, score
      L1  H    11    34       P1  7948  0.98
      L1  H    24    50       P1  8028  0.98

> <Gold.Chemscore.Hbond.Weighted>
-6.3230

> <Gold.Chemscore.Metal.Weighted>
-0.0000

> <Gold.Chemscore.Lipo.Weighted>
-12.7338

> <Gold.Chemscore.Internal_Hbond.Weighted>
0.0000

> <Gold.Chemscore.DEClash.Weighted>
2.6327

> <Gold.Chemscore.DEInternal.Weighted>
1.1110

> <Gold.Chemscore.Rot.Weighted>
3.0909

> <Gold.Chemscore.Internal.Correction.Weighted>
   9.000000E+99

> <Gold.Protein.RotatedTorsions>
[ 6907 6896 6895 6894 ] final   99.10 input  -60.11 | X-H torsion
[ 7974 7965 7964 7962 ] final  -96.17 input  175.53 | X-H torsion
[ 8008 7997 7996 7995 ] final  -57.66 input   59.86 | X-H torsion
[ 10167 10162 10161 10158 ] final -139.05 input  -65.29 | X-H torsion
[ 10718 10713 10712 10709 ] final   36.21 input   66.30 | X-H torsion
[ 10763 10752 10751 10750 ] final  -46.46 input  -60.55 | X-H torsion
[ 11005 11000 10999 10996 ] final   12.28 input  -57.11 | X-H torsion

> <Gold.Protein.ActiveResidues>
 VAL166  LYS551  ARG553  GLY616  TRP617  ASP618  TYR619  PRO620  LYS621  CYS622 
 ASP623  PHE694  ASN695  SER759  ASP760  ASP761  ALA762  ILE779  LEU786  VAL792 
 PHE793  MET794  SER795  GLU796  ALA797  LYS798  CYS799  TRP800  GLU811  SER814 

> <Gold.Protein.RotatedAtoms>
  152.5398  134.0480  159.8096 H   0  0  0  0  0  0  0  0  0  0  0  0  # atno 6907 bound_to 6896
  151.0626  133.5524  159.2640 H   0  0  0  0  0  0  0  0  0  0  0  0  # atno 6908 bound_to 6896
  151.2417  135.0599  159.9081 H   0  0  0  0  0  0  0  0  0  0  0  0  # atno 6909 bound_to 6896
  145.3504  140.9475  143.2557 H   0  0  0  0  0  0  0  0  0  0  0  0  # atno 7974 bound_to 7965
  154.4277  140.1102  156.5833 H   0  0  0  0  0  0  0  0  0  0  0  0  # atno 8008 bound_to 7997
  155.6089  140.3494  155.4597 H   0  0  0  0  0  0  0  0  0  0  0  0  # atno 8009 bound_to 7997
  156.0115  140.1220  157.0439 H   0  0  0  0  0  0  0  0  0  0  0  0  # atno 8010 bound_to 7997
  139.8418  143.7313  152.2663 H   0  0  0  0  0  0  0  0  0  0  0  0  # atno 10167 bound_to 10162
  157.3321  130.7503  149.6854 H   0  0  0  0  0  0  0  0  0  0  0  0  # atno 10718 bound_to 10713
  154.0453  135.6638  153.4794 H   0  0  0  0  0  0  0  0  0  0  0  0  # atno 10763 bound_to 10752
  153.0485  135.5099  154.7802 H   0  0  0  0  0  0  0  0  0  0  0  0  # atno 10764 bound_to 10752
  154.6792  135.3042  154.9603 H   0  0  0  0  0  0  0  0  0  0  0  0  # atno 10765 bound_to 10752
  140.4937  134.0815  155.7777 H   0  0  0  0  0  0  0  0  0  0  0  0  # atno 11005 bound_to 11000
  144.8722  139.5022  143.6762 LP  0  0  0  0  0  0  0  0  0  0  0  0  # atno 17320 bound_to 7965
  146.2970  139.7308  142.9119 LP  0  0  0  0  0  0  0  0  0  0  0  0  # atno 17321 bound_to 7965
  139.7552  144.7523  151.0446 LP  0  0  0  0  0  0  0  0  0  0  0  0  # atno 17342 bound_to 10162
  140.7797  143.4814  151.0013 LP  0  0  0  0  0  0  0  0  0  0  0  0  # atno 17343 bound_to 10162
  155.9697  130.4192  150.4364 LP  0  0  0  0  0  0  0  0  0  0  0  0  # atno 17370 bound_to 10713
  157.2397  131.0523  151.2443 LP  0  0  0  0  0  0  0  0  0  0  0  0  # atno 17371 bound_to 10713
  141.1471  133.9036  157.2189 LP  0  0  0  0  0  0  0  0  0  0  0  0  # atno 17394 bound_to 11000
  139.9754  135.0115  156.9617 LP  0  0  0  0  0  0  0  0  0  0  0  0  # atno 17395 bound_to 11000

$$$$
