AV-unprocessed.smi:1978|AV-procd|sdf|8011|dock8
  -GOLD-   2272010203D 1   1.00000     0.00000
 Structure written by MMmdl.
 44 45  0  0  0  0  0  0  0  0  3 V2000
  152.9511  137.9284  156.9094 C   0  0  0  0  0  0  0  0  0  0  0  0
  152.0806  138.6577  155.9450 C   0  0  0  0  0  0  0  0  0  0  0  0
  150.9572  138.3012  155.2538 C   0  0  0  0  0  0  0  0  0  0  0  0
  150.6432  139.4775  154.5223 C   0  0  0  0  0  0  0  0  0  0  0  0
  149.5134  139.5147  153.6634 N   0  0  0  0  0  0  0  0  0  0  0  0
  148.4964  140.3955  153.6466 C   0  0  0  0  0  0  0  0  0  0  0  0
  148.4658  141.3307  154.4553 O   0  0  0  0  0  0  0  0  0  0  0  0
  147.5799  140.1048  152.6823 N   0  5  0  0  0  0  0  0  0  0  0  0
  147.3648  138.7780  152.1017 C   0  0  0  0  0  0  0  0  0  0  0  0
  146.5373  137.8752  153.0612 C   0  0  1  0  0  0  0  0  0  0  0  0
  145.2285  138.5199  153.5852 C   0  0  0  0  0  0  0  0  0  0  0  0
  146.3117  136.5180  152.4525 N   0  3  2  0  0  0  0  0  0  0  0  0
  145.3150  136.5054  151.3334 C   0  0  0  0  0  0  0  0  0  0  0  0
  145.3340  135.1754  150.5708 C   0  0  0  0  0  0  0  0  0  0  0  0
  145.0286  134.0198  151.5233 C   0  0  0  0  0  0  0  0  0  0  0  0
  146.0267  134.0394  152.6839 C   0  0  0  0  0  0  0  0  0  0  0  0
  146.0550  135.3981  153.4228 C   0  0  1  0  0  0  0  0  0  0  0  0
  147.0990  135.2981  154.5568 C   0  0  0  0  0  0  0  0  0  0  0  0
  151.5011  140.4624  154.7454 N   0  0  0  0  0  0  0  0  0  0  0  0
  152.4268  139.9417  155.6576 O   0  0  0  0  0  0  0  0  0  0  0  0
  152.4884  136.9908  157.2182 H   0  0  0  0  0  0  0  0  0  0  0  0
  153.1267  138.5281  157.8026 H   0  0  0  0  0  0  0  0  0  0  0  0
  153.9166  137.6983  156.4594 H   0  0  0  0  0  0  0  0  0  0  0  0
  150.4422  137.3524  155.2717 H   0  0  0  0  0  0  0  0  0  0  0  0
  149.4634  138.7757  152.9781 H   0  0  0  0  0  0  0  0  0  0  0  0
  146.8774  138.8134  151.1267 H   0  0  0  0  0  0  0  0  0  0  0  0
  148.3234  138.2908  151.9187 H   0  0  0  0  0  0  0  0  0  0  0  0
  147.1775  137.7664  153.9307 H   0  0  0  0  0  0  0  0  0  0  0  0
  145.4267  139.4112  154.1829 H   0  0  0  0  0  0  0  0  0  0  0  0
  144.6895  137.8295  154.2341 H   0  0  0  0  0  0  0  0  0  0  0  0
  144.5501  138.8160  152.7833 H   0  0  0  0  0  0  0  0  0  0  0  0
  144.3121  136.6757  151.7270 H   0  0  0  0  0  0  0  0  0  0  0  0
  145.5113  137.3095  150.6242 H   0  0  0  0  0  0  0  0  0  0  0  0
  144.6000  135.1968  149.7646 H   0  0  0  0  0  0  0  0  0  0  0  0
  146.3081  135.0286  150.1022 H   0  0  0  0  0  0  0  0  0  0  0  0
  144.0108  134.1090  151.9053 H   0  0  0  0  0  0  0  0  0  0  0  0
  145.0843  133.0684  150.9937 H   0  0  0  0  0  0  0  0  0  0  0  0
  145.7750  133.2394  153.3811 H   0  0  0  0  0  0  0  0  0  0  0  0
  147.0230  133.8097  152.3028 H   0  0  0  0  0  0  0  0  0  0  0  0
  145.0764  135.5624  153.8765 H   0  0  0  0  0  0  0  0  0  0  0  0
  147.0043  134.3534  155.0929 H   0  0  0  0  0  0  0  0  0  0  0  0
  146.9748  136.0753  155.3100 H   0  0  0  0  0  0  0  0  0  0  0  0
  148.1166  135.3522  154.1683 H   0  0  0  0  0  0  0  0  0  0  0  0
  147.2004  136.2904  152.0298 H   0  0  0  0  0  0  0  0  0  0  0  0
  1  2  1  0  0  0  0
  1 21  1  0  0  0  0
  1 22  1  0  0  0  0
  1 23  1  0  0  0  0
  2 20  1  0  0  0  0
  2  3  2  0  0  0  0
  3  4  1  0  0  0  0
  3 24  1  0  0  0  0
  4  5  1  0  0  0  0
  4 19  2  0  0  0  0
  5  6  1  0  0  0  0
  5 25  1  0  0  0  0
  6  7  2  0  0  0  0
  6  8  1  0  0  0  0
  8  9  1  0  0  0  0
  9 10  1  0  0  0  0
  9 26  1  0  0  0  0
  9 27  1  0  0  0  0
 10 11  1  0  0  0  0
 10 12  1  0  0  0  0
 10 28  1  0  0  0  0
 11 29  1  0  0  0  0
 11 30  1  0  0  0  0
 11 31  1  0  0  0  0
 12 17  1  0  0  0  0
 12 13  1  0  0  0  0
 12 44  1  0  0  0  0
 13 14  1  0  0  0  0
 13 32  1  0  0  0  0
 13 33  1  0  0  0  0
 14 15  1  0  0  0  0
 14 34  1  0  0  0  0
 14 35  1  0  0  0  0
 15 16  1  0  0  0  0
 15 36  1  0  0  0  0
 15 37  1  0  0  0  0
 16 17  1  0  0  0  0
 16 38  1  0  0  0  0
 16 39  1  0  0  0  0
 17 18  1  0  0  0  0
 17 40  1  0  0  0  0
 18 41  1  0  0  0  0
 18 42  1  0  0  0  0
 18 43  1  0  0  0  0
 19 20  1  0  0  0  0
M  CHG  1   8  -1
M  CHG  1  12   1
M  END
> <s_m_source_file>
AV-unprocessed.smi

> <i_m_source_file_index>
1978

> <i_lp_mmshare_version>
43012

> <i_f3d_flags>
0

> <s_epik_input>
W0NIM11jMVtjSF1jKG5vMSlbTkhdQyg9TylbTkhdW0NIMl1bQ0BIXShbQ0gzXSlOMltDSDJdW0NIMl1bQ0gyXVtDSDJdW0NASF0yW0NIM10=

> <s_epik_cmdline>
J2VwaWtfcHl0aG9uJywgJy1waCcsICc3LjAnLCAnLXRuJywgJzgnLCAnLW1hJywgJzIwMCcsICctbWV0YWxfYmluZGluZycsICctaW1hZScsICc8aW5maWxlLm1hZT4nLCAnLW9tYWUnLCAnPG91dGZpbGUubWFlPic=

> <r_epik_Ionization_Penalty>
6.7666

> <r_epik_Ionization_Penalty_Charging>
6.7666

> <r_epik_Ionization_Penalty_Neutral>
5.77131e-06

> <r_epik_State_Penalty>
6.79217

> <r_epik_Charging_Adjusted_Penalty>
13.5588

> <i_epik_Tot_Q>
0

> <i_epik_Tot_abs_Q>
2

> <r_epik_Metal_State_Penalty>
2.72569

> <b_epik_Metal_Only>
1

> <s_lp_Force_Field>
OPLS_2005

> <r_lp_Energy>
21.6667

> <b_lp_Chiralities_Consistent>
1

> <s_lp_Variant>
AV-unprocessed.smi:1978-20

> <Gold.Version>
5.8.1

> <Gold.Id.Protein>
6NUR|6NUR_protein|mol2

> <Gold.PLP.Fitness>
37.5831

> <Gold.PLP.PLP>
-27.3157

> <Gold.PLP.part.hbond>
-3.9159

> <Gold.PLP.part.metal>
0.0000

> <Gold.PLP.part.buried>
-0.8107

> <Gold.PLP.part.nonpolar>
-22.6956

> <Gold.PLP.part.repulsive>
0.4757

> <Gold.PLP.ligand.clash>
0.0000

> <Gold.PLP.ligand.torsion>
0.9894

> <Gold.PLP.Chemscore.Hbond>
4.0172

> <Gold.PLP.Chemscore.CHOScore>
0.0000

> <Gold.PLP.Chemscore.Metal>
0.0000

> <Gold.Chemscore.Hbonds>
donor molecule, donor type, donor heavy atom, donor atom, acceptor molecule, acceptor atom, score
      L1  H    12    44       P1  7948  2.00
      P1  H  7989  7998       L1    19  0.42
      P1  H  7997  8008       L1    20  1.00

> <Gold.PLP.Chemscore.Internal.Correction>
0.1947

> <Gold.Rescore>
     Score         DG    S(hbond)    S(metal)    S(lipo)     H(rot)  DE(clash)    DE(int)     intcor
     16.17     -17.19       2.87        0.00      51.43       1.52       0.05       0.96       ----

> <Gold.Chemscore.Fitness>
16.1715

> <Gold.Chemscore.DG>
-17.1887

> <Gold.Chemscore.ZeroCoef>
-5.4800

> <Gold.Chemscore.Hbond>
2.8683

> <Gold.Chemscore.Metal>
0.0000

> <Gold.Chemscore.Lipo>
51.4294

> <Gold.Chemscore.Internal_Hbond>
0.0000

> <Gold.Chemscore.DEClash>
0.0548

> <Gold.Chemscore.DEInternal>
0.9624

> <Gold.Chemscore.Rot>
1.5190

> <Gold.Chemscore.Internal.Correction>
   9.000000E+99

> <Gold.Chemscore.Hbonds>
donor molecule, donor type, donor heavy atom, donor atom, acceptor molecule, acceptor atom, score
      L1  H     5    25       P1  7957  0.02
      L1  H    12    44       P1  7948  0.99
      P1  H  7989  7998       L1    19  0.09
      P1  H  7997  8008       L1    20  0.47

> <Gold.Chemscore.Hbond.Weighted>
-9.5801

> <Gold.Chemscore.Metal.Weighted>
-0.0000

> <Gold.Chemscore.Lipo.Weighted>
-6.0172

> <Gold.Chemscore.Internal_Hbond.Weighted>
0.0000

> <Gold.Chemscore.DEClash.Weighted>
0.0548

> <Gold.Chemscore.DEInternal.Weighted>
0.9624

> <Gold.Chemscore.Rot.Weighted>
3.8886

> <Gold.Chemscore.Internal.Correction.Weighted>
   9.000000E+99

> <Gold.Protein.RotatedTorsions>
[ 6907 6896 6895 6894 ] final  -51.44 input  -60.11 | X-H torsion
[ 7974 7965 7964 7962 ] final  160.98 input  175.53 | X-H torsion
[ 8008 7997 7996 7995 ] final  -41.59 input   59.86 | X-H torsion
[ 10167 10162 10161 10158 ] final   32.18 input  -65.29 | X-H torsion
[ 10718 10713 10712 10709 ] final  119.59 input   66.30 | X-H torsion
[ 10763 10752 10751 10750 ] final    9.58 input  -60.55 | X-H torsion
[ 11005 11000 10999 10996 ] final  -70.33 input  -57.11 | X-H torsion

> <Gold.Protein.ActiveResidues>
 VAL166  LYS551  ARG553  GLY616  TRP617  ASP618  TYR619  PRO620  LYS621  CYS622 
 ASP623  PHE694  ASN695  SER759  ASP760  ASP761  ALA762  ILE779  LEU786  VAL792 
 PHE793  MET794  SER795  GLU796  ALA797  LYS798  CYS799  TRP800  GLU811  SER814 

> <Gold.Protein.RotatedAtoms>
  150.8611  134.7963  159.7082 H   0  0  0  0  0  0  0  0  0  0  0  0  # atno 6907 bound_to 6896
  152.4647  134.5099  159.9760 H   0  0  0  0  0  0  0  0  0  0  0  0  # atno 6908 bound_to 6896
  151.5203  133.3429  159.2936 H   0  0  0  0  0  0  0  0  0  0  0  0  # atno 6909 bound_to 6896
  144.7709  139.7833  143.6297 H   0  0  0  0  0  0  0  0  0  0  0  0  # atno 7974 bound_to 7965
  154.4003  140.1495  156.3215 H   0  0  0  0  0  0  0  0  0  0  0  0  # atno 8008 bound_to 7997
  155.8525  140.3457  155.5681 H   0  0  0  0  0  0  0  0  0  0  0  0  # atno 8009 bound_to 7997
  155.7969  140.0864  157.1969 H   0  0  0  0  0  0  0  0  0  0  0  0  # atno 8010 bound_to 7997
  140.4522  144.1031  150.6194 H   0  0  0  0  0  0  0  0  0  0  0  0  # atno 10167 bound_to 10162
  157.5951  131.1059  150.7918 H   0  0  0  0  0  0  0  0  0  0  0  0  # atno 10718 bound_to 10713
  153.2125  135.6871  153.8096 H   0  0  0  0  0  0  0  0  0  0  0  0  # atno 10763 bound_to 10752
  153.7324  135.3250  155.3289 H   0  0  0  0  0  0  0  0  0  0  0  0  # atno 10764 bound_to 10752
  154.8229  135.4639  154.0939 H   0  0  0  0  0  0  0  0  0  0  0  0  # atno 10765 bound_to 10752
  141.1572  133.6787  156.6735 H   0  0  0  0  0  0  0  0  0  0  0  0  # atno 11005 bound_to 11000
  146.1855  139.5068  142.9839 LP  0  0  0  0  0  0  0  0  0  0  0  0  # atno 17320 bound_to 7965
  145.6327  141.0301  143.1854 LP  0  0  0  0  0  0  0  0  0  0  0  0  # atno 17321 bound_to 7965
  140.4193  143.2619  151.9735 LP  0  0  0  0  0  0  0  0  0  0  0  0  # atno 17342 bound_to 10162
  139.4798  144.5845  151.7877 LP  0  0  0  0  0  0  0  0  0  0  0  0  # atno 17343 bound_to 10162
  156.8330  130.5022  149.5329 LP  0  0  0  0  0  0  0  0  0  0  0  0  # atno 17370 bound_to 10713
  156.1012  130.5970  150.9897 LP  0  0  0  0  0  0  0  0  0  0  0  0  # atno 17371 bound_to 10713
  140.3156  134.8050  157.4212 LP  0  0  0  0  0  0  0  0  0  0  0  0  # atno 17394 bound_to 11000
  140.1140  134.5307  155.8240 LP  0  0  0  0  0  0  0  0  0  0  0  0  # atno 17395 bound_to 11000

$$$$
