AV-unprocessed.smi:3287|AV-procd|sdf|12602|dock10
  -GOLD-   2272018533D 1   1.00000     0.00000
 Structure written by MMmdl.
 43 44  0  0  0  0  0  0  0  0  2 V2000
  152.7966  143.4235  162.0975 C   0  0  0  0  0  0  0  0  0  0  0  0
  152.0684  143.0983  160.7829 C   0  0  2  0  0  0  0  0  0  0  0  0
  153.0423  142.6087  159.6933 C   0  0  0  0  0  0  0  0  0  0  0  0
  152.2942  142.2038  158.4137 C   0  0  0  0  0  0  0  0  0  0  0  0
  151.4195  143.3502  157.8767 C   0  0  1  0  0  0  0  0  0  0  0  0
  150.6930  142.8990  156.6694 N   0  3  0  0  0  0  0  0  0  0  0  0
  149.7448  141.7836  156.8815 C   0  0  0  0  0  0  0  0  0  0  0  0
  149.4203  141.0632  155.5612 C   0  0  1  0  0  0  0  0  0  0  0  0
  149.4156  142.0130  154.5132 O   0  0  0  0  0  0  0  0  0  0  0  0
  150.4054  139.9359  155.2942 C   0  0  0  0  0  0  0  0  0  0  0  0
  150.1394  138.9478  154.3215 C   0  0  0  0  0  0  0  0  0  0  0  0
  151.0937  137.9318  154.1142 C   0  0  0  0  0  0  0  0  0  0  0  0
  152.2547  137.8547  154.7990 N   0  0  0  0  0  0  0  0  0  0  0  0
  152.5048  138.8026  155.7269 C   0  0  0  0  0  0  0  0  0  0  0  0
  151.6181  139.8608  156.0110 C   0  0  0  0  0  0  0  0  0  0  0  0
  150.4481  143.8392  158.9748 C   0  0  0  0  0  0  0  0  0  0  0  0
  151.1766  144.2580  160.2697 C   0  0  2  0  0  0  0  0  0  0  0  0
  151.9197  145.5984  160.0957 C   0  0  0  0  0  0  0  0  0  0  0  0
  153.5570  144.1924  161.9603 H   0  0  0  0  0  0  0  0  0  0  0  0
  153.2971  142.5395  162.4937 H   0  0  0  0  0  0  0  0  0  0  0  0
  152.0981  143.7724  162.8586 H   0  0  0  0  0  0  0  0  0  0  0  0
  151.3998  142.2651  161.0062 H   0  0  0  0  0  0  0  0  0  0  0  0
  153.7732  143.3844  159.4633 H   0  0  0  0  0  0  0  0  0  0  0  0
  153.6123  141.7553  160.0625 H   0  0  0  0  0  0  0  0  0  0  0  0
  153.0132  141.8951  157.6539 H   0  0  0  0  0  0  0  0  0  0  0  0
  151.6733  141.3309  158.6217 H   0  0  0  0  0  0  0  0  0  0  0  0
  152.0793  144.1676  157.5829 H   0  0  0  0  0  0  0  0  0  0  0  0
  150.1606  143.6828  156.3205 H   0  0  0  0  0  0  0  0  0  0  0  0
  150.1506  141.0749  157.6037 H   0  0  0  0  0  0  0  0  0  0  0  0
  148.8266  142.1867  157.3109 H   0  0  0  0  0  0  0  0  0  0  0  0
  148.4172  140.6380  155.6201 H   0  0  0  0  0  0  0  0  0  0  0  0
  149.3843  142.8782  154.8935 H   0  0  0  0  0  0  0  0  0  0  0  0
  149.2268  138.9636  153.7438 H   0  0  0  0  0  0  0  0  0  0  0  0
  150.9201  137.1615  153.3775 H   0  0  0  0  0  0  0  0  0  0  0  0
  153.4408  138.7165  156.2589 H   0  0  0  0  0  0  0  0  0  0  0  0
  151.8689  140.5943  156.7632 H   0  0  0  0  0  0  0  0  0  0  0  0
  149.8458  144.6742  158.6169 H   0  0  0  0  0  0  0  0  0  0  0  0
  149.7425  143.0406  159.2087 H   0  0  0  0  0  0  0  0  0  0  0  0
  150.4063  144.4331  161.0222 H   0  0  0  0  0  0  0  0  0  0  0  0
  152.7591  145.5192  159.4058 H   0  0  0  0  0  0  0  0  0  0  0  0
  152.3069  145.9664  161.0457 H   0  0  0  0  0  0  0  0  0  0  0  0
  151.2497  146.3670  159.7098 H   0  0  0  0  0  0  0  0  0  0  0  0
  151.3639  142.6302  155.9633 H   0  0  0  0  0  0  0  0  0  0  0  0
  1  2  1  0  0  0  0
  1 19  1  0  0  0  0
  1 20  1  0  0  0  0
  1 21  1  0  0  0  0
  2 17  1  0  0  0  0
  2  3  1  0  0  0  0
  2 22  1  0  0  0  0
  3  4  1  0  0  0  0
  3 23  1  0  0  0  0
  3 24  1  0  0  0  0
  4  5  1  0  0  0  0
  4 25  1  0  0  0  0
  4 26  1  0  0  0  0
  5  6  1  0  0  0  0
  5 16  1  0  0  0  0
  5 27  1  0  0  0  0
  6  7  1  0  0  0  0
  6 28  1  0  0  0  0
  6 43  1  0  0  0  0
  7  8  1  0  0  0  0
  7 29  1  0  0  0  0
  7 30  1  0  0  0  0
  8  9  1  0  0  0  0
  8 10  1  0  0  0  0
  8 31  1  0  0  0  0
  9 32  1  0  0  0  0
 10 15  1  0  0  0  0
 10 11  2  0  0  0  0
 11 12  1  0  0  0  0
 11 33  1  0  0  0  0
 12 13  2  0  0  0  0
 12 34  1  0  0  0  0
 13 14  1  0  0  0  0
 14 15  2  0  0  0  0
 14 35  1  0  0  0  0
 15 36  1  0  0  0  0
 16 17  1  0  0  0  0
 16 37  1  0  0  0  0
 16 38  1  0  0  0  0
 17 18  1  0  0  0  0
 17 39  1  0  0  0  0
 18 40  1  0  0  0  0
 18 41  1  0  0  0  0
 18 42  1  0  0  0  0
M  CHG  1   6   1
M  END
> <s_m_source_file>
AV-unprocessed.smi

> <i_m_source_file_index>
3287

> <i_lp_mmshare_version>
43012

> <i_f3d_flags>
0

> <s_epik_input>
W0NIM11bQ0BASF0xW0NIMl1bQ0gyXVtDQEhdKFtDSDJdW0NASF0xW0NIM10pW05IXVtDSDJdW0NASF0oW09IXSljMltjSF1bY0hdbltjSF1bY0hdMg==

> <s_epik_cmdline>
J2VwaWtfcHl0aG9uJywgJy1waCcsICc3LjAnLCAnLXRuJywgJzgnLCAnLW1hJywgJzIwMCcsICctbWV0YWxfYmluZGluZycsICctaW1hZScsICc8aW5maWxlLm1hZT4nLCAnLW9tYWUnLCAnPG91dGZpbGUubWFlPic=

> <r_lp_tautomer_probability>
1

> <r_epik_Ionization_Penalty>
0.00537262

> <r_epik_Ionization_Penalty_Charging>
0.00321624

> <r_epik_Ionization_Penalty_Neutral>
0.00215638

> <r_epik_State_Penalty>
-0

> <r_epik_Charging_Adjusted_Penalty>
0.00321624

> <i_epik_Tot_Q>
1

> <i_epik_Tot_abs_Q>
1

> <r_epik_Metal_State_Penalty>
-0

> <b_epik_Metal_Only>
0

> <s_lp_Force_Field>
OPLS_2005

> <r_lp_Energy>
17.6896

> <b_lp_Chiralities_Consistent>
1

> <s_lp_Variant>
AV-unprocessed.smi:3287-13

> <Gold.Version>
5.8.1

> <Gold.Id.Protein>
6NUR|6NUR_protein|mol2

> <Gold.PLP.Fitness>
57.8967

> <Gold.PLP.PLP>
-46.3561

> <Gold.PLP.part.hbond>
-4.4819

> <Gold.PLP.part.metal>
0.0000

> <Gold.PLP.part.buried>
-5.0068

> <Gold.PLP.part.nonpolar>
-37.0593

> <Gold.PLP.part.repulsive>
0.1254

> <Gold.PLP.ligand.clash>
0.0000

> <Gold.PLP.ligand.torsion>
0.7625

> <Gold.PLP.Chemscore.Hbond>
3.2656

> <Gold.PLP.Chemscore.CHOScore>
1.0852

> <Gold.PLP.Chemscore.Metal>
0.0000

> <Gold.Chemscore.Hbonds>
donor molecule, donor type, donor heavy atom, donor atom, acceptor molecule, acceptor atom, score
      L1  H     6    28       P1  8028  2.00
      L1  H     9    32       P1  8028  0.98
      P1  H  8011  8017       L1     9  0.16
      P1  H 10752 10763       L1    13  0.15
      L1  C    12    34       P1  7948  0.12
      L1  C    12    34       P1  7949  0.96

> <Gold.PLP.Chemscore.Internal.Correction>
0.0133

> <Gold.Rescore>
     Score         DG    S(hbond)    S(metal)    S(lipo)     H(rot)  DE(clash)    DE(int)     intcor
     23.08     -23.70       2.30        0.00     131.87       1.90       0.13       0.49       ----

> <Gold.Chemscore.Fitness>
23.0760

> <Gold.Chemscore.DG>
-23.7021

> <Gold.Chemscore.ZeroCoef>
-5.4800

> <Gold.Chemscore.Hbond>
2.2954

> <Gold.Chemscore.Metal>
0.0000

> <Gold.Chemscore.Lipo>
131.8653

> <Gold.Chemscore.Internal_Hbond>
0.0000

> <Gold.Chemscore.DEClash>
0.1349

> <Gold.Chemscore.DEInternal>
0.4911

> <Gold.Chemscore.Rot>
1.9035

> <Gold.Chemscore.Internal.Correction>
   9.000000E+99

> <Gold.Chemscore.Hbonds>
donor molecule, donor type, donor heavy atom, donor atom, acceptor molecule, acceptor atom, score
      L1  H     6    28       P1  8028  1.00
      L1  H     9    32       P1  8028  0.91
      P1  H  8011  8017       L1     9  0.06
      P1  H 10752 10763       L1    13  0.07

> <Gold.Chemscore.Hbond.Weighted>
-7.6667

> <Gold.Chemscore.Metal.Weighted>
-0.0000

> <Gold.Chemscore.Lipo.Weighted>
-15.4282

> <Gold.Chemscore.Internal_Hbond.Weighted>
0.0000

> <Gold.Chemscore.DEClash.Weighted>
0.1349

> <Gold.Chemscore.DEInternal.Weighted>
0.4911

> <Gold.Chemscore.Rot.Weighted>
4.8729

> <Gold.Chemscore.Internal.Correction.Weighted>
   9.000000E+99

> <Gold.Protein.RotatedTorsions>
[ 6907 6896 6895 6894 ] final  -29.76 input  -60.11 | X-H torsion
[ 7974 7965 7964 7962 ] final -131.76 input  175.53 | X-H torsion
[ 8008 7997 7996 7995 ] final   85.83 input   59.86 | X-H torsion
[ 10167 10162 10161 10158 ] final  107.41 input  -65.29 | X-H torsion
[ 10718 10713 10712 10709 ] final   -8.76 input   66.30 | X-H torsion
[ 10763 10752 10751 10750 ] final   52.03 input  -60.55 | X-H torsion
[ 11005 11000 10999 10996 ] final  -79.75 input  -57.11 | X-H torsion

> <Gold.Protein.ActiveResidues>
 VAL166  LYS551  ARG553  GLY616  TRP617  ASP618  TYR619  PRO620  LYS621  CYS622 
 ASP623  PHE694  ASN695  SER759  ASP760  ASP761  ALA762  ILE779  LEU786  VAL792 
 PHE793  MET794  SER795  GLU796  ALA797  LYS798  CYS799  TRP800  GLU811  SER814 

> <Gold.Protein.RotatedAtoms>
  151.1148  135.0047  159.8510 H   0  0  0  0  0  0  0  0  0  0  0  0  # atno 6907 bound_to 6896
  152.5445  134.1792  159.8639 H   0  0  0  0  0  0  0  0  0  0  0  0  # atno 6908 bound_to 6896
  151.1846  133.4659  159.2627 H   0  0  0  0  0  0  0  0  0  0  0  0  # atno 6909 bound_to 6896
  144.9349  140.7171  143.4883 H   0  0  0  0  0  0  0  0  0  0  0  0  # atno 7974 bound_to 7965
  155.9551  140.3398  155.6441 H   0  0  0  0  0  0  0  0  0  0  0  0  # atno 8008 bound_to 7997
  155.6870  140.0744  157.2481 H   0  0  0  0  0  0  0  0  0  0  0  0  # atno 8009 bound_to 7997
  154.4130  140.1664  156.2032 H   0  0  0  0  0  0  0  0  0  0  0  0  # atno 8010 bound_to 7997
  139.6929  144.7105  151.1317 H   0  0  0  0  0  0  0  0  0  0  0  0  # atno 10167 bound_to 10162
  156.6979  130.5084  149.5925 H   0  0  0  0  0  0  0  0  0  0  0  0  # atno 10718 bound_to 10713
  152.9787  135.5826  154.4512 H   0  0  0  0  0  0  0  0  0  0  0  0  # atno 10763 bound_to 10752
  154.4100  135.2770  155.2044 H   0  0  0  0  0  0  0  0  0  0  0  0  # atno 10764 bound_to 10752
  154.3838  135.6140  153.5859 H   0  0  0  0  0  0  0  0  0  0  0  0  # atno 10765 bound_to 10752
  141.1667  133.7119  156.8170 H   0  0  0  0  0  0  0  0  0  0  0  0  # atno 11005 bound_to 11000
  145.3083  139.1827  143.4652 LP  0  0  0  0  0  0  0  0  0  0  0  0  # atno 17320 bound_to 7965
  146.3262  140.3084  142.8625 LP  0  0  0  0  0  0  0  0  0  0  0  0  # atno 17321 bound_to 7965
  140.7688  143.5533  150.9180 LP  0  0  0  0  0  0  0  0  0  0  0  0  # atno 17342 bound_to 10162
  139.9211  143.6604  152.3096 LP  0  0  0  0  0  0  0  0  0  0  0  0  # atno 17343 bound_to 10162
  156.1750  130.6462  151.0883 LP  0  0  0  0  0  0  0  0  0  0  0  0  # atno 17370 bound_to 10713
  157.6984  131.0785  150.6897 LP  0  0  0  0  0  0  0  0  0  0  0  0  # atno 17371 bound_to 10713
  140.2147  134.8802  157.3312 LP  0  0  0  0  0  0  0  0  0  0  0  0  # atno 17394 bound_to 11000
  140.2050  134.4208  155.7642 LP  0  0  0  0  0  0  0  0  0  0  0  0  # atno 17395 bound_to 11000

$$$$
