AV-unprocessed.smi:3331|AV-procd|sdf|12819|dock1
  -GOLD-   2272019193D 1   1.00000     0.00000
 Structure written by MMmdl.
 47 48  0  0  0  0  0  0  0  0  2 V2000
  152.9075  138.8610  157.3148 C   0  0  0  0  0  0  0  0  0  0  0  0
  151.7963  139.2891  158.2898 C   0  0  1  0  0  0  0  0  0  0  0  0
  152.0384  140.7015  158.8671 C   0  0  0  0  0  0  0  0  0  0  0  0
  151.6962  141.8272  157.8651 C   0  0  2  0  0  0  0  0  0  0  0  0
  151.8205  143.2126  158.5142 C   0  0  0  0  0  0  0  0  0  0  0  0
  150.2911  141.6033  157.2686 C   0  0  0  0  0  0  0  0  0  0  0  0
  150.2341  140.2707  156.6512 N   0  0  0  0  0  0  0  0  0  0  0  0
  150.1282  140.0932  155.3090 C   0  0  0  0  0  0  0  0  0  0  0  0
  150.0099  141.0448  154.5355 O   0  0  0  0  0  0  0  0  0  0  0  0
  150.1299  138.6674  154.7210 C   0  0  2  0  0  0  0  0  0  0  0  0
  151.5317  138.2461  154.2308 C   0  0  0  0  0  0  0  0  0  0  0  0
  149.1369  138.5854  153.6264 N   0  3  0  0  0  0  0  0  0  0  0  0
  147.7273  138.7533  154.0343 C   0  0  0  0  0  0  0  0  0  0  0  0
  146.8300  138.9775  152.8087 C   0  0  0  0  0  0  0  0  0  0  0  0
  146.2207  137.7439  152.3507 N   0  0  0  0  0  0  0  0  0  0  0  0
  145.3854  136.8921  153.0424 C   0  0  0  0  0  0  0  0  0  0  0  0
  145.0731  135.8608  152.2040 C   0  0  0  0  0  0  0  0  0  0  0  0
  145.7794  136.1706  151.0084 C   0  0  0  0  0  0  0  0  0  0  0  0
  146.4675  137.2976  151.1003 N   0  0  0  0  0  0  0  0  0  0  0  0
  150.3883  139.2111  157.6602 C   0  0  0  0  0  0  0  0  0  0  0  0
  152.9561  139.5080  156.4390 H   0  0  0  0  0  0  0  0  0  0  0  0
  152.7475  137.8412  156.9644 H   0  0  0  0  0  0  0  0  0  0  0  0
  153.8840  138.8901  157.7993 H   0  0  0  0  0  0  0  0  0  0  0  0
  151.8261  138.5854  159.1226 H   0  0  0  0  0  0  0  0  0  0  0  0
  151.4157  140.8223  159.7549 H   0  0  0  0  0  0  0  0  0  0  0  0
  153.0693  140.7990  159.2095 H   0  0  0  0  0  0  0  0  0  0  0  0
  152.4178  141.7873  157.0481 H   0  0  0  0  0  0  0  0  0  0  0  0
  151.1145  143.3313  159.3367 H   0  0  0  0  0  0  0  0  0  0  0  0
  151.6247  144.0042  157.7903 H   0  0  0  0  0  0  0  0  0  0  0  0
  152.8238  143.3707  158.9109 H   0  0  0  0  0  0  0  0  0  0  0  0
  149.5332  141.6707  158.0507 H   0  0  0  0  0  0  0  0  0  0  0  0
  150.0569  142.4048  156.5666 H   0  0  0  0  0  0  0  0  0  0  0  0
  149.8538  137.9727  155.5139 H   0  0  0  0  0  0  0  0  0  0  0  0
  152.2803  138.3797  155.0130 H   0  0  0  0  0  0  0  0  0  0  0  0
  151.8482  138.8271  153.3637 H   0  0  0  0  0  0  0  0  0  0  0  0
  151.5575  137.1935  153.9496 H   0  0  0  0  0  0  0  0  0  0  0  0
  149.3499  139.3243  152.9717 H   0  0  0  0  0  0  0  0  0  0  0  0
  147.3934  137.8695  154.5781 H   0  0  0  0  0  0  0  0  0  0  0  0
  147.6486  139.6027  154.7146 H   0  0  0  0  0  0  0  0  0  0  0  0
  146.0370  139.6903  153.0398 H   0  0  0  0  0  0  0  0  0  0  0  0
  147.4093  139.4021  151.9876 H   0  0  0  0  0  0  0  0  0  0  0  0
  145.0847  137.0879  154.0611 H   0  0  0  0  0  0  0  0  0  0  0  0
  144.4385  135.0124  152.4141 H   0  0  0  0  0  0  0  0  0  0  0  0
  145.8127  135.6139  150.0836 H   0  0  0  0  0  0  0  0  0  0  0  0
  150.2000  138.2068  157.2861 H   0  0  0  0  0  0  0  0  0  0  0  0
  149.6362  139.3612  158.4363 H   0  0  0  0  0  0  0  0  0  0  0  0
  149.2460  137.6999  153.1530 H   0  0  0  0  0  0  0  0  0  0  0  0
  1  2  1  0  0  0  0
  1 21  1  0  0  0  0
  1 22  1  0  0  0  0
  1 23  1  0  0  0  0
  2 20  1  0  0  0  0
  2  3  1  0  0  0  0
  2 24  1  0  0  0  0
  3  4  1  0  0  0  0
  3 25  1  0  0  0  0
  3 26  1  0  0  0  0
  4  5  1  0  0  0  0
  4  6  1  0  0  0  0
  4 27  1  0  0  0  0
  5 28  1  0  0  0  0
  5 29  1  0  0  0  0
  5 30  1  0  0  0  0
  6  7  1  0  0  0  0
  6 31  1  0  0  0  0
  6 32  1  0  0  0  0
  7  8  1  0  0  0  0
  7 20  1  0  0  0  0
  8  9  2  0  0  0  0
  8 10  1  0  0  0  0
 10 11  1  0  0  0  0
 10 12  1  0  0  0  0
 10 33  1  0  0  0  0
 11 34  1  0  0  0  0
 11 35  1  0  0  0  0
 11 36  1  0  0  0  0
 12 13  1  0  0  0  0
 12 37  1  0  0  0  0
 12 47  1  0  0  0  0
 13 14  1  0  0  0  0
 13 38  1  0  0  0  0
 13 39  1  0  0  0  0
 14 15  1  0  0  0  0
 14 40  1  0  0  0  0
 14 41  1  0  0  0  0
 15 19  1  0  0  0  0
 15 16  1  0  0  0  0
 16 17  2  0  0  0  0
 16 42  1  0  0  0  0
 17 18  1  0  0  0  0
 17 43  1  0  0  0  0
 18 19  2  0  0  0  0
 18 44  1  0  0  0  0
 20 45  1  0  0  0  0
 20 46  1  0  0  0  0
M  CHG  1  12   1
M  END
> <s_m_source_file>
AV-unprocessed.smi

> <i_m_source_file_index>
3331

> <i_lp_mmshare_version>
43012

> <i_f3d_flags>
0

> <s_epik_input>
W0NIM11bQ0BASF0xW0NIMl1bQ0BASF0oW0NIM10pW0NIMl1OKFtDSDJdMSlDKD1PKVtDQEhdKFtDSDNdKVtOSF1bQ0gyXVtDSDJdbjJbY0hdW2NIXVtjSF1uMg==

> <s_epik_cmdline>
J2VwaWtfcHl0aG9uJywgJy1waCcsICc3LjAnLCAnLXRuJywgJzgnLCAnLW1hJywgJzIwMCcsICctbWV0YWxfYmluZGluZycsICctaW1hZScsICc8aW5maWxlLm1hZT4nLCAnLW9tYWUnLCAnPG91dGZpbGUubWFlPic=

> <r_lp_tautomer_probability>
1

> <r_epik_Ionization_Penalty>
0.189706

> <r_epik_Ionization_Penalty_Charging>
0.189703

> <r_epik_Ionization_Penalty_Neutral>
2.45875e-06

> <r_epik_State_Penalty>
0.179341

> <r_epik_Charging_Adjusted_Penalty>
0.369044

> <i_epik_Tot_Q>
1

> <i_epik_Tot_abs_Q>
1

> <r_epik_Metal_State_Penalty>
0.179578

> <b_epik_Metal_Only>
0

> <s_lp_Force_Field>
OPLS_2005

> <r_lp_Energy>
29.8768

> <b_lp_Chiralities_Consistent>
1

> <s_lp_Variant>
AV-unprocessed.smi:3331-3

> <Gold.Version>
5.8.1

> <Gold.Id.Protein>
6NUR|6NUR_protein|mol2

> <Gold.PLP.Fitness>
51.9863

> <Gold.PLP.PLP>
-35.9194

> <Gold.PLP.part.hbond>
-4.6569

> <Gold.PLP.part.metal>
0.0000

> <Gold.PLP.part.buried>
0.5506

> <Gold.PLP.part.nonpolar>
-34.4775

> <Gold.PLP.part.repulsive>
2.8409

> <Gold.PLP.ligand.clash>
0.0000

> <Gold.PLP.ligand.torsion>
0.9431

> <Gold.PLP.Chemscore.Hbond>
4.9537

> <Gold.PLP.Chemscore.CHOScore>
1.0000

> <Gold.PLP.Chemscore.Metal>
0.0000

> <Gold.Chemscore.Hbonds>
donor molecule, donor type, donor heavy atom, donor atom, acceptor molecule, acceptor atom, score
      L1  H    12    37       P1  7957  1.00
      L1  H    12    47       P1  7948  2.00
      P1  H  7954  7966       L1    19  0.68
      P1  H  7989  7998       L1     9  0.59
      L1  C    18    44       P1  7921  0.86

> <Gold.PLP.Chemscore.Internal.Correction>
0.0921

> <Gold.Rescore>
     Score         DG    S(hbond)    S(metal)    S(lipo)     H(rot)  DE(clash)    DE(int)     intcor
     19.57     -24.16       3.59        0.00      94.89       1.73       3.58       1.01       ----

> <Gold.Chemscore.Fitness>
19.5699

> <Gold.Chemscore.DG>
-24.1578

> <Gold.Chemscore.ZeroCoef>
-5.4800

> <Gold.Chemscore.Hbond>
3.5908

> <Gold.Chemscore.Metal>
0.0000

> <Gold.Chemscore.Lipo>
94.8865

> <Gold.Chemscore.Internal_Hbond>
0.0000

> <Gold.Chemscore.DEClash>
3.5813

> <Gold.Chemscore.DEInternal>
1.0067

> <Gold.Chemscore.Rot>
1.7254

> <Gold.Chemscore.Internal.Correction>
   9.000000E+99

> <Gold.Chemscore.Hbonds>
donor molecule, donor type, donor heavy atom, donor atom, acceptor molecule, acceptor atom, score
      L1  H    12    37       P1  7957  0.95
      L1  H    12    47       P1  7948  0.97
      P1  H  7954  7966       L1    19  0.68
      P1  H  7989  7998       L1     9  0.21

> <Gold.Chemscore.Hbond.Weighted>
-11.9931

> <Gold.Chemscore.Metal.Weighted>
-0.0000

> <Gold.Chemscore.Lipo.Weighted>
-11.1017

> <Gold.Chemscore.Internal_Hbond.Weighted>
0.0000

> <Gold.Chemscore.DEClash.Weighted>
3.5813

> <Gold.Chemscore.DEInternal.Weighted>
1.0067

> <Gold.Chemscore.Rot.Weighted>
4.4170

> <Gold.Chemscore.Internal.Correction.Weighted>
   9.000000E+99

> <Gold.Protein.RotatedTorsions>
[ 6907 6896 6895 6894 ] final -178.30 input  -60.11 | X-H torsion
[ 7974 7965 7964 7962 ] final  160.50 input  175.53 | X-H torsion
[ 8008 7997 7996 7995 ] final  158.80 input   59.86 | X-H torsion
[ 10167 10162 10161 10158 ] final  -43.68 input  -65.29 | X-H torsion
[ 10718 10713 10712 10709 ] final   95.74 input   66.30 | X-H torsion
[ 10763 10752 10751 10750 ] final -122.82 input  -60.55 | X-H torsion
[ 11005 11000 10999 10996 ] final  -47.11 input  -57.11 | X-H torsion

> <Gold.Protein.ActiveResidues>
 VAL166  LYS551  ARG553  GLY616  TRP617  ASP618  TYR619  PRO620  LYS621  CYS622 
 ASP623  PHE694  ASN695  SER759  ASP760  ASP761  ALA762  ILE779  LEU786  VAL792 
 PHE793  MET794  SER795  GLU796  ALA797  LYS798  CYS799  TRP800  GLU811  SER814 

> <Gold.Protein.RotatedAtoms>
  151.6351  133.3329  159.3117 H   0  0  0  0  0  0  0  0  0  0  0  0  # atno 6907 bound_to 6896
  150.8037  134.7151  159.6635 H   0  0  0  0  0  0  0  0  0  0  0  0  # atno 6908 bound_to 6896
  152.4131  134.6094  160.0073 H   0  0  0  0  0  0  0  0  0  0  0  0  # atno 6909 bound_to 6896
  144.7734  139.7766  143.6288 H   0  0  0  0  0  0  0  0  0  0  0  0  # atno 7974 bound_to 7965
  156.2280  140.1848  156.7315 H   0  0  0  0  0  0  0  0  0  0  0  0  # atno 8008 bound_to 7997
  154.5974  140.0641  156.9349 H   0  0  0  0  0  0  0  0  0  0  0  0  # atno 8009 bound_to 7997
  155.2233  140.3309  155.4315 H   0  0  0  0  0  0  0  0  0  0  0  0  # atno 8010 bound_to 7997
  140.6925  143.2970  151.3387 H   0  0  0  0  0  0  0  0  0  0  0  0  # atno 10167 bound_to 10162
  157.6935  131.0555  150.4385 H   0  0  0  0  0  0  0  0  0  0  0  0  # atno 10718 bound_to 10713
  154.8697  135.4119  154.2844 H   0  0  0  0  0  0  0  0  0  0  0  0  # atno 10763 bound_to 10752
  153.3731  135.7008  153.6628 H   0  0  0  0  0  0  0  0  0  0  0  0  # atno 10764 bound_to 10752
  153.5481  135.3634  155.2719 H   0  0  0  0  0  0  0  0  0  0  0  0  # atno 10765 bound_to 10752
  141.0620  133.6706  156.3250 H   0  0  0  0  0  0  0  0  0  0  0  0  # atno 11005 bound_to 11000
  146.1896  139.5130  142.9813 LP  0  0  0  0  0  0  0  0  0  0  0  0  # atno 17320 bound_to 7965
  145.6257  141.0314  143.1890 LP  0  0  0  0  0  0  0  0  0  0  0  0  # atno 17321 bound_to 7965
  139.6343  144.0661  152.2502 LP  0  0  0  0  0  0  0  0  0  0  0  0  # atno 17342 bound_to 10162
  140.0146  144.6198  150.7618 LP  0  0  0  0  0  0  0  0  0  0  0  0  # atno 17343 bound_to 10162
  156.4746  130.4060  149.6498 LP  0  0  0  0  0  0  0  0  0  0  0  0  # atno 17370 bound_to 10713
  156.3565  130.7459  151.2426 LP  0  0  0  0  0  0  0  0  0  0  0  0  # atno 17371 bound_to 10713
  140.5849  134.5708  157.5487 LP  0  0  0  0  0  0  0  0  0  0  0  0  # atno 17394 bound_to 11000
  139.9441  134.7733  156.0604 LP  0  0  0  0  0  0  0  0  0  0  0  0  # atno 17395 bound_to 11000

$$$$
