AV-unprocessed.smi:35|AV-procd|sdf|274|dock9
  -GOLD-   2262016 43D 1   1.00000     0.00000
 Structure written by MMmdl.
 28 29  0  0  0  0  0  0  0  0  2 V2000
  148.3232  136.7876  160.8029 O   0  0  0  0  0  0  0  0  0  0  0  0
  148.5303  136.7410  159.5916 C   0  0  0  0  0  0  0  0  0  0  0  0
  149.6917  136.2678  159.0559 N   0  5  0  0  0  0  0  0  0  0  0  0
  149.9212  136.2289  157.7102 C   0  0  0  0  0  0  0  0  0  0  0  0
  150.9543  135.7730  157.2204 O   0  0  0  0  0  0  0  0  0  0  0  0
  148.9270  136.7298  156.8226 N   0  0  0  0  0  0  0  0  0  0  0  0
  149.1857  136.6659  155.3249 C   0  0  1  0  0  0  0  0  0  0  0  0
  148.1212  137.2418  154.6282 O   0  0  0  0  0  0  0  0  0  0  0  0
  148.4046  138.6098  154.3676 C   0  0  2  0  0  0  0  0  0  0  0  0
  147.5168  139.0998  153.2130 C   0  0  0  0  0  0  0  0  0  0  0  0
  147.2125  138.0380  152.3333 O   0  0  0  0  0  0  0  0  0  0  0  0
  149.9059  138.6033  154.0668 C   0  0  1  0  0  0  0  0  0  0  0  0
  150.4817  139.8368  154.4489 O   0  0  0  0  0  0  0  0  0  0  0  0
  150.4497  137.4645  154.9305 C   0  0  2  0  0  0  0  0  0  0  0  0
  151.3456  136.6717  154.1773 O   0  0  0  0  0  0  0  0  0  0  0  0
  147.7207  137.1775  157.3403 C   0  0  0  0  0  0  0  0  0  0  0  0
  147.4971  137.2028  158.6697 C   0  0  0  0  0  0  0  0  0  0  0  0
  145.7280  137.8714  159.2617 Br  0  0  0  0  0  0  0  0  0  0  0  0
  149.2376  135.5983  155.1027 H   0  0  0  0  0  0  0  0  0  0  0  0
  148.2005  139.1856  155.2719 H   0  0  0  0  0  0  0  0  0  0  0  0
  146.5930  139.5404  153.5888 H   0  0  0  0  0  0  0  0  0  0  0  0
  148.0356  139.8742  152.6473 H   0  0  0  0  0  0  0  0  0  0  0  0
  147.9526  137.4507  152.3045 H   0  0  0  0  0  0  0  0  0  0  0  0
  150.0812  138.4148  153.0063 H   0  0  0  0  0  0  0  0  0  0  0  0
  150.6881  139.7958  155.3704 H   0  0  0  0  0  0  0  0  0  0  0  0
  150.9544  137.8407  155.8220 H   0  0  0  0  0  0  0  0  0  0  0  0
  151.0664  136.6809  153.2750 H   0  0  0  0  0  0  0  0  0  0  0  0
  146.9290  137.5091  156.6872 H   0  0  0  0  0  0  0  0  0  0  0  0
  1  2  2  0  0  0  0
  2 17  1  0  0  0  0
  2  3  1  0  0  0  0
  3  4  1  0  0  0  0
  4  5  2  0  0  0  0
  4  6  1  0  0  0  0
  6  7  1  0  0  0  0
  6 16  1  0  0  0  0
  7 14  1  0  0  0  0
  7  8  1  0  0  0  0
  7 19  1  0  0  0  0
  8  9  1  0  0  0  0
  9 10  1  0  0  0  0
  9 12  1  0  0  0  0
  9 20  1  0  0  0  0
 10 11  1  0  0  0  0
 10 21  1  0  0  0  0
 10 22  1  0  0  0  0
 11 23  1  0  0  0  0
 12 13  1  0  0  0  0
 12 14  1  0  0  0  0
 12 24  1  0  0  0  0
 13 25  1  0  0  0  0
 14 15  1  0  0  0  0
 14 26  1  0  0  0  0
 15 27  1  0  0  0  0
 16 17  2  0  0  0  0
 16 28  1  0  0  0  0
 17 18  1  0  0  0  0
M  CHG  1   3  -1
M  END
> <s_m_source_file>
AV-unprocessed.smi

> <i_m_source_file_index>
35

> <i_lp_mmshare_version>
43012

> <i_f3d_flags>
0

> <s_epik_input>
Tz1jMVtuSF1jKD1PKW4oW2NIXWMxQnIpW0NAQEhdMk9bQ0BASF0oW0NIMl1bT0hdKVtDQEBIXShbT0hdKVtDQEhdMltPSF0=

> <s_epik_cmdline>
J2VwaWtfcHl0aG9uJywgJy1waCcsICc3LjAnLCAnLXRuJywgJzgnLCAnLW1hJywgJzIwMCcsICctbWV0YWxfYmluZGluZycsICctaW1hZScsICc8aW5maWxlLm1hZT4nLCAnLW9tYWUnLCAnPG91dGZpbGUubWFlPic=

> <r_epik_Ionization_Penalty>
1.06112

> <r_epik_Ionization_Penalty_Charging>
2.1796e-09

> <r_epik_Ionization_Penalty_Neutral>
1.06112

> <r_epik_State_Penalty>
1.11484

> <r_epik_Charging_Adjusted_Penalty>
1.11484

> <i_epik_Tot_Q>
-1

> <i_epik_Tot_abs_Q>
1

> <r_epik_Metal_State_Penalty>
0.0032876

> <b_epik_Metal_Only>
0

> <s_epik_Chemistry_Notes>
This compound contains an acetal/aminal-like group ( X-CH(R)-Y where X, Y are N, S, or O) that may be acid/base labile, releasing an aldehyde.

> <s_lp_Force_Field>
OPLS_2005

> <r_lp_Energy>
36.7062

> <b_lp_Chiralities_Consistent>
1

> <s_lp_Variant>
AV-unprocessed.smi:35-28

> <Gold.Version>
5.8.1

> <Gold.Id.Protein>
6NUR|6NUR_protein|mol2

> <Gold.PLP.Fitness>
41.2613

> <Gold.PLP.PLP>
-20.9936

> <Gold.PLP.part.hbond>
-6.5606

> <Gold.PLP.part.metal>
0.0000

> <Gold.PLP.part.buried>
-4.1923

> <Gold.PLP.part.nonpolar>
-10.8975

> <Gold.PLP.part.repulsive>
0.5998

> <Gold.PLP.ligand.clash>
0.0000

> <Gold.PLP.ligand.torsion>
0.3688

> <Gold.PLP.Chemscore.Hbond>
6.9920

> <Gold.PLP.Chemscore.CHOScore>
0.0000

> <Gold.PLP.Chemscore.Metal>
0.0000

> <Gold.Chemscore.Hbonds>
donor molecule, donor type, donor heavy atom, donor atom, acceptor molecule, acceptor atom, score
      L1  H    11    23       P1  7948  1.00
      L1  H    15    27       P1  7949  1.00
      P1  H  6896  6907       L1     3  2.00
      P1  H  6931  6943       L1     1  1.00
      P1  H  7989  7998       L1    13  1.00
      P1  H 10752 10764       L1    15  1.00

> <Gold.PLP.Chemscore.Internal.Correction>
0.0292

> <Gold.Rescore>
     Score         DG    S(hbond)    S(metal)    S(lipo)     H(rot)  DE(clash)    DE(int)     intcor
     13.71     -16.44       4.97        0.00      31.01       3.63       2.28       0.45       ----

> <Gold.Chemscore.Fitness>
13.7089

> <Gold.Chemscore.DG>
-16.4377

> <Gold.Chemscore.ZeroCoef>
-5.4800

> <Gold.Chemscore.Hbond>
4.9737

> <Gold.Chemscore.Metal>
0.0000

> <Gold.Chemscore.Lipo>
31.0127

> <Gold.Chemscore.Internal_Hbond>
0.0000

> <Gold.Chemscore.DEClash>
2.2810

> <Gold.Chemscore.DEInternal>
0.4477

> <Gold.Chemscore.Rot>
3.6261

> <Gold.Chemscore.Internal.Correction>
   9.000000E+99

> <Gold.Chemscore.Hbonds>
donor molecule, donor type, donor heavy atom, donor atom, acceptor molecule, acceptor atom, score
      L1  H    11    23       P1  7948  0.99
      L1  H    15    27       P1  7949  0.33
      P1  H  6896  6907       L1     3  0.25
      P1  H  6931  6943       L1     1  0.93
      P1  H  7989  7998       L1    13  0.88
      P1  H 10752 10764       L1    15  0.34

> <Gold.Chemscore.Hbond.Weighted>
-16.6120

> <Gold.Chemscore.Metal.Weighted>
-0.0000

> <Gold.Chemscore.Lipo.Weighted>
-3.6285

> <Gold.Chemscore.Internal_Hbond.Weighted>
0.0000

> <Gold.Chemscore.DEClash.Weighted>
2.2810

> <Gold.Chemscore.DEInternal.Weighted>
0.4477

> <Gold.Chemscore.Rot.Weighted>
9.2828

> <Gold.Chemscore.Internal.Correction.Weighted>
   9.000000E+99

> <Gold.Protein.RotatedTorsions>
[ 6907 6896 6895 6894 ] final  -58.54 input  -60.11 | X-H torsion
[ 7974 7965 7964 7962 ] final -145.70 input  175.53 | X-H torsion
[ 8008 7997 7996 7995 ] final   75.75 input   59.86 | X-H torsion
[ 10167 10162 10161 10158 ] final   15.42 input  -65.29 | X-H torsion
[ 10718 10713 10712 10709 ] final  -40.46 input   66.30 | X-H torsion
[ 10763 10752 10751 10750 ] final  -91.46 input  -60.55 | X-H torsion
[ 11005 11000 10999 10996 ] final -151.66 input  -57.11 | X-H torsion

> <Gold.Protein.ActiveResidues>
 VAL166  LYS551  ARG553  GLY616  TRP617  ASP618  TYR619  PRO620  LYS621  CYS622 
 ASP623  PHE694  ASN695  SER759  ASP760  ASP761  ALA762  ILE779  LEU786  VAL792 
 PHE793  MET794  SER795  GLU796  ALA797  LYS798  CYS799  TRP800  GLU811  SER814 

> <Gold.Protein.RotatedAtoms>
  150.7999  134.7085  159.6589 H   0  0  0  0  0  0  0  0  0  0  0  0  # atno 6907 bound_to 6896
  152.4114  134.6114  160.0036 H   0  0  0  0  0  0  0  0  0  0  0  0  # atno 6908 bound_to 6896
  151.6355  133.3292  159.3154 H   0  0  0  0  0  0  0  0  0  0  0  0  # atno 6909 bound_to 6896
  144.8210  140.5550  143.5579 H   0  0  0  0  0  0  0  0  0  0  0  0  # atno 7974 bound_to 7965
  155.8175  140.3471  155.5494 H   0  0  0  0  0  0  0  0  0  0  0  0  # atno 8008 bound_to 7997
  155.8377  140.0937  157.1774 H   0  0  0  0  0  0  0  0  0  0  0  0  # atno 8009 bound_to 7997
  154.4004  140.1400  156.3678 H   0  0  0  0  0  0  0  0  0  0  0  0  # atno 8010 bound_to 7997
  140.5868  143.8873  150.6838 H   0  0  0  0  0  0  0  0  0  0  0  0  # atno 10167 bound_to 10162
  156.2811  130.4217  149.8336 H   0  0  0  0  0  0  0  0  0  0  0  0  # atno 10718 bound_to 10713
  154.6763  135.5267  153.8204 H   0  0  0  0  0  0  0  0  0  0  0  0  # atno 10763 bound_to 10752
  153.0534  135.6541  154.0646 H   0  0  0  0  0  0  0  0  0  0  0  0  # atno 10764 bound_to 10752
  154.0538  135.2967  155.3316 H   0  0  0  0  0  0  0  0  0  0  0  0  # atno 10765 bound_to 10752
  140.7272  134.3661  157.5173 H   0  0  0  0  0  0  0  0  0  0  0  0  # atno 11005 bound_to 11000
  145.5106  139.1479  143.3607 LP  0  0  0  0  0  0  0  0  0  0  0  0  # atno 17320 bound_to 7965
  146.2515  140.5247  142.8891 LP  0  0  0  0  0  0  0  0  0  0  0  0  # atno 17321 bound_to 7965
  140.2386  143.3681  152.1505 LP  0  0  0  0  0  0  0  0  0  0  0  0  # atno 17342 bound_to 10162
  139.5203  144.7031  151.5436 LP  0  0  0  0  0  0  0  0  0  0  0  0  # atno 17343 bound_to 10162
  156.5783  130.8454  151.3376 LP  0  0  0  0  0  0  0  0  0  0  0  0  # atno 17370 bound_to 10713
  157.7314  130.9700  150.1881 LP  0  0  0  0  0  0  0  0  0  0  0  0  # atno 17371 bound_to 10713
  139.8834  134.8994  156.2767 LP  0  0  0  0  0  0  0  0  0  0  0  0  # atno 17394 bound_to 11000
  140.9952  133.7184  156.0875 LP  0  0  0  0  0  0  0  0  0  0  0  0  # atno 17395 bound_to 11000

$$$$
