AV-unprocessed.smi:157|AV-procd|sdf|1318|dock7
  -GOLD-   2262019 13D 1   1.00000     0.00000
 Structure written by MMmdl.
 36 38  0  0  0  0  0  0  0  0  2 V2000
  149.6411  138.4996  153.3917 O   0  0  0  0  0  0  0  0  0  0  0  0
  150.3865  138.8724  154.5312 C   0  0  0  0  0  0  0  0  0  0  0  0
  150.4407  140.4027  154.6538 C   0  0  2  0  0  0  0  0  0  0  0  0
  151.3771  140.7424  155.6745 O   0  0  0  0  0  0  0  0  0  0  0  0
  150.9203  141.8920  156.3017 C   0  0  2  0  0  0  0  0  0  0  0  0
  151.5459  141.9916  157.6532 N   0  0  0  0  0  0  0  0  0  0  0  0
  152.3552  141.0799  158.2325 C   0  0  0  0  0  0  0  0  0  0  0  0
  152.7676  141.4105  159.4448 N   0  3  0  0  0  0  0  0  0  0  0  0
  152.2023  142.6357  159.7296 C   0  0  0  0  0  0  0  0  0  0  0  0
  151.4375  142.9736  158.6100 C   0  0  0  0  0  0  0  0  0  0  0  0
  150.6407  144.1039  158.3724 N   0  0  0  0  0  0  0  0  0  0  0  0
  150.2585  144.9046  159.3133 C   0  0  0  0  0  0  0  0  0  0  0  0
  150.5950  144.8968  160.6568 N   0  0  0  0  0  0  0  0  0  0  0  0
  151.9593  144.7453  161.1308 C   0  0  0  0  0  0  0  0  0  0  0  0
  152.4893  143.3084  161.0358 C   0  0  1  0  0  0  0  0  0  0  0  0
  152.0048  142.5747  162.1416 O   0  0  0  0  0  0  0  0  0  0  0  0
  149.4154  141.7099  156.4123 C   0  0  0  0  0  0  0  0  0  0  0  0
  149.1022  141.0495  155.0796 C   0  0  1  0  0  0  0  0  0  0  0  0
  148.7095  142.0280  154.1378 O   0  0  0  0  0  0  0  0  0  0  0  0
  150.8026  140.8362  153.7192 H   0  0  0  0  0  0  0  0  0  0  0  0
  151.2218  142.7865  155.7542 H   0  0  0  0  0  0  0  0  0  0  0  0
  153.5725  143.3486  161.1547 H   0  0  0  0  0  0  0  0  0  0  0  0
  148.2970  140.3213  155.1845 H   0  0  0  0  0  0  0  0  0  0  0  0
  149.7705  139.1522  152.7200 H   0  0  0  0  0  0  0  0  0  0  0  0
  149.9473  138.4236  155.4227 H   0  0  0  0  0  0  0  0  0  0  0  0
  151.3939  138.4684  154.4279 H   0  0  0  0  0  0  0  0  0  0  0  0
  152.6390  140.1643  157.7449 H   0  0  0  0  0  0  0  0  0  0  0  0
  149.5805  145.7230  159.0665 H   0  0  0  0  0  0  0  0  0  0  0  0
  150.0407  145.4483  161.2963 H   0  0  0  0  0  0  0  0  0  0  0  0
  152.5892  145.3951  160.5213 H   0  0  0  0  0  0  0  0  0  0  0  0
  152.0372  145.1205  162.1518 H   0  0  0  0  0  0  0  0  0  0  0  0
  152.2963  142.9942  162.9364 H   0  0  0  0  0  0  0  0  0  0  0  0
  149.1941  141.0261  157.2333 H   0  0  0  0  0  0  0  0  0  0  0  0
  148.9066  142.6589  156.5879 H   0  0  0  0  0  0  0  0  0  0  0  0
  148.6258  142.8571  154.5843 H   0  0  0  0  0  0  0  0  0  0  0  0
  153.3816  140.8687  160.0396 H   0  0  0  0  0  0  0  0  0  0  0  0
  1  2  1  0  0  0  0
  1 24  1  0  0  0  0
  2  3  1  0  0  0  0
  2 25  1  0  0  0  0
  2 26  1  0  0  0  0
  3 20  1  0  0  0  0
  3 18  1  0  0  0  0
  3  4  1  0  0  0  0
  4  5  1  0  0  0  0
  5 21  1  0  0  0  0
  5  6  1  0  0  0  0
  5 17  1  0  0  0  0
  6 10  1  0  0  0  0
  6  7  1  0  0  0  0
  7  8  2  0  0  0  0
  7 27  1  0  0  0  0
  8  9  1  0  0  0  0
  8 36  1  0  0  0  0
  9 15  1  0  0  0  0
  9 10  2  0  0  0  0
 10 11  1  0  0  0  0
 11 12  2  0  0  0  0
 12 13  1  0  0  0  0
 12 28  1  0  0  0  0
 13 14  1  0  0  0  0
 13 29  1  0  0  0  0
 14 15  1  0  0  0  0
 14 30  1  0  0  0  0
 14 31  1  0  0  0  0
 15 22  1  0  0  0  0
 15 16  1  0  0  0  0
 16 32  1  0  0  0  0
 17 18  1  0  0  0  0
 17 33  1  0  0  0  0
 17 34  1  0  0  0  0
 18 23  1  0  0  0  0
 18 19  1  0  0  0  0
 19 35  1  0  0  0  0
M  CHG  1   8   1
M  END
> <s_m_source_file>
AV-unprocessed.smi

> <i_m_source_file_index>
157

> <i_lp_mmshare_version>
43012

> <i_f3d_flags>
0

> <s_epik_input>
W09IXVtDSDJdW0NASF0xT1tDQEhdKFtDSDJdW0NAQEhdMVtPSF0pbihbY0hdbjIpYyhjMjMpTj1bQ0hdW05IXVtDSDJdW0NASF0zW09IXQ==

> <s_epik_cmdline>
J2VwaWtfcHl0aG9uJywgJy1waCcsICc3LjAnLCAnLXRuJywgJzgnLCAnLW1hJywgJzIwMCcsICctbWV0YWxfYmluZGluZycsICctaW1hZScsICc8aW5maWxlLm1hZT4nLCAnLW9tYWUnLCAnPG91dGZpbGUubWFlPic=

> <r_epik_Ionization_Penalty>
1.68594

> <r_epik_Ionization_Penalty_Charging>
0

> <r_epik_Ionization_Penalty_Neutral>
1.68594

> <r_epik_State_Penalty>
1.79006

> <r_epik_Charging_Adjusted_Penalty>
1.79006

> <i_epik_Tot_Q>
1

> <i_epik_Tot_abs_Q>
1

> <r_epik_Metal_State_Penalty>
5.85324

> <b_epik_Metal_Only>
0

> <s_epik_Chemistry_Notes>
This compound has an imine and may undergo hydrolysis. This compound contains an acetal/aminal-like group ( X-CH(R)-Y where X, Y are N, S, or O) that may be acid/base labile, releasing an aldehyde.

> <s_lp_Force_Field>
OPLS_2005

> <r_lp_Energy>
52.5204

> <b_lp_Chiralities_Consistent>
1

> <s_lp_Variant>
AV-unprocessed.smi:157-28

> <Gold.Version>
5.8.1

> <Gold.Id.Protein>
6NUR|6NUR_protein|mol2

> <Gold.PLP.Fitness>
50.5693

> <Gold.PLP.PLP>
-38.3628

> <Gold.PLP.part.hbond>
-7.4215

> <Gold.PLP.part.metal>
0.0000

> <Gold.PLP.part.buried>
-3.7733

> <Gold.PLP.part.nonpolar>
-27.9050

> <Gold.PLP.part.repulsive>
0.4575

> <Gold.PLP.ligand.clash>
0.0000

> <Gold.PLP.ligand.torsion>
0.1382

> <Gold.PLP.Chemscore.Hbond>
3.1560

> <Gold.PLP.Chemscore.CHOScore>
0.9960

> <Gold.PLP.Chemscore.Metal>
0.0000

> <Gold.Chemscore.Hbonds>
donor molecule, donor type, donor heavy atom, donor atom, acceptor molecule, acceptor atom, score
      L1  H     1    24       P1  7957  1.00
      L1  H    19    35       P1  8028  0.71
      P1  H  6933  6945       L1    16  0.76
      P1  H  8011  8017       L1    19  0.29
      L1  C    12    28       P1  8029  1.00

> <Gold.PLP.Chemscore.Internal.Correction>
0.0270

> <Gold.Rescore>
     Score         DG    S(hbond)    S(metal)    S(lipo)     H(rot)  DE(clash)    DE(int)     intcor
     11.75     -13.68       3.10        0.00      61.69       3.67       1.89       0.04       ----

> <Gold.Chemscore.Fitness>
11.7544

> <Gold.Chemscore.DG>
-13.6776

> <Gold.Chemscore.ZeroCoef>
-5.4800

> <Gold.Chemscore.Hbond>
3.1031

> <Gold.Chemscore.Metal>
0.0000

> <Gold.Chemscore.Lipo>
61.6929

> <Gold.Chemscore.Internal_Hbond>
0.0000

> <Gold.Chemscore.DEClash>
1.8877

> <Gold.Chemscore.DEInternal>
0.0355

> <Gold.Chemscore.Rot>
3.6659

> <Gold.Chemscore.Internal.Correction>
   9.000000E+99

> <Gold.Chemscore.Hbonds>
donor molecule, donor type, donor heavy atom, donor atom, acceptor molecule, acceptor atom, score
      L1  H     1    24       P1  7957  0.94
      L1  H    19    35       P1  8028  0.71
      P1  H  6933  6945       L1    16  0.63
      P1  H  8011  8017       L1    19  0.16

> <Gold.Chemscore.Hbond.Weighted>
-10.3644

> <Gold.Chemscore.Metal.Weighted>
-0.0000

> <Gold.Chemscore.Lipo.Weighted>
-7.2181

> <Gold.Chemscore.Internal_Hbond.Weighted>
0.0000

> <Gold.Chemscore.DEClash.Weighted>
1.8877

> <Gold.Chemscore.DEInternal.Weighted>
0.0355

> <Gold.Chemscore.Rot.Weighted>
9.3848

> <Gold.Chemscore.Internal.Correction.Weighted>
   9.000000E+99

> <Gold.Protein.RotatedTorsions>
[ 6907 6896 6895 6894 ] final  -10.40 input  -60.11 | X-H torsion
[ 7974 7965 7964 7962 ] final   -6.88 input  175.53 | X-H torsion
[ 8008 7997 7996 7995 ] final -145.63 input   59.86 | X-H torsion
[ 10167 10162 10161 10158 ] final  -48.52 input  -65.29 | X-H torsion
[ 10718 10713 10712 10709 ] final -104.60 input   66.30 | X-H torsion
[ 10763 10752 10751 10750 ] final    8.95 input  -60.55 | X-H torsion
[ 11005 11000 10999 10996 ] final -125.78 input  -57.11 | X-H torsion

> <Gold.Protein.ActiveResidues>
 VAL166  LYS551  ARG553  GLY616  TRP617  ASP618  TYR619  PRO620  LYS621  CYS622 
 ASP623  PHE694  ASN695  SER759  ASP760  ASP761  ALA762  ILE779  LEU786  VAL792 
 PHE793  MET794  SER795  GLU796  ALA797  LYS798  CYS799  TRP800  GLU811  SER814 

> <Gold.Protein.RotatedAtoms>
  151.4025  135.0973  159.9559 H   0  0  0  0  0  0  0  0  0  0  0  0  # atno 6907 bound_to 6896
  152.5046  133.8875  159.7387 H   0  0  0  0  0  0  0  0  0  0  0  0  # atno 6908 bound_to 6896
  150.9352  133.6664  159.2830 H   0  0  0  0  0  0  0  0  0  0  0  0  # atno 6909 bound_to 6896
  146.2320  140.2236  142.8338 H   0  0  0  0  0  0  0  0  0  0  0  0  # atno 7974 bound_to 7965
  155.5462  140.0612  157.2859 H   0  0  0  0  0  0  0  0  0  0  0  0  # atno 8008 bound_to 7997
  154.4435  140.1910  156.0685 H   0  0  0  0  0  0  0  0  0  0  0  0  # atno 8009 bound_to 7997
  156.0549  140.3280  155.7397 H   0  0  0  0  0  0  0  0  0  0  0  0  # atno 8010 bound_to 7997
  140.6727  143.2736  151.4083 H   0  0  0  0  0  0  0  0  0  0  0  0  # atno 10167 bound_to 10162
  156.0311  130.5523  150.7420 H   0  0  0  0  0  0  0  0  0  0  0  0  # atno 10718 bound_to 10713
  153.2194  135.6879  153.8018 H   0  0  0  0  0  0  0  0  0  0  0  0  # atno 10763 bound_to 10752
  153.7223  135.3265  155.3270 H   0  0  0  0  0  0  0  0  0  0  0  0  # atno 10764 bound_to 10752
  154.8262  135.4616  154.1035 H   0  0  0  0  0  0  0  0  0  0  0  0  # atno 10765 bound_to 10752
  140.9735  134.0773  157.3844 H   0  0  0  0  0  0  0  0  0  0  0  0  # atno 11005 bound_to 11000
  144.9612  140.8277  143.5512 LP  0  0  0  0  0  0  0  0  0  0  0  0  # atno 17320 bound_to 7965
  145.2207  139.2160  143.5094 LP  0  0  0  0  0  0  0  0  0  0  0  0  # atno 17321 bound_to 7965
  139.6003  144.1309  152.2190 LP  0  0  0  0  0  0  0  0  0  0  0  0  # atno 17342 bound_to 10162
  140.0691  144.5793  150.7205 LP  0  0  0  0  0  0  0  0  0  0  0  0  # atno 17343 bound_to 10162
  157.4986  131.0917  151.0341 LP  0  0  0  0  0  0  0  0  0  0  0  0  # atno 17370 bound_to 10713
  157.0728  130.5871  149.5405 LP  0  0  0  0  0  0  0  0  0  0  0  0  # atno 17371 bound_to 10713
  139.8921  135.0123  156.6828 LP  0  0  0  0  0  0  0  0  0  0  0  0  # atno 17394 bound_to 11000
  140.7294  133.9072  155.8201 LP  0  0  0  0  0  0  0  0  0  0  0  0  # atno 17395 bound_to 11000

$$$$
