AV-unprocessed.smi:1047|AV-procd|sdf|4572|dock4
  -GOLD-   22720 3 23D 1   1.00000     0.00000
 Structure written by MMmdl.
 56 58  0  0  0  0  0  0  0  0  2 V2000
  147.3666  128.1499  151.3227 C   0  0  0  0  0  0  0  0  0  0  0  0
  147.9051  128.7099  152.6470 C   0  0  0  0  0  0  0  0  0  0  0  0
  148.1147  130.1786  152.6004 N   0  3  1  0  0  0  0  0  0  0  0  0
  146.8433  130.9253  152.4518 C   0  0  0  0  0  0  0  0  0  0  0  0
  147.1146  132.4354  152.3578 C   0  0  0  0  0  0  0  0  0  0  0  0
  147.8409  132.8582  153.5043 O   0  0  0  0  0  0  0  0  0  0  0  0
  149.1122  132.2242  153.6028 C   0  0  1  0  0  0  0  0  0  0  0  0
  149.8447  132.8170  154.8155 C   0  0  0  0  0  0  0  0  0  0  0  0
  150.4599  134.0946  154.4761 N   0  0  0  0  0  0  0  0  0  0  0  0
  150.6125  134.9949  155.6169 C   0  0  0  0  0  0  0  0  0  0  0  0
  150.7416  136.4644  155.1763 C   0  0  2  0  0  0  0  0  0  0  0  0
  151.5958  136.5423  154.0512 O   0  0  0  0  0  0  0  0  0  0  0  0
  151.1982  137.4164  156.3012 C   0  0  0  0  0  0  0  0  0  0  0  0
  151.0411  138.8137  155.9410 N   0  0  0  0  0  0  0  0  0  0  0  0
  150.5648  139.3036  154.7806 C   0  0  0  0  0  0  0  0  0  0  0  0
  150.5074  140.6265  154.6566 N   0  0  0  0  0  0  0  0  0  0  0  0
  151.0004  141.0434  155.8814 C   0  0  0  0  0  0  0  0  0  0  0  0
  151.1999  142.3433  156.3952 C   0  0  0  0  0  0  0  0  0  0  0  0
  151.7227  142.5373  157.6937 C   0  0  0  0  0  0  0  0  0  0  0  0
  151.9179  143.9528  158.2072 C   0  0  0  0  0  0  0  0  0  0  0  0
  152.0559  141.4192  158.4998 C   0  0  0  0  0  0  0  0  0  0  0  0
  152.6150  141.6032  159.8996 C   0  0  0  0  0  0  0  0  0  0  0  0
  151.8664  140.1137  158.0005 C   0  0  0  0  0  0  0  0  0  0  0  0
  151.3431  139.9337  156.7079 C   0  0  0  0  0  0  0  0  0  0  0  0
  148.8907  130.7059  153.7505 C   0  0  0  0  0  0  0  0  0  0  0  0
  147.1422  127.0875  151.4204 H   0  0  0  0  0  0  0  0  0  0  0  0
  148.0856  128.2536  150.5108 H   0  0  0  0  0  0  0  0  0  0  0  0
  146.4467  128.6548  151.0263 H   0  0  0  0  0  0  0  0  0  0  0  0
  147.1770  128.4799  153.4262 H   0  0  0  0  0  0  0  0  0  0  0  0
  148.8307  128.2068  152.9303 H   0  0  0  0  0  0  0  0  0  0  0  0
  146.3175  130.5918  151.5562 H   0  0  0  0  0  0  0  0  0  0  0  0
  146.1939  130.7148  153.3031 H   0  0  0  0  0  0  0  0  0  0  0  0
  147.6684  132.6779  151.4494 H   0  0  0  0  0  0  0  0  0  0  0  0
  146.1738  132.9841  152.3134 H   0  0  0  0  0  0  0  0  0  0  0  0
  149.6947  132.4163  152.6991 H   0  0  0  0  0  0  0  0  0  0  0  0
  149.1498  132.9337  155.6483 H   0  0  0  0  0  0  0  0  0  0  0  0
  150.6189  132.1245  155.1484 H   0  0  0  0  0  0  0  0  0  0  0  0
  149.9117  134.5577  153.7574 H   0  0  0  0  0  0  0  0  0  0  0  0
  149.7622  134.8921  156.2925 H   0  0  0  0  0  0  0  0  0  0  0  0
  151.4967  134.7131  156.1897 H   0  0  0  0  0  0  0  0  0  0  0  0
  149.7585  136.7915  154.8350 H   0  0  0  0  0  0  0  0  0  0  0  0
  151.2090  136.0444  153.3470 H   0  0  0  0  0  0  0  0  0  0  0  0
  150.6220  137.2287  157.2082 H   0  0  0  0  0  0  0  0  0  0  0  0
  152.2440  137.2446  156.5570 H   0  0  0  0  0  0  0  0  0  0  0  0
  150.2442  138.6522  153.9805 H   0  0  0  0  0  0  0  0  0  0  0  0
  150.9455  143.1946  155.7810 H   0  0  0  0  0  0  0  0  0  0  0  0
  151.2839  144.1336  159.0752 H   0  0  0  0  0  0  0  0  0  0  0  0
  151.6627  144.6911  157.4466 H   0  0  0  0  0  0  0  0  0  0  0  0
  152.9562  144.1166  158.4959 H   0  0  0  0  0  0  0  0  0  0  0  0
  152.7845  140.6441  160.3897 H   0  0  0  0  0  0  0  0  0  0  0  0
  151.9213  142.1750  160.5163 H   0  0  0  0  0  0  0  0  0  0  0  0
  153.5665  142.1341  159.8640 H   0  0  0  0  0  0  0  0  0  0  0  0
  152.1195  139.2534  158.6024 H   0  0  0  0  0  0  0  0  0  0  0  0
  148.3598  130.4914  154.6796 H   0  0  0  0  0  0  0  0  0  0  0  0
  149.8573  130.2069  153.8122 H   0  0  0  0  0  0  0  0  0  0  0  0
  148.6538  130.3684  151.7675 H   0  0  0  0  0  0  0  0  0  0  0  0
  1  2  1  0  0  0  0
  1 26  1  0  0  0  0
  1 27  1  0  0  0  0
  1 28  1  0  0  0  0
  2  3  1  0  0  0  0
  2 29  1  0  0  0  0
  2 30  1  0  0  0  0
  3 25  1  0  0  0  0
  3  4  1  0  0  0  0
  3 56  1  0  0  0  0
  4  5  1  0  0  0  0
  4 31  1  0  0  0  0
  4 32  1  0  0  0  0
  5  6  1  0  0  0  0
  5 33  1  0  0  0  0
  5 34  1  0  0  0  0
  6  7  1  0  0  0  0
  7  8  1  0  0  0  0
  7 25  1  0  0  0  0
  7 35  1  0  0  0  0
  8  9  1  0  0  0  0
  8 36  1  0  0  0  0
  8 37  1  0  0  0  0
  9 10  1  0  0  0  0
  9 38  1  0  0  0  0
 10 11  1  0  0  0  0
 10 39  1  0  0  0  0
 10 40  1  0  0  0  0
 11 12  1  0  0  0  0
 11 13  1  0  0  0  0
 11 41  1  0  0  0  0
 12 42  1  0  0  0  0
 13 14  1  0  0  0  0
 13 43  1  0  0  0  0
 13 44  1  0  0  0  0
 14 24  1  0  0  0  0
 14 15  1  0  0  0  0
 15 16  2  0  0  0  0
 15 45  1  0  0  0  0
 16 17  1  0  0  0  0
 17 24  2  0  0  0  0
 17 18  1  0  0  0  0
 18 19  2  0  0  0  0
 18 46  1  0  0  0  0
 19 20  1  0  0  0  0
 19 21  1  0  0  0  0
 20 47  1  0  0  0  0
 20 48  1  0  0  0  0
 20 49  1  0  0  0  0
 21 22  1  0  0  0  0
 21 23  2  0  0  0  0
 22 50  1  0  0  0  0
 22 51  1  0  0  0  0
 22 52  1  0  0  0  0
 23 24  1  0  0  0  0
 23 53  1  0  0  0  0
 25 54  1  0  0  0  0
 25 55  1  0  0  0  0
M  CHG  1   3   1
M  END
> <s_m_source_file>
AV-unprocessed.smi

> <i_m_source_file_index>
1047

> <i_lp_mmshare_version>
43012

> <i_f3d_flags>
0

> <s_epik_input>
W0NIM11bQ0gyXU4xW0NIMl1bQ0gyXU9bQ0BIXShbQ0gyXTEpW0NIMl1bTkhdW0NIMl1bQ0BIXShbT0hdKVtDSDJdbihbY0hdbjIpYyhjMjMpW2NIXWMoW0NIM10pYyhbY0hdMylbQ0gzXQ==

> <s_epik_cmdline>
J2VwaWtfcHl0aG9uJywgJy1waCcsICc3LjAnLCAnLXRuJywgJzgnLCAnLW1hJywgJzIwMCcsICctbWV0YWxfYmluZGluZycsICctaW1hZScsICc8aW5maWxlLm1hZT4nLCAnLW9tYWUnLCAnPG91dGZpbGUubWFlPic=

> <r_epik_Ionization_Penalty>
1.19246

> <r_epik_Ionization_Penalty_Charging>
0.210041

> <r_epik_Ionization_Penalty_Neutral>
0.982415

> <r_epik_State_Penalty>
1.57595

> <r_epik_Charging_Adjusted_Penalty>
1.78599

> <i_epik_Tot_Q>
1

> <i_epik_Tot_abs_Q>
1

> <r_epik_Metal_State_Penalty>
1.46172

> <b_epik_Metal_Only>
0

> <s_lp_Force_Field>
OPLS_2005

> <r_lp_Energy>
30.4626

> <b_lp_Chiralities_Consistent>
1

> <s_lp_Variant>
AV-unprocessed.smi:1047-13

> <Gold.Version>
5.8.1

> <Gold.Id.Protein>
6NUR|6NUR_protein|mol2

> <Gold.PLP.Fitness>
57.7333

> <Gold.PLP.PLP>
-48.0161

> <Gold.PLP.part.hbond>
-4.1570

> <Gold.PLP.part.metal>
0.0000

> <Gold.PLP.part.buried>
-5.4820

> <Gold.PLP.part.nonpolar>
-38.4391

> <Gold.PLP.part.repulsive>
0.2237

> <Gold.PLP.ligand.clash>
0.0000

> <Gold.PLP.ligand.torsion>
0.6747

> <Gold.PLP.Chemscore.Hbond>
3.6256

> <Gold.PLP.Chemscore.CHOScore>
0.0000

> <Gold.PLP.Chemscore.Metal>
0.0000

> <Gold.Chemscore.Hbonds>
donor molecule, donor type, donor heavy atom, donor atom, acceptor molecule, acceptor atom, score
      L1  H     3    56       P1 10747  1.00
      L1  H    12    42       P1  7949  0.82
      P1  H  7989  7998       L1    16  0.94
      P1  H 10752 10764       L1    12  1.00

> <Gold.PLP.Chemscore.Internal.Correction>
0.1897

> <Gold.Rescore>
     Score         DG    S(hbond)    S(metal)    S(lipo)     H(rot)  DE(clash)    DE(int)     intcor
     20.16     -22.48       2.90        0.00     120.02       2.62       0.60       1.72       ----

> <Gold.Chemscore.Fitness>
20.1552

> <Gold.Chemscore.DG>
-22.4826

> <Gold.Chemscore.ZeroCoef>
-5.4800

> <Gold.Chemscore.Hbond>
2.8951

> <Gold.Chemscore.Metal>
0.0000

> <Gold.Chemscore.Lipo>
120.0224

> <Gold.Chemscore.Internal_Hbond>
0.0000

> <Gold.Chemscore.DEClash>
0.6028

> <Gold.Chemscore.DEInternal>
1.7246

> <Gold.Chemscore.Rot>
2.6209

> <Gold.Chemscore.Internal.Correction>
   9.000000E+99

> <Gold.Chemscore.Hbonds>
donor molecule, donor type, donor heavy atom, donor atom, acceptor molecule, acceptor atom, score
      L1  H     3    56       P1 10747  0.58
      L1  H    12    42       P1  7949  0.36
      P1  H  7989  7998       L1    16  0.23
      P1  H 10752 10764       L1    12  0.17

> <Gold.Chemscore.Hbond.Weighted>
-9.6696

> <Gold.Chemscore.Metal.Weighted>
-0.0000

> <Gold.Chemscore.Lipo.Weighted>
-14.0426

> <Gold.Chemscore.Internal_Hbond.Weighted>
0.0000

> <Gold.Chemscore.DEClash.Weighted>
0.6028

> <Gold.Chemscore.DEInternal.Weighted>
1.7246

> <Gold.Chemscore.Rot.Weighted>
6.7096

> <Gold.Chemscore.Internal.Correction.Weighted>
   9.000000E+99

> <Gold.Protein.RotatedTorsions>
[ 6907 6896 6895 6894 ] final   -4.94 input  -60.11 | X-H torsion
[ 7974 7965 7964 7962 ] final -129.51 input  175.53 | X-H torsion
[ 8008 7997 7996 7995 ] final  -13.27 input   59.86 | X-H torsion
[ 10167 10162 10161 10158 ] final  141.74 input  -65.29 | X-H torsion
[ 10718 10713 10712 10709 ] final  -55.86 input   66.30 | X-H torsion
[ 10763 10752 10751 10750 ] final  -61.61 input  -60.55 | X-H torsion
[ 11005 11000 10999 10996 ] final  -44.17 input  -57.11 | X-H torsion

> <Gold.Protein.ActiveResidues>
 VAL166  LYS551  ARG553  GLY616  TRP617  ASP618  TYR619  PRO620  LYS621  CYS622 
 ASP623  PHE694  ASN695  SER759  ASP760  ASP761  ALA762  ILE779  LEU786  VAL792 
 PHE793  MET794  SER795  GLU796  ALA797  LYS798  CYS799  TRP800  GLU811  SER814 

> <Gold.Protein.RotatedAtoms>
  151.4895  135.1057  159.9799 H   0  0  0  0  0  0  0  0  0  0  0  0  # atno 6907 bound_to 6896
  152.4746  133.8106  159.7011 H   0  0  0  0  0  0  0  0  0  0  0  0  # atno 6908 bound_to 6896
  150.8777  133.7354  159.2968 H   0  0  0  0  0  0  0  0  0  0  0  0  # atno 6909 bound_to 6896
  144.9565  140.7401  143.4755 H   0  0  0  0  0  0  0  0  0  0  0  0  # atno 7974 bound_to 7965
  154.5306  140.2254  155.8811 H   0  0  0  0  0  0  0  0  0  0  0  0  # atno 8008 bound_to 7997
  156.1760  140.3111  155.9024 H   0  0  0  0  0  0  0  0  0  0  0  0  # atno 8009 bound_to 7997
  155.3458  140.0453  157.3036 H   0  0  0  0  0  0  0  0  0  0  0  0  # atno 8010 bound_to 7997
  139.5012  144.6152  151.6180 H   0  0  0  0  0  0  0  0  0  0  0  0  # atno 10167 bound_to 10162
  156.1334  130.4158  150.0228 H   0  0  0  0  0  0  0  0  0  0  0  0  # atno 10718 bound_to 10713
  154.2873  135.6260  153.5371 H   0  0  0  0  0  0  0  0  0  0  0  0  # atno 10763 bound_to 10752
  152.9857  135.5647  154.5429 H   0  0  0  0  0  0  0  0  0  0  0  0  # atno 10764 bound_to 10752
  154.5032  135.2873  155.1379 H   0  0  0  0  0  0  0  0  0  0  0  0  # atno 10765 bound_to 10752
  141.0432  133.6771  156.2835 H   0  0  0  0  0  0  0  0  0  0  0  0  # atno 11005 bound_to 11000
  145.2764  139.1935  143.4814 LP  0  0  0  0  0  0  0  0  0  0  0  0  # atno 17320 bound_to 7965
  146.3339  140.2719  142.8606 LP  0  0  0  0  0  0  0  0  0  0  0  0  # atno 17321 bound_to 7965
  140.5838  143.9899  150.6283 LP  0  0  0  0  0  0  0  0  0  0  0  0  # atno 17342 bound_to 10162
  140.3057  143.3231  152.0928 LP  0  0  0  0  0  0  0  0  0  0  0  0  # atno 17343 bound_to 10162
  156.8134  130.9333  151.3643 LP  0  0  0  0  0  0  0  0  0  0  0  0  # atno 17370 bound_to 10713
  157.6510  130.8884  149.9633 LP  0  0  0  0  0  0  0  0  0  0  0  0  # atno 17371 bound_to 10713
  140.6195  134.5376  157.5545 LP  0  0  0  0  0  0  0  0  0  0  0  0  # atno 17394 bound_to 11000
  139.9292  134.7997  156.0980 LP  0  0  0  0  0  0  0  0  0  0  0  0  # atno 17395 bound_to 11000

$$$$
