AV-unprocessed.smi:2295|AV-procd|sdf|9219|dock4
  -GOLD-   2272012433D 1   1.00000     0.00000
 Structure written by MMmdl.
 37 38  0  0  0  0  0  0  0  0  1 V2000
  146.5997  128.9829  152.9234 C   0  0  0  0  0  0  0  0  0  0  0  0
  146.4151  130.3916  152.3994 C   0  0  0  0  0  0  0  0  0  0  0  0
  145.3951  130.6928  151.4768 C   0  0  0  0  0  0  0  0  0  0  0  0
  145.2754  132.0232  151.0290 C   0  0  0  0  0  0  0  0  0  0  0  0
  144.2018  132.4178  150.0366 C   0  0  0  0  0  0  0  0  0  0  0  0
  146.0918  133.0161  151.4423 N   0  0  0  0  0  0  0  0  0  0  0  0
  147.0777  132.7378  152.3312 C   0  0  0  0  0  0  0  0  0  0  0  0
  147.9865  133.7082  152.8307 N   0  0  0  0  0  0  0  0  0  0  0  0
  148.7287  133.6546  153.9506 C   0  0  0  0  0  0  0  0  0  0  0  0
  148.7274  132.7293  154.7631 O   0  0  0  0  0  0  0  0  0  0  0  0
  149.4858  134.7539  154.0810 N   0  0  0  0  0  0  0  0  0  0  0  0
  150.4190  135.0177  155.1722 C   0  0  0  0  0  0  0  0  0  0  0  0
  150.6398  136.5254  155.3919 C   0  0  1  0  0  0  0  0  0  0  0  0
  151.4980  137.2051  154.3140 C   0  0  0  0  0  0  0  0  0  0  0  0
  151.1780  138.6991  154.3702 C   0  0  0  0  0  0  0  0  0  0  0  0
  149.6550  138.8100  154.4488 C   0  0  0  0  0  0  0  0  0  0  0  0
  149.0656  137.4265  155.4579 S   0  0  0  0  0  0  0  0  0  0  0  0
  147.2667  131.4291  152.8296 C   0  0  0  0  0  0  0  0  0  0  0  0
  145.8290  128.3131  152.5410 H   0  0  0  0  0  0  0  0  0  0  0  0
  146.5479  128.9750  154.0123 H   0  0  0  0  0  0  0  0  0  0  0  0
  147.5720  128.5924  152.6221 H   0  0  0  0  0  0  0  0  0  0  0  0
  144.7228  129.9251  151.1217 H   0  0  0  0  0  0  0  0  0  0  0  0
  143.5328  131.5835  149.8245 H   0  0  0  0  0  0  0  0  0  0  0  0
  144.6544  132.7394  149.0983 H   0  0  0  0  0  0  0  0  0  0  0  0
  143.6039  133.2403  150.4303 H   0  0  0  0  0  0  0  0  0  0  0  0
  148.0933  134.5348  152.2617 H   0  0  0  0  0  0  0  0  0  0  0  0
  149.4190  135.4617  153.3646 H   0  0  0  0  0  0  0  0  0  0  0  0
  150.0902  134.5392  156.0963 H   0  0  0  0  0  0  0  0  0  0  0  0
  151.3667  134.5470  154.9090 H   0  0  0  0  0  0  0  0  0  0  0  0
  151.1183  136.6808  156.3598 H   0  0  0  0  0  0  0  0  0  0  0  0
  152.5614  137.0146  154.4622 H   0  0  0  0  0  0  0  0  0  0  0  0
  151.2344  136.8191  153.3283 H   0  0  0  0  0  0  0  0  0  0  0  0
  151.6250  139.1341  155.2649 H   0  0  0  0  0  0  0  0  0  0  0  0
  151.5798  139.2363  153.5108 H   0  0  0  0  0  0  0  0  0  0  0  0
  149.3314  139.7655  154.8623 H   0  0  0  0  0  0  0  0  0  0  0  0
  149.2209  138.7134  153.4532 H   0  0  0  0  0  0  0  0  0  0  0  0
  148.0558  131.2198  153.5374 H   0  0  0  0  0  0  0  0  0  0  0  0
  1  2  1  0  0  0  0
  1 19  1  0  0  0  0
  1 20  1  0  0  0  0
  1 21  1  0  0  0  0
  2 18  1  0  0  0  0
  2  3  2  0  0  0  0
  3  4  1  0  0  0  0
  3 22  1  0  0  0  0
  4  5  1  0  0  0  0
  4  6  2  0  0  0  0
  5 23  1  0  0  0  0
  5 24  1  0  0  0  0
  5 25  1  0  0  0  0
  6  7  1  0  0  0  0
  7  8  1  0  0  0  0
  7 18  2  0  0  0  0
  8  9  1  0  0  0  0
  8 26  1  0  0  0  0
  9 10  2  0  0  0  0
  9 11  1  0  0  0  0
 11 12  1  0  0  0  0
 11 27  1  0  0  0  0
 12 13  1  0  0  0  0
 12 28  1  0  0  0  0
 12 29  1  0  0  0  0
 13 17  1  0  0  0  0
 13 14  1  0  0  0  0
 13 30  1  0  0  0  0
 14 15  1  0  0  0  0
 14 31  1  0  0  0  0
 14 32  1  0  0  0  0
 15 16  1  0  0  0  0
 15 33  1  0  0  0  0
 15 34  1  0  0  0  0
 16 17  1  0  0  0  0
 16 35  1  0  0  0  0
 16 36  1  0  0  0  0
 18 37  1  0  0  0  0
M  END
> <s_m_source_file>
AV-unprocessed.smi

> <i_m_source_file_index>
2295

> <i_lp_mmshare_version>
43012

> <i_f3d_flags>
0

> <s_epik_input>
W0NIM11jMVtjSF1jKFtDSDNdKW5jKFtjSF0xKVtOSF1DKD1PKVtOSF1bQ0gyXVtDQEBIXTJbQ0gyXVtDSDJdW0NIMl1TMg==

> <s_epik_cmdline>
J2VwaWtfcHl0aG9uJywgJy1waCcsICc3LjAnLCAnLXRuJywgJzgnLCAnLW1hJywgJzIwMCcsICctbWV0YWxfYmluZGluZycsICctaW1hZScsICc8aW5maWxlLm1hZT4nLCAnLW9tYWUnLCAnPG91dGZpbGUubWFlPic=

> <r_lp_tautomer_probability>
1

> <r_epik_Ionization_Penalty>
0.000247769

> <r_epik_Ionization_Penalty_Charging>
0

> <r_epik_Ionization_Penalty_Neutral>
0.000247769

> <r_epik_State_Penalty>
-0

> <r_epik_Charging_Adjusted_Penalty>
0

> <i_epik_Tot_Q>
0

> <i_epik_Tot_abs_Q>
0

> <r_epik_Metal_State_Penalty>
-0

> <b_epik_Metal_Only>
0

> <s_lp_Force_Field>
OPLS_2005

> <r_lp_Energy>
14.3156

> <b_lp_Chiralities_Consistent>
1

> <s_lp_Variant>
AV-unprocessed.smi:2295-2

> <Gold.Version>
5.8.1

> <Gold.Id.Protein>
6NUR|6NUR_protein|mol2

> <Gold.PLP.Fitness>
38.8619

> <Gold.PLP.PLP>
-33.5593

> <Gold.PLP.part.hbond>
-2.0000

> <Gold.PLP.part.metal>
0.0000

> <Gold.PLP.part.buried>
-3.6930

> <Gold.PLP.part.nonpolar>
-27.8132

> <Gold.PLP.part.repulsive>
0.1913

> <Gold.PLP.ligand.clash>
0.0000

> <Gold.PLP.ligand.torsion>
0.3493

> <Gold.PLP.Chemscore.Hbond>
2.0000

> <Gold.PLP.Chemscore.CHOScore>
0.0000

> <Gold.PLP.Chemscore.Metal>
0.0000

> <Gold.Chemscore.Hbonds>
donor molecule, donor type, donor heavy atom, donor atom, acceptor molecule, acceptor atom, score
      L1  H     8    26       P1  7948  0.95
      L1  H    11    27       P1  7948  0.85

> <Gold.PLP.Chemscore.Internal.Correction>
0.0012

> <Gold.Rescore>
     Score         DG    S(hbond)    S(metal)    S(lipo)     H(rot)  DE(clash)    DE(int)     intcor
     15.68     -17.55       1.64        0.00      81.82       1.17       0.06       1.81       ----

> <Gold.Chemscore.Fitness>
15.6779

> <Gold.Chemscore.DG>
-17.5457

> <Gold.Chemscore.ZeroCoef>
-5.4800

> <Gold.Chemscore.Hbond>
1.6437

> <Gold.Chemscore.Metal>
0.0000

> <Gold.Chemscore.Lipo>
81.8218

> <Gold.Chemscore.Internal_Hbond>
0.0000

> <Gold.Chemscore.DEClash>
0.0605

> <Gold.Chemscore.DEInternal>
1.8073

> <Gold.Chemscore.Rot>
1.1709

> <Gold.Chemscore.Internal.Correction>
   9.000000E+99

> <Gold.Chemscore.Hbonds>
donor molecule, donor type, donor heavy atom, donor atom, acceptor molecule, acceptor atom, score
      L1  H     8    26       P1  7948  0.21
      L1  H    11    27       P1  7948  0.15

> <Gold.Chemscore.Hbond.Weighted>
-5.4901

> <Gold.Chemscore.Metal.Weighted>
-0.0000

> <Gold.Chemscore.Lipo.Weighted>
-9.5732

> <Gold.Chemscore.Internal_Hbond.Weighted>
0.0000

> <Gold.Chemscore.DEClash.Weighted>
0.0605

> <Gold.Chemscore.DEInternal.Weighted>
1.8073

> <Gold.Chemscore.Rot.Weighted>
2.9975

> <Gold.Chemscore.Internal.Correction.Weighted>
   9.000000E+99

> <Gold.Protein.RotatedTorsions>
[ 6907 6896 6895 6894 ] final -138.40 input  -60.11 | X-H torsion
[ 7974 7965 7964 7962 ] final   -2.87 input  175.53 | X-H torsion
[ 8008 7997 7996 7995 ] final   97.93 input   59.86 | X-H torsion
[ 10167 10162 10161 10158 ] final    5.02 input  -65.29 | X-H torsion
[ 10718 10713 10712 10709 ] final  -34.15 input   66.30 | X-H torsion
[ 10763 10752 10751 10750 ] final   12.82 input  -60.55 | X-H torsion
[ 11005 11000 10999 10996 ] final  -36.83 input  -57.11 | X-H torsion

> <Gold.Protein.ActiveResidues>
 VAL166  LYS551  ARG553  GLY616  TRP617  ASP618  TYR619  PRO620  LYS621  CYS622 
 ASP623  PHE694  ASN695  SER759  ASP760  ASP761  ALA762  ILE779  LEU786  VAL792 
 PHE793  MET794  SER795  GLU796  ALA797  LYS798  CYS799  TRP800  GLU811  SER814 

> <Gold.Protein.RotatedAtoms>
  151.0346  133.5760  159.2657 H   0  0  0  0  0  0  0  0  0  0  0  0  # atno 6907 bound_to 6896
  151.2829  135.0718  159.9186 H   0  0  0  0  0  0  0  0  0  0  0  0  # atno 6908 bound_to 6896
  152.5352  134.0057  159.7969 H   0  0  0  0  0  0  0  0  0  0  0  0  # atno 6909 bound_to 6896
  146.2398  140.1635  142.8332 H   0  0  0  0  0  0  0  0  0  0  0  0  # atno 7974 bound_to 7965
  156.0952  140.3251  155.7868 H   0  0  0  0  0  0  0  0  0  0  0  0  # atno 8008 bound_to 7997
  155.4929  140.0563  157.2968 H   0  0  0  0  0  0  0  0  0  0  0  0  # atno 8009 bound_to 7997
  154.4662  140.1990  156.0128 H   0  0  0  0  0  0  0  0  0  0  0  0  # atno 8010 bound_to 7997
  140.6504  143.7559  150.7565 H   0  0  0  0  0  0  0  0  0  0  0  0  # atno 10167 bound_to 10162
  156.3541  130.4313  149.7679 H   0  0  0  0  0  0  0  0  0  0  0  0  # atno 10718 bound_to 10713
  153.1783  135.6823  153.8513 H   0  0  0  0  0  0  0  0  0  0  0  0  # atno 10763 bound_to 10752
  153.7853  135.3176  155.3372 H   0  0  0  0  0  0  0  0  0  0  0  0  # atno 10764 bound_to 10752
  154.8043  135.4758  154.0448 H   0  0  0  0  0  0  0  0  0  0  0  0  # atno 10765 bound_to 10752
  140.9905  133.7007  156.1842 H   0  0  0  0  0  0  0  0  0  0  0  0  # atno 11005 bound_to 11000
  145.0069  140.8681  143.5247 LP  0  0  0  0  0  0  0  0  0  0  0  0  # atno 17320 bound_to 7965
  145.1663  139.2429  143.5365 LP  0  0  0  0  0  0  0  0  0  0  0  0  # atno 17321 bound_to 7965
  140.1209  143.4613  152.2314 LP  0  0  0  0  0  0  0  0  0  0  0  0  # atno 17342 bound_to 10162
  139.5718  144.7467  151.3870 LP  0  0  0  0  0  0  0  0  0  0  0  0  # atno 17343 bound_to 10162
  156.4869  130.8067  151.3078 LP  0  0  0  0  0  0  0  0  0  0  0  0  # atno 17370 bound_to 10713
  157.7465  130.9988  150.2865 LP  0  0  0  0  0  0  0  0  0  0  0  0  # atno 17371 bound_to 10713
  140.7047  134.4526  157.5584 LP  0  0  0  0  0  0  0  0  0  0  0  0  # atno 17394 bound_to 11000
  139.8990  134.8601  156.1978 LP  0  0  0  0  0  0  0  0  0  0  0  0  # atno 17395 bound_to 11000

$$$$
