AV-unprocessed.smi:569|AV-procd|sdf|2960|dock3
  -GOLD-   2262023463D 1   1.00000     0.00000
 Structure written by MMmdl.
 37 38  0  0  0  0  0  0  0  0  1 V2000
  151.2143  130.9049  155.6589 C   0  0  0  0  0  0  0  0  0  0  0  0
  150.4822  132.1343  155.2426 C   0  0  0  0  0  0  0  0  0  0  0  0
  150.4804  133.2666  155.9503 N   0  0  0  0  0  0  0  0  0  0  0  0
  149.7211  134.2769  155.3512 C   0  0  0  0  0  0  0  0  0  0  0  0
  149.6225  135.6278  156.0013 C   0  0  0  0  0  0  0  0  0  0  0  0
  150.4315  136.6511  155.2030 C   0  0  0  0  0  0  0  0  0  0  0  0
  151.5075  136.3325  154.6973 O   0  0  0  0  0  0  0  0  0  0  0  0
  149.8894  137.8729  155.0860 N   0  0  0  0  0  0  0  0  0  0  0  0
  150.4172  138.9709  154.2803 C   0  0  2  0  0  0  0  0  0  0  0  0
  151.8169  139.3673  154.7867 C   0  0  0  0  0  0  0  0  0  0  0  0
  151.7660  140.0270  156.1775 C   0  0  0  0  0  0  0  0  0  0  0  0
  150.8167  141.2409  156.2005 C   0  0  2  0  0  0  0  0  0  0  0  0
  150.7556  141.8771  157.5964 C   0  0  0  0  0  0  0  0  0  0  0  0
  149.4133  140.8432  155.7034 C   0  0  0  0  0  0  0  0  0  0  0  0
  149.4689  140.1885  154.3113 C   0  0  0  0  0  0  0  0  0  0  0  0
  149.1328  133.8824  154.1739 C   0  0  0  0  0  0  0  0  0  0  0  0
  149.5281  132.2355  153.7681 S   0  0  0  0  0  0  0  0  0  0  0  0
  152.0162  131.1547  156.3541 H   0  0  0  0  0  0  0  0  0  0  0  0
  151.6492  130.4144  154.7879 H   0  0  0  0  0  0  0  0  0  0  0  0
  150.5296  130.2115  156.1471 H   0  0  0  0  0  0  0  0  0  0  0  0
  148.5835  135.9545  156.0565 H   0  0  0  0  0  0  0  0  0  0  0  0
  149.9907  135.5946  157.0279 H   0  0  0  0  0  0  0  0  0  0  0  0
  149.0063  138.0384  155.5461 H   0  0  0  0  0  0  0  0  0  0  0  0
  150.5136  138.6235  153.2500 H   0  0  0  0  0  0  0  0  0  0  0  0
  152.4701  138.4942  154.8114 H   0  0  0  0  0  0  0  0  0  0  0  0
  152.2691  140.0633  154.0790 H   0  0  0  0  0  0  0  0  0  0  0  0
  151.4457  139.2947  156.9199 H   0  0  0  0  0  0  0  0  0  0  0  0
  152.7705  140.3355  156.4689 H   0  0  0  0  0  0  0  0  0  0  0  0
  151.2149  141.9903  155.5149 H   0  0  0  0  0  0  0  0  0  0  0  0
  150.3626  141.1767  158.3341 H   0  0  0  0  0  0  0  0  0  0  0  0
  150.1131  142.7580  157.5982 H   0  0  0  0  0  0  0  0  0  0  0  0
  151.7455  142.1910  157.9289 H   0  0  0  0  0  0  0  0  0  0  0  0
  148.9486  140.1575  156.4135 H   0  0  0  0  0  0  0  0  0  0  0  0
  148.7698  141.7227  155.6642 H   0  0  0  0  0  0  0  0  0  0  0  0
  149.8114  140.9262  153.5847 H   0  0  0  0  0  0  0  0  0  0  0  0
  148.4653  139.9010  153.9957 H   0  0  0  0  0  0  0  0  0  0  0  0
  148.5025  134.4631  153.5171 H   0  0  0  0  0  0  0  0  0  0  0  0
  1  2  1  0  0  0  0
  1 18  1  0  0  0  0
  1 19  1  0  0  0  0
  1 20  1  0  0  0  0
  2 17  1  0  0  0  0
  2  3  2  0  0  0  0
  3  4  1  0  0  0  0
  4  5  1  0  0  0  0
  4 16  2  0  0  0  0
  5  6  1  0  0  0  0
  5 21  1  0  0  0  0
  5 22  1  0  0  0  0
  6  7  2  0  0  0  0
  6  8  1  0  0  0  0
  8  9  1  0  0  0  0
  8 23  1  0  0  0  0
  9 15  1  0  0  0  0
  9 10  1  0  0  0  0
  9 24  1  0  0  0  0
 10 11  1  0  0  0  0
 10 25  1  0  0  0  0
 10 26  1  0  0  0  0
 11 12  1  0  0  0  0
 11 27  1  0  0  0  0
 11 28  1  0  0  0  0
 12 13  1  0  0  0  0
 12 14  1  0  0  0  0
 12 29  1  0  0  0  0
 13 30  1  0  0  0  0
 13 31  1  0  0  0  0
 13 32  1  0  0  0  0
 14 15  1  0  0  0  0
 14 33  1  0  0  0  0
 14 34  1  0  0  0  0
 15 35  1  0  0  0  0
 15 36  1  0  0  0  0
 16 17  1  0  0  0  0
 16 37  1  0  0  0  0
M  END
> <s_m_source_file>
AV-unprocessed.smi

> <i_m_source_file_index>
569

> <i_lp_mmshare_version>
43012

> <i_f3d_flags>
0

> <s_epik_input>
W0NIM11jMW5jKFtjSF1zMSlbQ0gyXUMoPU8pW05IXVtDQEBIXTJbQ0gyXVtDSDJdW0NAQEhdKFtDSDNdKVtDSDJdW0NIMl0y

> <s_epik_cmdline>
J2VwaWtfcHl0aG9uJywgJy1waCcsICc3LjAnLCAnLXRuJywgJzgnLCAnLW1hJywgJzIwMCcsICctbWV0YWxfYmluZGluZycsICctaW1hZScsICc8aW5maWxlLm1hZT4nLCAnLW9tYWUnLCAnPG91dGZpbGUubWFlPic=

> <r_lp_tautomer_probability>
1

> <r_epik_Ionization_Penalty>
6.63234e-05

> <r_epik_Ionization_Penalty_Charging>
0

> <r_epik_Ionization_Penalty_Neutral>
6.63234e-05

> <r_epik_State_Penalty>
-0

> <r_epik_Charging_Adjusted_Penalty>
0

> <i_epik_Tot_Q>
0

> <i_epik_Tot_abs_Q>
0

> <r_epik_Metal_State_Penalty>
-0

> <b_epik_Metal_Only>
0

> <s_lp_Force_Field>
OPLS_2005

> <r_lp_Energy>
5.61603

> <b_lp_Chiralities_Consistent>
1

> <s_lp_Variant>
AV-unprocessed.smi:569-2

> <Gold.Version>
5.8.1

> <Gold.Id.Protein>
6NUR|6NUR_protein|mol2

> <Gold.PLP.Fitness>
37.2981

> <Gold.PLP.PLP>
-32.1912

> <Gold.PLP.part.hbond>
-1.0000

> <Gold.PLP.part.metal>
0.0000

> <Gold.PLP.part.buried>
-1.2772

> <Gold.PLP.part.nonpolar>
-29.3093

> <Gold.PLP.part.repulsive>
0.1749

> <Gold.PLP.ligand.clash>
0.0000

> <Gold.PLP.ligand.torsion>
0.4471

> <Gold.PLP.Chemscore.Hbond>
1.0000

> <Gold.PLP.Chemscore.CHOScore>
0.9990

> <Gold.PLP.Chemscore.Metal>
0.0000

> <Gold.Chemscore.Hbonds>
donor molecule, donor type, donor heavy atom, donor atom, acceptor molecule, acceptor atom, score
      P1  H 10752 10763       L1     7  1.00
      L1  C    16    37       P1  7948  1.00

> <Gold.PLP.Chemscore.Internal.Correction>
0.0042

> <Gold.Rescore>
     Score         DG    S(hbond)    S(metal)    S(lipo)     H(rot)  DE(clash)    DE(int)     intcor
     13.95     -15.07       0.99        0.00      81.33       1.26       0.62       0.49       ----

> <Gold.Chemscore.Fitness>
13.9515

> <Gold.Chemscore.DG>
-15.0684

> <Gold.Chemscore.ZeroCoef>
-5.4800

> <Gold.Chemscore.Hbond>
0.9890

> <Gold.Chemscore.Metal>
0.0000

> <Gold.Chemscore.Lipo>
81.3305

> <Gold.Chemscore.Internal_Hbond>
0.0000

> <Gold.Chemscore.DEClash>
0.6223

> <Gold.Chemscore.DEInternal>
0.4946

> <Gold.Chemscore.Rot>
1.2620

> <Gold.Chemscore.Internal.Correction>
   9.000000E+99

> <Gold.Chemscore.Hbonds>
donor molecule, donor type, donor heavy atom, donor atom, acceptor molecule, acceptor atom, score
      P1  H 10752 10763       L1     7  0.99

> <Gold.Chemscore.Hbond.Weighted>
-3.3033

> <Gold.Chemscore.Metal.Weighted>
-0.0000

> <Gold.Chemscore.Lipo.Weighted>
-9.5157

> <Gold.Chemscore.Internal_Hbond.Weighted>
0.0000

> <Gold.Chemscore.DEClash.Weighted>
0.6223

> <Gold.Chemscore.DEInternal.Weighted>
0.4946

> <Gold.Chemscore.Rot.Weighted>
3.2306

> <Gold.Chemscore.Internal.Correction.Weighted>
   9.000000E+99

> <Gold.Protein.RotatedTorsions>
[ 6907 6896 6895 6894 ] final -123.51 input  -60.11 | X-H torsion
[ 7974 7965 7964 7962 ] final  105.48 input  175.53 | X-H torsion
[ 8008 7997 7996 7995 ] final   25.66 input   59.86 | X-H torsion
[ 10167 10162 10161 10158 ] final   83.89 input  -65.29 | X-H torsion
[ 10718 10713 10712 10709 ] final -107.87 input   66.30 | X-H torsion
[ 10763 10752 10751 10750 ] final   37.85 input  -60.55 | X-H torsion
[ 11005 11000 10999 10996 ] final  -52.48 input  -57.11 | X-H torsion

> <Gold.Protein.ActiveResidues>
 VAL166  LYS551  ARG553  GLY616  TRP617  ASP618  TYR619  PRO620  LYS621  CYS622 
 ASP623  PHE694  ASN695  SER759  ASP760  ASP761  ALA762  ILE779  LEU786  VAL792 
 PHE793  MET794  SER795  GLU796  ALA797  LYS798  CYS799  TRP800  GLU811  SER814 

> <Gold.Protein.RotatedAtoms>
  150.8678  133.7549  159.2970 H   0  0  0  0  0  0  0  0  0  0  0  0  # atno 6907 bound_to 6896
  151.5170  135.1065  159.9878 H   0  0  0  0  0  0  0  0  0  0  0  0  # atno 6908 bound_to 6896
  152.4674  133.7908  159.6956 H   0  0  0  0  0  0  0  0  0  0  0  0  # atno 6909 bound_to 6896
  145.3191  139.2518  143.3721 H   0  0  0  0  0  0  0  0  0  0  0  0  # atno 7974 bound_to 7965
  155.0152  140.3141  155.4814 H   0  0  0  0  0  0  0  0  0  0  0  0  # atno 8008 bound_to 7997
  156.2902  140.2207  156.5210 H   0  0  0  0  0  0  0  0  0  0  0  0  # atno 8009 bound_to 7997
  154.7499  140.0467  157.0872 H   0  0  0  0  0  0  0  0  0  0  0  0  # atno 8010 bound_to 7997
  139.9137  144.6256  150.8511 H   0  0  0  0  0  0  0  0  0  0  0  0  # atno 10167 bound_to 10162
  156.0457  130.5684  150.7881 H   0  0  0  0  0  0  0  0  0  0  0  0  # atno 10718 bound_to 10713
  153.0022  135.6266  154.2211 H   0  0  0  0  0  0  0  0  0  0  0  0  # atno 10763 bound_to 10752
  154.1954  135.2806  155.3010 H   0  0  0  0  0  0  0  0  0  0  0  0  # atno 10764 bound_to 10752
  154.5727  135.5672  153.7169 H   0  0  0  0  0  0  0  0  0  0  0  0  # atno 10765 bound_to 10752
  141.0927  133.6630  156.4031 H   0  0  0  0  0  0  0  0  0  0  0  0  # atno 11005 bound_to 11000
  146.3089  140.3745  142.8677 LP  0  0  0  0  0  0  0  0  0  0  0  0  # atno 17320 bound_to 7965
  144.8953  140.7575  143.5901 LP  0  0  0  0  0  0  0  0  0  0  0  0  # atno 17321 bound_to 7965
  140.7679  143.3347  151.2335 LP  0  0  0  0  0  0  0  0  0  0  0  0  # atno 17342 bound_to 10162
  139.6920  143.9675  152.2864 LP  0  0  0  0  0  0  0  0  0  0  0  0  # atno 17343 bound_to 10162
  157.5330  131.0937  150.9930 LP  0  0  0  0  0  0  0  0  0  0  0  0  # atno 17370 bound_to 10713
  157.0232  130.5682  149.5334 LP  0  0  0  0  0  0  0  0  0  0  0  0  # atno 17371 bound_to 10713
  140.5215  134.6300  157.5319 LP  0  0  0  0  0  0  0  0  0  0  0  0  # atno 17394 bound_to 11000
  139.9756  134.7221  155.9957 LP  0  0  0  0  0  0  0  0  0  0  0  0  # atno 17395 bound_to 11000

$$$$
