AV-unprocessed.smi:3141|AV-procd|sdf|11966|dock2
  -GOLD-   2272017363D 1   1.00000     0.00000
 Structure written by MMmdl.
 35 37  0  0  0  0  0  0  0  0  1 V2000
  147.9792  143.7186  160.8759 O   0  0  0  0  0  0  0  0  0  0  0  0
  147.9572  143.9966  159.6766 C   0  0  0  0  0  0  0  0  0  0  0  0
  146.8438  144.2826  158.9890 N   0  0  0  0  0  0  0  0  0  0  0  0
  145.5239  144.3139  159.5302 C   0  0  0  0  0  0  0  0  0  0  0  0
  145.1034  143.1704  160.4285 C   0  0  0  0  0  0  0  0  0  0  0  0
  144.5400  143.2744  159.0382 C   0  0  0  0  0  0  0  0  0  0  0  0
  149.0468  144.0446  158.8978 N   0  0  0  0  0  0  0  0  0  0  0  0
  150.4070  143.7613  159.3477 C   0  0  2  0  0  0  0  0  0  0  0  0
  150.9510  144.9308  160.1903 C   0  0  0  0  0  0  0  0  0  0  0  0
  152.0442  145.5927  159.3490 C   0  0  0  0  0  0  0  0  0  0  0  0
  152.6130  144.4527  158.5109 C   0  0  0  0  0  0  0  0  0  0  0  0
  151.3805  143.6134  158.1536 C   0  0  1  0  0  0  0  0  0  0  0  0
  151.6984  142.2307  157.8325 N   0  0  0  0  0  0  0  0  0  0  0  0
  152.3542  141.3192  158.6502 C   0  0  0  0  0  0  0  0  0  0  0  0
  152.4448  140.1437  157.9399 C   0  0  0  0  0  0  0  0  0  0  0  0
  151.8551  140.3054  156.6888 N   0  0  0  0  0  0  0  0  0  0  0  0
  151.4384  141.5647  156.6971 C   0  0  0  0  0  0  0  0  0  0  0  0
  146.9355  144.4971  158.0069 H   0  0  0  0  0  0  0  0  0  0  0  0
  145.1053  145.2902  159.7706 H   0  0  0  0  0  0  0  0  0  0  0  0
  145.8261  142.3795  160.6194 H   0  0  0  0  0  0  0  0  0  0  0  0
  144.4387  143.4030  161.2581 H   0  0  0  0  0  0  0  0  0  0  0  0
  143.4992  143.5765  158.9396 H   0  0  0  0  0  0  0  0  0  0  0  0
  144.8864  142.5517  158.3018 H   0  0  0  0  0  0  0  0  0  0  0  0
  148.9285  144.2826  157.9239 H   0  0  0  0  0  0  0  0  0  0  0  0
  150.3988  142.8658  159.9723 H   0  0  0  0  0  0  0  0  0  0  0  0
  150.1820  145.6431  160.4930 H   0  0  0  0  0  0  0  0  0  0  0  0
  151.3953  144.5352  161.1048 H   0  0  0  0  0  0  0  0  0  0  0  0
  151.6009  146.3439  158.6941 H   0  0  0  0  0  0  0  0  0  0  0  0
  152.8019  146.0861  159.9581 H   0  0  0  0  0  0  0  0  0  0  0  0
  153.1474  144.8075  157.6291 H   0  0  0  0  0  0  0  0  0  0  0  0
  153.3150  143.8779  159.1165 H   0  0  0  0  0  0  0  0  0  0  0  0
  150.9307  144.0658  157.2674 H   0  0  0  0  0  0  0  0  0  0  0  0
  152.6969  141.5761  159.6416 H   0  0  0  0  0  0  0  0  0  0  0  0
  152.8867  139.2022  158.2307 H   0  0  0  0  0  0  0  0  0  0  0  0
  150.9329  142.0147  155.8552 H   0  0  0  0  0  0  0  0  0  0  0  0
  1  2  2  0  0  0  0
  2  3  1  0  0  0  0
  2  7  1  0  0  0  0
  3  4  1  0  0  0  0
  3 18  1  0  0  0  0
  4  6  1  0  0  0  0
  4  5  1  0  0  0  0
  4 19  1  0  0  0  0
  5  6  1  0  0  0  0
  5 20  1  0  0  0  0
  5 21  1  0  0  0  0
  6 22  1  0  0  0  0
  6 23  1  0  0  0  0
  7  8  1  0  0  0  0
  7 24  1  0  0  0  0
  8 12  1  0  0  0  0
  8  9  1  0  0  0  0
  8 25  1  0  0  0  0
  9 10  1  0  0  0  0
  9 26  1  0  0  0  0
  9 27  1  0  0  0  0
 10 11  1  0  0  0  0
 10 28  1  0  0  0  0
 10 29  1  0  0  0  0
 11 12  1  0  0  0  0
 11 30  1  0  0  0  0
 11 31  1  0  0  0  0
 12 13  1  0  0  0  0
 12 32  1  0  0  0  0
 13 17  1  0  0  0  0
 13 14  1  0  0  0  0
 14 15  2  0  0  0  0
 14 33  1  0  0  0  0
 15 16  1  0  0  0  0
 15 34  1  0  0  0  0
 16 17  2  0  0  0  0
 17 35  1  0  0  0  0
M  END
> <s_m_source_file>
AV-unprocessed.smi

> <i_m_source_file_index>
3141

> <i_lp_mmshare_version>
43012

> <i_f3d_flags>
0

> <s_epik_input>
W0NIMl0xW0NIMl1bQ0hdMVtOSF1DKD1PKVtOSF1bQ0BASF0yW0NIMl1bQ0gyXVtDSDJdW0NASF0ybjNbY0hdW2NIXW5bY0hdMw==

> <s_epik_cmdline>
J2VwaWtfcHl0aG9uJywgJy1waCcsICc3LjAnLCAnLXRuJywgJzgnLCAnLW1hJywgJzIwMCcsICctbWV0YWxfYmluZGluZycsICctaW1hZScsICc8aW5maWxlLm1hZT4nLCAnLW9tYWUnLCAnPG91dGZpbGUubWFlPic=

> <r_lp_tautomer_probability>
1

> <r_epik_Ionization_Penalty>
0.728419

> <r_epik_Ionization_Penalty_Charging>
0.728357

> <r_epik_Ionization_Penalty_Neutral>
6.27871e-05

> <r_epik_State_Penalty>
0.753408

> <r_epik_Charging_Adjusted_Penalty>
1.48176

> <i_epik_Tot_Q>
0

> <i_epik_Tot_abs_Q>
0

> <r_epik_Metal_State_Penalty>
0.332413

> <b_epik_Metal_Only>
0

> <s_lp_Force_Field>
OPLS_2005

> <r_lp_Energy>
34.1677

> <b_lp_Chiralities_Consistent>
1

> <s_lp_Variant>
AV-unprocessed.smi:3141-5

> <Gold.Version>
5.8.1

> <Gold.Id.Protein>
6NUR|6NUR_protein|mol2

> <Gold.PLP.Fitness>
47.7386

> <Gold.PLP.PLP>
-36.6280

> <Gold.PLP.part.hbond>
-3.0000

> <Gold.PLP.part.metal>
0.0000

> <Gold.PLP.part.buried>
-5.9776

> <Gold.PLP.part.nonpolar>
-27.9772

> <Gold.PLP.part.repulsive>
0.4057

> <Gold.PLP.ligand.clash>
0.0000

> <Gold.PLP.ligand.torsion>
0.2732

> <Gold.PLP.Chemscore.Hbond>
2.8720

> <Gold.PLP.Chemscore.CHOScore>
0.9998

> <Gold.PLP.Chemscore.Metal>
0.0000

> <Gold.Chemscore.Hbonds>
donor molecule, donor type, donor heavy atom, donor atom, acceptor molecule, acceptor atom, score
      L1  H     3    18       P1  8029  0.54
      L1  H     7    24       P1  8029  0.28
      P1  H  6933  6944       L1     1  1.00

> <Gold.PLP.Chemscore.Internal.Correction>
0.0414

> <Gold.Rescore>
     Score         DG    S(hbond)    S(metal)    S(lipo)     H(rot)  DE(clash)    DE(int)     intcor
     20.04     -20.45       2.89        0.00      79.66       1.57       0.00       0.41       ----

> <Gold.Chemscore.Fitness>
20.0356

> <Gold.Chemscore.DG>
-20.4483

> <Gold.Chemscore.ZeroCoef>
-5.4800

> <Gold.Chemscore.Hbond>
2.8950

> <Gold.Chemscore.Metal>
0.0000

> <Gold.Chemscore.Lipo>
79.6559

> <Gold.Chemscore.Internal_Hbond>
0.0000

> <Gold.Chemscore.DEClash>
0.0015

> <Gold.Chemscore.DEInternal>
0.4112

> <Gold.Chemscore.Rot>
1.5705

> <Gold.Chemscore.Internal.Correction>
   9.000000E+99

> <Gold.Chemscore.Hbonds>
donor molecule, donor type, donor heavy atom, donor atom, acceptor molecule, acceptor atom, score
      L1  H     3    18       P1  8029  0.27
      L1  H     7    24       P1  8029  0.02
      P1  H  6933  6944       L1     1  0.96

> <Gold.Chemscore.Hbond.Weighted>
-9.6692

> <Gold.Chemscore.Metal.Weighted>
-0.0000

> <Gold.Chemscore.Lipo.Weighted>
-9.3197

> <Gold.Chemscore.Internal_Hbond.Weighted>
0.0000

> <Gold.Chemscore.DEClash.Weighted>
0.0015

> <Gold.Chemscore.DEInternal.Weighted>
0.4112

> <Gold.Chemscore.Rot.Weighted>
4.0206

> <Gold.Chemscore.Internal.Correction.Weighted>
   9.000000E+99

> <Gold.Protein.RotatedTorsions>
[ 6907 6896 6895 6894 ] final -176.08 input  -60.11 | X-H torsion
[ 7974 7965 7964 7962 ] final   71.00 input  175.53 | X-H torsion
[ 8008 7997 7996 7995 ] final    1.59 input   59.86 | X-H torsion
[ 10167 10162 10161 10158 ] final -130.17 input  -65.29 | X-H torsion
[ 10718 10713 10712 10709 ] final  130.59 input   66.30 | X-H torsion
[ 10763 10752 10751 10750 ] final  108.31 input  -60.55 | X-H torsion
[ 11005 11000 10999 10996 ] final  150.88 input  -57.11 | X-H torsion

> <Gold.Protein.ActiveResidues>
 VAL166  LYS551  ARG553  GLY616  TRP617  ASP618  TYR619  PRO620  LYS621  CYS622 
 ASP623  PHE694  ASN695  SER759  ASP760  ASP761  ALA762  ILE779  LEU786  VAL792 
 PHE793  MET794  SER795  GLU796  ALA797  LYS798  CYS799  TRP800  GLU811  SER814 

> <Gold.Protein.RotatedAtoms>
  151.5989  133.3358  159.3042 H   0  0  0  0  0  0  0  0  0  0  0  0  # atno 6907 bound_to 6896
  150.8219  134.7434  159.6790 H   0  0  0  0  0  0  0  0  0  0  0  0  # atno 6908 bound_to 6896
  152.4311  134.5781  159.9991 H   0  0  0  0  0  0  0  0  0  0  0  0  # atno 6909 bound_to 6896
  145.7712  139.2844  143.1320 H   0  0  0  0  0  0  0  0  0  0  0  0  # atno 7974 bound_to 7965
  154.6815  140.2634  155.6903 H   0  0  0  0  0  0  0  0  0  0  0  0  # atno 8008 bound_to 7997
  156.2698  140.2809  156.1284 H   0  0  0  0  0  0  0  0  0  0  0  0  # atno 8009 bound_to 7997
  155.1024  140.0374  157.2691 H   0  0  0  0  0  0  0  0  0  0  0  0  # atno 8010 bound_to 7997
  139.9321  143.6260  152.2527 H   0  0  0  0  0  0  0  0  0  0  0  0  # atno 10167 bound_to 10162
  157.5048  131.1095  150.9377 H   0  0  0  0  0  0  0  0  0  0  0  0  # atno 10718 bound_to 10713
  153.4189  135.3816  155.2098 H   0  0  0  0  0  0  0  0  0  0  0  0  # atno 10763 bound_to 10752
  154.8743  135.3812  154.4408 H   0  0  0  0  0  0  0  0  0  0  0  0  # atno 10764 bound_to 10752
  153.4926  135.7088  153.5938 H   0  0  0  0  0  0  0  0  0  0  0  0  # atno 10765 bound_to 10752
  140.1170  134.8888  157.2018 H   0  0  0  0  0  0  0  0  0  0  0  0  # atno 11005 bound_to 11000
  146.0168  140.8385  142.9943 LP  0  0  0  0  0  0  0  0  0  0  0  0  # atno 17320 bound_to 7965
  144.6812  140.2570  143.7324 LP  0  0  0  0  0  0  0  0  0  0  0  0  # atno 17321 bound_to 7965
  139.6773  144.7658  151.1672 LP  0  0  0  0  0  0  0  0  0  0  0  0  # atno 17342 bound_to 10162
  140.7634  143.5776  150.8929 LP  0  0  0  0  0  0  0  0  0  0  0  0  # atno 17343 bound_to 10162
  157.0036  130.5609  149.5314 LP  0  0  0  0  0  0  0  0  0  0  0  0  # atno 17370 bound_to 10713
  156.0251  130.5345  150.8385 LP  0  0  0  0  0  0  0  0  0  0  0  0  # atno 17371 bound_to 10713
  140.3016  134.3126  155.7288 LP  0  0  0  0  0  0  0  0  0  0  0  0  # atno 17394 bound_to 11000
  141.2143  133.7595  156.9648 LP  0  0  0  0  0  0  0  0  0  0  0  0  # atno 17395 bound_to 11000

$$$$
