AV-unprocessed.smi:78|AV-procd|sdf|776|dock1
  -GOLD-   2262017133D 1   1.00000     0.00000
 Structure written by MMmdl.
 56 59  0  0  0  0  0  0  0  0  1 V2000
  152.0603  138.3312  154.6982 C   0  0  0  0  0  0  0  0  0  0  0  0
  151.0039  139.4009  155.0211 C   0  0  0  0  0  0  0  0  0  0  0  0
  151.1257  139.8497  156.4849 C   0  0  0  0  0  0  0  0  0  0  0  0
  149.5636  138.9231  154.7197 C   0  0  0  0  0  0  0  0  0  0  0  0
  148.4281  139.9055  155.1259 C   0  0  1  0  0  0  0  0  0  0  0  0
  148.6399  141.3560  154.6368 C   0  0  0  0  0  0  0  0  0  0  0  0
  149.7738  141.7929  154.4492 O   0  0  0  0  0  0  0  0  0  0  0  0
  147.5521  142.1234  154.4438 N   0  0  0  0  0  0  0  0  0  0  0  0
  146.1598  141.6982  154.6129 C   0  0  0  0  0  0  0  0  0  0  0  0
  146.0104  140.3073  155.2671 C   0  0  0  0  0  0  0  0  0  0  0  0
  147.0739  139.4055  154.8351 N   0  0  0  0  0  0  0  0  0  0  0  0
  146.7996  138.8254  153.6379 C   0  0  0  0  0  0  0  0  0  0  0  0
  147.0717  139.4692  152.4718 N   0  0  0  0  0  0  0  0  0  0  0  0
  146.7816  138.8916  151.3024 C   0  0  0  0  0  0  0  0  0  0  0  0
  146.2186  137.7029  151.0755 N   0  0  0  0  0  0  0  0  0  0  0  0
  145.9340  137.0591  152.2438 C   0  0  0  0  0  0  0  0  0  0  0  0
  146.1921  137.5443  153.5559 C   0  0  0  0  0  0  0  0  0  0  0  0
  145.7853  136.6095  154.4990 N   0  0  0  0  0  0  0  0  0  0  0  0
  145.3172  135.6230  153.7836 C   0  0  0  0  0  0  0  0  0  0  0  0
  145.3415  135.8213  152.4206 N   0  0  0  0  0  0  0  0  0  0  0  0
  144.9222  134.9016  151.4042 C   0  0  0  0  0  0  0  0  0  0  0  0
  144.2333  133.5853  151.7756 C   0  0  0  0  0  0  0  0  0  0  0  0
  144.8775  132.9140  150.5402 C   0  0  0  0  0  0  0  0  0  0  0  0
  145.3968  131.4721  150.7077 C   0  0  0  0  0  0  0  0  0  0  0  0
  146.4164  131.3706  151.6819 O   0  0  0  0  0  0  0  0  0  0  0  0
  144.0290  132.9451  149.2544 C   0  0  0  0  0  0  0  0  0  0  0  0
  142.8985  132.1030  149.3566 O   0  0  0  0  0  0  0  0  0  0  0  0
  145.9299  134.0435  150.6311 C   0  0  0  0  0  0  0  0  0  0  0  0
  151.8680  137.4062  155.2424 H   0  0  0  0  0  0  0  0  0  0  0  0
  153.0595  138.6733  154.9689 H   0  0  0  0  0  0  0  0  0  0  0  0
  152.0824  138.0966  153.6342 H   0  0  0  0  0  0  0  0  0  0  0  0
  151.2230  140.2752  154.4087 H   0  0  0  0  0  0  0  0  0  0  0  0
  150.9277  139.0246  157.1698 H   0  0  0  0  0  0  0  0  0  0  0  0
  150.4188  140.6484  156.7119 H   0  0  0  0  0  0  0  0  0  0  0  0
  152.1257  140.2278  156.6990 H   0  0  0  0  0  0  0  0  0  0  0  0
  149.4930  138.7206  153.6499 H   0  0  0  0  0  0  0  0  0  0  0  0
  149.4017  137.9571  155.1980 H   0  0  0  0  0  0  0  0  0  0  0  0
  148.4740  139.9935  156.2113 H   0  0  0  0  0  0  0  0  0  0  0  0
  147.7009  143.0733  154.1349 H   0  0  0  0  0  0  0  0  0  0  0  0
  145.6139  142.4485  155.1850 H   0  0  0  0  0  0  0  0  0  0  0  0
  145.7106  141.6786  153.6194 H   0  0  0  0  0  0  0  0  0  0  0  0
  146.0782  140.4062  156.3511 H   0  0  0  0  0  0  0  0  0  0  0  0
  145.0203  139.8938  155.0670 H   0  0  0  0  0  0  0  0  0  0  0  0
  147.0341  139.4654  150.4229 H   0  0  0  0  0  0  0  0  0  0  0  0
  144.9331  134.7211  154.2373 H   0  0  0  0  0  0  0  0  0  0  0  0
  144.3013  135.4788  150.7169 H   0  0  0  0  0  0  0  0  0  0  0  0
  144.5912  133.1870  152.7262 H   0  0  0  0  0  0  0  0  0  0  0  0
  143.1439  133.6306  151.7628 H   0  0  0  0  0  0  0  0  0  0  0  0
  144.5934  130.7972  151.0041 H   0  0  0  0  0  0  0  0  0  0  0  0
  145.7959  131.0919  149.7667 H   0  0  0  0  0  0  0  0  0  0  0  0
  147.2457  131.2732  151.2392 H   0  0  0  0  0  0  0  0  0  0  0  0
  143.6736  133.9524  149.0371 H   0  0  0  0  0  0  0  0  0  0  0  0
  144.6174  132.6375  148.3894 H   0  0  0  0  0  0  0  0  0  0  0  0
  142.1239  132.6432  149.3933 H   0  0  0  0  0  0  0  0  0  0  0  0
  146.2351  134.4635  149.6721 H   0  0  0  0  0  0  0  0  0  0  0  0
  146.8018  133.7838  151.2334 H   0  0  0  0  0  0  0  0  0  0  0  0
  1  2  1  0  0  0  0
  1 29  1  0  0  0  0
  1 30  1  0  0  0  0
  1 31  1  0  0  0  0
  2  3  1  0  0  0  0
  2  4  1  0  0  0  0
  2 32  1  0  0  0  0
  3 33  1  0  0  0  0
  3 34  1  0  0  0  0
  3 35  1  0  0  0  0
  4  5  1  0  0  0  0
  4 36  1  0  0  0  0
  4 37  1  0  0  0  0
  5 11  1  0  0  0  0
  5  6  1  0  0  0  0
  5 38  1  0  0  0  0
  6  7  2  0  0  0  0
  6  8  1  0  0  0  0
  8  9  1  0  0  0  0
  8 39  1  0  0  0  0
  9 10  1  0  0  0  0
  9 40  1  0  0  0  0
  9 41  1  0  0  0  0
 10 11  1  0  0  0  0
 10 42  1  0  0  0  0
 10 43  1  0  0  0  0
 11 12  1  0  0  0  0
 12 17  1  0  0  0  0
 12 13  2  0  0  0  0
 13 14  1  0  0  0  0
 14 15  2  0  0  0  0
 14 44  1  0  0  0  0
 15 16  1  0  0  0  0
 16 20  1  0  0  0  0
 16 17  2  0  0  0  0
 17 18  1  0  0  0  0
 18 19  2  0  0  0  0
 19 20  1  0  0  0  0
 19 45  1  0  0  0  0
 20 21  1  0  0  0  0
 21 28  1  0  0  0  0
 21 22  1  0  0  0  0
 21 46  1  0  0  0  0
 22 23  1  0  0  0  0
 22 47  1  0  0  0  0
 22 48  1  0  0  0  0
 23 24  1  0  0  0  0
 23 26  1  0  0  0  0
 23 28  1  0  0  0  0
 24 25  1  0  0  0  0
 24 49  1  0  0  0  0
 24 50  1  0  0  0  0
 25 51  1  0  0  0  0
 26 27  1  0  0  0  0
 26 52  1  0  0  0  0
 26 53  1  0  0  0  0
 27 54  1  0  0  0  0
 28 55  1  0  0  0  0
 28 56  1  0  0  0  0
M  END
> <s_m_source_file>
AV-unprocessed.smi

> <i_m_source_file_index>
78

> <i_lp_mmshare_version>
43012

> <i_f3d_flags>
0

> <s_epik_input>
W0NIM11bQ0hdKFtDSDNdKVtDSDJdW0NAQEhdMUMoPU8pW05IXVtDSDJdW0NIMl1OMWMobltjSF1uMiljKGMyMyluW2NIXW4zW0NIXShbQ0gyXTQpW0NIMl1DNChbQ0gyXVtPSF0pW0NIMl1bT0hd

> <s_epik_cmdline>
J2VwaWtfcHl0aG9uJywgJy1waCcsICc3LjAnLCAnLXRuJywgJzgnLCAnLW1hJywgJzIwMCcsICctbWV0YWxfYmluZGluZycsICctaW1hZScsICc8aW5maWxlLm1hZT4nLCAnLW9tYWUnLCAnPG91dGZpbGUubWFlPic=

> <r_lp_tautomer_probability>
1

> <r_epik_Ionization_Penalty>
0.000550083

> <r_epik_Ionization_Penalty_Charging>
0

> <r_epik_Ionization_Penalty_Neutral>
0.000550083

> <r_epik_State_Penalty>
0.000250415

> <r_epik_Charging_Adjusted_Penalty>
0.000250415

> <i_epik_Tot_Q>
0

> <i_epik_Tot_abs_Q>
0

> <r_epik_Metal_State_Penalty>
-0

> <b_epik_Metal_Only>
0

> <s_lp_Force_Field>
OPLS_2005

> <r_lp_Energy>
48.678

> <b_lp_Chiralities_Consistent>
1

> <s_lp_Variant>
AV-unprocessed.smi:78-2

> <Gold.Version>
5.8.1

> <Gold.Id.Protein>
6NUR|6NUR_protein|mol2

> <Gold.PLP.Fitness>
52.0699

> <Gold.PLP.PLP>
-42.9013

> <Gold.PLP.part.hbond>
-6.8967

> <Gold.PLP.part.metal>
0.0000

> <Gold.PLP.part.buried>
-1.2178

> <Gold.PLP.part.nonpolar>
-37.7044

> <Gold.PLP.part.repulsive>
4.7005

> <Gold.PLP.ligand.clash>
0.0044

> <Gold.PLP.ligand.torsion>
0.9364

> <Gold.PLP.Chemscore.Hbond>
3.1241

> <Gold.PLP.Chemscore.CHOScore>
0.2209

> <Gold.PLP.Chemscore.Metal>
0.0000

> <Gold.Chemscore.Hbonds>
donor molecule, donor type, donor heavy atom, donor atom, acceptor molecule, acceptor atom, score
      L1  H    25    51       P1 10747  1.00
      L1  H    27    54       P1 10186  0.84
      P1  H  7989  7998       L1     7  0.09
      P1  H  8011  8017       L1     7  0.23
      P1  H 10785 10796       L1    27  0.89
      L1  C    14    44       P1  7957  0.23

> <Gold.PLP.Chemscore.Internal.Correction>
1.0111

> <Gold.Rescore>
     Score         DG    S(hbond)    S(metal)    S(lipo)     H(rot)  DE(clash)    DE(int)     intcor
     10.86     -15.56       2.83        0.00      86.75       3.72       2.35       2.35       ----

> <Gold.Chemscore.Fitness>
10.8603

> <Gold.Chemscore.DG>
-15.5584

> <Gold.Chemscore.ZeroCoef>
-5.4800

> <Gold.Chemscore.Hbond>
2.8330

> <Gold.Chemscore.Metal>
0.0000

> <Gold.Chemscore.Lipo>
86.7465

> <Gold.Chemscore.Internal_Hbond>
0.0000

> <Gold.Chemscore.DEClash>
2.3472

> <Gold.Chemscore.DEInternal>
2.3508

> <Gold.Chemscore.Rot>
3.7239

> <Gold.Chemscore.Internal.Correction>
   9.000000E+99

> <Gold.Chemscore.Hbonds>
donor molecule, donor type, donor heavy atom, donor atom, acceptor molecule, acceptor atom, score
      L1  H     8    39       P1  8028  0.01
      L1  H    25    51       P1 10747  0.93
      L1  H    27    54       P1 10186  0.82
      P1  H  7989  7998       L1     7  0.10
      P1  H  8011  8017       L1     7  0.13
      P1  H 10785 10796       L1    27  0.77

> <Gold.Chemscore.Hbond.Weighted>
-9.4623

> <Gold.Chemscore.Metal.Weighted>
-0.0000

> <Gold.Chemscore.Lipo.Weighted>
-10.1493

> <Gold.Chemscore.Internal_Hbond.Weighted>
0.0000

> <Gold.Chemscore.DEClash.Weighted>
2.3472

> <Gold.Chemscore.DEInternal.Weighted>
2.3508

> <Gold.Chemscore.Rot.Weighted>
9.5332

> <Gold.Chemscore.Internal.Correction.Weighted>
   9.000000E+99

> <Gold.Protein.RotatedTorsions>
[ 6907 6896 6895 6894 ] final   68.73 input  -60.11 | X-H torsion
[ 7974 7965 7964 7962 ] final   33.67 input  175.53 | X-H torsion
[ 8008 7997 7996 7995 ] final -125.03 input   59.86 | X-H torsion
[ 10167 10162 10161 10158 ] final    6.51 input  -65.29 | X-H torsion
[ 10718 10713 10712 10709 ] final  -72.31 input   66.30 | X-H torsion
[ 10763 10752 10751 10750 ] final  -50.96 input  -60.55 | X-H torsion
[ 11005 11000 10999 10996 ] final  150.43 input  -57.11 | X-H torsion

> <Gold.Protein.ActiveResidues>
 VAL166  LYS551  ARG553  GLY616  TRP617  ASP618  TYR619  PRO620  LYS621  CYS622 
 ASP623  PHE694  ASN695  SER759  ASP760  ASP761  ALA762  ILE779  LEU786  VAL792 
 PHE793  MET794  SER795  GLU796  ALA797  LYS798  CYS799  TRP800  GLU811  SER814 

> <Gold.Protein.RotatedAtoms>
  152.4640  134.5119  159.9756 H   0  0  0  0  0  0  0  0  0  0  0  0  # atno 6907 bound_to 6896
  151.5162  133.3469  159.2901 H   0  0  0  0  0  0  0  0  0  0  0  0  # atno 6908 bound_to 6896
  150.8615  134.7997  159.7148 H   0  0  0  0  0  0  0  0  0  0  0  0  # atno 6909 bound_to 6896
  146.1405  139.6368  142.9166 H   0  0  0  0  0  0  0  0  0  0  0  0  # atno 7974 bound_to 7965
  155.2066  140.0417  157.2926 H   0  0  0  0  0  0  0  0  0  0  0  0  # atno 8008 bound_to 7997
  154.6039  140.2459  155.7727 H   0  0  0  0  0  0  0  0  0  0  0  0  # atno 8009 bound_to 7997
  156.2338  140.2929  156.0268 H   0  0  0  0  0  0  0  0  0  0  0  0  # atno 8010 bound_to 7997
  140.6424  143.7744  150.7447 H   0  0  0  0  0  0  0  0  0  0  0  0  # atno 10167 bound_to 10162
  156.0326  130.4369  150.2574 H   0  0  0  0  0  0  0  0  0  0  0  0  # atno 10718 bound_to 10713
  154.1189  135.6538  153.4899 H   0  0  0  0  0  0  0  0  0  0  0  0  # atno 10763 bound_to 10752
  153.0232  135.5265  154.7117 H   0  0  0  0  0  0  0  0  0  0  0  0  # atno 10764 bound_to 10752
  154.6319  135.2977  155.0176 H   0  0  0  0  0  0  0  0  0  0  0  0  # atno 10765 bound_to 10752
  140.1130  134.8912  157.1964 H   0  0  0  0  0  0  0  0  0  0  0  0  # atno 11005 bound_to 11000
  145.5057  141.0436  143.2515 LP  0  0  0  0  0  0  0  0  0  0  0  0  # atno 17320 bound_to 7965
  144.7787  139.6573  143.7163 LP  0  0  0  0  0  0  0  0  0  0  0  0  # atno 17321 bound_to 7965
  140.1378  143.4468  152.2213 LP  0  0  0  0  0  0  0  0  0  0  0  0  # atno 17342 bound_to 10162
  139.5633  144.7419  151.4093 LP  0  0  0  0  0  0  0  0  0  0  0  0  # atno 17343 bound_to 10162
  157.0675  131.0107  151.3201 LP  0  0  0  0  0  0  0  0  0  0  0  0  # atno 17370 bound_to 10713
  157.5024  130.7888  149.7619 LP  0  0  0  0  0  0  0  0  0  0  0  0  # atno 17371 bound_to 10713
  140.3065  134.3072  155.7277 LP  0  0  0  0  0  0  0  0  0  0  0  0  # atno 17394 bound_to 11000
  141.2135  133.7624  156.9716 LP  0  0  0  0  0  0  0  0  0  0  0  0  # atno 17395 bound_to 11000

$$$$
