AV-unprocessed.smi:35|AV-procd|sdf|260|dock1
  -GOLD-   2262016 23D 1   1.00000     0.00000
 Structure written by MMmdl.
 29 30  0  0  0  0  0  0  0  0  1 V2000
  152.4646  136.7607  159.7540 O   0  0  0  0  0  0  0  0  0  0  0  0
  152.1781  137.6003  158.9035 C   0  0  0  0  0  0  0  0  0  0  0  0
  152.4825  138.9489  159.1118 N   0  0  0  0  0  0  0  0  0  0  0  0
  152.2102  139.9890  158.2207 C   0  0  0  0  0  0  0  0  0  0  0  0
  152.5031  141.1465  158.5180 O   0  0  0  0  0  0  0  0  0  0  0  0
  151.5885  139.6461  156.9992 N   0  0  0  0  0  0  0  0  0  0  0  0
  151.2639  140.7375  156.0054 C   0  0  1  0  0  0  0  0  0  0  0  0
  150.5765  140.1749  154.9260 O   0  0  0  0  0  0  0  0  0  0  0  0
  149.3754  140.8975  154.6757 C   0  0  1  0  0  0  0  0  0  0  0  0
  148.3401  139.9515  154.0469 C   0  0  0  0  0  0  0  0  0  0  0  0
  148.9810  138.8921  153.3696 O   0  0  0  0  0  0  0  0  0  0  0  0
  148.9981  141.4490  156.0528 C   0  0  2  0  0  0  0  0  0  0  0  0
  148.1221  142.5592  156.0018 O   0  0  0  0  0  0  0  0  0  0  0  0
  150.3550  141.7939  156.6549 C   0  0  2  0  0  0  0  0  0  0  0  0
  150.7848  143.1030  156.3246 O   0  0  0  0  0  0  0  0  0  0  0  0
  151.2466  138.3218  156.7576 C   0  0  0  0  0  0  0  0  0  0  0  0
  151.5129  137.3257  157.6345 C   0  0  0  0  0  0  0  0  0  0  0  0
  150.9432  135.5039  157.1042 Br  0  0  0  0  0  0  0  0  0  0  0  0
  152.9320  139.1917  159.9828 H   0  0  0  0  0  0  0  0  0  0  0  0
  152.2181  141.1268  155.6445 H   0  0  0  0  0  0  0  0  0  0  0  0
  149.6197  141.7128  153.9921 H   0  0  0  0  0  0  0  0  0  0  0  0
  147.7088  139.5213  154.8245 H   0  0  0  0  0  0  0  0  0  0  0  0
  147.6840  140.4866  153.3598 H   0  0  0  0  0  0  0  0  0  0  0  0
  149.4493  139.2472  152.6293 H   0  0  0  0  0  0  0  0  0  0  0  0
  148.5335  140.6614  156.6477 H   0  0  0  0  0  0  0  0  0  0  0  0
  148.6165  143.3151  155.7230 H   0  0  0  0  0  0  0  0  0  0  0  0
  150.3511  141.6989  157.7418 H   0  0  0  0  0  0  0  0  0  0  0  0
  150.1412  143.4939  155.7533 H   0  0  0  0  0  0  0  0  0  0  0  0
  150.7414  138.0611  155.8394 H   0  0  0  0  0  0  0  0  0  0  0  0
  1  2  2  0  0  0  0
  2 17  1  0  0  0  0
  2  3  1  0  0  0  0
  3 19  1  0  0  0  0
  3  4  1  0  0  0  0
  4  5  2  0  0  0  0
  4  6  1  0  0  0  0
  6  7  1  0  0  0  0
  6 16  1  0  0  0  0
  7 14  1  0  0  0  0
  7  8  1  0  0  0  0
  7 20  1  0  0  0  0
  8  9  1  0  0  0  0
  9 10  1  0  0  0  0
  9 12  1  0  0  0  0
  9 21  1  0  0  0  0
 10 11  1  0  0  0  0
 10 22  1  0  0  0  0
 10 23  1  0  0  0  0
 11 24  1  0  0  0  0
 12 13  1  0  0  0  0
 12 14  1  0  0  0  0
 12 25  1  0  0  0  0
 13 26  1  0  0  0  0
 14 15  1  0  0  0  0
 14 27  1  0  0  0  0
 15 28  1  0  0  0  0
 16 17  2  0  0  0  0
 16 29  1  0  0  0  0
 17 18  1  0  0  0  0
M  END
> <s_m_source_file>
AV-unprocessed.smi

> <i_m_source_file_index>
35

> <i_lp_mmshare_version>
43012

> <i_f3d_flags>
0

> <s_epik_input>
Tz1jMVtuSF1jKD1PKW4oW2NIXWMxQnIpW0NAQEhdMk9bQ0BASF0oW0NIMl1bT0hdKVtDQEBIXShbT0hdKVtDQEhdMltPSF0=

> <s_epik_cmdline>
J2VwaWtfcHl0aG9uJywgJy1waCcsICc3LjAnLCAnLXRuJywgJzgnLCAnLW1hJywgJzIwMCcsICctbWV0YWxfYmluZGluZycsICctaW1hZScsICc8aW5maWxlLm1hZT4nLCAnLW9tYWUnLCAnPG91dGZpbGUubWFlPic=

> <r_lp_tautomer_probability>
0.999537

> <r_epik_Ionization_Penalty>
0.10812

> <r_epik_Ionization_Penalty_Charging>
0.108119

> <r_epik_Ionization_Penalty_Neutral>
4.93006e-07

> <r_epik_State_Penalty>
0.0979238

> <r_epik_Charging_Adjusted_Penalty>
0.206043

> <i_epik_Tot_Q>
0

> <i_epik_Tot_abs_Q>
0

> <r_epik_Metal_State_Penalty>
3.07911

> <b_epik_Metal_Only>
0

> <s_epik_Chemistry_Notes>
This compound contains an acetal/aminal-like group ( X-CH(R)-Y where X, Y are N, S, or O) that may be acid/base labile, releasing an aldehyde.

> <s_lp_Force_Field>
OPLS_2005

> <r_lp_Energy>
30.2872

> <b_lp_Chiralities_Consistent>
1

> <s_lp_Variant>
AV-unprocessed.smi:35-14

> <Gold.Version>
5.8.1

> <Gold.Id.Protein>
6NUR|6NUR_protein|mol2

> <Gold.PLP.Fitness>
39.6589

> <Gold.PLP.PLP>
-25.6601

> <Gold.PLP.part.hbond>
-5.5250

> <Gold.PLP.part.metal>
0.0000

> <Gold.PLP.part.buried>
-4.0410

> <Gold.PLP.part.nonpolar>
-15.9837

> <Gold.PLP.part.repulsive>
0.1426

> <Gold.PLP.ligand.clash>
0.0000

> <Gold.PLP.ligand.torsion>
0.5069

> <Gold.PLP.Chemscore.Hbond>
5.0000

> <Gold.PLP.Chemscore.CHOScore>
0.0000

> <Gold.PLP.Chemscore.Metal>
0.0000

> <Gold.Chemscore.Hbonds>
donor molecule, donor type, donor heavy atom, donor atom, acceptor molecule, acceptor atom, score
      L1  H    11    24       P1  7957  1.00
      L1  H    13    26       P1  8028  0.73
      L1  H    15    28       P1  8028  0.88
      P1  H  6896  6907       L1     1  1.00
      P1  H  7989  7998       L1     8  0.86

> <Gold.PLP.Chemscore.Internal.Correction>
0.0127

> <Gold.Rescore>
     Score         DG    S(hbond)    S(metal)    S(lipo)     H(rot)  DE(clash)    DE(int)     intcor
     12.39     -14.07       4.11        0.00      36.40       3.67       0.00       1.67       ----

> <Gold.Chemscore.Fitness>
12.3905

> <Gold.Chemscore.DG>
-14.0668

> <Gold.Chemscore.ZeroCoef>
-5.4800

> <Gold.Chemscore.Hbond>
4.1088

> <Gold.Chemscore.Metal>
0.0000

> <Gold.Chemscore.Lipo>
36.4005

> <Gold.Chemscore.Internal_Hbond>
0.0000

> <Gold.Chemscore.DEClash>
0.0015

> <Gold.Chemscore.DEInternal>
1.6749

> <Gold.Chemscore.Rot>
3.6701

> <Gold.Chemscore.Internal.Correction>
   9.000000E+99

> <Gold.Chemscore.Hbonds>
donor molecule, donor type, donor heavy atom, donor atom, acceptor molecule, acceptor atom, score
      L1  H    11    24       P1  7957  0.98
      L1  H    13    26       P1  8028  0.70
      L1  H    15    28       P1  8028  0.87
      P1  H  6896  6907       L1     1  1.00
      P1  H  7989  7998       L1     8  0.04

> <Gold.Chemscore.Hbond.Weighted>
-13.7234

> <Gold.Chemscore.Metal.Weighted>
-0.0000

> <Gold.Chemscore.Lipo.Weighted>
-4.2589

> <Gold.Chemscore.Internal_Hbond.Weighted>
0.0000

> <Gold.Chemscore.DEClash.Weighted>
0.0015

> <Gold.Chemscore.DEInternal.Weighted>
1.6749

> <Gold.Chemscore.Rot.Weighted>
9.3955

> <Gold.Chemscore.Internal.Correction.Weighted>
   9.000000E+99

> <Gold.Protein.RotatedTorsions>
[ 6907 6896 6895 6894 ] final   28.27 input  -60.11 | X-H torsion
[ 7974 7965 7964 7962 ] final  -11.93 input  175.53 | X-H torsion
[ 8008 7997 7996 7995 ] final  107.27 input   59.86 | X-H torsion
[ 10167 10162 10161 10158 ] final   90.50 input  -65.29 | X-H torsion
[ 10718 10713 10712 10709 ] final -145.57 input   66.30 | X-H torsion
[ 10763 10752 10751 10750 ] final   90.50 input  -60.55 | X-H torsion
[ 11005 11000 10999 10996 ] final -147.77 input  -57.11 | X-H torsion

> <Gold.Protein.ActiveResidues>
 VAL166  LYS551  ARG553  GLY616  TRP617  ASP618  TYR619  PRO620  LYS621  CYS622 
 ASP623  PHE694  ASN695  SER759  ASP760  ASP761  ALA762  ILE779  LEU786  VAL792 
 PHE793  MET794  SER795  GLU796  ALA797  LYS798  CYS799  TRP800  GLU811  SER814 

> <Gold.Protein.RotatedAtoms>
  152.0144  134.9858  160.0568 H   0  0  0  0  0  0  0  0  0  0  0  0  # atno 6907 bound_to 6896
  152.1397  133.4452  159.4769 H   0  0  0  0  0  0  0  0  0  0  0  0  # atno 6908 bound_to 6896
  150.6864  134.2238  159.4450 H   0  0  0  0  0  0  0  0  0  0  0  0  # atno 6909 bound_to 6896
  146.2170  140.2984  142.8373 H   0  0  0  0  0  0  0  0  0  0  0  0  # atno 7974 bound_to 7965
  156.1811  140.3098  155.9150 H   0  0  0  0  0  0  0  0  0  0  0  0  # atno 8008 bound_to 7997
  155.3382  140.0464  157.3061 H   0  0  0  0  0  0  0  0  0  0  0  0  # atno 8009 bound_to 7997
  154.5344  140.2241  155.8759 H   0  0  0  0  0  0  0  0  0  0  0  0  # atno 8010 bound_to 7997
  139.8467  144.6614  150.9218 H   0  0  0  0  0  0  0  0  0  0  0  0  # atno 10167 bound_to 10162
  156.3841  130.7852  151.2047 H   0  0  0  0  0  0  0  0  0  0  0  0  # atno 10718 bound_to 10713
  153.1982  135.4431  155.0234 H   0  0  0  0  0  0  0  0  0  0  0  0  # atno 10763 bound_to 10752
  154.8131  135.3303  154.7252 H   0  0  0  0  0  0  0  0  0  0  0  0  # atno 10764 bound_to 10752
  153.7700  135.6985  153.4964 H   0  0  0  0  0  0  0  0  0  0  0  0  # atno 10765 bound_to 10752
  140.7682  134.3219  157.5082 H   0  0  0  0  0  0  0  0  0  0  0  0  # atno 11005 bound_to 11000
  144.9075  140.7718  143.5828 LP  0  0  0  0  0  0  0  0  0  0  0  0  # atno 17320 bound_to 7965
  145.2913  139.1883  143.4739 LP  0  0  0  0  0  0  0  0  0  0  0  0  # atno 17321 bound_to 7965
  140.7792  143.3864  151.1387 LP  0  0  0  0  0  0  0  0  0  0  0  0  # atno 17342 bound_to 10162
  139.7505  143.8786  152.3075 LP  0  0  0  0  0  0  0  0  0  0  0  0  # atno 17343 bound_to 10162
  157.7494  131.0335  150.4276 LP  0  0  0  0  0  0  0  0  0  0  0  0  # atno 17370 bound_to 10713
  156.4525  130.4014  149.6627 LP  0  0  0  0  0  0  0  0  0  0  0  0  # atno 17371 bound_to 10713
  139.8760  134.9244  156.3350 LP  0  0  0  0  0  0  0  0  0  0  0  0  # atno 17394 bound_to 11000
  140.9599  133.7395  156.0386 LP  0  0  0  0  0  0  0  0  0  0  0  0  # atno 17395 bound_to 11000

$$$$
