AV-unprocessed.smi:982|AV-procd|sdf|4314|dock2
  -GOLD-   22720 2223D 1   1.00000     0.00000
 Structure written by MMmdl.
 30 31  0  0  0  0  0  0  0  0  2 V2000
  149.5733  138.5478  153.2158 N   0  3  0  0  0  0  0  0  0  0  0  0
  150.8503  138.3737  153.9275 C   0  0  0  0  0  0  0  0  0  0  0  0
  150.9961  139.3945  155.0381 C   0  0  0  0  0  0  0  0  0  0  0  0
  150.0920  140.4695  155.1606 C   0  0  0  0  0  0  0  0  0  0  0  0
  150.2729  141.3933  156.2077 C   0  0  0  0  0  0  0  0  0  0  0  0
  151.3522  141.2097  157.0974 C   0  0  0  0  0  0  0  0  0  0  0  0
  151.5381  142.1289  158.1396 N   0  0  0  0  0  0  0  0  0  0  0  0
  152.6081  141.7568  159.0571 C   0  0  0  0  0  0  0  0  0  0  0  0
  152.6618  142.7472  160.2336 C   0  0  0  0  0  0  0  0  0  0  0  0
  152.8107  144.0737  159.7355 O   0  0  0  0  0  0  0  0  0  0  0  0
  151.7230  144.4564  158.8986 C   0  0  0  0  0  0  0  0  0  0  0  0
  151.6479  143.5108  157.6873 C   0  0  0  0  0  0  0  0  0  0  0  0
  152.2216  140.1764  156.9850 N   0  0  0  0  0  0  0  0  0  0  0  0
  152.0412  139.2936  155.9803 C   0  0  0  0  0  0  0  0  0  0  0  0
  148.8562  138.8246  153.8711 H   0  0  0  0  0  0  0  0  0  0  0  0
  149.3101  137.6764  152.7782 H   0  0  0  0  0  0  0  0  0  0  0  0
  150.9002  137.3646  154.3382 H   0  0  0  0  0  0  0  0  0  0  0  0
  151.6737  138.4752  153.2199 H   0  0  0  0  0  0  0  0  0  0  0  0
  149.2739  140.5876  154.4651 H   0  0  0  0  0  0  0  0  0  0  0  0
  149.5952  142.2267  156.3250 H   0  0  0  0  0  0  0  0  0  0  0  0
  152.4436  140.7439  159.4268 H   0  0  0  0  0  0  0  0  0  0  0  0
  153.5633  141.7578  158.5302 H   0  0  0  0  0  0  0  0  0  0  0  0
  151.7604  142.6760  160.8446 H   0  0  0  0  0  0  0  0  0  0  0  0
  153.5061  142.5150  160.8825 H   0  0  0  0  0  0  0  0  0  0  0  0
  150.7904  144.4394  159.4654 H   0  0  0  0  0  0  0  0  0  0  0  0
  151.8752  145.4831  158.5660 H   0  0  0  0  0  0  0  0  0  0  0  0
  152.5411  143.6289  157.0723 H   0  0  0  0  0  0  0  0  0  0  0  0
  150.7899  143.7662  157.0643 H   0  0  0  0  0  0  0  0  0  0  0  0
  152.7557  138.4856  155.9233 H   0  0  0  0  0  0  0  0  0  0  0  0
  149.6759  139.2610  152.5081 H   0  0  0  0  0  0  0  0  0  0  0  0
  1  2  1  0  0  0  0
  1 15  1  0  0  0  0
  1 16  1  0  0  0  0
  1 30  1  0  0  0  0
  2  3  1  0  0  0  0
  2 17  1  0  0  0  0
  2 18  1  0  0  0  0
  3 14  1  0  0  0  0
  3  4  2  0  0  0  0
  4  5  1  0  0  0  0
  4 19  1  0  0  0  0
  5  6  2  0  0  0  0
  5 20  1  0  0  0  0
  6  7  1  0  0  0  0
  6 13  1  0  0  0  0
  7 12  1  0  0  0  0
  7  8  1  0  0  0  0
  8  9  1  0  0  0  0
  8 21  1  0  0  0  0
  8 22  1  0  0  0  0
  9 10  1  0  0  0  0
  9 23  1  0  0  0  0
  9 24  1  0  0  0  0
 10 11  1  0  0  0  0
 11 12  1  0  0  0  0
 11 25  1  0  0  0  0
 11 26  1  0  0  0  0
 12 27  1  0  0  0  0
 12 28  1  0  0  0  0
 13 14  2  0  0  0  0
 14 29  1  0  0  0  0
M  CHG  1   1   1
M  END
> <s_m_source_file>
AV-unprocessed.smi

> <i_m_source_file_index>
982

> <i_lp_mmshare_version>
43012

> <i_f3d_flags>
0

> <s_epik_input>
W05IMl1bQ0gyXWMxW2NIXVtjSF1jKG5bY0hdMSlOMltDSDJdW0NIMl1PW0NIMl1bQ0gyXTI=

> <s_epik_cmdline>
J2VwaWtfcHl0aG9uJywgJy1waCcsICc3LjAnLCAnLXRuJywgJzgnLCAnLW1hJywgJzIwMCcsICctbWV0YWxfYmluZGluZycsICctaW1hZScsICc8aW5maWxlLm1hZT4nLCAnLW9tYWUnLCAnPG91dGZpbGUubWFlPic=

> <r_lp_tautomer_probability>
1

> <r_epik_Ionization_Penalty>
0.0609618

> <r_epik_Ionization_Penalty_Charging>
0.0601937

> <r_epik_Ionization_Penalty_Neutral>
0.000768071

> <r_epik_State_Penalty>
0.0525568

> <r_epik_Charging_Adjusted_Penalty>
0.112751

> <i_epik_Tot_Q>
1

> <i_epik_Tot_abs_Q>
1

> <r_epik_Metal_State_Penalty>
0.0526295

> <b_epik_Metal_Only>
0

> <s_lp_Force_Field>
OPLS_2005

> <r_lp_Energy>
17.8415

> <b_lp_Chiralities_Consistent>
1

> <s_lp_Variant>
AV-unprocessed.smi:982-1

> <Gold.Version>
5.8.1

> <Gold.Id.Protein>
6NUR|6NUR_protein|mol2

> <Gold.PLP.Fitness>
42.2612

> <Gold.PLP.PLP>
-32.3854

> <Gold.PLP.part.hbond>
-2.8068

> <Gold.PLP.part.metal>
0.0000

> <Gold.PLP.part.buried>
-2.4276

> <Gold.PLP.part.nonpolar>
-26.4233

> <Gold.PLP.part.repulsive>
0.1281

> <Gold.PLP.ligand.clash>
0.0000

> <Gold.PLP.ligand.torsion>
0.1375

> <Gold.PLP.Chemscore.Hbond>
3.3494

> <Gold.PLP.Chemscore.CHOScore>
0.0000

> <Gold.PLP.Chemscore.Metal>
0.0000

> <Gold.Chemscore.Hbonds>
donor molecule, donor type, donor heavy atom, donor atom, acceptor molecule, acceptor atom, score
      L1  H     1    16       P1  7948  2.00
      L1  H     1    30       P1  7957  1.00
      P1  H  7997  8010       L1    13  0.29

> <Gold.PLP.Chemscore.Internal.Correction>
0.1027

> <Gold.Rescore>
     Score         DG    S(hbond)    S(metal)    S(lipo)     H(rot)  DE(clash)    DE(int)     intcor
     18.42     -18.79       2.03        0.00      84.67       1.32       0.19       0.19       ----

> <Gold.Chemscore.Fitness>
18.4155

> <Gold.Chemscore.DG>
-18.7940

> <Gold.Chemscore.ZeroCoef>
-5.4800

> <Gold.Chemscore.Hbond>
2.0288

> <Gold.Chemscore.Metal>
0.0000

> <Gold.Chemscore.Lipo>
84.6688

> <Gold.Chemscore.Internal_Hbond>
0.0000

> <Gold.Chemscore.DEClash>
0.1932

> <Gold.Chemscore.DEInternal>
0.1853

> <Gold.Chemscore.Rot>
1.3158

> <Gold.Chemscore.Internal.Correction>
   9.000000E+99

> <Gold.Chemscore.Hbonds>
donor molecule, donor type, donor heavy atom, donor atom, acceptor molecule, acceptor atom, score
      L1  H     1    16       P1  7948  0.93
      L1  H     1    30       P1  7957  0.91
      P1  H  7997  8010       L1    13  0.01

> <Gold.Chemscore.Hbond.Weighted>
-6.7762

> <Gold.Chemscore.Metal.Weighted>
-0.0000

> <Gold.Chemscore.Lipo.Weighted>
-9.9062

> <Gold.Chemscore.Internal_Hbond.Weighted>
0.0000

> <Gold.Chemscore.DEClash.Weighted>
0.1932

> <Gold.Chemscore.DEInternal.Weighted>
0.1853

> <Gold.Chemscore.Rot.Weighted>
3.3684

> <Gold.Chemscore.Internal.Correction.Weighted>
   9.000000E+99

> <Gold.Protein.RotatedTorsions>
[ 6907 6896 6895 6894 ] final -157.87 input  -60.11 | X-H torsion
[ 7974 7965 7964 7962 ] final  109.38 input  175.53 | X-H torsion
[ 8008 7997 7996 7995 ] final   62.18 input   59.86 | X-H torsion
[ 10167 10162 10161 10158 ] final   13.48 input  -65.29 | X-H torsion
[ 10718 10713 10712 10709 ] final  -27.77 input   66.30 | X-H torsion
[ 10763 10752 10751 10750 ] final  168.58 input  -60.55 | X-H torsion
[ 11005 11000 10999 10996 ] final  -50.16 input  -57.11 | X-H torsion

> <Gold.Protein.ActiveResidues>
 VAL166  LYS551  ARG553  GLY616  TRP617  ASP618  TYR619  PRO620  LYS621  CYS622 
 ASP623  PHE694  ASN695  SER759  ASP760  ASP761  ALA762  ILE779  LEU786  VAL792 
 PHE793  MET794  SER795  GLU796  ALA797  LYS798  CYS799  TRP800  GLU811  SER814 

> <Gold.Protein.RotatedAtoms>
  151.3094  133.4087  159.2645 H   0  0  0  0  0  0  0  0  0  0  0  0  # atno 6907 bound_to 6896
  151.0127  134.9410  159.8026 H   0  0  0  0  0  0  0  0  0  0  0  0  # atno 6908 bound_to 6896
  152.5305  134.3058  159.9148 H   0  0  0  0  0  0  0  0  0  0  0  0  # atno 6909 bound_to 6896
  145.2685  139.2675  143.3979 H   0  0  0  0  0  0  0  0  0  0  0  0  # atno 7974 bound_to 7965
  155.6103  140.3495  155.4620 H   0  0  0  0  0  0  0  0  0  0  0  0  # atno 8008 bound_to 7997
  156.0160  140.1243  157.0430 H   0  0  0  0  0  0  0  0  0  0  0  0  # atno 8009 bound_to 7997
  154.4297  140.1072  156.5882 H   0  0  0  0  0  0  0  0  0  0  0  0  # atno 8010 bound_to 7997
  140.5999  143.8625  150.6955 H   0  0  0  0  0  0  0  0  0  0  0  0  # atno 10167 bound_to 10162
  156.4339  130.4450  149.7098 H   0  0  0  0  0  0  0  0  0  0  0  0  # atno 10718 bound_to 10713
  154.3707  135.2753  155.2268 H   0  0  0  0  0  0  0  0  0  0  0  0  # atno 10763 bound_to 10752
  154.4417  135.5953  153.6137 H   0  0  0  0  0  0  0  0  0  0  0  0  # atno 10764 bound_to 10752
  152.9838  135.6020  154.3938 H   0  0  0  0  0  0  0  0  0  0  0  0  # atno 10765 bound_to 10752
  141.0800  133.6656  156.3691 H   0  0  0  0  0  0  0  0  0  0  0  0  # atno 11005 bound_to 11000
  146.3253  140.3122  142.8627 LP  0  0  0  0  0  0  0  0  0  0  0  0  # atno 17320 bound_to 7965
  144.9356  140.8022  143.5662 LP  0  0  0  0  0  0  0  0  0  0  0  0  # atno 17321 bound_to 7965
  140.2168  143.3840  152.1674 LP  0  0  0  0  0  0  0  0  0  0  0  0  # atno 17342 bound_to 10162
  139.5284  144.7130  151.5145 LP  0  0  0  0  0  0  0  0  0  0  0  0  # atno 17343 bound_to 10162
  156.3990  130.7665  151.2672 LP  0  0  0  0  0  0  0  0  0  0  0  0  # atno 17370 bound_to 10713
  157.7508  131.0245  150.3880 LP  0  0  0  0  0  0  0  0  0  0  0  0  # atno 17371 bound_to 10713
  140.5489  134.6047  157.5402 LP  0  0  0  0  0  0  0  0  0  0  0  0  # atno 17394 bound_to 11000
  139.9614  134.7447  156.0230 LP  0  0  0  0  0  0  0  0  0  0  0  0  # atno 17395 bound_to 11000

$$$$
