AV-unprocessed.smi:49|AV-procd|sdf|471|dock1
  -GOLD-   2262016333D 1   1.00000     0.00000
 Structure written by MMmdl.
 27 28  0  0  0  0  0  0  0  0  1 V2000
  152.1039  144.0685  158.4849 C   0  0  0  0  0  0  0  0  0  0  0  0
  150.7682  143.4209  158.1037 C   0  0  0  0  0  0  0  0  0  0  0  0
  150.9359  142.2660  157.1718 C   0  0  0  0  0  0  0  0  0  0  0  0
  151.6547  141.1772  157.4231 N   0  0  0  0  0  0  0  0  0  0  0  0
  151.4316  140.4667  156.2762 C   0  0  0  0  0  0  0  0  0  0  0  0
  152.0789  139.1385  156.0244 C   0  0  2  0  0  0  0  0  0  0  0  0
  151.6163  138.5123  154.6942 C   0  0  0  0  0  0  0  0  0  0  0  0
  150.8449  137.2644  155.1144 C   0  0  1  0  0  0  0  0  0  0  0  0
  150.9021  136.2323  154.1531 O   0  0  0  0  0  0  0  0  0  0  0  0
  151.5273  136.8800  156.4204 C   0  0  0  0  0  0  0  0  0  0  0  0
  151.7982  138.1516  157.0744 N   0  0  0  0  0  0  0  0  0  0  0  0
  150.6571  141.0602  155.3662 N   0  0  0  0  0  0  0  0  0  0  0  0
  150.3391  142.2194  155.9793 N   0  0  0  0  0  0  0  0  0  0  0  0
  153.1567  139.2965  155.9676 H   0  0  0  0  0  0  0  0  0  0  0  0
  149.8021  137.5226  155.3065 H   0  0  0  0  0  0  0  0  0  0  0  0
  149.7429  142.9193  155.5614 H   0  0  0  0  0  0  0  0  0  0  0  0
  151.9492  144.9066  159.1645 H   0  0  0  0  0  0  0  0  0  0  0  0
  152.6245  144.4453  157.6039 H   0  0  0  0  0  0  0  0  0  0  0  0
  152.7598  143.3530  158.9816 H   0  0  0  0  0  0  0  0  0  0  0  0
  150.2494  143.0823  159.0012 H   0  0  0  0  0  0  0  0  0  0  0  0
  150.1207  144.1600  157.6305 H   0  0  0  0  0  0  0  0  0  0  0  0
  151.0173  139.1840  154.0775 H   0  0  0  0  0  0  0  0  0  0  0  0
  152.4947  138.2316  154.1111 H   0  0  0  0  0  0  0  0  0  0  0  0
  150.1922  136.3533  153.5410 H   0  0  0  0  0  0  0  0  0  0  0  0
  150.9150  136.2241  157.0398 H   0  0  0  0  0  0  0  0  0  0  0  0
  152.4673  136.3660  156.2136 H   0  0  0  0  0  0  0  0  0  0  0  0
  152.6107  138.0449  157.6728 H   0  0  0  0  0  0  0  0  0  0  0  0
  1  2  1  0  0  0  0
  1 17  1  0  0  0  0
  1 18  1  0  0  0  0
  1 19  1  0  0  0  0
  2  3  1  0  0  0  0
  2 20  1  0  0  0  0
  2 21  1  0  0  0  0
  3 13  1  0  0  0  0
  3  4  2  0  0  0  0
  4  5  1  0  0  0  0
  5  6  1  0  0  0  0
  5 12  2  0  0  0  0
  6 14  1  0  0  0  0
  6 11  1  0  0  0  0
  6  7  1  0  0  0  0
  7  8  1  0  0  0  0
  7 22  1  0  0  0  0
  7 23  1  0  0  0  0
  8 15  1  0  0  0  0
  8  9  1  0  0  0  0
  8 10  1  0  0  0  0
  9 24  1  0  0  0  0
 10 11  1  0  0  0  0
 10 25  1  0  0  0  0
 10 26  1  0  0  0  0
 11 27  1  0  0  0  0
 12 13  1  0  0  0  0
 13 16  1  0  0  0  0
M  END
> <s_m_source_file>
AV-unprocessed.smi

> <i_m_source_file_index>
49

> <i_lp_mmshare_version>
43012

> <i_f3d_flags>
0

> <s_epik_input>
W0NIM11bQ0gyXWMxbmMobltuSF0xKVtDQEBIXTJbQ0gyXVtDQEBIXShbT0hdKVtDSDJdW05IXTI=

> <s_epik_cmdline>
J2VwaWtfcHl0aG9uJywgJy1waCcsICc3LjAnLCAnLXRuJywgJzgnLCAnLW1hJywgJzIwMCcsICctbWV0YWxfYmluZGluZycsICctaW1hZScsICc8aW5maWxlLm1hZT4nLCAnLW9tYWUnLCAnPG91dGZpbGUubWFlPic=

> <r_lp_tautomer_probability>
0.948284

> <r_epik_Ionization_Penalty>
1.6657

> <r_epik_Ionization_Penalty_Charging>
0

> <r_epik_Ionization_Penalty_Neutral>
1.6657

> <r_epik_State_Penalty>
2.01417

> <r_epik_Charging_Adjusted_Penalty>
2.01417

> <i_epik_Tot_Q>
0

> <i_epik_Tot_abs_Q>
0

> <r_epik_Metal_State_Penalty>
2.28256

> <b_epik_Metal_Only>
0

> <s_lp_Force_Field>
OPLS_2005

> <r_lp_Energy>
18.5163

> <b_lp_Chiralities_Consistent>
1

> <s_lp_Variant>
AV-unprocessed.smi:49-9

> <Gold.Version>
5.8.1

> <Gold.Id.Protein>
6NUR|6NUR_protein|mol2

> <Gold.PLP.Fitness>
34.1465

> <Gold.PLP.PLP>
-25.0736

> <Gold.PLP.part.hbond>
-4.9846

> <Gold.PLP.part.metal>
0.0000

> <Gold.PLP.part.buried>
0.1688

> <Gold.PLP.part.nonpolar>
-19.5660

> <Gold.PLP.part.repulsive>
0.2211

> <Gold.PLP.ligand.clash>
0.0000

> <Gold.PLP.ligand.torsion>
0.0541

> <Gold.PLP.Chemscore.Hbond>
3.0556

> <Gold.PLP.Chemscore.CHOScore>
0.0000

> <Gold.PLP.Chemscore.Metal>
0.0000

> <Gold.Chemscore.Hbonds>
donor molecule, donor type, donor heavy atom, donor atom, acceptor molecule, acceptor atom, score
      L1  H     9    24       P1  7948  0.54
      L1  H    13    16       P1  8028  0.99
      P1  H  7989  7998       L1    12  0.56
      P1  H 10752 10765       L1     9  0.78

> <Gold.PLP.Chemscore.Internal.Correction>
0.0142

> <Gold.Rescore>
     Score         DG    S(hbond)    S(metal)    S(lipo)     H(rot)  DE(clash)    DE(int)     intcor
     13.26     -13.61       2.28        0.00      45.07       1.86       0.06       0.29       ----

> <Gold.Chemscore.Fitness>
13.2583

> <Gold.Chemscore.DG>
-13.6124

> <Gold.Chemscore.ZeroCoef>
-5.4800

> <Gold.Chemscore.Hbond>
2.2786

> <Gold.Chemscore.Metal>
0.0000

> <Gold.Chemscore.Lipo>
45.0662

> <Gold.Chemscore.Internal_Hbond>
0.0000

> <Gold.Chemscore.DEClash>
0.0609

> <Gold.Chemscore.DEInternal>
0.2932

> <Gold.Chemscore.Rot>
1.8558

> <Gold.Chemscore.Internal.Correction>
   9.000000E+99

> <Gold.Chemscore.Hbonds>
donor molecule, donor type, donor heavy atom, donor atom, acceptor molecule, acceptor atom, score
      L1  H     9    24       P1  7948  0.03
      L1  H    13    16       P1  8028  0.91
      P1  H  7989  7998       L1    12  0.36
      P1  H 10752 10765       L1     9  0.27

> <Gold.Chemscore.Hbond.Weighted>
-7.6104

> <Gold.Chemscore.Metal.Weighted>
-0.0000

> <Gold.Chemscore.Lipo.Weighted>
-5.2727

> <Gold.Chemscore.Internal_Hbond.Weighted>
0.0000

> <Gold.Chemscore.DEClash.Weighted>
0.0609

> <Gold.Chemscore.DEInternal.Weighted>
0.2932

> <Gold.Chemscore.Rot.Weighted>
4.7507

> <Gold.Chemscore.Internal.Correction.Weighted>
   9.000000E+99

> <Gold.Protein.RotatedTorsions>
[ 6907 6896 6895 6894 ] final -121.92 input  -60.11 | X-H torsion
[ 7974 7965 7964 7962 ] final   85.03 input  175.53 | X-H torsion
[ 8008 7997 7996 7995 ] final -168.66 input   59.86 | X-H torsion
[ 10167 10162 10161 10158 ] final  -65.96 input  -65.29 | X-H torsion
[ 10718 10713 10712 10709 ] final  123.44 input   66.30 | X-H torsion
[ 10763 10752 10751 10750 ] final  159.01 input  -60.55 | X-H torsion
[ 11005 11000 10999 10996 ] final  120.62 input  -57.11 | X-H torsion

> <Gold.Protein.ActiveResidues>
 VAL166  LYS551  ARG553  GLY616  TRP617  ASP618  TYR619  PRO620  LYS621  CYS622 
 ASP623  PHE694  ASN695  SER759  ASP760  ASP761  ALA762  ILE779  LEU786  VAL792 
 PHE793  MET794  SER795  GLU796  ALA797  LYS798  CYS799  TRP800  GLU811  SER814 

> <Gold.Protein.RotatedAtoms>
  150.8527  133.7762  159.3019 H   0  0  0  0  0  0  0  0  0  0  0  0  # atno 6907 bound_to 6896
  151.5428  135.1066  159.9940 H   0  0  0  0  0  0  0  0  0  0  0  0  # atno 6908 bound_to 6896
  152.4566  133.7692  159.6845 H   0  0  0  0  0  0  0  0  0  0  0  0  # atno 6909 bound_to 6896
  145.5908  139.2338  143.2300 H   0  0  0  0  0  0  0  0  0  0  0  0  # atno 7974 bound_to 7965
  155.8945  140.1030  157.1395 H   0  0  0  0  0  0  0  0  0  0  0  0  # atno 8008 bound_to 7997
  154.4019  140.1304  156.4421 H   0  0  0  0  0  0  0  0  0  0  0  0  # atno 8009 bound_to 7997
  155.7495  140.3465  155.5146 H   0  0  0  0  0  0  0  0  0  0  0  0  # atno 8010 bound_to 7997
  140.5692  143.2316  151.6574 H   0  0  0  0  0  0  0  0  0  0  0  0  # atno 10167 bound_to 10162
  157.5665  131.1086  150.8445 H   0  0  0  0  0  0  0  0  0  0  0  0  # atno 10718 bound_to 10713
  154.2251  135.2780  155.2910 H   0  0  0  0  0  0  0  0  0  0  0  0  # atno 10763 bound_to 10752
  154.5670  135.5630  153.7063 H   0  0  0  0  0  0  0  0  0  0  0  0  # atno 10764 bound_to 10752
  153.0033  135.6312  154.2392 H   0  0  0  0  0  0  0  0  0  0  0  0  # atno 10765 bound_to 10752
  139.9193  134.9635  156.7835 H   0  0  0  0  0  0  0  0  0  0  0  0  # atno 11005 bound_to 11000
  146.1648  140.6735  142.9261 LP  0  0  0  0  0  0  0  0  0  0  0  0  # atno 17320 bound_to 7965
  144.7352  140.4787  143.6909 LP  0  0  0  0  0  0  0  0  0  0  0  0  # atno 17321 bound_to 7965
  139.5108  144.3529  152.0635 LP  0  0  0  0  0  0  0  0  0  0  0  0  # atno 17342 bound_to 10162
  140.2665  144.4011  150.6166 LP  0  0  0  0  0  0  0  0  0  0  0  0  # atno 17343 bound_to 10162
  156.8929  130.5219  149.5285 LP  0  0  0  0  0  0  0  0  0  0  0  0  # atno 17370 bound_to 10713
  156.0713  130.5745  150.9388 LP  0  0  0  0  0  0  0  0  0  0  0  0  # atno 17371 bound_to 10713
  140.6525  133.9718  155.7762 LP  0  0  0  0  0  0  0  0  0  0  0  0  # atno 17394 bound_to 11000
  141.0698  134.0222  157.3542 LP  0  0  0  0  0  0  0  0  0  0  0  0  # atno 17395 bound_to 11000

$$$$
