AV-unprocessed.smi:837|AV-procd|sdf|3895|dock1
  -GOLD-   22720 1353D 1   1.00000     0.00000
 Structure written by MMmdl.
 49 51  0  0  0  0  0  0  0  0  1 V2000
  152.5277  138.0119  158.9844 C   0  0  0  0  0  0  0  0  0  0  0  0
  151.8463  139.3970  158.9621 C   0  0  1  0  0  0  0  0  0  0  0  0
  152.7201  140.4310  159.7052 C   0  0  0  0  0  0  0  0  0  0  0  0
  152.0497  141.8124  159.7678 C   0  0  0  0  0  0  0  0  0  0  0  0
  151.6977  142.3258  158.3647 C   0  0  0  0  0  0  0  0  0  0  0  0
  150.8134  141.3150  157.6174 C   0  0  0  0  0  0  0  0  0  0  0  0
  151.4708  139.9159  157.5391 C   0  0  1  0  0  0  0  0  0  0  0  0
  152.6100  139.9267  156.6360 N   0  0  0  0  0  0  0  0  0  0  0  0
  152.4268  139.1581  155.5547 C   0  0  0  0  0  0  0  0  0  0  0  0
  153.2379  139.0165  154.6410 O   0  0  0  0  0  0  0  0  0  0  0  0
  151.2156  138.5796  155.6476 N   0  0  0  0  0  0  0  0  0  0  0  0
  150.6368  137.6890  154.6342 C   0  0  0  0  0  0  0  0  0  0  0  0
  150.6380  136.2191  155.0742 C   0  0  0  0  0  0  0  0  0  0  0  0
  151.3612  135.8394  155.9960 O   0  0  0  0  0  0  0  0  0  0  0  0
  149.8114  135.4023  154.4051 N   0  0  0  0  0  0  0  0  0  0  0  0
  149.6790  133.9666  154.6344 C   0  0  0  0  0  0  0  0  0  0  0  0
  148.2120  133.4894  154.6427 C   0  0  0  0  0  0  0  0  0  0  0  0
  147.4475  133.8514  153.3806 C   0  0  0  0  0  0  0  0  0  0  0  0
  146.5157  134.9102  153.3761 C   0  0  0  0  0  0  0  0  0  0  0  0
  145.8220  135.1982  152.1854 C   0  0  0  0  0  0  0  0  0  0  0  0
  146.0911  134.4137  151.0464 C   0  0  0  0  0  0  0  0  0  0  0  0
  146.9828  133.3992  151.0378 N   0  0  0  0  0  0  0  0  0  0  0  0
  147.6439  133.1298  152.1842 C   0  0  0  0  0  0  0  0  0  0  0  0
  150.5784  138.9541  156.7655 C   0  0  0  0  0  0  0  0  0  0  0  0
  149.4584  138.6019  157.1364 O   0  0  0  0  0  0  0  0  0  0  0  0
  153.4742  138.0193  158.4433 H   0  0  0  0  0  0  0  0  0  0  0  0
  151.8966  137.2406  158.5426 H   0  0  0  0  0  0  0  0  0  0  0  0
  152.7400  137.7007  160.0074 H   0  0  0  0  0  0  0  0  0  0  0  0
  150.9187  139.2992  159.5292 H   0  0  0  0  0  0  0  0  0  0  0  0
  152.9234  140.0854  160.7193 H   0  0  0  0  0  0  0  0  0  0  0  0
  153.6898  140.5196  159.2135 H   0  0  0  0  0  0  0  0  0  0  0  0
  151.1441  141.7520  160.3724 H   0  0  0  0  0  0  0  0  0  0  0  0
  152.7085  142.5225  160.2684 H   0  0  0  0  0  0  0  0  0  0  0  0
  151.1834  143.2843  158.4389 H   0  0  0  0  0  0  0  0  0  0  0  0
  152.6120  142.5097  157.7993 H   0  0  0  0  0  0  0  0  0  0  0  0
  149.8533  141.2414  158.1310 H   0  0  0  0  0  0  0  0  0  0  0  0
  150.5922  141.6924  156.6175 H   0  0  0  0  0  0  0  0  0  0  0  0
  153.4407  140.4734  156.8112 H   0  0  0  0  0  0  0  0  0  0  0  0
  149.6101  137.9819  154.4095 H   0  0  0  0  0  0  0  0  0  0  0  0
  151.1875  137.7947  153.6973 H   0  0  0  0  0  0  0  0  0  0  0  0
  149.2504  135.7985  153.6649 H   0  0  0  0  0  0  0  0  0  0  0  0
  150.2575  133.4108  153.8952 H   0  0  0  0  0  0  0  0  0  0  0  0
  150.1321  133.7537  155.6029 H   0  0  0  0  0  0  0  0  0  0  0  0
  148.1777  132.4076  154.7780 H   0  0  0  0  0  0  0  0  0  0  0  0
  147.6931  133.9141  155.5026 H   0  0  0  0  0  0  0  0  0  0  0  0
  146.3265  135.4867  154.2702 H   0  0  0  0  0  0  0  0  0  0  0  0
  145.0969  135.9976  152.1484 H   0  0  0  0  0  0  0  0  0  0  0  0
  145.5748  134.6053  150.1173 H   0  0  0  0  0  0  0  0  0  0  0  0
  148.3464  132.3102  152.1471 H   0  0  0  0  0  0  0  0  0  0  0  0
  1  2  1  0  0  0  0
  1 26  1  0  0  0  0
  1 27  1  0  0  0  0
  1 28  1  0  0  0  0
  2  7  1  0  0  0  0
  2  3  1  0  0  0  0
  2 29  1  0  0  0  0
  3  4  1  0  0  0  0
  3 30  1  0  0  0  0
  3 31  1  0  0  0  0
  4  5  1  0  0  0  0
  4 32  1  0  0  0  0
  4 33  1  0  0  0  0
  5  6  1  0  0  0  0
  5 34  1  0  0  0  0
  5 35  1  0  0  0  0
  6  7  1  0  0  0  0
  6 36  1  0  0  0  0
  6 37  1  0  0  0  0
  7 24  1  0  0  0  0
  7  8  1  0  0  0  0
  8  9  1  0  0  0  0
  8 38  1  0  0  0  0
  9 10  2  0  0  0  0
  9 11  1  0  0  0  0
 11 12  1  0  0  0  0
 11 24  1  0  0  0  0
 12 13  1  0  0  0  0
 12 39  1  0  0  0  0
 12 40  1  0  0  0  0
 13 14  2  0  0  0  0
 13 15  1  0  0  0  0
 15 16  1  0  0  0  0
 15 41  1  0  0  0  0
 16 17  1  0  0  0  0
 16 42  1  0  0  0  0
 16 43  1  0  0  0  0
 17 18  1  0  0  0  0
 17 44  1  0  0  0  0
 17 45  1  0  0  0  0
 18 23  1  0  0  0  0
 18 19  2  0  0  0  0
 19 20  1  0  0  0  0
 19 46  1  0  0  0  0
 20 21  2  0  0  0  0
 20 47  1  0  0  0  0
 21 22  1  0  0  0  0
 21 48  1  0  0  0  0
 22 23  2  0  0  0  0
 23 49  1  0  0  0  0
 24 25  2  0  0  0  0
M  END
> <s_m_source_file>
AV-unprocessed.smi

> <i_m_source_file_index>
837

> <i_lp_mmshare_version>
43012

> <i_f3d_flags>
0

> <s_epik_input>
W0NIMl0xW0NIMl1bQ0gyXVtDSDJdW0NAQEhdKFtDSDNdKVtDQEBdMTJbTkhdQyg9TylOKEMyPU8pW0NIMl1DKD1PKVtOSF1bQ0gyXVtDSDJdYzNbY0hdW2NIXVtjSF1uW2NIXTM=

> <s_epik_cmdline>
J2VwaWtfcHl0aG9uJywgJy1waCcsICc3LjAnLCAnLXRuJywgJzgnLCAnLW1hJywgJzIwMCcsICctbWV0YWxfYmluZGluZycsICctaW1hZScsICc8aW5maWxlLm1hZT4nLCAnLW9tYWUnLCAnPG91dGZpbGUubWFlPic=

> <r_lp_tautomer_probability>
1

> <r_epik_Ionization_Penalty>
0.0127837

> <r_epik_Ionization_Penalty_Charging>
0

> <r_epik_Ionization_Penalty_Neutral>
0.0127837

> <r_epik_State_Penalty>
0.00987657

> <r_epik_Charging_Adjusted_Penalty>
0.00987657

> <i_epik_Tot_Q>
0

> <i_epik_Tot_abs_Q>
0

> <r_epik_Metal_State_Penalty>
0.0309865

> <b_epik_Metal_Only>
0

> <s_lp_Force_Field>
OPLS_2005

> <r_lp_Energy>
22.8196

> <b_lp_Chiralities_Consistent>
1

> <s_lp_Variant>
AV-unprocessed.smi:837-4

> <Gold.Version>
5.8.1

> <Gold.Id.Protein>
6NUR|6NUR_protein|mol2

> <Gold.PLP.Fitness>
45.4360

> <Gold.PLP.PLP>
-33.9358

> <Gold.PLP.part.hbond>
-3.2239

> <Gold.PLP.part.metal>
0.0000

> <Gold.PLP.part.buried>
-1.5368

> <Gold.PLP.part.nonpolar>
-30.4281

> <Gold.PLP.part.repulsive>
2.9584

> <Gold.PLP.ligand.clash>
0.0000

> <Gold.PLP.ligand.torsion>
0.7541

> <Gold.PLP.Chemscore.Hbond>
2.3583

> <Gold.PLP.Chemscore.CHOScore>
1.9604

> <Gold.PLP.Chemscore.Metal>
0.0000

> <Gold.Chemscore.Hbonds>
donor molecule, donor type, donor heavy atom, donor atom, acceptor molecule, acceptor atom, score
      L1  H    15    41       P1  7948  1.00
      P1  H  7997  8008       L1    10  0.38
      P1  H 10752 10764       L1    14  0.96
      L1  C    21    48       P1  7921  0.95
      L1  C    23    49       P1 10747  1.00

> <Gold.PLP.Chemscore.Internal.Correction>
0.0525

> <Gold.Rescore>
     Score         DG    S(hbond)    S(metal)    S(lipo)     H(rot)  DE(clash)    DE(int)     intcor
     13.83     -15.22       1.57        0.00      78.90       1.86       0.49       0.90       ----

> <Gold.Chemscore.Fitness>
13.8313

> <Gold.Chemscore.DG>
-15.2199

> <Gold.Chemscore.ZeroCoef>
-5.4800

> <Gold.Chemscore.Hbond>
1.5744

> <Gold.Chemscore.Metal>
0.0000

> <Gold.Chemscore.Lipo>
78.8979

> <Gold.Chemscore.Internal_Hbond>
0.0000

> <Gold.Chemscore.DEClash>
0.4904

> <Gold.Chemscore.DEInternal>
0.8982

> <Gold.Chemscore.Rot>
1.8553

> <Gold.Chemscore.Internal.Correction>
   9.000000E+99

> <Gold.Chemscore.Hbonds>
donor molecule, donor type, donor heavy atom, donor atom, acceptor molecule, acceptor atom, score
      L1  H    15    41       P1  7948  0.66
      P1  H  7997  8008       L1    10  0.01
      P1  H 10752 10764       L1    14  0.36

> <Gold.Chemscore.Hbond.Weighted>
-5.2585

> <Gold.Chemscore.Metal.Weighted>
-0.0000

> <Gold.Chemscore.Lipo.Weighted>
-9.2311

> <Gold.Chemscore.Internal_Hbond.Weighted>
0.0000

> <Gold.Chemscore.DEClash.Weighted>
0.4904

> <Gold.Chemscore.DEInternal.Weighted>
0.8982

> <Gold.Chemscore.Rot.Weighted>
4.7497

> <Gold.Chemscore.Internal.Correction.Weighted>
   9.000000E+99

> <Gold.Protein.RotatedTorsions>
[ 6907 6896 6895 6894 ] final   36.43 input  -60.11 | X-H torsion
[ 7974 7965 7964 7962 ] final  -91.35 input  175.53 | X-H torsion
[ 8008 7997 7996 7995 ] final   -3.02 input   59.86 | X-H torsion
[ 10167 10162 10161 10158 ] final  -35.19 input  -65.29 | X-H torsion
[ 10718 10713 10712 10709 ] final   92.45 input   66.30 | X-H torsion
[ 10763 10752 10751 10750 ] final  -28.70 input  -60.55 | X-H torsion
[ 11005 11000 10999 10996 ] final -130.60 input  -57.11 | X-H torsion

> <Gold.Protein.ActiveResidues>
 VAL166  LYS551  ARG553  GLY616  TRP617  ASP618  TYR619  PRO620  LYS621  CYS622 
 ASP623  PHE694  ASN695  SER759  ASP760  ASP761  ALA762  ILE779  LEU786  VAL792 
 PHE793  MET794  SER795  GLU796  ALA797  LYS798  CYS799  TRP800  GLU811  SER814 

> <Gold.Protein.RotatedAtoms>
  152.1296  134.9145  160.0559 H   0  0  0  0  0  0  0  0  0  0  0  0  # atno 6907 bound_to 6896
  152.0254  133.3910  159.4283 H   0  0  0  0  0  0  0  0  0  0  0  0  # atno 6908 bound_to 6896
  150.6855  134.3501  159.4949 H   0  0  0  0  0  0  0  0  0  0  0  0  # atno 6909 bound_to 6896
  145.4143  140.9547  143.2217 H   0  0  0  0  0  0  0  0  0  0  0  0  # atno 7974 bound_to 7965
  154.6295  140.2520  155.7452 H   0  0  0  0  0  0  0  0  0  0  0  0  # atno 8008 bound_to 7997
  156.2471  140.2910  156.0559 H   0  0  0  0  0  0  0  0  0  0  0  0  # atno 8009 bound_to 7997
  155.1768  140.0388  157.2864 H   0  0  0  0  0  0  0  0  0  0  0  0  # atno 8010 bound_to 7997
  140.7170  143.3495  151.2186 H   0  0  0  0  0  0  0  0  0  0  0  0  # atno 10167 bound_to 10162
  157.6958  131.0444  150.3884 H   0  0  0  0  0  0  0  0  0  0  0  0  # atno 10718 bound_to 10713
  153.7526  135.6925  153.4942 H   0  0  0  0  0  0  0  0  0  0  0  0  # atno 10763 bound_to 10752
  153.1993  135.4442  155.0245 H   0  0  0  0  0  0  0  0  0  0  0  0  # atno 10764 bound_to 10752
  154.8182  135.3409  154.7046 H   0  0  0  0  0  0  0  0  0  0  0  0  # atno 10765 bound_to 10752
  140.9331  134.1293  157.4217 H   0  0  0  0  0  0  0  0  0  0  0  0  # atno 11005 bound_to 11000
  144.8288  139.5664  143.6953 LP  0  0  0  0  0  0  0  0  0  0  0  0  # atno 17320 bound_to 7965
  146.2689  139.6587  142.9310 LP  0  0  0  0  0  0  0  0  0  0  0  0  # atno 17321 bound_to 7965
  139.7022  143.9514  152.2910 LP  0  0  0  0  0  0  0  0  0  0  0  0  # atno 17342 bound_to 10162
  139.9211  144.6799  150.8460 LP  0  0  0  0  0  0  0  0  0  0  0  0  # atno 17343 bound_to 10162
  156.4290  130.3968  149.6773 LP  0  0  0  0  0  0  0  0  0  0  0  0  # atno 17370 bound_to 10713
  156.3997  130.7668  151.2675 LP  0  0  0  0  0  0  0  0  0  0  0  0  # atno 17371 bound_to 10713
  139.8801  135.0012  156.6053 LP  0  0  0  0  0  0  0  0  0  0  0  0  # atno 17394 bound_to 11000
  140.7835  133.8640  155.8587 LP  0  0  0  0  0  0  0  0  0  0  0  0  # atno 17395 bound_to 11000

$$$$
