AV-unprocessed.smi:1008|AV-procd|sdf|4412|dock10
  -GOLD-   22720 2353D 1   1.00000     0.00000
 Structure written by MMmdl.
 23 23  0  0  0  0  0  0  0  0  1 V2000
  148.7317  142.0101  158.0321 C   0  0  0  0  0  0  0  0  0  0  0  0
  149.4867  141.3641  156.8848 C   0  0  0  0  0  0  0  0  0  0  0  0
  148.8364  141.3245  155.7006 N   0  0  0  0  0  0  0  0  0  0  0  0
  149.4771  140.7562  154.6792 C   0  0  0  0  0  0  0  0  0  0  0  0
  148.8112  140.7223  153.4787 N   0  0  0  0  0  0  0  0  0  0  0  0
  150.6965  140.2170  154.7015 N   0  0  0  0  0  0  0  0  0  0  0  0
  151.3627  140.2479  155.8760 C   0  0  0  0  0  0  0  0  0  0  0  0
  152.6091  139.6932  155.9182 O   0  0  0  0  0  0  0  0  0  0  0  0
  150.7917  140.8299  157.0347 C   0  0  0  0  0  0  0  0  0  0  0  0
  151.5400  140.8641  158.3611 C   0  0  0  0  0  0  0  0  0  0  0  0
  151.5935  142.2773  158.9572 C   0  0  0  0  0  0  0  0  0  0  0  0
  151.9448  142.2071  160.3218 O   0  0  0  0  0  0  0  0  0  0  0  0
  152.5849  138.7492  155.9511 H   0  0  0  0  0  0  0  0  0  0  0  0
  148.7041  141.3462  158.8961 H   0  0  0  0  0  0  0  0  0  0  0  0
  147.7021  142.2375  157.7533 H   0  0  0  0  0  0  0  0  0  0  0  0
  149.2144  142.9423  158.3256 H   0  0  0  0  0  0  0  0  0  0  0  0
  147.8843  141.1139  153.3971 H   0  0  0  0  0  0  0  0  0  0  0  0
  149.2351  140.2877  152.6719 H   0  0  0  0  0  0  0  0  0  0  0  0
  152.5494  140.4749  158.2292 H   0  0  0  0  0  0  0  0  0  0  0  0
  151.0578  140.1830  159.0631 H   0  0  0  0  0  0  0  0  0  0  0  0
  152.3272  142.8911  158.4341 H   0  0  0  0  0  0  0  0  0  0  0  0
  150.6266  142.7726  158.8639 H   0  0  0  0  0  0  0  0  0  0  0  0
  152.1715  143.0752  160.6187 H   0  0  0  0  0  0  0  0  0  0  0  0
  1 14  1  0  0  0  0
  1 15  1  0  0  0  0
  1 16  1  0  0  0  0
  1  2  1  0  0  0  0
  2  9  2  0  0  0  0
  2  3  1  0  0  0  0
  3  4  2  0  0  0  0
  4  5  1  0  0  0  0
  4  6  1  0  0  0  0
  5 17  1  0  0  0  0
  5 18  1  0  0  0  0
  6  7  2  0  0  0  0
  7  8  1  0  0  0  0
  7  9  1  0  0  0  0
  8 13  1  0  0  0  0
  9 10  1  0  0  0  0
 10 11  1  0  0  0  0
 10 19  1  0  0  0  0
 10 20  1  0  0  0  0
 11 12  1  0  0  0  0
 11 21  1  0  0  0  0
 11 22  1  0  0  0  0
 12 23  1  0  0  0  0
M  END
> <s_m_source_file>
AV-unprocessed.smi

> <i_m_source_file_index>
1008

> <i_lp_mmshare_version>
43012

> <i_f3d_flags>
0

> <s_epik_input>
W0NIM11jMW5jKFtOSDJdKVtuSF1jKD1PKWMxW0NIMl1bQ0gyXVtPSF0=

> <s_epik_cmdline>
J2VwaWtfcHl0aG9uJywgJy1waCcsICc3LjAnLCAnLXRuJywgJzgnLCAnLW1hJywgJzIwMCcsICctbWV0YWxfYmluZGluZycsICctaW1hZScsICc8aW5maWxlLm1hZT4nLCAnLW9tYWUnLCAnPG91dGZpbGUubWFlPic=

> <r_lp_tautomer_probability>
0.0131372

> <r_epik_Ionization_Penalty>
8.55637

> <r_epik_Ionization_Penalty_Charging>
0

> <r_epik_Ionization_Penalty_Neutral>
8.55637

> <r_epik_State_Penalty>
2.72329

> <r_epik_Charging_Adjusted_Penalty>
2.72329

> <i_epik_Tot_Q>
0

> <i_epik_Tot_abs_Q>
0

> <r_epik_Metal_State_Penalty>
2.85363

> <b_epik_Metal_Only>
0

> <s_lp_Force_Field>
OPLS_2005

> <r_lp_Energy>
-5.16374

> <b_lp_Chiralities_Consistent>
1

> <s_lp_Variant>
AV-unprocessed.smi:1008-3

> <Gold.Version>
5.8.1

> <Gold.Id.Protein>
6NUR|6NUR_protein|mol2

> <Gold.PLP.Fitness>
29.4712

> <Gold.PLP.PLP>
-20.7159

> <Gold.PLP.part.hbond>
-3.5350

> <Gold.PLP.part.metal>
0.0000

> <Gold.PLP.part.buried>
-5.2169

> <Gold.PLP.part.nonpolar>
-12.5559

> <Gold.PLP.part.repulsive>
0.3706

> <Gold.PLP.ligand.clash>
0.0000

> <Gold.PLP.ligand.torsion>
0.1225

> <Gold.PLP.Chemscore.Hbond>
3.0000

> <Gold.PLP.Chemscore.CHOScore>
0.0000

> <Gold.PLP.Chemscore.Metal>
0.0000

> <Gold.Chemscore.Hbonds>
donor molecule, donor type, donor heavy atom, donor atom, acceptor molecule, acceptor atom, score
      L1  H     5    18       P1  7957  1.00
      P1  H  7989  7998       L1     6  1.00
      P1  H  7997  8009       L1     8  1.00

> <Gold.PLP.Chemscore.Internal.Correction>
0.0001

> <Gold.Rescore>
     Score         DG    S(hbond)    S(metal)    S(lipo)     H(rot)  DE(clash)    DE(int)     intcor
      9.68      -9.69       2.33        0.00      29.27       2.73       0.00       0.01       ----

> <Gold.Chemscore.Fitness>
9.6842

> <Gold.Chemscore.DG>
-9.6924

> <Gold.Chemscore.ZeroCoef>
-5.4800

> <Gold.Chemscore.Hbond>
2.3267

> <Gold.Chemscore.Metal>
0.0000

> <Gold.Chemscore.Lipo>
29.2656

> <Gold.Chemscore.Internal_Hbond>
0.0000

> <Gold.Chemscore.DEClash>
0.0021

> <Gold.Chemscore.DEInternal>
0.0061

> <Gold.Chemscore.Rot>
2.7277

> <Gold.Chemscore.Internal.Correction>
   9.000000E+99

> <Gold.Chemscore.Hbonds>
donor molecule, donor type, donor heavy atom, donor atom, acceptor molecule, acceptor atom, score
      L1  H     5    18       P1  7957  0.97
      P1  H  7989  7998       L1     6  0.55
      P1  H  7997  8009       L1     8  0.55

> <Gold.Chemscore.Hbond.Weighted>
-7.7712

> <Gold.Chemscore.Metal.Weighted>
-0.0000

> <Gold.Chemscore.Lipo.Weighted>
-3.4241

> <Gold.Chemscore.Internal_Hbond.Weighted>
0.0000

> <Gold.Chemscore.DEClash.Weighted>
0.0021

> <Gold.Chemscore.DEInternal.Weighted>
0.0061

> <Gold.Chemscore.Rot.Weighted>
6.9829

> <Gold.Chemscore.Internal.Correction.Weighted>
   9.000000E+99

> <Gold.Protein.RotatedTorsions>
[ 6907 6896 6895 6894 ] final  -28.51 input  -60.11 | X-H torsion
[ 7974 7965 7964 7962 ] final  -24.97 input  175.53 | X-H torsion
[ 8008 7997 7996 7995 ] final -153.18 input   59.86 | X-H torsion
[ 10167 10162 10161 10158 ] final  -47.08 input  -65.29 | X-H torsion
[ 10718 10713 10712 10709 ] final   30.77 input   66.30 | X-H torsion
[ 10763 10752 10751 10750 ] final  -55.83 input  -60.55 | X-H torsion
[ 11005 11000 10999 10996 ] final  -48.13 input  -57.11 | X-H torsion

> <Gold.Protein.ActiveResidues>
 VAL166  LYS551  ARG553  GLY616  TRP617  ASP618  TYR619  PRO620  LYS621  CYS622 
 ASP623  PHE694  ASN695  SER759  ASP760  ASP761  ALA762  ILE779  LEU786  VAL792 
 PHE793  MET794  SER795  GLU796  ALA797  LYS798  CYS799  TRP800  GLU811  SER814 

> <Gold.Protein.RotatedAtoms>
  151.1320  135.0135  159.8586 H   0  0  0  0  0  0  0  0  0  0  0  0  # atno 6907 bound_to 6896
  152.5451  134.1599  159.8563 H   0  0  0  0  0  0  0  0  0  0  0  0  # atno 6908 bound_to 6896
  151.1667  133.4765  159.2627 H   0  0  0  0  0  0  0  0  0  0  0  0  # atno 6909 bound_to 6896
  146.1521  140.4823  142.8607 H   0  0  0  0  0  0  0  0  0  0  0  0  # atno 7974 bound_to 7965
  155.6668  140.0729  157.2534 H   0  0  0  0  0  0  0  0  0  0  0  0  # atno 8008 bound_to 7997
  154.4131  140.1706  156.1886 H   0  0  0  0  0  0  0  0  0  0  0  0  # atno 8009 bound_to 7997
  155.9651  140.3366  155.6528 H   0  0  0  0  0  0  0  0  0  0  0  0  # atno 8010 bound_to 7997
  140.6790  143.2801  151.3875 H   0  0  0  0  0  0  0  0  0  0  0  0  # atno 10167 bound_to 10162
  157.2639  130.7174  149.6468 H   0  0  0  0  0  0  0  0  0  0  0  0  # atno 10718 bound_to 10713
  154.1969  135.6417  153.5076 H   0  0  0  0  0  0  0  0  0  0  0  0  # atno 10763 bound_to 10752
  153.0021  135.5442  154.6356 H   0  0  0  0  0  0  0  0  0  0  0  0  # atno 10764 bound_to 10752
  154.5759  135.2921  155.0754 H   0  0  0  0  0  0  0  0  0  0  0  0  # atno 10765 bound_to 10752
  141.0682  133.6687  156.3397 H   0  0  0  0  0  0  0  0  0  0  0  0  # atno 11005 bound_to 11000
  144.7917  140.6044  143.6537 LP  0  0  0  0  0  0  0  0  0  0  0  0  # atno 17320 bound_to 7965
  145.4798  139.1496  143.3768 LP  0  0  0  0  0  0  0  0  0  0  0  0  # atno 17321 bound_to 7965
  139.6100  144.1117  152.2289 LP  0  0  0  0  0  0  0  0  0  0  0  0  # atno 17342 bound_to 10162
  140.0528  144.5919  150.7323 LP  0  0  0  0  0  0  0  0  0  0  0  0  # atno 17343 bound_to 10162
  155.9663  130.4389  150.5236 LP  0  0  0  0  0  0  0  0  0  0  0  0  # atno 17370 bound_to 10713
  157.3146  131.0670  151.1976 LP  0  0  0  0  0  0  0  0  0  0  0  0  # atno 17371 bound_to 10713
  140.5729  134.5823  157.5462 LP  0  0  0  0  0  0  0  0  0  0  0  0  # atno 17394 bound_to 11000
  139.9497  134.7638  156.0477 LP  0  0  0  0  0  0  0  0  0  0  0  0  # atno 17395 bound_to 11000

$$$$
