AV-unprocessed.smi:532|AV-procd|sdf|2852|dock2
  -GOLD-   2262023343D 1   1.00000     0.00000
 Structure written by MMmdl.
 48 50  0  0  0  0  0  0  0  0  2 V2000
  149.0724  140.6215  154.4370 C   0  0  0  0  0  0  0  0  0  0  0  0
  149.1646  141.9093  155.0193 O   0  0  0  0  0  0  0  0  0  0  0  0
  149.6036  141.8635  156.3660 C   0  0  0  0  0  0  0  0  0  0  0  0
  151.1363  141.8562  156.3876 C   0  0  0  0  0  0  0  0  0  0  0  0
  151.6516  140.8449  157.3036 N   0  0  0  0  0  0  0  0  0  0  0  0
  151.9535  140.9743  158.6251 C   0  0  0  0  0  0  0  0  0  0  0  0
  151.7729  142.1665  159.3344 N   0  0  0  0  0  0  0  0  0  0  0  0
  152.0706  142.2565  160.7646 C   0  0  0  0  0  0  0  0  0  0  0  0
  152.6940  143.6080  161.1569 C   0  0  2  0  0  0  0  0  0  0  0  0
  153.0440  143.6491  162.6505 C   0  0  0  0  0  0  0  0  0  0  0  0
  151.7387  144.7483  160.7725 C   0  0  0  0  0  0  0  0  0  0  0  0
  151.3332  144.6528  159.2922 C   0  0  1  0  0  0  0  0  0  0  0  0
  152.4422  145.1477  158.3486 C   0  0  0  0  0  0  0  0  0  0  0  0
  150.8304  143.2273  158.9621 C   0  0  0  0  0  0  0  0  0  0  0  0
  152.4729  139.8772  159.1816 N   0  0  0  0  0  0  0  0  0  0  0  0
  152.4910  138.9697  158.1349 C   0  0  0  0  0  0  0  0  0  0  0  0
  152.0134  139.5295  156.9918 C   0  0  0  0  0  0  0  0  0  0  0  0
  151.9503  138.8197  155.6942 C   0  0  0  0  0  0  0  0  0  0  0  0
  151.5426  139.3822  154.6801 O   0  0  0  0  0  0  0  0  0  0  0  0
  152.3943  137.5265  155.7898 N   0  5  0  0  0  0  0  0  0  0  0  0
  152.8757  136.9172  156.9287 C   0  0  0  0  0  0  0  0  0  0  0  0
  153.2569  135.7459  156.9278 O   0  0  0  0  0  0  0  0  0  0  0  0
  152.9391  137.6212  158.1022 N   0  0  0  0  0  0  0  0  0  0  0  0
  153.4579  137.0029  159.3258 C   0  0  0  0  0  0  0  0  0  0  0  0
  148.7260  140.7093  153.4073 H   0  0  0  0  0  0  0  0  0  0  0  0
  148.3642  139.9931  154.9786 H   0  0  0  0  0  0  0  0  0  0  0  0
  150.0435  140.1249  154.4241 H   0  0  0  0  0  0  0  0  0  0  0  0
  149.2216  142.7245  156.9165 H   0  0  0  0  0  0  0  0  0  0  0  0
  149.2189  140.9652  156.8520 H   0  0  0  0  0  0  0  0  0  0  0  0
  151.5200  141.6792  155.3904 H   0  0  0  0  0  0  0  0  0  0  0  0
  151.5263  142.8346  156.6633 H   0  0  0  0  0  0  0  0  0  0  0  0
  151.1552  142.0797  161.3312 H   0  0  0  0  0  0  0  0  0  0  0  0
  152.7593  141.4548  161.0344 H   0  0  0  0  0  0  0  0  0  0  0  0
  153.6247  143.7277  160.6012 H   0  0  0  0  0  0  0  0  0  0  0  0
  152.1543  143.5303  163.2698 H   0  0  0  0  0  0  0  0  0  0  0  0
  153.5126  144.5966  162.9179 H   0  0  0  0  0  0  0  0  0  0  0  0
  153.7402  142.8520  162.9120 H   0  0  0  0  0  0  0  0  0  0  0  0
  150.8416  144.6887  161.3905 H   0  0  0  0  0  0  0  0  0  0  0  0
  152.1913  145.7176  160.9841 H   0  0  0  0  0  0  0  0  0  0  0  0
  150.4919  145.3312  159.1463 H   0  0  0  0  0  0  0  0  0  0  0  0
  153.3278  144.5153  158.3956 H   0  0  0  0  0  0  0  0  0  0  0  0
  152.7490  146.1620  158.6045 H   0  0  0  0  0  0  0  0  0  0  0  0
  152.0975  145.1671  157.3148 H   0  0  0  0  0  0  0  0  0  0  0  0
  150.5568  143.1502  157.9107 H   0  0  0  0  0  0  0  0  0  0  0  0
  149.9041  143.0459  159.5088 H   0  0  0  0  0  0  0  0  0  0  0  0
  152.8597  136.1320  159.5970 H   0  0  0  0  0  0  0  0  0  0  0  0
  153.4482  137.6822  160.1778 H   0  0  0  0  0  0  0  0  0  0  0  0
  154.4889  136.6776  159.1810 H   0  0  0  0  0  0  0  0  0  0  0  0
  1  2  1  0  0  0  0
  1 25  1  0  0  0  0
  1 26  1  0  0  0  0
  1 27  1  0  0  0  0
  2  3  1  0  0  0  0
  3  4  1  0  0  0  0
  3 28  1  0  0  0  0
  3 29  1  0  0  0  0
  4  5  1  0  0  0  0
  4 30  1  0  0  0  0
  4 31  1  0  0  0  0
  5 17  1  0  0  0  0
  5  6  1  0  0  0  0
  6  7  1  0  0  0  0
  6 15  2  0  0  0  0
  7 14  1  0  0  0  0
  7  8  1  0  0  0  0
  8  9  1  0  0  0  0
  8 32  1  0  0  0  0
  8 33  1  0  0  0  0
  9 10  1  0  0  0  0
  9 11  1  0  0  0  0
  9 34  1  0  0  0  0
 10 35  1  0  0  0  0
 10 36  1  0  0  0  0
 10 37  1  0  0  0  0
 11 12  1  0  0  0  0
 11 38  1  0  0  0  0
 11 39  1  0  0  0  0
 12 13  1  0  0  0  0
 12 14  1  0  0  0  0
 12 40  1  0  0  0  0
 13 41  1  0  0  0  0
 13 42  1  0  0  0  0
 13 43  1  0  0  0  0
 14 44  1  0  0  0  0
 14 45  1  0  0  0  0
 15 16  1  0  0  0  0
 16 23  1  0  0  0  0
 16 17  2  0  0  0  0
 17 18  1  0  0  0  0
 18 19  2  0  0  0  0
 18 20  1  0  0  0  0
 20 21  1  0  0  0  0
 21 22  2  0  0  0  0
 21 23  1  0  0  0  0
 23 24  1  0  0  0  0
 24 46  1  0  0  0  0
 24 47  1  0  0  0  0
 24 48  1  0  0  0  0
M  CHG  1  20  -1
M  END
> <s_m_source_file>
AV-unprocessed.smi

> <i_m_source_file_index>
532

> <i_lp_mmshare_version>
43012

> <i_f3d_flags>
0

> <s_epik_input>
W0NIM11uMWMoPU8pW25IXWMoPU8pYyhjMTIpbihbQ0gyXVtDSDJdT1tDSDNdKWMobjIpTjNbQ0gyXVtDQEBIXShbQ0gzXSlbQ0gyXVtDQEBIXShbQ0gzXSlbQ0gyXTM=

> <s_epik_cmdline>
J2VwaWtfcHl0aG9uJywgJy1waCcsICc3LjAnLCAnLXRuJywgJzgnLCAnLW1hJywgJzIwMCcsICctbWV0YWxfYmluZGluZycsICctaW1hZScsICc8aW5maWxlLm1hZT4nLCAnLW9tYWUnLCAnPG91dGZpbGUubWFlPic=

> <r_lp_tautomer_probability>
1

> <r_epik_Ionization_Penalty>
5.12128

> <r_epik_Ionization_Penalty_Charging>
0.0789629

> <r_epik_Ionization_Penalty_Neutral>
5.04232

> <r_epik_State_Penalty>
5.03111

> <r_epik_Charging_Adjusted_Penalty>
5.11007

> <i_epik_Tot_Q>
-1

> <i_epik_Tot_abs_Q>
1

> <r_epik_Metal_State_Penalty>
1.14201

> <b_epik_Metal_Only>
1

> <s_lp_Force_Field>
OPLS_2005

> <r_lp_Energy>
45.9264

> <b_lp_Chiralities_Consistent>
1

> <s_lp_Variant>
AV-unprocessed.smi:532-5

> <Gold.Version>
5.8.1

> <Gold.Id.Protein>
6NUR|6NUR_protein|mol2

> <Gold.PLP.Fitness>
46.3533

> <Gold.PLP.PLP>
-44.0396

> <Gold.PLP.part.hbond>
-3.0000

> <Gold.PLP.part.metal>
0.0000

> <Gold.PLP.part.buried>
-5.8990

> <Gold.PLP.part.nonpolar>
-33.0882

> <Gold.PLP.part.repulsive>
0.3016

> <Gold.PLP.ligand.clash>
2.2139

> <Gold.PLP.ligand.torsion>
0.9643

> <Gold.PLP.Chemscore.Hbond>
2.0000

> <Gold.PLP.Chemscore.CHOScore>
0.0000

> <Gold.PLP.Chemscore.Metal>
0.0000

> <Gold.Chemscore.Hbonds>
donor molecule, donor type, donor heavy atom, donor atom, acceptor molecule, acceptor atom, score
      P1  H  7989  7998       L1    19  1.00
      P1  H 10752 10763       L1    22  1.00

> <Gold.PLP.Chemscore.Internal.Correction>
0.4561

> <Gold.Rescore>
     Score         DG    S(hbond)    S(metal)    S(lipo)     H(rot)  DE(clash)    DE(int)     intcor
     16.92     -20.42       1.66        0.00     111.31       1.41       1.37       2.12       ----

> <Gold.Chemscore.Fitness>
16.9244

> <Gold.Chemscore.DG>
-20.4179

> <Gold.Chemscore.ZeroCoef>
-5.4800

> <Gold.Chemscore.Hbond>
1.6576

> <Gold.Chemscore.Metal>
0.0000

> <Gold.Chemscore.Lipo>
111.3096

> <Gold.Chemscore.Internal_Hbond>
0.0000

> <Gold.Chemscore.DEClash>
1.3706

> <Gold.Chemscore.DEInternal>
2.1230

> <Gold.Chemscore.Rot>
1.4147

> <Gold.Chemscore.Internal.Correction>
   9.000000E+99

> <Gold.Chemscore.Hbonds>
donor molecule, donor type, donor heavy atom, donor atom, acceptor molecule, acceptor atom, score
      P1  H  7989  7998       L1    19  0.99
      P1  H 10752 10763       L1    22  0.74

> <Gold.Chemscore.Hbond.Weighted>
-5.5362

> <Gold.Chemscore.Metal.Weighted>
-0.0000

> <Gold.Chemscore.Lipo.Weighted>
-13.0232

> <Gold.Chemscore.Internal_Hbond.Weighted>
0.0000

> <Gold.Chemscore.DEClash.Weighted>
1.3706

> <Gold.Chemscore.DEInternal.Weighted>
2.1230

> <Gold.Chemscore.Rot.Weighted>
3.6216

> <Gold.Chemscore.Internal.Correction.Weighted>
   9.000000E+99

> <Gold.Protein.RotatedTorsions>
[ 6907 6896 6895 6894 ] final  -18.64 input  -60.11 | X-H torsion
[ 7974 7965 7964 7962 ] final -142.26 input  175.53 | X-H torsion
[ 8008 7997 7996 7995 ] final  140.03 input   59.86 | X-H torsion
[ 10167 10162 10161 10158 ] final  -30.11 input  -65.29 | X-H torsion
[ 10718 10713 10712 10709 ] final  159.17 input   66.30 | X-H torsion
[ 10763 10752 10751 10750 ] final  136.46 input  -60.55 | X-H torsion
[ 11005 11000 10999 10996 ] final  -97.96 input  -57.11 | X-H torsion

> <Gold.Protein.ActiveResidues>
 VAL166  LYS551  ARG553  GLY616  TRP617  ASP618  TYR619  PRO620  LYS621  CYS622 
 ASP623  PHE694  ASN695  SER759  ASP760  ASP761  ALA762  ILE779  LEU786  VAL792 
 PHE793  MET794  SER795  GLU796  ALA797  LYS798  CYS799  TRP800  GLU811  SER814 

> <Gold.Protein.RotatedAtoms>
  151.2752  135.0697  159.9148 H   0  0  0  0  0  0  0  0  0  0  0  0  # atno 6907 bound_to 6896
  152.5344  134.0089  159.7939 H   0  0  0  0  0  0  0  0  0  0  0  0  # atno 6908 bound_to 6896
  151.0334  133.5720  159.2689 H   0  0  0  0  0  0  0  0  0  0  0  0  # atno 6909 bound_to 6896
  144.8456  140.5979  143.5423 H   0  0  0  0  0  0  0  0  0  0  0  0  # atno 7974 bound_to 7965
  156.2983  140.2352  156.4334 H   0  0  0  0  0  0  0  0  0  0  0  0  # atno 8008 bound_to 7997
  154.8250  140.0436  157.1457 H   0  0  0  0  0  0  0  0  0  0  0  0  # atno 8009 bound_to 7997
  154.9272  140.3012  155.5189 H   0  0  0  0  0  0  0  0  0  0  0  0  # atno 8010 bound_to 7997
  140.7253  143.3874  151.1490 H   0  0  0  0  0  0  0  0  0  0  0  0  # atno 10167 bound_to 10162
  157.1678  131.0603  151.2198 H   0  0  0  0  0  0  0  0  0  0  0  0  # atno 10718 bound_to 10713
  153.8568  135.3072  155.3435 H   0  0  0  0  0  0  0  0  0  0  0  0  # atno 10763 bound_to 10752
  154.7867  135.4806  153.9964 H   0  0  0  0  0  0  0  0  0  0  0  0  # atno 10764 bound_to 10752
  153.1485  135.6838  153.9012 H   0  0  0  0  0  0  0  0  0  0  0  0  # atno 10765 bound_to 10752
  141.1361  133.8210  157.0776 H   0  0  0  0  0  0  0  0  0  0  0  0  # atno 11005 bound_to 11000
  145.4603  139.1513  143.3870 LP  0  0  0  0  0  0  0  0  0  0  0  0  # atno 17320 bound_to 7965
  146.2741  140.4733  142.8802 LP  0  0  0  0  0  0  0  0  0  0  0  0  # atno 17321 bound_to 7965
  139.7474  143.8831  152.3067 LP  0  0  0  0  0  0  0  0  0  0  0  0  # atno 17342 bound_to 10162
  139.8673  144.7086  150.9029 LP  0  0  0  0  0  0  0  0  0  0  0  0  # atno 17343 bound_to 10162
  157.4072  130.7365  149.6811 LP  0  0  0  0  0  0  0  0  0  0  0  0  # atno 17370 bound_to 10713
  155.9743  130.4105  150.3933 LP  0  0  0  0  0  0  0  0  0  0  0  0  # atno 17371 bound_to 10713
  140.0472  134.9824  157.1070 LP  0  0  0  0  0  0  0  0  0  0  0  0  # atno 17394 bound_to 11000
  140.4045  134.2047  155.7163 LP  0  0  0  0  0  0  0  0  0  0  0  0  # atno 17395 bound_to 11000

$$$$
