AV-unprocessed.smi:148|AV-procd|sdf|1231|dock2
  -GOLD-   2262018433D 1   1.00000     0.00000
 Structure written by MMmdl.
 63 67  0  0  0  0  0  0  0  0  1 V2000
  147.2748  137.5897  160.0388 O   0  0  0  0  0  0  0  0  0  0  0  0
  148.1034  136.5709  159.5169 C   0  0  0  0  0  0  0  0  0  0  0  0
  147.6278  135.1647  159.9694 C   0  0  1  0  0  0  0  0  0  0  0  0
  148.2130  134.0419  159.0698 C   0  0  0  0  0  0  0  0  0  0  0  0
  147.6395  134.0048  157.7361 N   0  0  0  0  0  0  0  0  0  0  0  0
  146.3025  133.9618  157.4131 C   0  0  0  0  0  0  0  0  0  0  0  0
  146.0416  133.9332  156.1349 N   0  0  0  0  0  0  0  0  0  0  0  0
  147.2935  133.9587  155.5309 C   0  0  0  0  0  0  0  0  0  0  0  0
  147.7528  133.9367  154.1825 C   0  0  0  0  0  0  0  0  0  0  0  0
  146.9579  133.8784  153.0882 N   0  0  0  0  0  0  0  0  0  0  0  0
  146.1293  135.0840  153.0291 C   0  0  0  0  0  0  0  0  0  0  0  0
  145.3899  135.2000  151.6897 C   0  0  0  0  0  0  0  0  0  0  0  0
  144.5796  133.9292  151.4170 C   0  0  0  0  0  0  0  0  0  0  0  0
  145.5068  132.7086  151.4620 C   0  0  0  0  0  0  0  0  0  0  0  0
  146.2553  132.6091  152.8173 C   0  0  1  0  0  0  0  0  0  0  0  0
  147.1723  131.3463  152.9185 C   0  0  1  0  0  0  0  0  0  0  0  0
  147.5444  130.9422  154.3580 C   0  0  0  0  0  0  0  0  0  0  0  0
  147.7564  129.4195  154.3454 C   0  0  0  0  0  0  0  0  0  0  0  0
  147.5556  128.9703  152.8954 C   0  0  0  0  0  0  0  0  0  0  0  0
  146.6563  130.0436  152.2831 C   0  0  2  0  0  0  0  0  0  0  0  0
  146.7613  130.0426  150.8752 O   0  0  0  0  0  0  0  0  0  0  0  0
  149.0901  134.0018  153.9668 N   0  0  0  0  0  0  0  0  0  0  0  0
  149.9335  134.0578  155.0019 C   0  0  0  0  0  0  0  0  0  0  0  0
  149.6541  134.0673  156.3070 N   0  0  0  0  0  0  0  0  0  0  0  0
  148.3091  134.0179  156.5260 C   0  0  0  0  0  0  0  0  0  0  0  0
  147.8889  134.8936  161.4836 C   0  0  1  0  0  0  0  0  0  0  0  0
  147.0763  135.7623  162.4387 C   0  0  0  0  0  0  0  0  0  0  0  0
  145.7403  135.0266  162.5438 C   0  0  0  0  0  0  0  0  0  0  0  0
  146.0169  133.6698  162.2129 O   0  0  0  0  0  0  0  0  0  0  0  0
  147.4096  133.5191  161.9724 C   0  0  0  0  0  0  0  0  0  0  0  0
  146.4091  137.4886  159.6730 H   0  0  0  0  0  0  0  0  0  0  0  0
  148.1270  136.6594  158.4328 H   0  0  0  0  0  0  0  0  0  0  0  0
  149.1287  136.7618  159.8336 H   0  0  0  0  0  0  0  0  0  0  0  0
  146.5474  135.1506  159.8196 H   0  0  0  0  0  0  0  0  0  0  0  0
  149.2929  134.1634  158.9758 H   0  0  0  0  0  0  0  0  0  0  0  0
  148.0493  133.0593  159.5088 H   0  0  0  0  0  0  0  0  0  0  0  0
  145.5222  133.9450  158.1601 H   0  0  0  0  0  0  0  0  0  0  0  0
  145.4071  135.0613  153.8468 H   0  0  0  0  0  0  0  0  0  0  0  0
  146.7451  135.9729  153.1763 H   0  0  0  0  0  0  0  0  0  0  0  0
  144.7336  136.0704  151.6988 H   0  0  0  0  0  0  0  0  0  0  0  0
  146.1092  135.3592  150.8852 H   0  0  0  0  0  0  0  0  0  0  0  0
  143.7889  133.8236  152.1607 H   0  0  0  0  0  0  0  0  0  0  0  0
  144.0912  133.9965  150.4445 H   0  0  0  0  0  0  0  0  0  0  0  0
  144.9192  131.8128  151.2684 H   0  0  0  0  0  0  0  0  0  0  0  0
  146.2176  132.7955  150.6406 H   0  0  0  0  0  0  0  0  0  0  0  0
  145.4890  132.5083  153.5859 H   0  0  0  0  0  0  0  0  0  0  0  0
  148.1327  131.5610  152.4493 H   0  0  0  0  0  0  0  0  0  0  0  0
  148.4428  131.4671  154.6854 H   0  0  0  0  0  0  0  0  0  0  0  0
  146.7610  131.1900  155.0725 H   0  0  0  0  0  0  0  0  0  0  0  0
  148.7414  129.1386  154.7194 H   0  0  0  0  0  0  0  0  0  0  0  0
  147.0155  128.9419  154.9877 H   0  0  0  0  0  0  0  0  0  0  0  0
  148.5211  128.9568  152.3867 H   0  0  0  0  0  0  0  0  0  0  0  0
  147.1284  127.9698  152.8200 H   0  0  0  0  0  0  0  0  0  0  0  0
  145.6259  129.8394  152.5705 H   0  0  0  0  0  0  0  0  0  0  0  0
  147.5786  130.4528  150.6346 H   0  0  0  0  0  0  0  0  0  0  0  0
  150.9824  134.0990  154.7483 H   0  0  0  0  0  0  0  0  0  0  0  0
  148.9555  135.0080  161.6822 H   0  0  0  0  0  0  0  0  0  0  0  0
  147.5602  135.7628  163.4168 H   0  0  0  0  0  0  0  0  0  0  0  0
  146.9637  136.8046  162.1488 H   0  0  0  0  0  0  0  0  0  0  0  0
  145.3065  135.1097  163.5407 H   0  0  0  0  0  0  0  0  0  0  0  0
  145.0202  135.4212  161.8262 H   0  0  0  0  0  0  0  0  0  0  0  0
  147.6112  132.6898  161.2980 H   0  0  0  0  0  0  0  0  0  0  0  0
  147.8920  133.2758  162.9206 H   0  0  0  0  0  0  0  0  0  0  0  0
  1  2  1  0  0  0  0
  1 31  1  0  0  0  0
  2  3  1  0  0  0  0
  2 32  1  0  0  0  0
  2 33  1  0  0  0  0
  3  4  1  0  0  0  0
  3 26  1  0  0  0  0
  3 34  1  0  0  0  0
  4  5  1  0  0  0  0
  4 35  1  0  0  0  0
  4 36  1  0  0  0  0
  5 25  1  0  0  0  0
  5  6  1  0  0  0  0
  6  7  2  0  0  0  0
  6 37  1  0  0  0  0
  7  8  1  0  0  0  0
  8 25  2  0  0  0  0
  8  9  1  0  0  0  0
  9 10  1  0  0  0  0
  9 22  2  0  0  0  0
 10 15  1  0  0  0  0
 10 11  1  0  0  0  0
 11 12  1  0  0  0  0
 11 38  1  0  0  0  0
 11 39  1  0  0  0  0
 12 13  1  0  0  0  0
 12 40  1  0  0  0  0
 12 41  1  0  0  0  0
 13 14  1  0  0  0  0
 13 42  1  0  0  0  0
 13 43  1  0  0  0  0
 14 15  1  0  0  0  0
 14 44  1  0  0  0  0
 14 45  1  0  0  0  0
 15 16  1  0  0  0  0
 15 46  1  0  0  0  0
 16 20  1  0  0  0  0
 16 17  1  0  0  0  0
 16 47  1  0  0  0  0
 17 18  1  0  0  0  0
 17 48  1  0  0  0  0
 17 49  1  0  0  0  0
 18 19  1  0  0  0  0
 18 50  1  0  0  0  0
 18 51  1  0  0  0  0
 19 20  1  0  0  0  0
 19 52  1  0  0  0  0
 19 53  1  0  0  0  0
 20 21  1  0  0  0  0
 20 54  1  0  0  0  0
 21 55  1  0  0  0  0
 22 23  1  0  0  0  0
 23 24  2  0  0  0  0
 23 56  1  0  0  0  0
 24 25  1  0  0  0  0
 26 30  1  0  0  0  0
 26 27  1  0  0  0  0
 26 57  1  0  0  0  0
 27 28  1  0  0  0  0
 27 58  1  0  0  0  0
 27 59  1  0  0  0  0
 28 29  1  0  0  0  0
 28 60  1  0  0  0  0
 28 61  1  0  0  0  0
 29 30  1  0  0  0  0
 30 62  1  0  0  0  0
 30 63  1  0  0  0  0
M  END
> <s_m_source_file>
AV-unprocessed.smi

> <i_m_source_file_index>
148

> <i_lp_mmshare_version>
43012

> <i_f3d_flags>
0

> <s_epik_input>
W0NIMl0xT1tDSDJdW0NIMl1bQ0BIXTFbQ0BIXShbQ0gyXVtPSF0pW0NIMl1uKFtjSF1uMiljKGMyMyluW2NIXW5jM040W0NIMl1bQ0gyXVtDSDJdW0NIMl1bQ0BIXTRbQ0BASF01W0NIMl1bQ0gyXVtDSDJdW0NASF01W09IXQ==

> <s_epik_cmdline>
J2VwaWtfcHl0aG9uJywgJy1waCcsICc3LjAnLCAnLXRuJywgJzgnLCAnLW1hJywgJzIwMCcsICctbWV0YWxfYmluZGluZycsICctaW1hZScsICc8aW5maWxlLm1hZT4nLCAnLW9tYWUnLCAnPG91dGZpbGUubWFlPic=

> <r_lp_tautomer_probability>
1

> <r_epik_Ionization_Penalty>
0.00556303

> <r_epik_Ionization_Penalty_Charging>
0

> <r_epik_Ionization_Penalty_Neutral>
0.00556303

> <r_epik_State_Penalty>
0.00401767

> <r_epik_Charging_Adjusted_Penalty>
0.00401767

> <i_epik_Tot_Q>
0

> <i_epik_Tot_abs_Q>
0

> <r_epik_Metal_State_Penalty>
-0

> <b_epik_Metal_Only>
0

> <s_lp_Force_Field>
OPLS_2005

> <r_lp_Energy>
69.9352

> <b_lp_Chiralities_Consistent>
1

> <s_lp_Variant>
AV-unprocessed.smi:148-30

> <Gold.Version>
5.8.1

> <Gold.Id.Protein>
6NUR|6NUR_protein|mol2

> <Gold.PLP.Fitness>
43.0888

> <Gold.PLP.PLP>
-38.2030

> <Gold.PLP.part.hbond>
-1.9457

> <Gold.PLP.part.metal>
0.0000

> <Gold.PLP.part.buried>
-6.3647

> <Gold.PLP.part.nonpolar>
-29.8975

> <Gold.PLP.part.repulsive>
0.3530

> <Gold.PLP.ligand.clash>
0.0000

> <Gold.PLP.ligand.torsion>
0.7918

> <Gold.PLP.Chemscore.Hbond>
2.0000

> <Gold.PLP.Chemscore.CHOScore>
0.0000

> <Gold.PLP.Chemscore.Metal>
0.0000

> <Gold.Chemscore.Hbonds>
donor molecule, donor type, donor heavy atom, donor atom, acceptor molecule, acceptor atom, score
      L1  H    21    55       P1 10747  0.88
      P1  H  6934  6947       L1     1  0.98

> <Gold.PLP.Chemscore.Internal.Correction>
0.4693

> <Gold.Rescore>
     Score         DG    S(hbond)    S(metal)    S(lipo)     H(rot)  DE(clash)    DE(int)     intcor
     11.64     -14.49       1.92        0.00      94.87       3.32       0.00       2.85       ----

> <Gold.Chemscore.Fitness>
11.6379

> <Gold.Chemscore.DG>
-14.4941

> <Gold.Chemscore.ZeroCoef>
-5.4800

> <Gold.Chemscore.Hbond>
1.9206

> <Gold.Chemscore.Metal>
0.0000

> <Gold.Chemscore.Lipo>
94.8666

> <Gold.Chemscore.Internal_Hbond>
0.0000

> <Gold.Chemscore.DEClash>
0.0015

> <Gold.Chemscore.DEInternal>
2.8548

> <Gold.Chemscore.Rot>
3.3203

> <Gold.Chemscore.Internal.Correction>
   9.000000E+99

> <Gold.Chemscore.Hbonds>
donor molecule, donor type, donor heavy atom, donor atom, acceptor molecule, acceptor atom, score
      L1  H    21    55       P1 10747  0.86
      P1  H  6934  6947       L1     1  0.42

> <Gold.Chemscore.Hbond.Weighted>
-6.4147

> <Gold.Chemscore.Metal.Weighted>
-0.0000

> <Gold.Chemscore.Lipo.Weighted>
-11.0994

> <Gold.Chemscore.Internal_Hbond.Weighted>
0.0000

> <Gold.Chemscore.DEClash.Weighted>
0.0015

> <Gold.Chemscore.DEInternal.Weighted>
2.8548

> <Gold.Chemscore.Rot.Weighted>
8.5000

> <Gold.Chemscore.Internal.Correction.Weighted>
   9.000000E+99

> <Gold.Protein.RotatedTorsions>
[ 6907 6896 6895 6894 ] final   93.78 input  -60.11 | X-H torsion
[ 7974 7965 7964 7962 ] final    6.48 input  175.53 | X-H torsion
[ 8008 7997 7996 7995 ] final -170.55 input   59.86 | X-H torsion
[ 10167 10162 10161 10158 ] final  122.92 input  -65.29 | X-H torsion
[ 10718 10713 10712 10709 ] final -130.87 input   66.30 | X-H torsion
[ 10763 10752 10751 10750 ] final  -37.06 input  -60.55 | X-H torsion
[ 11005 11000 10999 10996 ] final  164.57 input  -57.11 | X-H torsion

> <Gold.Protein.ActiveResidues>
 VAL166  LYS551  ARG553  GLY616  TRP617  ASP618  TYR619  PRO620  LYS621  CYS622 
 ASP623  PHE694  ASN695  SER759  ASP760  ASP761  ALA762  ILE779  LEU786  VAL792 
 PHE793  MET794  SER795  GLU796  ALA797  LYS798  CYS799  TRP800  GLU811  SER814 

> <Gold.Protein.RotatedAtoms>
  152.5451  134.1295  159.8432 H   0  0  0  0  0  0  0  0  0  0  0  0  # atno 6907 bound_to 6896
  151.1342  133.5008  159.2606 H   0  0  0  0  0  0  0  0  0  0  0  0  # atno 6908 bound_to 6896
  151.1642  135.0298  159.8778 H   0  0  0  0  0  0  0  0  0  0  0  0  # atno 6909 bound_to 6896
  146.2434  140.0227  142.8396 H   0  0  0  0  0  0  0  0  0  0  0  0  # atno 7974 bound_to 7965
  155.9198  140.1072  157.1216 H   0  0  0  0  0  0  0  0  0  0  0  0  # atno 8008 bound_to 7997
  154.4052  140.1258  156.4729 H   0  0  0  0  0  0  0  0  0  0  0  0  # atno 8009 bound_to 7997
  155.7210  140.3470  155.5018 H   0  0  0  0  0  0  0  0  0  0  0  0  # atno 8010 bound_to 7997
  139.5830  144.6994  151.3481 H   0  0  0  0  0  0  0  0  0  0  0  0  # atno 10167 bound_to 10162
  156.2187  130.6965  151.0732 H   0  0  0  0  0  0  0  0  0  0  0  0  # atno 10718 bound_to 10713
  153.8900  135.6813  153.4761 H   0  0  0  0  0  0  0  0  0  0  0  0  # atno 10763 bound_to 10752
  153.1186  135.4750  154.9155 H   0  0  0  0  0  0  0  0  0  0  0  0  # atno 10764 bound_to 10752
  154.7627  135.3215  154.8300 H   0  0  0  0  0  0  0  0  0  0  0  0  # atno 10765 bound_to 10752
  140.2473  134.8004  157.3468 H   0  0  0  0  0  0  0  0  0  0  0  0  # atno 11005 bound_to 11000
  145.1226  140.9471  143.4591 LP  0  0  0  0  0  0  0  0  0  0  0  0  # atno 17320 bound_to 7965
  145.0466  139.3216  143.5950 LP  0  0  0  0  0  0  0  0  0  0  0  0  # atno 17321 bound_to 7965
  140.7106  143.7401  150.7559 LP  0  0  0  0  0  0  0  0  0  0  0  0  # atno 17342 bound_to 10162
  140.0939  143.4852  152.2463 LP  0  0  0  0  0  0  0  0  0  0  0  0  # atno 17343 bound_to 10162
  157.7076  131.0749  150.6612 LP  0  0  0  0  0  0  0  0  0  0  0  0  # atno 17370 bound_to 10713
  156.6674  130.4529  149.5668 LP  0  0  0  0  0  0  0  0  0  0  0  0  # atno 17371 bound_to 10713
  140.1593  134.4749  155.7906 LP  0  0  0  0  0  0  0  0  0  0  0  0  # atno 17394 bound_to 11000
  141.2205  133.6894  156.7516 LP  0  0  0  0  0  0  0  0  0  0  0  0  # atno 17395 bound_to 11000

$$$$
