AV-unprocessed.smi:2652|AV-procd|sdf|10294|dock6
  -GOLD-   2272014303D 1   1.00000     0.00000
 Structure written by MMmdl.
 37 38  0  0  0  0  0  0  0  0  2 V2000
  151.4202  144.9244  159.5330 C   0  0  0  0  0  0  0  0  0  0  0  0
  152.1581  143.6207  159.7864 C   0  0  0  0  0  0  0  0  0  0  0  0
  152.7426  143.2703  160.9369 C   0  0  0  0  0  0  0  0  0  0  0  0
  153.4640  141.6811  160.8719 S   0  0  0  0  0  0  0  0  0  0  0  0
  152.9232  141.4956  159.1647 C   0  0  0  0  0  0  0  0  0  0  0  0
  153.1520  140.4865  158.4998 O   0  0  0  0  0  0  0  0  0  0  0  0
  152.2453  142.6514  158.7767 N   0  0  0  0  0  0  0  0  0  0  0  0
  151.6859  142.8305  157.4300 C   0  0  0  0  0  0  0  0  0  0  0  0
  150.7082  141.7204  157.0198 C   0  0  0  0  0  0  0  0  0  0  0  0
  150.8886  140.5621  157.3960 O   0  0  0  0  0  0  0  0  0  0  0  0
  149.6829  142.1301  156.2497 N   0  0  0  0  0  0  0  0  0  0  0  0
  148.5399  141.4132  155.6596 C   0  0  0  0  0  0  0  0  0  0  0  0
  147.7969  140.7783  156.8636 C   0  0  0  0  0  0  0  0  0  0  0  0
  146.8063  140.0515  156.6257 O   0  0  0  0  0  0  0  0  0  0  0  0
  148.1990  141.0628  158.0144 O   0  5  0  0  0  0  0  0  0  0  0  0
  147.5778  142.3012  154.8058 C   0  0  0  0  0  0  0  0  0  0  0  0
  146.4957  141.4910  154.0654 C   0  0  0  0  0  0  0  0  0  0  0  0
  147.1252  140.4137  153.1710 C   0  0  0  0  0  0  0  0  0  0  0  0
  148.0591  139.5009  153.9782 C   0  0  0  0  0  0  0  0  0  0  0  0
  149.1315  140.3190  154.7244 C   0  0  0  0  0  0  0  0  0  0  0  0
  151.1363  145.3872  160.4786 H   0  0  0  0  0  0  0  0  0  0  0  0
  150.5057  144.7698  158.9605 H   0  0  0  0  0  0  0  0  0  0  0  0
  152.0598  145.6225  158.9925 H   0  0  0  0  0  0  0  0  0  0  0  0
  152.7837  143.8606  161.8406 H   0  0  0  0  0  0  0  0  0  0  0  0
  151.1917  143.7985  157.3449 H   0  0  0  0  0  0  0  0  0  0  0  0
  152.4970  142.8574  156.7004 H   0  0  0  0  0  0  0  0  0  0  0  0
  149.6976  143.1119  156.0149 H   0  0  0  0  0  0  0  0  0  0  0  0
  147.0987  143.0685  155.4160 H   0  0  0  0  0  0  0  0  0  0  0  0
  148.1537  142.8350  154.0489 H   0  0  0  0  0  0  0  0  0  0  0  0
  145.8154  141.0265  154.7796 H   0  0  0  0  0  0  0  0  0  0  0  0
  145.8866  142.1614  153.4586 H   0  0  0  0  0  0  0  0  0  0  0  0
  146.3441  139.8210  152.6943 H   0  0  0  0  0  0  0  0  0  0  0  0
  147.6871  140.8906  152.3669 H   0  0  0  0  0  0  0  0  0  0  0  0
  147.4750  138.9109  154.6852 H   0  0  0  0  0  0  0  0  0  0  0  0
  148.5404  138.7852  153.3114 H   0  0  0  0  0  0  0  0  0  0  0  0
  149.7759  140.7965  153.9847 H   0  0  0  0  0  0  0  0  0  0  0  0
  149.7850  139.6416  155.2762 H   0  0  0  0  0  0  0  0  0  0  0  0
  1  2  1  0  0  0  0
  1 21  1  0  0  0  0
  1 22  1  0  0  0  0
  1 23  1  0  0  0  0
  2  7  1  0  0  0  0
  2  3  2  0  0  0  0
  3  4  1  0  0  0  0
  3 24  1  0  0  0  0
  4  5  1  0  0  0  0
  5  6  2  0  0  0  0
  5  7  1  0  0  0  0
  7  8  1  0  0  0  0
  8  9  1  0  0  0  0
  8 25  1  0  0  0  0
  8 26  1  0  0  0  0
  9 10  2  0  0  0  0
  9 11  1  0  0  0  0
 11 12  1  0  0  0  0
 11 27  1  0  0  0  0
 12 20  1  0  0  0  0
 12 13  1  0  0  0  0
 12 16  1  0  0  0  0
 13 14  2  0  0  0  0
 13 15  1  0  0  0  0
 16 17  1  0  0  0  0
 16 28  1  0  0  0  0
 16 29  1  0  0  0  0
 17 18  1  0  0  0  0
 17 30  1  0  0  0  0
 17 31  1  0  0  0  0
 18 19  1  0  0  0  0
 18 32  1  0  0  0  0
 18 33  1  0  0  0  0
 19 20  1  0  0  0  0
 19 34  1  0  0  0  0
 19 35  1  0  0  0  0
 20 36  1  0  0  0  0
 20 37  1  0  0  0  0
M  CHG  1  15  -1
M  END
> <s_m_source_file>
AV-unprocessed.smi

> <i_m_source_file_index>
2652

> <i_lp_mmshare_version>
43012

> <i_f3d_flags>
0

> <s_epik_input>
W0NIM11jMVtjSF1zYyg9TyluMVtDSDJdQyg9TylbTkhdQzIoQyg9TylbT0hdKVtDSDJdW0NIMl1bQ0gyXVtDSDJdW0NIMl0y

> <s_epik_cmdline>
J2VwaWtfcHl0aG9uJywgJy1waCcsICc3LjAnLCAnLXRuJywgJzgnLCAnLW1hJywgJzIwMCcsICctbWV0YWxfYmluZGluZycsICctaW1hZScsICc8aW5maWxlLm1hZT4nLCAnLW9tYWUnLCAnPG91dGZpbGUubWFlPic=

> <r_epik_Ionization_Penalty>
0.000325241

> <r_epik_Ionization_Penalty_Charging>
0.000325125

> <r_epik_Ionization_Penalty_Neutral>
1.16183e-07

> <r_epik_State_Penalty>
0.000195685

> <r_epik_Charging_Adjusted_Penalty>
0.00052081

> <i_epik_Tot_Q>
-1

> <i_epik_Tot_abs_Q>
1

> <r_epik_Metal_State_Penalty>
-0

> <b_epik_Metal_Only>
0

> <s_lp_Force_Field>
OPLS_2005

> <r_lp_Energy>
9.07631

> <b_lp_Chiralities_Consistent>
1

> <s_lp_Variant>
AV-unprocessed.smi:2652-1

> <Gold.Version>
5.8.1

> <Gold.Id.Protein>
6NUR|6NUR_protein|mol2

> <Gold.PLP.Fitness>
43.0956

> <Gold.PLP.PLP>
-38.3914

> <Gold.PLP.part.hbond>
-2.3427

> <Gold.PLP.part.metal>
0.0000

> <Gold.PLP.part.buried>
-1.2457

> <Gold.PLP.part.nonpolar>
-34.2467

> <Gold.PLP.part.repulsive>
0.1079

> <Gold.PLP.ligand.clash>
0.0000

> <Gold.PLP.ligand.torsion>
0.3978

> <Gold.PLP.Chemscore.Hbond>
1.8160

> <Gold.PLP.Chemscore.CHOScore>
0.0000

> <Gold.PLP.Chemscore.Metal>
0.0000

> <Gold.Chemscore.Hbonds>
donor molecule, donor type, donor heavy atom, donor atom, acceptor molecule, acceptor atom, score
      L1  H    11    27       P1  8028  1.00
      P1  H  7997  8010       L1     6  0.66

> <Gold.PLP.Chemscore.Internal.Correction>
0.0518

> <Gold.Rescore>
     Score         DG    S(hbond)    S(metal)    S(lipo)     H(rot)  DE(clash)    DE(int)     intcor
      8.28     -16.63       1.75        0.00      90.33       2.05       0.31       8.05       ----

> <Gold.Chemscore.Fitness>
8.2775

> <Gold.Chemscore.DG>
-16.6299

> <Gold.Chemscore.ZeroCoef>
-5.4800

> <Gold.Chemscore.Hbond>
1.7492

> <Gold.Chemscore.Metal>
0.0000

> <Gold.Chemscore.Lipo>
90.3261

> <Gold.Chemscore.Internal_Hbond>
0.0000

> <Gold.Chemscore.DEClash>
0.3064

> <Gold.Chemscore.DEInternal>
8.0460

> <Gold.Chemscore.Rot>
2.0550

> <Gold.Chemscore.Internal.Correction>
   9.000000E+99

> <Gold.Chemscore.Hbonds>
donor molecule, donor type, donor heavy atom, donor atom, acceptor molecule, acceptor atom, score
      L1  H    11    27       P1  8028  0.97
      P1  H  7997  8010       L1     6  0.64

> <Gold.Chemscore.Hbond.Weighted>
-5.8425

> <Gold.Chemscore.Metal.Weighted>
-0.0000

> <Gold.Chemscore.Lipo.Weighted>
-10.5682

> <Gold.Chemscore.Internal_Hbond.Weighted>
0.0000

> <Gold.Chemscore.DEClash.Weighted>
0.3064

> <Gold.Chemscore.DEInternal.Weighted>
8.0460

> <Gold.Chemscore.Rot.Weighted>
5.2607

> <Gold.Chemscore.Internal.Correction.Weighted>
   9.000000E+99

> <Gold.Protein.RotatedTorsions>
[ 6907 6896 6895 6894 ] final   31.13 input  -60.11 | X-H torsion
[ 7974 7965 7964 7962 ] final  144.44 input  175.53 | X-H torsion
[ 8008 7997 7996 7995 ] final   30.06 input   59.86 | X-H torsion
[ 10167 10162 10161 10158 ] final  179.95 input  -65.29 | X-H torsion
[ 10718 10713 10712 10709 ] final -106.14 input   66.30 | X-H torsion
[ 10763 10752 10751 10750 ] final -159.61 input  -60.55 | X-H torsion
[ 11005 11000 10999 10996 ] final  144.33 input  -57.11 | X-H torsion

> <Gold.Protein.ActiveResidues>
 VAL166  LYS551  ARG553  GLY616  TRP617  ASP618  TYR619  PRO620  LYS621  CYS622 
 ASP623  PHE694  ASN695  SER759  ASP760  ASP761  ALA762  ILE779  LEU786  VAL792 
 PHE793  MET794  SER795  GLU796  ALA797  LYS798  CYS799  TRP800  GLU811  SER814 

> <Gold.Protein.RotatedAtoms>
  152.0559  134.9624  160.0574 H   0  0  0  0  0  0  0  0  0  0  0  0  # atno 6907 bound_to 6896
  152.1007  133.4243  159.4594 H   0  0  0  0  0  0  0  0  0  0  0  0  # atno 6908 bound_to 6896
  150.6839  134.2683  159.4621 H   0  0  0  0  0  0  0  0  0  0  0  0  # atno 6909 bound_to 6896
  144.8835  139.5663  143.5831 H   0  0  0  0  0  0  0  0  0  0  0  0  # atno 7974 bound_to 7965
  155.0844  140.3213  155.4592 H   0  0  0  0  0  0  0  0  0  0  0  0  # atno 8008 bound_to 7997
  156.2759  140.2089  156.5918 H   0  0  0  0  0  0  0  0  0  0  0  0  # atno 8009 bound_to 7997
  154.6953  140.0512  157.0391 H   0  0  0  0  0  0  0  0  0  0  0  0  # atno 8010 bound_to 7997
  139.5359  144.2499  152.0792 H   0  0  0  0  0  0  0  0  0  0  0  0  # atno 10167 bound_to 10162
  156.0376  130.5598  150.7638 H   0  0  0  0  0  0  0  0  0  0  0  0  # atno 10718 bound_to 10713
  154.7460  135.3080  154.8643 H   0  0  0  0  0  0  0  0  0  0  0  0  # atno 10763 bound_to 10752
  153.9444  135.6771  153.4748 H   0  0  0  0  0  0  0  0  0  0  0  0  # atno 10764 bound_to 10752
  153.1057  135.4890  154.8873 H   0  0  0  0  0  0  0  0  0  0  0  0  # atno 10765 bound_to 10752
  140.0624  134.9197  157.1207 H   0  0  0  0  0  0  0  0  0  0  0  0  # atno 11005 bound_to 11000
  146.3010  139.7426  142.9091 LP  0  0  0  0  0  0  0  0  0  0  0  0  # atno 17320 bound_to 7965
  145.3910  141.0372  143.3124 LP  0  0  0  0  0  0  0  0  0  0  0  0  # atno 17321 bound_to 7965
  140.1970  144.4695  150.6450 LP  0  0  0  0  0  0  0  0  0  0  0  0  # atno 17342 bound_to 10162
  140.6565  143.2239  151.5957 LP  0  0  0  0  0  0  0  0  0  0  0  0  # atno 17343 bound_to 10162
  157.5150  131.0928  151.0150 LP  0  0  0  0  0  0  0  0  0  0  0  0  # atno 17370 bound_to 10713
  157.0496  130.5781  149.5368 LP  0  0  0  0  0  0  0  0  0  0  0  0  # atno 17371 bound_to 10713
  140.3750  134.2349  155.7175 LP  0  0  0  0  0  0  0  0  0  0  0  0  # atno 17394 bound_to 11000
  141.1979  133.8049  157.0608 LP  0  0  0  0  0  0  0  0  0  0  0  0  # atno 17395 bound_to 11000

$$$$
