AV-unprocessed.smi:1868|AV-procd|sdf|7590|dock1
  -GOLD-   22720 9303D 1   1.00000     0.00000
 Structure written by MMmdl.
 48 50  0  0  0  0  0  0  0  0  3 V2000
  149.3951  141.4084  154.9673 C   0  0  0  0  0  0  0  0  0  0  0  0
  150.2273  141.6639  156.1788 C   0  0  0  0  0  0  0  0  0  0  0  0
  150.1214  142.7384  157.0103 N   0  3  0  0  0  0  0  0  0  0  0  0
  151.0611  142.6357  158.0372 C   0  0  0  0  0  0  0  0  0  0  0  0
  151.3326  143.4765  159.1123 C   0  0  0  0  0  0  0  0  0  0  0  0
  152.3653  143.0747  159.9847 C   0  0  0  0  0  0  0  0  0  0  0  0
  153.0825  141.8791  159.7725 C   0  0  0  0  0  0  0  0  0  0  0  0
  152.7983  141.0345  158.6787 C   0  0  0  0  0  0  0  0  0  0  0  0
  151.7762  141.4399  157.8210 C   0  0  0  0  0  0  0  0  0  0  0  0
  151.2305  140.8756  156.6624 N   0  0  0  0  0  0  0  0  0  0  0  0
  151.7674  139.6007  156.1609 C   0  0  0  0  0  0  0  0  0  0  0  0
  150.7006  138.4905  156.0671 C   0  0  2  0  0  0  0  0  0  0  0  0
  151.0039  137.4793  157.0094 O   0  0  0  0  0  0  0  0  0  0  0  0
  150.6585  137.8719  154.6541 C   0  0  0  0  0  0  0  0  0  0  0  0
  149.7519  136.6984  154.5503 N   0  3  2  0  0  0  0  0  0  0  0  0
  148.5249  136.8710  155.3706 C   0  0  0  0  0  0  0  0  0  0  0  0
  147.5342  135.7131  155.1524 C   0  0  0  0  0  0  0  0  0  0  0  0
  148.1744  134.3393  155.4204 C   0  0  2  0  0  0  0  0  0  0  0  0
  148.3821  134.0600  156.9196 C   0  0  0  0  0  0  0  0  0  0  0  0
  149.4750  134.2156  154.6065 C   0  0  0  0  0  0  0  0  0  0  0  0
  150.4249  135.4039  154.8417 C   0  0  0  0  0  0  0  0  0  0  0  0
  148.6749  142.2135  154.8198 H   0  0  0  0  0  0  0  0  0  0  0  0
  148.8494  140.4710  155.0762 H   0  0  0  0  0  0  0  0  0  0  0  0
  150.0274  141.3438  154.0819 H   0  0  0  0  0  0  0  0  0  0  0  0
  150.7841  144.3923  159.2776 H   0  0  0  0  0  0  0  0  0  0  0  0
  152.6115  143.6955  160.8341 H   0  0  0  0  0  0  0  0  0  0  0  0
  153.8662  141.6045  160.4637 H   0  0  0  0  0  0  0  0  0  0  0  0
  153.3528  140.1208  158.5261 H   0  0  0  0  0  0  0  0  0  0  0  0
  152.2284  139.7821  155.1892 H   0  0  0  0  0  0  0  0  0  0  0  0
  152.5744  139.2955  156.8283 H   0  0  0  0  0  0  0  0  0  0  0  0
  149.7343  138.9187  156.3292 H   0  0  0  0  0  0  0  0  0  0  0  0
  150.4711  137.6051  157.7795 H   0  0  0  0  0  0  0  0  0  0  0  0
  150.3541  138.6198  153.9204 H   0  0  0  0  0  0  0  0  0  0  0  0
  151.6729  137.5773  154.3806 H   0  0  0  0  0  0  0  0  0  0  0  0
  148.7963  136.9500  156.4241 H   0  0  0  0  0  0  0  0  0  0  0  0
  148.0343  137.8077  155.1031 H   0  0  0  0  0  0  0  0  0  0  0  0
  146.6544  135.8496  155.7823 H   0  0  0  0  0  0  0  0  0  0  0  0
  147.1749  135.7455  154.1227 H   0  0  0  0  0  0  0  0  0  0  0  0
  147.4839  133.5765  155.0579 H   0  0  0  0  0  0  0  0  0  0  0  0
  149.0543  134.7805  157.3848 H   0  0  0  0  0  0  0  0  0  0  0  0
  148.8049  133.0670  157.0758 H   0  0  0  0  0  0  0  0  0  0  0  0
  147.4353  134.0986  157.4592 H   0  0  0  0  0  0  0  0  0  0  0  0
  149.9808  133.2788  154.8430 H   0  0  0  0  0  0  0  0  0  0  0  0
  149.2291  134.1649  153.5449 H   0  0  0  0  0  0  0  0  0  0  0  0
  151.2988  135.2771  154.2045 H   0  0  0  0  0  0  0  0  0  0  0  0
  150.7891  135.4025  155.8699 H   0  0  0  0  0  0  0  0  0  0  0  0
  149.4399  136.6609  153.5906 H   0  0  0  0  0  0  0  0  0  0  0  0
  149.4518  143.4867  156.8835 H   0  0  0  0  0  0  0  0  0  0  0  0
  1  2  1  0  0  0  0
  1 22  1  0  0  0  0
  1 23  1  0  0  0  0
  1 24  1  0  0  0  0
  2 10  1  0  0  0  0
  2  3  2  0  0  0  0
  3  4  1  0  0  0  0
  3 48  1  0  0  0  0
  4  9  2  0  0  0  0
  4  5  1  0  0  0  0
  5  6  2  0  0  0  0
  5 25  1  0  0  0  0
  6  7  1  0  0  0  0
  6 26  1  0  0  0  0
  7  8  2  0  0  0  0
  7 27  1  0  0  0  0
  8  9  1  0  0  0  0
  8 28  1  0  0  0  0
  9 10  1  0  0  0  0
 10 11  1  0  0  0  0
 11 12  1  0  0  0  0
 11 29  1  0  0  0  0
 11 30  1  0  0  0  0
 12 13  1  0  0  0  0
 12 14  1  0  0  0  0
 12 31  1  0  0  0  0
 13 32  1  0  0  0  0
 14 15  1  0  0  0  0
 14 33  1  0  0  0  0
 14 34  1  0  0  0  0
 15 21  1  0  0  0  0
 15 16  1  0  0  0  0
 15 47  1  0  0  0  0
 16 17  1  0  0  0  0
 16 35  1  0  0  0  0
 16 36  1  0  0  0  0
 17 18  1  0  0  0  0
 17 37  1  0  0  0  0
 17 38  1  0  0  0  0
 18 19  1  0  0  0  0
 18 20  1  0  0  0  0
 18 39  1  0  0  0  0
 19 40  1  0  0  0  0
 19 41  1  0  0  0  0
 19 42  1  0  0  0  0
 20 21  1  0  0  0  0
 20 43  1  0  0  0  0
 20 44  1  0  0  0  0
 21 45  1  0  0  0  0
 21 46  1  0  0  0  0
M  CHG  1   3   1
M  CHG  1  15   1
M  END
> <s_m_source_file>
AV-unprocessed.smi

> <i_m_source_file_index>
1868

> <i_lp_mmshare_version>
43012

> <i_f3d_flags>
0

> <s_epik_input>
W2NIXTFbY0hdW2NIXVtjSF1jKGMxMiluKGMobjIpW0NIM10pW0NIMl1bQ0BIXShbT0hdKVtDSDJdTjNbQ0gyXVtDSDJdW0NIXShbQ0gzXSlbQ0gyXVtDSDJdMw==

> <s_epik_cmdline>
J2VwaWtfcHl0aG9uJywgJy1waCcsICc3LjAnLCAnLXRuJywgJzgnLCAnLW1hJywgJzIwMCcsICctbWV0YWxfYmluZGluZycsICctaW1hZScsICc8aW5maWxlLm1hZT4nLCAnLW9tYWUnLCAnPG91dGZpbGUubWFlPic=

> <r_epik_Ionization_Penalty>
1.10901

> <r_epik_Ionization_Penalty_Charging>
1.10901

> <r_epik_Ionization_Penalty_Neutral>
6.90208e-07

> <r_epik_State_Penalty>
1.18788

> <r_epik_Charging_Adjusted_Penalty>
2.29689

> <i_epik_Tot_Q>
2

> <i_epik_Tot_abs_Q>
2

> <r_epik_Metal_State_Penalty>
5.19353

> <b_epik_Metal_Only>
0

> <s_lp_Force_Field>
OPLS_2005

> <r_lp_Energy>
32.3741

> <b_lp_Chiralities_Consistent>
1

> <s_lp_Variant>
AV-unprocessed.smi:1868-7

> <Gold.Version>
5.8.1

> <Gold.Id.Protein>
6NUR|6NUR_protein|mol2

> <Gold.PLP.Fitness>
47.3437

> <Gold.PLP.PLP>
-37.3979

> <Gold.PLP.part.hbond>
-1.8386

> <Gold.PLP.part.metal>
0.0000

> <Gold.PLP.part.buried>
-4.9411

> <Gold.PLP.part.nonpolar>
-31.4556

> <Gold.PLP.part.repulsive>
0.0827

> <Gold.PLP.ligand.clash>
0.0000

> <Gold.PLP.ligand.torsion>
1.0595

> <Gold.PLP.Chemscore.Hbond>
4.0000

> <Gold.PLP.Chemscore.CHOScore>
0.0000

> <Gold.PLP.Chemscore.Metal>
0.0000

> <Gold.Chemscore.Hbonds>
donor molecule, donor type, donor heavy atom, donor atom, acceptor molecule, acceptor atom, score
      L1  H     3    48       P1  8028  1.70
      L1  H    15    47       P1  7948  2.00

> <Gold.PLP.Chemscore.Internal.Correction>
0.0647

> <Gold.Rescore>
     Score         DG    S(hbond)    S(metal)    S(lipo)     H(rot)  DE(clash)    DE(int)     intcor
     17.06     -18.02       1.97        0.00      94.48       1.99       0.01       0.95       ----

> <Gold.Chemscore.Fitness>
17.0648

> <Gold.Chemscore.DG>
-18.0222

> <Gold.Chemscore.ZeroCoef>
-5.4800

> <Gold.Chemscore.Hbond>
1.9679

> <Gold.Chemscore.Metal>
0.0000

> <Gold.Chemscore.Lipo>
94.4815

> <Gold.Chemscore.Internal_Hbond>
0.0000

> <Gold.Chemscore.DEClash>
0.0063

> <Gold.Chemscore.DEInternal>
0.9511

> <Gold.Chemscore.Rot>
1.9863

> <Gold.Chemscore.Internal.Correction>
   9.000000E+99

> <Gold.Chemscore.Hbonds>
donor molecule, donor type, donor heavy atom, donor atom, acceptor molecule, acceptor atom, score
      L1  H     3    48       P1  8028  0.82
      L1  H    15    47       P1  7948  0.85

> <Gold.Chemscore.Hbond.Weighted>
-6.5729

> <Gold.Chemscore.Metal.Weighted>
-0.0000

> <Gold.Chemscore.Lipo.Weighted>
-11.0543

> <Gold.Chemscore.Internal_Hbond.Weighted>
0.0000

> <Gold.Chemscore.DEClash.Weighted>
0.0063

> <Gold.Chemscore.DEInternal.Weighted>
0.9511

> <Gold.Chemscore.Rot.Weighted>
5.0850

> <Gold.Chemscore.Internal.Correction.Weighted>
   9.000000E+99

> <Gold.Protein.RotatedTorsions>
[ 6907 6896 6895 6894 ] final    2.92 input  -60.11 | X-H torsion
[ 7974 7965 7964 7962 ] final  103.43 input  175.53 | X-H torsion
[ 8008 7997 7996 7995 ] final  -63.57 input   59.86 | X-H torsion
[ 10167 10162 10161 10158 ] final    5.64 input  -65.29 | X-H torsion
[ 10718 10713 10712 10709 ] final  103.02 input   66.30 | X-H torsion
[ 10763 10752 10751 10750 ] final   44.83 input  -60.55 | X-H torsion
[ 11005 11000 10999 10996 ] final  -96.64 input  -57.11 | X-H torsion

> <Gold.Protein.ActiveResidues>
 VAL166  LYS551  ARG553  GLY616  TRP617  ASP618  TYR619  PRO620  LYS621  CYS622 
 ASP623  PHE694  ASN695  SER759  ASP760  ASP761  ALA762  ILE779  LEU786  VAL792 
 PHE793  MET794  SER795  GLU796  ALA797  LYS798  CYS799  TRP800  GLU811  SER814 

> <Gold.Protein.RotatedAtoms>
  151.6167  135.1035  160.0092 H   0  0  0  0  0  0  0  0  0  0  0  0  # atno 6907 bound_to 6896
  152.4179  133.7065  159.6464 H   0  0  0  0  0  0  0  0  0  0  0  0  # atno 6908 bound_to 6896
  150.8067  133.8423  159.3223 H   0  0  0  0  0  0  0  0  0  0  0  0  # atno 6909 bound_to 6896
  145.3460  139.2451  143.3584 H   0  0  0  0  0  0  0  0  0  0  0  0  # atno 7974 bound_to 7965
  154.4562  140.0972  156.6764 H   0  0  0  0  0  0  0  0  0  0  0  0  # atno 8008 bound_to 7997
  155.5131  140.3477  155.4374 H   0  0  0  0  0  0  0  0  0  0  0  0  # atno 8009 bound_to 7997
  156.0782  140.1366  156.9734 H   0  0  0  0  0  0  0  0  0  0  0  0  # atno 8010 bound_to 7997
  140.6471  143.7635  150.7516 H   0  0  0  0  0  0  0  0  0  0  0  0  # atno 10167 bound_to 10162
  157.6785  131.0768  150.5492 H   0  0  0  0  0  0  0  0  0  0  0  0  # atno 10718 bound_to 10713
  152.9834  135.6058  154.3338 H   0  0  0  0  0  0  0  0  0  0  0  0  # atno 10763 bound_to 10752
  154.3040  135.2772  155.2599 H   0  0  0  0  0  0  0  0  0  0  0  0  # atno 10764 bound_to 10752
  154.4839  135.5910  153.6465 H   0  0  0  0  0  0  0  0  0  0  0  0  # atno 10765 bound_to 10752
  141.1405  133.8112  157.0598 H   0  0  0  0  0  0  0  0  0  0  0  0  # atno 11005 bound_to 11000
  146.2988  140.4066  142.8712 LP  0  0  0  0  0  0  0  0  0  0  0  0  # atno 17320 bound_to 7965
  144.8754  140.7329  143.6020 LP  0  0  0  0  0  0  0  0  0  0  0  0  # atno 17321 bound_to 7965
  140.1278  143.4553  152.2273 LP  0  0  0  0  0  0  0  0  0  0  0  0  # atno 17342 bound_to 10162
  139.5683  144.7448  151.3962 LP  0  0  0  0  0  0  0  0  0  0  0  0  # atno 17343 bound_to 10162
  156.5797  130.4301  149.5983 LP  0  0  0  0  0  0  0  0  0  0  0  0  # atno 17370 bound_to 10713
  156.2672  130.6996  151.1782 LP  0  0  0  0  0  0  0  0  0  0  0  0  # atno 17371 bound_to 10713
  140.0578  134.9771  157.1252 LP  0  0  0  0  0  0  0  0  0  0  0  0  # atno 17394 bound_to 11000
  140.3893  134.2202  155.7167 LP  0  0  0  0  0  0  0  0  0  0  0  0  # atno 17395 bound_to 11000

$$$$
