#       Name:                AV-unprocessed.smi:574
#       Creating user name   scv26
#       Creation time:       Thu Mar 26 23:48:25 2020


#       File generated by GOLD software.
#

@<TRIPOS>MOLECULE
AV-unprocessed.smi:574
    48    49     1
SMALL
NO_CHARGES


@<TRIPOS>ATOM
      1 ****        -4.1238   6.3042   1.2703 C.3            1 S1                 0.0000
      2 ****        -3.9217   4.7963   1.1695 C.2            1 S1                 0.0000
      3 ****        -4.6221   4.0329   1.8336 O.2            1 S1                 0.0000
      4 ****        -2.9572   4.3815   0.3350 N.am           1 S1                 0.0000
      5 ****        -2.6025   2.9886   0.0919 C.3            1 S1                 0.0000
      6 ****        -1.6847   2.4384   1.1981 C.3            1 S1                 0.0000
      7 ****        -1.3347   1.0447   0.9562 N.am           1 S1                 0.0000
      8 ****        -0.4020   0.6217   0.0883 C.2            1 S1                 0.0000
      9 ****         0.3029   1.3813  -0.5771 O.2            1 S1                 0.0000
     10 ****        -0.2010  -0.8652   0.0224 C.ar           1 S1                 0.0000
     11 ****         1.0789  -1.2995   0.0783 N.ar           1 S1                 0.0000
     12 ****         1.3137  -2.6157   0.0127 C.ar           1 S1                 0.0000
     13 ****         2.6479  -3.0390   0.0721 N.pl3          1 S1                 0.0000
     14 ****         3.7614  -2.1118  -0.1271 C.3            1 S1                 0.0000
     15 ****         4.2058  -2.1534  -1.6005 C.3            1 S1                 0.0000
     16 ****         4.5691  -3.4878  -1.9499 O.3            1 S1                 0.0000
     17 ****         3.4983  -4.4129  -1.7715 C.3            1 S1                 0.0000
     18 ****         3.0454  -4.3963  -0.3001 C.3            1 S1                 0.0000
     19 ****         0.3679  -3.5553  -0.1058 N.ar           1 S1                 0.0000
     20 ****        -0.9160  -3.1477  -0.1775 C.ar           1 S1                 0.0000
     21 ****        -1.2713  -1.7860  -0.1240 C.ar           1 S1                 0.0000
     22 ****        -2.9334  -1.3255  -0.2720 Cl             1 S1                 0.0000
     23 ****        -4.2763   6.7377   0.2817 H              1 S1                 0.0000
     24 ****        -3.2507   6.7740   1.7236 H              1 S1                 0.0000
     25 ****        -4.9945   6.5391   1.8831 H              1 S1                 0.0000
     26 ****        -2.4324   5.0816  -0.1693 H              1 S1                 0.0000
     27 ****        -3.5049   2.3808   0.0044 H              1 S1                 0.0000
     28 ****        -2.1004   2.9373  -0.8745 H              1 S1                 0.0000
     29 ****        -0.7797   3.0423   1.2833 H              1 S1                 0.0000
     30 ****        -2.1864   2.4923   2.1646 H              1 S1                 0.0000
     31 ****        -1.8489   0.3470   1.4747 H              1 S1                 0.0000
     32 ****         3.5184  -1.0921   0.1702 H              1 S1                 0.0000
     33 ****         4.5884  -2.4184   0.5143 H              1 S1                 0.0000
     34 ****         3.4105  -1.7972  -2.2573 H              1 S1                 0.0000
     35 ****         5.0653  -1.5008  -1.7542 H              1 S1                 0.0000
     36 ****         2.6709  -4.1619  -2.4372 H              1 S1                 0.0000
     37 ****         3.8417  -5.4095  -2.0489 H              1 S1                 0.0000
     38 ****         3.8718  -4.7045   0.3412 H              1 S1                 0.0000
     39 ****         2.2537  -5.1262  -0.1345 H              1 S1                 0.0000
     40 ****        -1.6660  -3.9166  -0.2898 H              1 S1                 0.0000
     41 ****        -5.3259   4.4012   2.4412 LP             1 S1                 0.0000
     42 ****        -4.4876   3.0444   1.7657 LP             1 S1                 0.0000
     43 ****         0.1958   2.3714  -0.4857 LP             1 S1                 0.0000
     44 ****         0.9823   1.0081  -1.2087 LP             1 S1                 0.0000
     45 ****         1.8344  -0.6503   0.1669 LP             1 S1                 0.0000
     46 ****         5.3365  -3.7716  -1.3750 LP             1 S1                 0.0000
     47 ****         4.8484  -3.5026  -2.9099 LP             1 S1                 0.0000
     48 ****         0.6049  -4.5262  -0.1400 LP             1 S1                 0.0000
@<TRIPOS>BOND
    1    1    2 1     
    2    1   23 1     
    3    1   24 1     
    4    1   25 1     
    5    2    3 2     
    6    2    4 am    
    7    4    5 1     
    8    4   26 1     
    9    5    6 1     
   10    5   27 1     
   11    5   28 1     
   12    6    7 1     
   13    6   29 1     
   14    6   30 1     
   15    7    8 am    
   16    7   31 1     
   17    8    9 2     
   18    8   10 1     
   19   10   21 ar    
   20   10   11 ar    
   21   11   12 ar    
   22   12   13 1     
   23   12   19 ar    
   24   13   18 1     
   25   13   14 1     
   26   14   15 1     
   27   14   32 1     
   28   14   33 1     
   29   15   16 1     
   30   15   34 1     
   31   15   35 1     
   32   16   17 1     
   33   17   18 1     
   34   17   36 1     
   35   17   37 1     
   36   18   38 1     
   37   18   39 1     
   38   19   20 ar    
   39   20   21 ar    
   40   20   40 1     
   41   21   22 1     
   42    3   41 1     
   43    3   42 1     
   44    9   43 1     
   45    9   44 1     
   46   11   45 1     
   47   16   46 1     
   48   16   47 1     
   49   19   48 1     
@<TRIPOS>SUBSTRUCTURE
      1 S1             1
@<TRIPOS>SET
LONE_PAIRS      STATIC     ATOMS    <user>   **** ""
8 41 42 43 44 45 46 47 48
DONOR_HYDROGENS      STATIC     ATOMS    <user>   **** ""
2 26 31
ATOM$BLUE        STATIC     ATOMS    COLORGROUP SYSTEM
8 41 42 43 44 45 46 47 48
ATOM$RED        STATIC     ATOMS    COLORGROUP SYSTEM
2 26 31
