AV-unprocessed.smi:907|AV-procd|sdf|4112|dock5
  -GOLD-   22720 2 13D 1   1.00000     0.00000
 Structure written by MMmdl.
 54 57  0  0  0  0  0  0  0  0  3 V2000
  149.6302  141.2959  154.0982 O   0  0  0  0  0  0  0  0  0  0  0  0
  148.6338  141.0491  154.7783 C   0  0  0  0  0  0  0  0  0  0  0  0
  148.7080  140.8557  156.1053 N   0  0  0  0  0  0  0  0  0  0  0  0
  149.9398  140.9184  156.8803 C   0  0  0  0  0  0  0  0  0  0  0  0
  150.7575  142.1609  156.5014 C   0  0  0  0  0  0  0  0  0  0  0  0
  151.1997  142.9492  157.7195 C   0  0  0  0  0  0  0  0  0  0  0  0
  151.9966  142.3778  158.7354 C   0  0  0  0  0  0  0  0  0  0  0  0
  152.3787  143.1697  159.8386 C   0  0  0  0  0  0  0  0  0  0  0  0
  151.9582  144.5145  159.9020 C   0  0  0  0  0  0  0  0  0  0  0  0
  151.1644  145.0341  158.8593 C   0  0  0  0  0  0  0  0  0  0  0  0
  150.8179  144.2434  157.8195 N   0  3  0  0  0  0  0  0  0  0  0  0
  147.3925  140.9024  154.2505 N   0  0  0  0  0  0  0  0  0  0  0  0
  147.0709  140.4544  152.8904 C   0  0  0  0  0  0  0  0  0  0  0  0
  146.5433  139.0109  152.9591 C   0  0  0  0  0  0  0  0  0  0  0  0
  145.3641  138.8818  153.8673 N   0  3  0  0  0  0  0  0  0  0  0  0
  144.8670  137.4720  153.9254 C   0  0  2  0  0  0  0  0  0  0  0  0
  144.7317  136.8496  152.5101 C   0  0  0  0  0  0  0  0  0  0  0  0
  143.2820  136.3392  152.4737 C   0  0  1  0  0  0  0  0  0  0  0  0
  143.1373  135.1344  153.4181 C   0  0  0  0  0  0  0  0  0  0  0  0
  143.2124  135.7911  154.8072 C   0  0  0  0  0  0  0  0  0  0  0  0
  143.4246  137.2821  154.4761 C   0  0  2  0  0  0  0  0  0  0  0  0
  142.5547  137.4398  153.2343 C   0  0  0  0  0  0  0  0  0  0  0  0
  145.6146  139.5042  155.2010 C   0  0  0  0  0  0  0  0  0  0  0  0
  146.1859  140.9295  155.0780 C   0  0  0  0  0  0  0  0  0  0  0  0
  147.8588  140.6347  156.6049 H   0  0  0  0  0  0  0  0  0  0  0  0
  149.6922  140.9418  157.9427 H   0  0  0  0  0  0  0  0  0  0  0  0
  150.5275  140.0157  156.7052 H   0  0  0  0  0  0  0  0  0  0  0  0
  151.6401  141.8692  155.9300 H   0  0  0  0  0  0  0  0  0  0  0  0
  150.1703  142.8101  155.8502 H   0  0  0  0  0  0  0  0  0  0  0  0
  152.3141  141.3470  158.6718 H   0  0  0  0  0  0  0  0  0  0  0  0
  152.9885  142.7510  160.6261 H   0  0  0  0  0  0  0  0  0  0  0  0
  152.2414  145.1380  160.7377 H   0  0  0  0  0  0  0  0  0  0  0  0
  150.8000  146.0506  158.8248 H   0  0  0  0  0  0  0  0  0  0  0  0
  146.3092  141.1106  152.4665 H   0  0  0  0  0  0  0  0  0  0  0  0
  147.9119  140.5029  152.1988 H   0  0  0  0  0  0  0  0  0  0  0  0
  146.2923  138.6826  151.9513 H   0  0  0  0  0  0  0  0  0  0  0  0
  147.3394  138.3519  153.3099 H   0  0  0  0  0  0  0  0  0  0  0  0
  145.5660  136.8959  154.5345 H   0  0  0  0  0  0  0  0  0  0  0  0
  144.8613  137.5939  151.7232 H   0  0  0  0  0  0  0  0  0  0  0  0
  145.4574  136.0545  152.3350 H   0  0  0  0  0  0  0  0  0  0  0  0
  142.9101  136.1520  151.4657 H   0  0  0  0  0  0  0  0  0  0  0  0
  142.1747  134.6411  153.2774 H   0  0  0  0  0  0  0  0  0  0  0  0
  143.9213  134.3917  153.2640 H   0  0  0  0  0  0  0  0  0  0  0  0
  142.2755  135.6448  155.3465 H   0  0  0  0  0  0  0  0  0  0  0  0
  144.0146  135.3797  155.4212 H   0  0  0  0  0  0  0  0  0  0  0  0
  143.1410  137.9098  155.3177 H   0  0  0  0  0  0  0  0  0  0  0  0
  142.6406  138.4225  152.7670 H   0  0  0  0  0  0  0  0  0  0  0  0
  141.5006  137.2183  153.4121 H   0  0  0  0  0  0  0  0  0  0  0  0
  144.6908  139.5798  155.7706 H   0  0  0  0  0  0  0  0  0  0  0  0
  146.2993  138.8755  155.7724 H   0  0  0  0  0  0  0  0  0  0  0  0
  146.3653  141.3457  156.0705 H   0  0  0  0  0  0  0  0  0  0  0  0
  145.4493  141.5878  154.6148 H   0  0  0  0  0  0  0  0  0  0  0  0
  144.6232  139.4266  153.4492 H   0  0  0  0  0  0  0  0  0  0  0  0
  150.2445  144.6420  157.0757 H   0  0  0  0  0  0  0  0  0  0  0  0
  1  2  2  0  0  0  0
  2  3  1  0  0  0  0
  2 12  1  0  0  0  0
  3  4  1  0  0  0  0
  3 25  1  0  0  0  0
  4  5  1  0  0  0  0
  4 26  1  0  0  0  0
  4 27  1  0  0  0  0
  5  6  1  0  0  0  0
  5 28  1  0  0  0  0
  5 29  1  0  0  0  0
  6 11  1  0  0  0  0
  6  7  2  0  0  0  0
  7  8  1  0  0  0  0
  7 30  1  0  0  0  0
  8  9  2  0  0  0  0
  8 31  1  0  0  0  0
  9 10  1  0  0  0  0
  9 32  1  0  0  0  0
 10 11  2  0  0  0  0
 10 33  1  0  0  0  0
 11 54  1  0  0  0  0
 12 24  1  0  0  0  0
 12 13  1  0  0  0  0
 13 14  1  0  0  0  0
 13 34  1  0  0  0  0
 13 35  1  0  0  0  0
 14 15  1  0  0  0  0
 14 36  1  0  0  0  0
 14 37  1  0  0  0  0
 15 16  1  0  0  0  0
 15 23  1  0  0  0  0
 15 53  1  0  0  0  0
 16 21  1  0  0  0  0
 16 17  1  0  0  0  0
 16 38  1  0  0  0  0
 17 18  1  0  0  0  0
 17 39  1  0  0  0  0
 17 40  1  0  0  0  0
 18 22  1  0  0  0  0
 18 19  1  0  0  0  0
 18 41  1  0  0  0  0
 19 20  1  0  0  0  0
 19 42  1  0  0  0  0
 19 43  1  0  0  0  0
 20 21  1  0  0  0  0
 20 44  1  0  0  0  0
 20 45  1  0  0  0  0
 21 22  1  0  0  0  0
 21 46  1  0  0  0  0
 22 47  1  0  0  0  0
 22 48  1  0  0  0  0
 23 24  1  0  0  0  0
 23 49  1  0  0  0  0
 23 50  1  0  0  0  0
 24 51  1  0  0  0  0
 24 52  1  0  0  0  0
M  CHG  1  11   1
M  CHG  1  15   1
M  END
> <s_m_source_file>
AV-unprocessed.smi

> <i_m_source_file_index>
907

> <i_lp_mmshare_version>
43012

> <i_f3d_flags>
0

> <s_epik_input>
W0NIMl0xW0NIMl1bQ0BASF0oW0NIMl0yKVtDQEBIXShbQ0gyXVtDQEhdMTIpTihbQ0gyXVtDSDJdMylbQ0gyXVtDSDJdTjNDKD1PKVtOSF1bQ0gyXVtDSDJdYzRbY0hdW2NIXVtjSF1bY0hdbjQ=

> <s_epik_cmdline>
J2VwaWtfcHl0aG9uJywgJy1waCcsICc3LjAnLCAnLXRuJywgJzgnLCAnLW1hJywgJzIwMCcsICctbWV0YWxfYmluZGluZycsICctaW1hZScsICc8aW5maWxlLm1hZT4nLCAnLW9tYWUnLCAnPG91dGZpbGUubWFlPic=

> <r_epik_Ionization_Penalty>
1.63018

> <r_epik_Ionization_Penalty_Charging>
1.63015

> <r_epik_Ionization_Penalty_Neutral>
2.64641e-05

> <r_epik_State_Penalty>
1.72761

> <r_epik_Charging_Adjusted_Penalty>
3.35777

> <i_epik_Tot_Q>
2

> <i_epik_Tot_abs_Q>
2

> <r_epik_Metal_State_Penalty>
1.76501

> <b_epik_Metal_Only>
0

> <s_lp_Force_Field>
OPLS_2005

> <r_lp_Energy>
104.955

> <b_lp_Chiralities_Consistent>
1

> <s_lp_Variant>
AV-unprocessed.smi:907-7

> <Gold.Version>
5.8.1

> <Gold.Id.Protein>
6NUR|6NUR_protein|mol2

> <Gold.PLP.Fitness>
56.6560

> <Gold.PLP.PLP>
-43.9008

> <Gold.PLP.part.hbond>
-4.0000

> <Gold.PLP.part.metal>
0.0000

> <Gold.PLP.part.buried>
-4.8019

> <Gold.PLP.part.nonpolar>
-35.9818

> <Gold.PLP.part.repulsive>
0.4919

> <Gold.PLP.ligand.clash>
0.9314

> <Gold.PLP.ligand.torsion>
0.7999

> <Gold.PLP.Chemscore.Hbond>
5.0634

> <Gold.PLP.Chemscore.CHOScore>
0.0000

> <Gold.PLP.Chemscore.Metal>
0.0000

> <Gold.Chemscore.Hbonds>
donor molecule, donor type, donor heavy atom, donor atom, acceptor molecule, acceptor atom, score
      L1  H    11    54       P1  8028  2.00
      L1  H    15    53       P1 10175  2.00
      P1  H  7989  7998       L1     1  0.28
      P1  H  8011  8017       L1     1  0.61

> <Gold.PLP.Chemscore.Internal.Correction>
0.0962

> <Gold.Rescore>
     Score         DG    S(hbond)    S(metal)    S(lipo)     H(rot)  DE(clash)    DE(int)     intcor
     22.21     -25.11       3.02        0.00     113.33       1.46       0.79       2.11       ----

> <Gold.Chemscore.Fitness>
22.2148

> <Gold.Chemscore.DG>
-25.1111

> <Gold.Chemscore.ZeroCoef>
-5.4800

> <Gold.Chemscore.Hbond>
3.0247

> <Gold.Chemscore.Metal>
0.0000

> <Gold.Chemscore.Lipo>
113.3254

> <Gold.Chemscore.Internal_Hbond>
0.0000

> <Gold.Chemscore.DEClash>
0.7892

> <Gold.Chemscore.DEInternal>
2.1072

> <Gold.Chemscore.Rot>
1.4572

> <Gold.Chemscore.Internal.Correction>
   9.000000E+99

> <Gold.Chemscore.Hbonds>
donor molecule, donor type, donor heavy atom, donor atom, acceptor molecule, acceptor atom, score
      L1  H    11    54       P1  8028  0.55
      L1  H    15    53       P1 10175  1.00
      P1  H  7989  7998       L1     1  0.27
      P1  H  8011  8017       L1     1  0.59

> <Gold.Chemscore.Hbond.Weighted>
-10.1026

> <Gold.Chemscore.Metal.Weighted>
-0.0000

> <Gold.Chemscore.Lipo.Weighted>
-13.2591

> <Gold.Chemscore.Internal_Hbond.Weighted>
0.0000

> <Gold.Chemscore.DEClash.Weighted>
0.7892

> <Gold.Chemscore.DEInternal.Weighted>
2.1072

> <Gold.Chemscore.Rot.Weighted>
3.7305

> <Gold.Chemscore.Internal.Correction.Weighted>
   9.000000E+99

> <Gold.Protein.RotatedTorsions>
[ 6907 6896 6895 6894 ] final  149.17 input  -60.11 | X-H torsion
[ 7974 7965 7964 7962 ] final    0.87 input  175.53 | X-H torsion
[ 8008 7997 7996 7995 ] final  -94.82 input   59.86 | X-H torsion
[ 10167 10162 10161 10158 ] final   -4.79 input  -65.29 | X-H torsion
[ 10718 10713 10712 10709 ] final -105.61 input   66.30 | X-H torsion
[ 10763 10752 10751 10750 ] final   42.25 input  -60.55 | X-H torsion
[ 11005 11000 10999 10996 ] final -100.33 input  -57.11 | X-H torsion

> <Gold.Protein.ActiveResidues>
 VAL166  LYS551  ARG553  GLY616  TRP617  ASP618  TYR619  PRO620  LYS621  CYS622 
 ASP623  PHE694  ASN695  SER759  ASP760  ASP761  ALA762  ILE779  LEU786  VAL792 
 PHE793  MET794  SER795  GLU796  ALA797  LYS798  CYS799  TRP800  GLU811  SER814 

> <Gold.Protein.RotatedAtoms>
  152.1316  133.4411  159.4723 H   0  0  0  0  0  0  0  0  0  0  0  0  # atno 6907 bound_to 6896
  150.6878  134.2414  159.4483 H   0  0  0  0  0  0  0  0  0  0  0  0  # atno 6908 bound_to 6896
  152.0298  134.9774  160.0623 H   0  0  0  0  0  0  0  0  0  0  0  0  # atno 6909 bound_to 6896
  146.2437  140.1072  142.8345 H   0  0  0  0  0  0  0  0  0  0  0  0  # atno 7974 bound_to 7965
  154.7533  140.0486  157.0912 H   0  0  0  0  0  0  0  0  0  0  0  0  # atno 8008 bound_to 7997
  155.0029  140.3127  155.4840 H   0  0  0  0  0  0  0  0  0  0  0  0  # atno 8009 bound_to 7997
  156.2889  140.2198  156.5140 H   0  0  0  0  0  0  0  0  0  0  0  0  # atno 8010 bound_to 7997
  140.6940  143.6383  150.8459 H   0  0  0  0  0  0  0  0  0  0  0  0  # atno 10167 bound_to 10162
  156.0353  130.5572  150.7564 H   0  0  0  0  0  0  0  0  0  0  0  0  # atno 10718 bound_to 10713
  152.9887  135.6137  154.2919 H   0  0  0  0  0  0  0  0  0  0  0  0  # atno 10763 bound_to 10752
  154.2643  135.2781  155.2766 H   0  0  0  0  0  0  0  0  0  0  0  0  # atno 10764 bound_to 10752
  154.5178  135.5823  153.6713 H   0  0  0  0  0  0  0  0  0  0  0  0  # atno 10765 bound_to 10752
  141.1275  133.8390  157.1088 H   0  0  0  0  0  0  0  0  0  0  0  0  # atno 11005 bound_to 11000
  145.0518  140.9023  143.4991 LP  0  0  0  0  0  0  0  0  0  0  0  0  # atno 17320 bound_to 7965
  145.1171  139.2718  143.5607 LP  0  0  0  0  0  0  0  0  0  0  0  0  # atno 17321 bound_to 7965
  140.0099  143.5653  152.2843 LP  0  0  0  0  0  0  0  0  0  0  0  0  # atno 17342 bound_to 10162
  139.6374  144.7651  151.2410 LP  0  0  0  0  0  0  0  0  0  0  0  0  # atno 17343 bound_to 10162
  157.5095  131.0924  151.0216 LP  0  0  0  0  0  0  0  0  0  0  0  0  # atno 17370 bound_to 10713
  157.0575  130.5812  149.5380 LP  0  0  0  0  0  0  0  0  0  0  0  0  # atno 17371 bound_to 10713
  140.0288  134.9911  157.0739 LP  0  0  0  0  0  0  0  0  0  0  0  0  # atno 17394 bound_to 11000
  140.4319  134.1771  155.7168 LP  0  0  0  0  0  0  0  0  0  0  0  0  # atno 17395 bound_to 11000

$$$$
