AV-unprocessed.smi:1911|AV-procd|sdf|7739|dock2
  -GOLD-   22720 9473D 1   1.00000     0.00000
 Structure written by MMmdl.
 52 54  0  0  0  0  0  0  0  0  2 V2000
  145.4865  132.0949  149.6158 N   0  0  0  0  0  0  0  0  0  0  0  0
  144.2252  132.5212  149.7142 C   0  0  0  0  0  0  0  0  0  0  0  0
  143.3936  132.3165  148.8316 O   0  0  0  0  0  0  0  0  0  0  0  0
  143.8463  133.2678  150.9979 C   0  0  0  0  0  0  0  0  0  0  0  0
  144.7759  134.3812  151.3213 N   0  3  2  0  0  0  0  0  0  0  0  0
  144.6370  134.8703  152.7198 C   0  0  0  0  0  0  0  0  0  0  0  0
  145.7058  135.9264  153.0475 C   0  0  0  0  0  0  0  0  0  0  0  0
  145.6433  137.1022  152.0598 C   0  0  1  0  0  0  0  0  0  0  0  0
  146.7125  138.0539  152.3482 N   0  0  0  0  0  0  0  0  0  0  0  0
  147.0801  138.4494  153.5757 C   0  0  0  0  0  0  0  0  0  0  0  0
  146.5336  138.0533  154.6047 O   0  0  0  0  0  0  0  0  0  0  0  0
  148.0906  139.3340  153.5204 N   0  0  0  0  0  0  0  0  0  0  0  0
  148.7629  139.9770  154.5948 C   0  0  0  0  0  0  0  0  0  0  0  0
  149.1961  141.3039  154.4057 C   0  0  0  0  0  0  0  0  0  0  0  0
  149.8782  141.9624  155.4461 C   0  0  0  0  0  0  0  0  0  0  0  0
  150.1175  141.2699  156.6567 C   0  0  0  0  0  0  0  0  0  0  0  0
  150.7992  141.8843  157.7261 N   0  0  0  0  0  0  0  0  0  0  0  0
  151.5524  141.1223  158.7088 C   0  0  0  0  0  0  0  0  0  0  0  0
  152.2201  142.1779  159.5898 C   0  0  0  0  0  0  0  0  0  0  0  0
  152.4558  143.3397  158.6247 C   0  0  0  0  0  0  0  0  0  0  0  0
  151.2740  143.2605  157.6519 C   0  0  0  0  0  0  0  0  0  0  0  0
  149.7191  139.9877  156.8321 N   0  0  0  0  0  0  0  0  0  0  0  0
  149.0642  139.3605  155.8325 C   0  0  0  0  0  0  0  0  0  0  0  0
  145.7525  136.5678  150.6198 C   0  0  0  0  0  0  0  0  0  0  0  0
  144.6860  135.4950  150.3427 C   0  0  0  0  0  0  0  0  0  0  0  0
  145.7824  131.5934  148.7902 H   0  0  0  0  0  0  0  0  0  0  0  0
  146.1420  132.2679  150.3646 H   0  0  0  0  0  0  0  0  0  0  0  0
  142.8416  133.6632  150.8418 H   0  0  0  0  0  0  0  0  0  0  0  0
  143.7832  132.5760  151.8398 H   0  0  0  0  0  0  0  0  0  0  0  0
  143.6402  135.2906  152.8621 H   0  0  0  0  0  0  0  0  0  0  0  0
  144.7305  134.0400  153.4203 H   0  0  0  0  0  0  0  0  0  0  0  0
  145.5663  136.2866  154.0676 H   0  0  0  0  0  0  0  0  0  0  0  0
  146.6935  135.4633  153.0150 H   0  0  0  0  0  0  0  0  0  0  0  0
  144.6802  137.6019  152.1835 H   0  0  0  0  0  0  0  0  0  0  0  0
  147.2127  138.4338  151.5575 H   0  0  0  0  0  0  0  0  0  0  0  0
  148.3801  139.6219  152.5972 H   0  0  0  0  0  0  0  0  0  0  0  0
  149.0056  141.8177  153.4747 H   0  0  0  0  0  0  0  0  0  0  0  0
  150.2058  142.9805  155.2990 H   0  0  0  0  0  0  0  0  0  0  0  0
  150.9078  140.4644  159.2926 H   0  0  0  0  0  0  0  0  0  0  0  0
  152.3018  140.5147  158.1998 H   0  0  0  0  0  0  0  0  0  0  0  0
  151.5333  142.4893  160.3783 H   0  0  0  0  0  0  0  0  0  0  0  0
  153.1361  141.8201  160.0610 H   0  0  0  0  0  0  0  0  0  0  0  0
  152.5264  144.3045  159.1276 H   0  0  0  0  0  0  0  0  0  0  0  0
  153.3875  143.1766  158.0808 H   0  0  0  0  0  0  0  0  0  0  0  0
  151.5802  143.5418  156.6436 H   0  0  0  0  0  0  0  0  0  0  0  0
  150.4694  143.9273  157.9637 H   0  0  0  0  0  0  0  0  0  0  0  0
  148.8021  138.3354  156.0416 H   0  0  0  0  0  0  0  0  0  0  0  0
  145.6428  137.3832  149.9038 H   0  0  0  0  0  0  0  0  0  0  0  0
  146.7446  136.1443  150.4553 H   0  0  0  0  0  0  0  0  0  0  0  0
  144.8232  135.1095  149.3316 H   0  0  0  0  0  0  0  0  0  0  0  0
  143.6888  135.9361  150.3822 H   0  0  0  0  0  0  0  0  0  0  0  0
  145.7077  134.0004  151.2333 H   0  0  0  0  0  0  0  0  0  0  0  0
  1  2  1  0  0  0  0
  1 26  1  0  0  0  0
  1 27  1  0  0  0  0
  2  3  2  0  0  0  0
  2  4  1  0  0  0  0
  4  5  1  0  0  0  0
  4 28  1  0  0  0  0
  4 29  1  0  0  0  0
  5 25  1  0  0  0  0
  5  6  1  0  0  0  0
  5 52  1  0  0  0  0
  6  7  1  0  0  0  0
  6 30  1  0  0  0  0
  6 31  1  0  0  0  0
  7  8  1  0  0  0  0
  7 32  1  0  0  0  0
  7 33  1  0  0  0  0
  8  9  1  0  0  0  0
  8 24  1  0  0  0  0
  8 34  1  0  0  0  0
  9 10  1  0  0  0  0
  9 35  1  0  0  0  0
 10 11  2  0  0  0  0
 10 12  1  0  0  0  0
 12 13  1  0  0  0  0
 12 36  1  0  0  0  0
 13 23  1  0  0  0  0
 13 14  2  0  0  0  0
 14 15  1  0  0  0  0
 14 37  1  0  0  0  0
 15 16  2  0  0  0  0
 15 38  1  0  0  0  0
 16 17  1  0  0  0  0
 16 22  1  0  0  0  0
 17 21  1  0  0  0  0
 17 18  1  0  0  0  0
 18 19  1  0  0  0  0
 18 39  1  0  0  0  0
 18 40  1  0  0  0  0
 19 20  1  0  0  0  0
 19 41  1  0  0  0  0
 19 42  1  0  0  0  0
 20 21  1  0  0  0  0
 20 43  1  0  0  0  0
 20 44  1  0  0  0  0
 21 45  1  0  0  0  0
 21 46  1  0  0  0  0
 22 23  2  0  0  0  0
 23 47  1  0  0  0  0
 24 25  1  0  0  0  0
 24 48  1  0  0  0  0
 24 49  1  0  0  0  0
 25 50  1  0  0  0  0
 25 51  1  0  0  0  0
M  CHG  1   5   1
M  END
> <s_m_source_file>
AV-unprocessed.smi

> <i_m_source_file_index>
1911

> <i_lp_mmshare_version>
43012

> <i_f3d_flags>
0

> <s_epik_input>
W05IMl1DKD1PKVtDSDJdTjFbQ0gyXVtDSDJdW0NIXShbQ0gyXVtDSDJdMSlbTkhdQyg9TylbTkhdYzJbY0hdW2NIXWMobltjSF0yKU4zW0NIMl1bQ0gyXVtDSDJdW0NIMl0z

> <s_epik_cmdline>
J2VwaWtfcHl0aG9uJywgJy1waCcsICc3LjAnLCAnLXRuJywgJzgnLCAnLW1hJywgJzIwMCcsICctbWV0YWxfYmluZGluZycsICctaW1hZScsICc8aW5maWxlLm1hZT4nLCAnLW9tYWUnLCAnPG91dGZpbGUubWFlPic=

> <r_lp_tautomer_probability>
1

> <r_epik_Ionization_Penalty>
0.91661

> <r_epik_Ionization_Penalty_Charging>
0.838844

> <r_epik_Ionization_Penalty_Neutral>
0.0777665

> <r_epik_State_Penalty>
0.927046

> <r_epik_Charging_Adjusted_Penalty>
1.76589

> <i_epik_Tot_Q>
1

> <i_epik_Tot_abs_Q>
1

> <r_epik_Metal_State_Penalty>
0.950553

> <b_epik_Metal_Only>
0

> <s_lp_Force_Field>
OPLS_2005

> <r_lp_Energy>
39.0232

> <b_lp_Chiralities_Consistent>
1

> <s_lp_Variant>
AV-unprocessed.smi:1911-2

> <Gold.Version>
5.8.1

> <Gold.Id.Protein>
6NUR|6NUR_protein|mol2

> <Gold.PLP.Fitness>
46.5722

> <Gold.PLP.PLP>
-42.2326

> <Gold.PLP.part.hbond>
-3.0000

> <Gold.PLP.part.metal>
0.0000

> <Gold.PLP.part.buried>
-3.8381

> <Gold.PLP.part.nonpolar>
-36.6505

> <Gold.PLP.part.repulsive>
0.6212

> <Gold.PLP.ligand.clash>
0.0000

> <Gold.PLP.ligand.torsion>
0.7902

> <Gold.PLP.Chemscore.Hbond>
1.9120

> <Gold.PLP.Chemscore.CHOScore>
0.0000

> <Gold.PLP.Chemscore.Metal>
0.0000

> <Gold.Chemscore.Hbonds>
donor molecule, donor type, donor heavy atom, donor atom, acceptor molecule, acceptor atom, score
      L1  H    12    36       P1  7957  1.00
      P1  H 10785 10796       L1     3  0.54

> <Gold.PLP.Chemscore.Internal.Correction>
0.1838

> <Gold.Rescore>
     Score         DG    S(hbond)    S(metal)    S(lipo)     H(rot)  DE(clash)    DE(int)     intcor
     15.34     -18.36       1.87        0.00      98.50       1.91       1.15       1.87       ----

> <Gold.Chemscore.Fitness>
15.3433

> <Gold.Chemscore.DG>
-18.3581

> <Gold.Chemscore.ZeroCoef>
-5.4800

> <Gold.Chemscore.Hbond>
1.8673

> <Gold.Chemscore.Metal>
0.0000

> <Gold.Chemscore.Lipo>
98.4976

> <Gold.Chemscore.Internal_Hbond>
0.0000

> <Gold.Chemscore.DEClash>
1.1467

> <Gold.Chemscore.DEInternal>
1.8681

> <Gold.Chemscore.Rot>
1.9074

> <Gold.Chemscore.Internal.Correction>
   9.000000E+99

> <Gold.Chemscore.Hbonds>
donor molecule, donor type, donor heavy atom, donor atom, acceptor molecule, acceptor atom, score
      L1  H    12    36       P1  7957  0.99
      P1  H 10785 10796       L1     3  0.27

> <Gold.Chemscore.Hbond.Weighted>
-6.2368

> <Gold.Chemscore.Metal.Weighted>
-0.0000

> <Gold.Chemscore.Lipo.Weighted>
-11.5242

> <Gold.Chemscore.Internal_Hbond.Weighted>
0.0000

> <Gold.Chemscore.DEClash.Weighted>
1.1467

> <Gold.Chemscore.DEInternal.Weighted>
1.8681

> <Gold.Chemscore.Rot.Weighted>
4.8829

> <Gold.Chemscore.Internal.Correction.Weighted>
   9.000000E+99

> <Gold.Protein.RotatedTorsions>
[ 6907 6896 6895 6894 ] final   49.67 input  -60.11 | X-H torsion
[ 7974 7965 7964 7962 ] final  -60.17 input  175.53 | X-H torsion
[ 8008 7997 7996 7995 ] final   12.27 input   59.86 | X-H torsion
[ 10167 10162 10161 10158 ] final   34.49 input  -65.29 | X-H torsion
[ 10718 10713 10712 10709 ] final  154.91 input   66.30 | X-H torsion
[ 10763 10752 10751 10750 ] final   70.48 input  -60.55 | X-H torsion
[ 11005 11000 10999 10996 ] final  -13.84 input  -57.11 | X-H torsion

> <Gold.Protein.ActiveResidues>
 VAL166  LYS551  ARG553  GLY616  TRP617  ASP618  TYR619  PRO620  LYS621  CYS622 
 ASP623  PHE694  ASN695  SER759  ASP760  ASP761  ALA762  ILE779  LEU786  VAL792 
 PHE793  MET794  SER795  GLU796  ALA797  LYS798  CYS799  TRP800  GLU811  SER814 

> <Gold.Protein.RotatedAtoms>
  152.2933  134.7696  160.0373 H   0  0  0  0  0  0  0  0  0  0  0  0  # atno 6907 bound_to 6896
  151.8235  133.3393  159.3599 H   0  0  0  0  0  0  0  0  0  0  0  0  # atno 6908 bound_to 6896
  150.7240  134.5480  159.5825 H   0  0  0  0  0  0  0  0  0  0  0  0  # atno 6909 bound_to 6896
  145.8187  140.8554  143.0144 H   0  0  0  0  0  0  0  0  0  0  0  0  # atno 7974 bound_to 7965
  154.8183  140.2879  155.5804 H   0  0  0  0  0  0  0  0  0  0  0  0  # atno 8008 bound_to 7997
  156.2995  140.2555  156.3016 H   0  0  0  0  0  0  0  0  0  0  0  0  # atno 8009 bound_to 7997
  154.9367  140.0382  157.2065 H   0  0  0  0  0  0  0  0  0  0  0  0  # atno 8010 bound_to 7997
  140.4310  144.1324  150.6159 H   0  0  0  0  0  0  0  0  0  0  0  0  # atno 10167 bound_to 10162
  157.2254  131.0727  151.1886 H   0  0  0  0  0  0  0  0  0  0  0  0  # atno 10718 bound_to 10713
  153.0344  135.5172  154.7448 H   0  0  0  0  0  0  0  0  0  0  0  0  # atno 10763 bound_to 10752
  154.6437  135.2915  155.0075 H   0  0  0  0  0  0  0  0  0  0  0  0  # atno 10764 bound_to 10752
  154.0984  135.6640  153.4916 H   0  0  0  0  0  0  0  0  0  0  0  0  # atno 10765 bound_to 10752
  140.7803  133.8368  155.9286 H   0  0  0  0  0  0  0  0  0  0  0  0  # atno 11005 bound_to 11000
  144.6750  140.0501  143.7479 LP  0  0  0  0  0  0  0  0  0  0  0  0  # atno 17320 bound_to 7965
  145.9699  139.2862  143.1105 LP  0  0  0  0  0  0  0  0  0  0  0  0  # atno 17321 bound_to 7965
  140.4427  143.2520  151.9452 LP  0  0  0  0  0  0  0  0  0  0  0  0  # atno 17342 bound_to 10162
  139.4785  144.5639  151.8196 LP  0  0  0  0  0  0  0  0  0  0  0  0  # atno 17343 bound_to 10162
  157.3533  130.7093  149.6455 LP  0  0  0  0  0  0  0  0  0  0  0  0  # atno 17370 bound_to 10713
  155.9679  130.4246  150.4616 LP  0  0  0  0  0  0  0  0  0  0  0  0  # atno 17371 bound_to 10713
  140.9489  134.1804  157.4742 LP  0  0  0  0  0  0  0  0  0  0  0  0  # atno 17394 bound_to 11000
  139.8743  134.9901  156.5489 LP  0  0  0  0  0  0  0  0  0  0  0  0  # atno 17395 bound_to 11000

$$$$
