AV-unprocessed.smi:2878|AV-procd|sdf|11047|dock4
  -GOLD-   2272015513D 1   1.00000     0.00000
 Structure written by MMmdl.
 42 43  0  0  0  0  0  0  0  0  1 V2000
  148.1594  131.4613  153.4801 C   0  0  0  0  0  0  0  0  0  0  0  0
  147.9633  133.2637  153.4519 S   0  0  0  0  0  0  0  0  0  0  0  0
  146.3427  133.4222  152.6353 C   0  0  2  0  0  0  0  0  0  0  0  0
  146.4906  133.3033  151.1059 C   0  0  0  0  0  0  0  0  0  0  0  0
  145.1280  133.3943  150.4011 C   0  0  0  0  0  0  0  0  0  0  0  0
  144.3901  134.6875  150.7785 C   0  0  0  0  0  0  0  0  0  0  0  0
  144.2409  134.8191  152.3041 C   0  0  0  0  0  0  0  0  0  0  0  0
  145.5979  134.7202  153.0351 C   0  0  2  0  0  0  0  0  0  0  0  0
  146.4218  135.9007  152.7711 N   0  0  0  0  0  0  0  0  0  0  0  0
  146.0153  137.1717  152.8908 C   0  0  0  0  0  0  0  0  0  0  0  0
  144.8778  137.5046  153.2238 O   0  0  0  0  0  0  0  0  0  0  0  0
  146.9976  138.0372  152.6049 N   0  0  0  0  0  0  0  0  0  0  0  0
  146.8633  139.4893  152.6338 C   0  0  0  0  0  0  0  0  0  0  0  0
  147.6638  140.1131  153.7884 C   0  0  0  0  0  0  0  0  0  0  0  0
  148.9016  139.3412  154.1024 C   0  0  0  0  0  0  0  0  0  0  0  0
  150.1521  139.7966  154.1121 N   0  0  0  0  0  0  0  0  0  0  0  0
  150.8299  138.6877  154.5178 C   0  0  0  0  0  0  0  0  0  0  0  0
  152.3101  138.6604  154.6900 C   0  0  0  0  0  0  0  0  0  0  0  0
  150.0905  137.6142  154.7675 N   0  0  0  0  0  0  0  0  0  0  0  0
  148.7851  138.0512  154.4997 O   0  0  0  0  0  0  0  0  0  0  0  0
  149.1336  131.1988  153.8923 H   0  0  0  0  0  0  0  0  0  0  0  0
  148.0916  131.0541  152.4712 H   0  0  0  0  0  0  0  0  0  0  0  0
  147.3922  130.9961  154.0985 H   0  0  0  0  0  0  0  0  0  0  0  0
  145.7460  132.5723  152.9697 H   0  0  0  0  0  0  0  0  0  0  0  0
  147.1485  134.0887  150.7315 H   0  0  0  0  0  0  0  0  0  0  0  0
  146.9686  132.3566  150.8516 H   0  0  0  0  0  0  0  0  0  0  0  0
  145.2640  133.3461  149.3203 H   0  0  0  0  0  0  0  0  0  0  0  0
  144.5172  132.5331  150.6747 H   0  0  0  0  0  0  0  0  0  0  0  0
  144.9326  135.5477  150.3844 H   0  0  0  0  0  0  0  0  0  0  0  0
  143.4066  134.7033  150.3079 H   0  0  0  0  0  0  0  0  0  0  0  0
  143.7406  135.7562  152.5503 H   0  0  0  0  0  0  0  0  0  0  0  0
  143.5848  134.0261  152.6652 H   0  0  0  0  0  0  0  0  0  0  0  0
  145.3953  134.6800  154.1061 H   0  0  0  0  0  0  0  0  0  0  0  0
  147.3776  135.7311  152.4944 H   0  0  0  0  0  0  0  0  0  0  0  0
  147.8996  137.6666  152.3437 H   0  0  0  0  0  0  0  0  0  0  0  0
  147.2212  139.8811  151.6813 H   0  0  0  0  0  0  0  0  0  0  0  0
  145.8095  139.7643  152.7069 H   0  0  0  0  0  0  0  0  0  0  0  0
  147.9504  141.1370  153.5448 H   0  0  0  0  0  0  0  0  0  0  0  0
  147.0485  140.1662  154.6872 H   0  0  0  0  0  0  0  0  0  0  0  0
  152.7280  137.7525  154.2540 H   0  0  0  0  0  0  0  0  0  0  0  0
  152.5658  138.6867  155.7495 H   0  0  0  0  0  0  0  0  0  0  0  0
  152.7707  139.5195  154.2012 H   0  0  0  0  0  0  0  0  0  0  0  0
  1  2  1  0  0  0  0
  1 21  1  0  0  0  0
  1 22  1  0  0  0  0
  1 23  1  0  0  0  0
  2  3  1  0  0  0  0
  3  8  1  0  0  0  0
  3  4  1  0  0  0  0
  3 24  1  0  0  0  0
  4  5  1  0  0  0  0
  4 25  1  0  0  0  0
  4 26  1  0  0  0  0
  5  6  1  0  0  0  0
  5 27  1  0  0  0  0
  5 28  1  0  0  0  0
  6  7  1  0  0  0  0
  6 29  1  0  0  0  0
  6 30  1  0  0  0  0
  7  8  1  0  0  0  0
  7 31  1  0  0  0  0
  7 32  1  0  0  0  0
  8  9  1  0  0  0  0
  8 33  1  0  0  0  0
  9 10  1  0  0  0  0
  9 34  1  0  0  0  0
 10 11  2  0  0  0  0
 10 12  1  0  0  0  0
 12 13  1  0  0  0  0
 12 35  1  0  0  0  0
 13 14  1  0  0  0  0
 13 36  1  0  0  0  0
 13 37  1  0  0  0  0
 14 15  1  0  0  0  0
 14 38  1  0  0  0  0
 14 39  1  0  0  0  0
 15 20  1  0  0  0  0
 15 16  2  0  0  0  0
 16 17  1  0  0  0  0
 17 18  1  0  0  0  0
 17 19  2  0  0  0  0
 18 40  1  0  0  0  0
 18 41  1  0  0  0  0
 18 42  1  0  0  0  0
 19 20  1  0  0  0  0
M  END
> <s_m_source_file>
AV-unprocessed.smi

> <i_m_source_file_index>
2878

> <i_lp_mmshare_version>
43012

> <i_f3d_flags>
0

> <s_epik_input>
W0NIM11TW0NAQEhdMVtDSDJdW0NIMl1bQ0gyXVtDSDJdW0NASF0xW05IXUMoPU8pW05IXVtDSDJdW0NIMl1jMm5jKFtDSDNdKW5vMg==

> <s_epik_cmdline>
J2VwaWtfcHl0aG9uJywgJy1waCcsICc3LjAnLCAnLXRuJywgJzgnLCAnLW1hJywgJzIwMCcsICctbWV0YWxfYmluZGluZycsICctaW1hZScsICc8aW5maWxlLm1hZT4nLCAnLW9tYWUnLCAnPG91dGZpbGUubWFlPic=

> <r_lp_tautomer_probability>
1

> <r_epik_Ionization_Penalty>
4.9299e-05

> <r_epik_Ionization_Penalty_Charging>
0

> <r_epik_Ionization_Penalty_Neutral>
4.9299e-05

> <r_epik_State_Penalty>
-0

> <r_epik_Charging_Adjusted_Penalty>
0

> <i_epik_Tot_Q>
0

> <i_epik_Tot_abs_Q>
0

> <r_epik_Metal_State_Penalty>
-0

> <b_epik_Metal_Only>
0

> <s_lp_Force_Field>
OPLS_2005

> <r_lp_Energy>
0.628987

> <b_lp_Chiralities_Consistent>
1

> <s_lp_Variant>
AV-unprocessed.smi:2878-3

> <Gold.Version>
5.8.1

> <Gold.Id.Protein>
6NUR|6NUR_protein|mol2

> <Gold.PLP.Fitness>
40.5133

> <Gold.PLP.PLP>
-32.5301

> <Gold.PLP.part.hbond>
-3.0000

> <Gold.PLP.part.metal>
0.0000

> <Gold.PLP.part.buried>
-3.9706

> <Gold.PLP.part.nonpolar>
-27.5319

> <Gold.PLP.part.repulsive>
1.5456

> <Gold.PLP.ligand.clash>
0.0000

> <Gold.PLP.ligand.torsion>
0.5456

> <Gold.PLP.Chemscore.Hbond>
3.0000

> <Gold.PLP.Chemscore.CHOScore>
0.0000

> <Gold.PLP.Chemscore.Metal>
0.0000

> <Gold.Chemscore.Hbonds>
donor molecule, donor type, donor heavy atom, donor atom, acceptor molecule, acceptor atom, score
      L1  H     9    34       P1  7948  1.00
      L1  H    12    35       P1  7948  1.00
      P1  H  7989  7998       L1    16  1.00

> <Gold.PLP.Chemscore.Internal.Correction>
0.0745

> <Gold.Rescore>
     Score         DG    S(hbond)    S(metal)    S(lipo)     H(rot)  DE(clash)    DE(int)     intcor
     13.99     -16.96       2.86        0.00      62.22       2.09       0.22       2.75       ----

> <Gold.Chemscore.Fitness>
13.9900

> <Gold.Chemscore.DG>
-16.9601

> <Gold.Chemscore.ZeroCoef>
-5.4800

> <Gold.Chemscore.Hbond>
2.8611

> <Gold.Chemscore.Metal>
0.0000

> <Gold.Chemscore.Lipo>
62.2234

> <Gold.Chemscore.Internal_Hbond>
0.0000

> <Gold.Chemscore.DEClash>
0.2204

> <Gold.Chemscore.DEInternal>
2.7497

> <Gold.Chemscore.Rot>
2.0923

> <Gold.Chemscore.Internal.Correction>
   9.000000E+99

> <Gold.Chemscore.Hbonds>
donor molecule, donor type, donor heavy atom, donor atom, acceptor molecule, acceptor atom, score
      L1  H     9    34       P1  7948  0.98
      L1  H    12    35       P1  7948  0.95
      P1  H  7989  7998       L1    16  0.25

> <Gold.Chemscore.Hbond.Weighted>
-9.5562

> <Gold.Chemscore.Metal.Weighted>
-0.0000

> <Gold.Chemscore.Lipo.Weighted>
-7.2801

> <Gold.Chemscore.Internal_Hbond.Weighted>
0.0000

> <Gold.Chemscore.DEClash.Weighted>
0.2204

> <Gold.Chemscore.DEInternal.Weighted>
2.7497

> <Gold.Chemscore.Rot.Weighted>
5.3562

> <Gold.Chemscore.Internal.Correction.Weighted>
   9.000000E+99

> <Gold.Protein.RotatedTorsions>
[ 6907 6896 6895 6894 ] final  126.12 input  -60.11 | X-H torsion
[ 7974 7965 7964 7962 ] final -179.38 input  175.53 | X-H torsion
[ 8008 7997 7996 7995 ] final  138.66 input   59.86 | X-H torsion
[ 10167 10162 10161 10158 ] final  -56.30 input  -65.29 | X-H torsion
[ 10718 10713 10712 10709 ] final  -12.46 input   66.30 | X-H torsion
[ 10763 10752 10751 10750 ] final  172.23 input  -60.55 | X-H torsion
[ 11005 11000 10999 10996 ] final   40.18 input  -57.11 | X-H torsion

> <Gold.Protein.ActiveResidues>
 VAL166  LYS551  ARG553  GLY616  TRP617  ASP618  TYR619  PRO620  LYS621  CYS622 
 ASP623  PHE694  ASN695  SER759  ASP760  ASP761  ALA762  ILE779  LEU786  VAL792 
 PHE793  MET794  SER795  GLU796  ALA797  LYS798  CYS799  TRP800  GLU811  SER814 

> <Gold.Protein.RotatedAtoms>
  152.3932  133.6709  159.6254 H   0  0  0  0  0  0  0  0  0  0  0  0  # atno 6907 bound_to 6896
  150.7836  133.8919  159.3324 H   0  0  0  0  0  0  0  0  0  0  0  0  # atno 6908 bound_to 6896
  151.6701  135.0979  160.0247 H   0  0  0  0  0  0  0  0  0  0  0  0  # atno 6909 bound_to 6896
  144.7136  140.0727  143.6429 H   0  0  0  0  0  0  0  0  0  0  0  0  # atno 7974 bound_to 7965
  156.2996  140.2388  156.4109 H   0  0  0  0  0  0  0  0  0  0  0  0  # atno 8008 bound_to 7997
  154.8441  140.0427  157.1581 H   0  0  0  0  0  0  0  0  0  0  0  0  # atno 8009 bound_to 7997
  154.9070  140.2985  155.5290 H   0  0  0  0  0  0  0  0  0  0  0  0  # atno 8010 bound_to 7997
  140.6325  143.2466  151.5204 H   0  0  0  0  0  0  0  0  0  0  0  0  # atno 10167 bound_to 10162
  156.6442  130.4936  149.6084 H   0  0  0  0  0  0  0  0  0  0  0  0  # atno 10718 bound_to 10713
  154.4231  135.2758  155.1962 H   0  0  0  0  0  0  0  0  0  0  0  0  # atno 10763 bound_to 10752
  154.3900  135.6068  153.5841 H   0  0  0  0  0  0  0  0  0  0  0  0  # atno 10764 bound_to 10752
  152.9833  135.5901  154.4530 H   0  0  0  0  0  0  0  0  0  0  0  0  # atno 10765 bound_to 10752
  140.1955  134.3934  155.8123 H   0  0  0  0  0  0  0  0  0  0  0  0  # atno 11005 bound_to 11000
  145.9770  139.2912  143.1065 LP  0  0  0  0  0  0  0  0  0  0  0  0  # atno 17320 bound_to 7965
  145.9053  140.9216  143.0482 LP  0  0  0  0  0  0  0  0  0  0  0  0  # atno 17321 bound_to 7965
  139.5538  144.2328  152.1577 LP  0  0  0  0  0  0  0  0  0  0  0  0  # atno 17342 bound_to 10162
  140.1575  144.5057  150.6651 LP  0  0  0  0  0  0  0  0  0  0  0  0  # atno 17343 bound_to 10162
  156.2135  130.6693  151.1294 LP  0  0  0  0  0  0  0  0  0  0  0  0  # atno 17370 bound_to 10713
  157.7161  131.0708  150.6320 LP  0  0  0  0  0  0  0  0  0  0  0  0  # atno 17371 bound_to 10713
  141.2227  133.7068  156.8169 LP  0  0  0  0  0  0  0  0  0  0  0  0  # atno 17394 bound_to 11000
  140.2112  134.8826  157.3276 LP  0  0  0  0  0  0  0  0  0  0  0  0  # atno 17395 bound_to 11000

$$$$
