AV-unprocessed.smi:2087|AV-procd|sdf|8525|dock4
  -GOLD-   2272011243D 1   1.00000     0.00000
 Structure written by MMmdl.
 50 51  0  0  0  0  0  0  0  0  1 V2000
  152.4373  143.2258  159.5866 C   0  0  0  0  0  0  0  0  0  0  0  0
  152.2216  142.2891  158.3856 C   0  0  0  0  0  0  0  0  0  0  0  0
  150.8817  142.5390  157.6717 C   0  0  0  0  0  0  0  0  0  0  0  0
  152.4955  140.7973  158.7000 C   0  0  0  0  0  0  0  0  0  0  0  0
  152.8814  139.9256  157.5854 N   0  0  0  0  0  0  0  0  0  0  0  0
  151.8446  139.9197  156.5582 C   0  0  0  0  0  0  0  0  0  0  0  0
  152.2128  139.0181  155.3695 C   0  0  0  0  0  0  0  0  0  0  0  0
  152.4603  137.6998  155.8418 O   0  0  0  0  0  0  0  0  0  0  0  0
  153.5123  137.6414  156.8018 C   0  0  2  0  0  0  0  0  0  0  0  0
  153.7112  136.1792  157.2361 C   0  0  0  0  0  0  0  0  0  0  0  0
  154.7858  136.0501  158.2148 N   0  0  0  0  0  0  0  0  0  0  0  0
  155.2714  134.8925  158.6884 C   0  0  0  0  0  0  0  0  0  0  0  0
  154.8535  133.7883  158.3365 O   0  0  0  0  0  0  0  0  0  0  0  0
  156.4213  135.0114  159.6980 C   0  0  0  0  0  0  0  0  0  0  0  0
  155.9943  135.5270  161.0058 N   0  0  0  0  0  0  0  0  0  0  0  0
  155.6292  136.8554  161.1312 C   0  0  0  0  0  0  0  0  0  0  0  0
  155.2333  137.4124  162.2963 C   0  0  0  0  0  0  0  0  0  0  0  0
  155.1653  136.6200  163.5176 C   0  0  0  0  0  0  0  0  0  0  0  0
  154.8225  137.0825  164.6069 O   0  0  0  0  0  0  0  0  0  0  0  0
  155.5341  135.2641  163.3613 N   0  0  0  0  0  0  0  0  0  0  0  0
  155.4979  134.4396  164.5514 C   0  0  0  0  0  0  0  0  0  0  0  0
  155.9608  134.6885  162.1416 C   0  0  0  0  0  0  0  0  0  0  0  0
  156.2987  133.5058  162.0520 O   0  0  0  0  0  0  0  0  0  0  0  0
  153.1457  138.5482  157.9947 C   0  0  0  0  0  0  0  0  0  0  0  0
  151.6926  143.0635  160.3661 H   0  0  0  0  0  0  0  0  0  0  0  0
  152.3716  144.2710  159.2832 H   0  0  0  0  0  0  0  0  0  0  0  0
  153.4222  143.0736  160.0290 H   0  0  0  0  0  0  0  0  0  0  0  0
  152.9793  142.5670  157.6513 H   0  0  0  0  0  0  0  0  0  0  0  0
  150.0224  142.3859  158.3214 H   0  0  0  0  0  0  0  0  0  0  0  0
  150.7679  141.8826  156.8085 H   0  0  0  0  0  0  0  0  0  0  0  0
  150.8276  143.5652  157.3073 H   0  0  0  0  0  0  0  0  0  0  0  0
  153.2252  140.7164  159.5071 H   0  0  0  0  0  0  0  0  0  0  0  0
  151.5677  140.4030  159.1173 H   0  0  0  0  0  0  0  0  0  0  0  0
  150.9009  139.5783  156.9870 H   0  0  0  0  0  0  0  0  0  0  0  0
  151.6737  140.9346  156.1975 H   0  0  0  0  0  0  0  0  0  0  0  0
  151.3968  138.9902  154.6473 H   0  0  0  0  0  0  0  0  0  0  0  0
  153.0921  139.3993  154.8483 H   0  0  0  0  0  0  0  0  0  0  0  0
  154.4340  138.0064  156.3443 H   0  0  0  0  0  0  0  0  0  0  0  0
  152.7991  135.8105  157.7063 H   0  0  0  0  0  0  0  0  0  0  0  0
  153.8895  135.5396  156.3697 H   0  0  0  0  0  0  0  0  0  0  0  0
  155.1945  136.9081  158.5557 H   0  0  0  0  0  0  0  0  0  0  0  0
  156.8701  134.0244  159.8165 H   0  0  0  0  0  0  0  0  0  0  0  0
  157.2097  135.6448  159.2869 H   0  0  0  0  0  0  0  0  0  0  0  0
  155.6664  137.4848  160.2538 H   0  0  0  0  0  0  0  0  0  0  0  0
  154.9656  138.4585  162.3257 H   0  0  0  0  0  0  0  0  0  0  0  0
  155.5637  133.3822  164.2969 H   0  0  0  0  0  0  0  0  0  0  0  0
  154.5461  134.6163  165.0558 H   0  0  0  0  0  0  0  0  0  0  0  0
  156.3416  134.7426  165.1733 H   0  0  0  0  0  0  0  0  0  0  0  0
  153.9746  138.5227  158.6983 H   0  0  0  0  0  0  0  0  0  0  0  0
  152.2753  138.1415  158.5120 H   0  0  0  0  0  0  0  0  0  0  0  0
  1  2  1  0  0  0  0
  1 25  1  0  0  0  0
  1 26  1  0  0  0  0
  1 27  1  0  0  0  0
  2  3  1  0  0  0  0
  2  4  1  0  0  0  0
  2 28  1  0  0  0  0
  3 29  1  0  0  0  0
  3 30  1  0  0  0  0
  3 31  1  0  0  0  0
  4  5  1  0  0  0  0
  4 32  1  0  0  0  0
  4 33  1  0  0  0  0
  5 24  1  0  0  0  0
  5  6  1  0  0  0  0
  6  7  1  0  0  0  0
  6 34  1  0  0  0  0
  6 35  1  0  0  0  0
  7  8  1  0  0  0  0
  7 36  1  0  0  0  0
  7 37  1  0  0  0  0
  8  9  1  0  0  0  0
  9 10  1  0  0  0  0
  9 24  1  0  0  0  0
  9 38  1  0  0  0  0
 10 11  1  0  0  0  0
 10 39  1  0  0  0  0
 10 40  1  0  0  0  0
 11 12  1  0  0  0  0
 11 41  1  0  0  0  0
 12 13  2  0  0  0  0
 12 14  1  0  0  0  0
 14 15  1  0  0  0  0
 14 42  1  0  0  0  0
 14 43  1  0  0  0  0
 15 22  1  0  0  0  0
 15 16  1  0  0  0  0
 16 17  2  0  0  0  0
 16 44  1  0  0  0  0
 17 18  1  0  0  0  0
 17 45  1  0  0  0  0
 18 19  2  0  0  0  0
 18 20  1  0  0  0  0
 20 21  1  0  0  0  0
 20 22  1  0  0  0  0
 21 46  1  0  0  0  0
 21 47  1  0  0  0  0
 21 48  1  0  0  0  0
 22 23  2  0  0  0  0
 24 49  1  0  0  0  0
 24 50  1  0  0  0  0
M  END
> <s_m_source_file>
AV-unprocessed.smi

> <i_m_source_file_index>
2087

> <i_lp_mmshare_version>
43012

> <i_f3d_flags>
0

> <s_epik_input>
W0NIM11bQ0hdKFtDSDNdKVtDSDJdTjFbQ0gyXVtDSDJdT1tDQEhdKFtDSDJdMSlbQ0gyXVtOSF1DKD1PKVtDSDJdbjJbY0hdW2NIXWMoPU8pbihbQ0gzXSljMj1P

> <s_epik_cmdline>
J2VwaWtfcHl0aG9uJywgJy1waCcsICc3LjAnLCAnLXRuJywgJzgnLCAnLW1hJywgJzIwMCcsICctbWV0YWxfYmluZGluZycsICctaW1hZScsICc8aW5maWxlLm1hZT4nLCAnLW9tYWUnLCAnPG91dGZpbGUubWFlPic=

> <r_lp_tautomer_probability>
1

> <r_epik_Ionization_Penalty>
1.11669

> <r_epik_Ionization_Penalty_Charging>
1.16423e-08

> <r_epik_Ionization_Penalty_Neutral>
1.11669

> <r_epik_State_Penalty>
1.17516

> <r_epik_Charging_Adjusted_Penalty>
1.17516

> <i_epik_Tot_Q>
0

> <i_epik_Tot_abs_Q>
0

> <r_epik_Metal_State_Penalty>
1.17513

> <b_epik_Metal_Only>
0

> <s_lp_Force_Field>
OPLS_2005

> <r_lp_Energy>
38.2596

> <b_lp_Chiralities_Consistent>
1

> <s_lp_Variant>
AV-unprocessed.smi:2087-6

> <Gold.Version>
5.8.1

> <Gold.Id.Protein>
6NUR|6NUR_protein|mol2

> <Gold.PLP.Fitness>
42.3345

> <Gold.PLP.PLP>
-37.0982

> <Gold.PLP.part.hbond>
-3.2134

> <Gold.PLP.part.metal>
0.0000

> <Gold.PLP.part.buried>
-2.2364

> <Gold.PLP.part.nonpolar>
-32.5984

> <Gold.PLP.part.repulsive>
0.2236

> <Gold.PLP.ligand.clash>
0.0000

> <Gold.PLP.ligand.torsion>
0.4311

> <Gold.PLP.Chemscore.Hbond>
2.0000

> <Gold.PLP.Chemscore.CHOScore>
0.0000

> <Gold.PLP.Chemscore.Metal>
0.0000

> <Gold.Chemscore.Hbonds>
donor molecule, donor type, donor heavy atom, donor atom, acceptor molecule, acceptor atom, score
      P1  H  7997  8008       L1     5  0.55

> <Gold.PLP.Chemscore.Internal.Correction>
0.0985

> <Gold.Rescore>
     Score         DG    S(hbond)    S(metal)    S(lipo)     H(rot)  DE(clash)    DE(int)     intcor
     12.22     -12.87       0.67        0.00      91.45       2.16       0.04       0.60       ----

> <Gold.Chemscore.Fitness>
12.2191

> <Gold.Chemscore.DG>
-12.8653

> <Gold.Chemscore.ZeroCoef>
-5.4800

> <Gold.Chemscore.Hbond>
0.6662

> <Gold.Chemscore.Metal>
0.0000

> <Gold.Chemscore.Lipo>
91.4490

> <Gold.Chemscore.Internal_Hbond>
0.0000

> <Gold.Chemscore.DEClash>
0.0418

> <Gold.Chemscore.DEInternal>
0.6044

> <Gold.Chemscore.Rot>
2.1638

> <Gold.Chemscore.Internal.Correction>
   9.000000E+99

> <Gold.Chemscore.Hbonds>
donor molecule, donor type, donor heavy atom, donor atom, acceptor molecule, acceptor atom, score
      P1  H  7997  8008       L1     5  0.02

> <Gold.Chemscore.Hbond.Weighted>
-2.2250

> <Gold.Chemscore.Metal.Weighted>
-0.0000

> <Gold.Chemscore.Lipo.Weighted>
-10.6995

> <Gold.Chemscore.Internal_Hbond.Weighted>
0.0000

> <Gold.Chemscore.DEClash.Weighted>
0.0418

> <Gold.Chemscore.DEInternal.Weighted>
0.6044

> <Gold.Chemscore.Rot.Weighted>
5.5393

> <Gold.Chemscore.Internal.Correction.Weighted>
   9.000000E+99

> <Gold.Protein.RotatedTorsions>
[ 6907 6896 6895 6894 ] final  132.50 input  -60.11 | X-H torsion
[ 7974 7965 7964 7962 ] final  -80.34 input  175.53 | X-H torsion
[ 8008 7997 7996 7995 ] final  -77.26 input   59.86 | X-H torsion
[ 10167 10162 10161 10158 ] final  -41.13 input  -65.29 | X-H torsion
[ 10718 10713 10712 10709 ] final   31.33 input   66.30 | X-H torsion
[ 10763 10752 10751 10750 ] final   30.70 input  -60.55 | X-H torsion
[ 11005 11000 10999 10996 ] final   83.21 input  -57.11 | X-H torsion

> <Gold.Protein.ActiveResidues>
 VAL166  LYS551  ARG553  GLY616  TRP617  ASP618  TYR619  PRO620  LYS621  CYS622 
 ASP623  PHE694  ASN695  SER759  ASP760  ASP761  ALA762  ILE779  LEU786  VAL792 
 PHE793  MET794  SER795  GLU796  ALA797  LYS798  CYS799  TRP800  GLU811  SER814 

> <Gold.Protein.RotatedAtoms>
  152.3318  133.5966  159.5814 H   0  0  0  0  0  0  0  0  0  0  0  0  # atno 6907 bound_to 6896
  150.7427  133.9857  159.3599 H   0  0  0  0  0  0  0  0  0  0  0  0  # atno 6908 bound_to 6896
  151.7731  135.0782  160.0414 H   0  0  0  0  0  0  0  0  0  0  0  0  # atno 6909 bound_to 6896
  145.5613  140.9481  143.1446 H   0  0  0  0  0  0  0  0  0  0  0  0  # atno 7974 bound_to 7965
  154.5580  140.0713  156.8773 H   0  0  0  0  0  0  0  0  0  0  0  0  # atno 8008 bound_to 7997
  155.2866  140.3375  155.4237 H   0  0  0  0  0  0  0  0  0  0  0  0  # atno 8009 bound_to 7997
  156.2018  140.1724  156.7869 H   0  0  0  0  0  0  0  0  0  0  0  0  # atno 8010 bound_to 7997
  140.7012  143.3112  151.3023 H   0  0  0  0  0  0  0  0  0  0  0  0  # atno 10167 bound_to 10162
  157.2710  130.7208  149.6504 H   0  0  0  0  0  0  0  0  0  0  0  0  # atno 10718 bound_to 10713
  153.0357  135.6457  154.1085 H   0  0  0  0  0  0  0  0  0  0  0  0  # atno 10763 bound_to 10752
  154.0800  135.2874  155.3294 H   0  0  0  0  0  0  0  0  0  0  0  0  # atno 10764 bound_to 10752
  154.6536  135.5417  153.7996 H   0  0  0  0  0  0  0  0  0  0  0  0  # atno 10765 bound_to 10752
  139.9038  134.8128  156.2279 H   0  0  0  0  0  0  0  0  0  0  0  0  # atno 11005 bound_to 11000
  144.7482  139.7265  143.7284 LP  0  0  0  0  0  0  0  0  0  0  0  0  # atno 17320 bound_to 7965
  146.1849  139.5059  142.9842 LP  0  0  0  0  0  0  0  0  0  0  0  0  # atno 17321 bound_to 7965
  139.6536  144.0317  152.2644 LP  0  0  0  0  0  0  0  0  0  0  0  0  # atno 17342 bound_to 10162
  139.9862  144.6394  150.7856 LP  0  0  0  0  0  0  0  0  0  0  0  0  # atno 17343 bound_to 10162
  155.9663  130.4367  150.5146 LP  0  0  0  0  0  0  0  0  0  0  0  0  # atno 17370 bound_to 10713
  157.3071  131.0656  151.2027 LP  0  0  0  0  0  0  0  0  0  0  0  0  # atno 17371 bound_to 10713
  141.0364  133.6961  156.1520 LP  0  0  0  0  0  0  0  0  0  0  0  0  # atno 17394 bound_to 11000
  140.7020  134.4553  157.5586 LP  0  0  0  0  0  0  0  0  0  0  0  0  # atno 17395 bound_to 11000

$$$$
