AV-unprocessed.smi:160|AV-procd|sdf|1344|dock5
  -GOLD-   2262019 43D 1   1.00000     0.00000
 Structure written by MMmdl.
 29 30  0  0  0  0  0  0  0  0  1 V2000
  154.9948  137.7360  158.0977 N   0  0  0  0  0  0  0  0  0  0  0  0
  154.3402  137.1554  157.0866 C   0  0  0  0  0  0  0  0  0  0  0  0
  154.5625  135.9975  156.7363 O   0  0  0  0  0  0  0  0  0  0  0  0
  153.3059  137.9989  156.3942 C   0  0  0  0  0  0  0  0  0  0  0  0
  152.6745  137.5591  155.2652 N   0  0  0  0  0  0  0  0  0  0  0  0
  151.8879  138.6049  155.0458 C   0  0  0  0  0  0  0  0  0  0  0  0
  152.0226  139.5895  155.9402 N   0  0  0  0  0  0  0  0  0  0  0  0
  151.3149  140.9092  156.0282 C   0  0  1  0  0  0  0  0  0  0  0  0
  150.4156  140.9964  154.9624 O   0  0  0  0  0  0  0  0  0  0  0  0
  149.0920  140.7548  155.4291 C   0  0  2  0  0  0  0  0  0  0  0  0
  148.0751  141.3496  154.4434 C   0  0  0  0  0  0  0  0  0  0  0  0
  148.4167  142.6867  154.1462 O   0  0  0  0  0  0  0  0  0  0  0  0
  149.1216  141.4578  156.7868 C   0  0  1  0  0  0  0  0  0  0  0  0
  148.0539  141.0714  157.6324 O   0  0  0  0  0  0  0  0  0  0  0  0
  150.5008  141.0892  157.3329 C   0  0  1  0  0  0  0  0  0  0  0  0
  150.4713  139.9406  158.1673 O   0  0  0  0  0  0  0  0  0  0  0  0
  152.9585  139.2053  156.8446 N   0  0  0  0  0  0  0  0  0  0  0  0
  152.1061  141.6498  155.9067 H   0  0  0  0  0  0  0  0  0  0  0  0
  148.9262  139.6848  155.5695 H   0  0  0  0  0  0  0  0  0  0  0  0
  149.0773  142.5374  156.6356 H   0  0  0  0  0  0  0  0  0  0  0  0
  150.9223  141.9146  157.9074 H   0  0  0  0  0  0  0  0  0  0  0  0
  155.7012  137.2217  158.6028 H   0  0  0  0  0  0  0  0  0  0  0  0
  154.7759  138.6894  158.3496 H   0  0  0  0  0  0  0  0  0  0  0  0
  151.2006  138.6553  154.2141 H   0  0  0  0  0  0  0  0  0  0  0  0
  148.0900  140.7925  153.5063 H   0  0  0  0  0  0  0  0  0  0  0  0
  147.0597  141.2947  154.8373 H   0  0  0  0  0  0  0  0  0  0  0  0
  148.5452  143.1522  154.9585 H   0  0  0  0  0  0  0  0  0  0  0  0
  147.3864  141.7392  157.5964 H   0  0  0  0  0  0  0  0  0  0  0  0
  150.2177  140.2057  159.0381 H   0  0  0  0  0  0  0  0  0  0  0  0
  1  2  1  0  0  0  0
  1 22  1  0  0  0  0
  1 23  1  0  0  0  0
  2  3  2  0  0  0  0
  2  4  1  0  0  0  0
  4 17  2  0  0  0  0
  4  5  1  0  0  0  0
  5  6  2  0  0  0  0
  6  7  1  0  0  0  0
  6 24  1  0  0  0  0
  7  8  1  0  0  0  0
  7 17  1  0  0  0  0
  8 18  1  0  0  0  0
  8 15  1  0  0  0  0
  8  9  1  0  0  0  0
  9 10  1  0  0  0  0
 10 19  1  0  0  0  0
 10 11  1  0  0  0  0
 10 13  1  0  0  0  0
 11 12  1  0  0  0  0
 11 25  1  0  0  0  0
 11 26  1  0  0  0  0
 12 27  1  0  0  0  0
 13 20  1  0  0  0  0
 13 14  1  0  0  0  0
 13 15  1  0  0  0  0
 14 28  1  0  0  0  0
 15 21  1  0  0  0  0
 15 16  1  0  0  0  0
 16 29  1  0  0  0  0
M  END
> <s_m_source_file>
AV-unprocessed.smi

> <i_m_source_file_index>
160

> <i_lp_mmshare_version>
43012

> <i_f3d_flags>
0

> <s_epik_input>
W05IMl1DKD1PKWMxbltjSF1uKG4xKVtDQEBIXTJPW0NASF0oW0NIMl1bT0hdKVtDQEBIXShbT0hdKVtDQEhdMltPSF0=

> <s_epik_cmdline>
J2VwaWtfcHl0aG9uJywgJy1waCcsICc3LjAnLCAnLXRuJywgJzgnLCAnLW1hJywgJzIwMCcsICctbWV0YWxfYmluZGluZycsICctaW1hZScsICc8aW5maWxlLm1hZT4nLCAnLW9tYWUnLCAnPG91dGZpbGUubWFlPic=

> <r_lp_tautomer_probability>
1

> <r_epik_Ionization_Penalty>
1.06932e-05

> <r_epik_Ionization_Penalty_Charging>
0

> <r_epik_Ionization_Penalty_Neutral>
1.06932e-05

> <r_epik_State_Penalty>
-0

> <r_epik_Charging_Adjusted_Penalty>
0

> <i_epik_Tot_Q>
0

> <i_epik_Tot_abs_Q>
0

> <r_epik_Metal_State_Penalty>
0.0142097

> <b_epik_Metal_Only>
0

> <s_epik_Chemistry_Notes>
This compound contains an acetal/aminal-like group ( X-CH(R)-Y where X, Y are N, S, or O) that may be acid/base labile, releasing an aldehyde.

> <s_lp_Force_Field>
OPLS_2005

> <r_lp_Energy>
46.1789

> <b_lp_Chiralities_Consistent>
1

> <s_lp_Variant>
AV-unprocessed.smi:160-2

> <Gold.Version>
5.8.1

> <Gold.Id.Protein>
6NUR|6NUR_protein|mol2

> <Gold.PLP.Fitness>
37.0027

> <Gold.PLP.PLP>
-24.3364

> <Gold.PLP.part.hbond>
-6.7918

> <Gold.PLP.part.metal>
0.0000

> <Gold.PLP.part.buried>
-3.1375

> <Gold.PLP.part.nonpolar>
-15.2790

> <Gold.PLP.part.repulsive>
0.2344

> <Gold.PLP.ligand.clash>
0.0000

> <Gold.PLP.ligand.torsion>
0.0496

> <Gold.PLP.Chemscore.Hbond>
4.2497

> <Gold.PLP.Chemscore.CHOScore>
0.0000

> <Gold.PLP.Chemscore.Metal>
0.0000

> <Gold.Chemscore.Hbonds>
donor molecule, donor type, donor heavy atom, donor atom, acceptor molecule, acceptor atom, score
      L1  H    12    27       P1  8028  0.86
      P1  H  7989  7998       L1     9  0.72
      P1  H  7997  8010       L1    17  1.00
      P1  H  8011  8017       L1    12  0.03
      P1  H 10752 10763       L1     3  1.00
      P1  H 10752 10765       L1     5  0.36

> <Gold.PLP.Chemscore.Internal.Correction>
0.0165

> <Gold.Rescore>
     Score         DG    S(hbond)    S(metal)    S(lipo)     H(rot)  DE(clash)    DE(int)     intcor
      9.11      -9.50       3.52        0.00      22.71       4.06       0.07       0.32       ----

> <Gold.Chemscore.Fitness>
9.1075

> <Gold.Chemscore.DG>
-9.4991

> <Gold.Chemscore.ZeroCoef>
-5.4800

> <Gold.Chemscore.Hbond>
3.5196

> <Gold.Chemscore.Metal>
0.0000

> <Gold.Chemscore.Lipo>
22.7116

> <Gold.Chemscore.Internal_Hbond>
0.0000

> <Gold.Chemscore.DEClash>
0.0710

> <Gold.Chemscore.DEInternal>
0.3207

> <Gold.Chemscore.Rot>
4.0600

> <Gold.Chemscore.Internal.Correction>
   9.000000E+99

> <Gold.Chemscore.Hbonds>
donor molecule, donor type, donor heavy atom, donor atom, acceptor molecule, acceptor atom, score
      L1  H    12    27       P1  8028  0.85
      P1  H  7989  7998       L1     9  0.18
      P1  H  7997  8010       L1    17  0.28
      P1  H  8011  8017       L1    12  0.01
      P1  H 10752 10763       L1     3  0.96
      P1  H 10752 10765       L1     5  0.35

> <Gold.Chemscore.Hbond.Weighted>
-11.7555

> <Gold.Chemscore.Metal.Weighted>
-0.0000

> <Gold.Chemscore.Lipo.Weighted>
-2.6573

> <Gold.Chemscore.Internal_Hbond.Weighted>
0.0000

> <Gold.Chemscore.DEClash.Weighted>
0.0710

> <Gold.Chemscore.DEInternal.Weighted>
0.3207

> <Gold.Chemscore.Rot.Weighted>
10.3936

> <Gold.Chemscore.Internal.Correction.Weighted>
   9.000000E+99

> <Gold.Protein.RotatedTorsions>
[ 6907 6896 6895 6894 ] final   48.90 input  -60.11 | X-H torsion
[ 7974 7965 7964 7962 ] final  -97.09 input  175.53 | X-H torsion
[ 8008 7997 7996 7995 ] final   57.41 input   59.86 | X-H torsion
[ 10167 10162 10161 10158 ] final  145.58 input  -65.29 | X-H torsion
[ 10718 10713 10712 10709 ] final -161.05 input   66.30 | X-H torsion
[ 10763 10752 10751 10750 ] final  166.43 input  -60.55 | X-H torsion
[ 11005 11000 10999 10996 ] final   76.71 input  -57.11 | X-H torsion

> <Gold.Protein.ActiveResidues>
 VAL166  LYS551  ARG553  GLY616  TRP617  ASP618  TYR619  PRO620  LYS621  CYS622 
 ASP623  PHE694  ASN695  SER759  ASP760  ASP761  ALA762  ILE779  LEU786  VAL792 
 PHE793  MET794  SER795  GLU796  ALA797  LYS798  CYS799  TRP800  GLU811  SER814 

> <Gold.Protein.RotatedAtoms>
  152.2848  134.7788  160.0389 H   0  0  0  0  0  0  0  0  0  0  0  0  # atno 6907 bound_to 6896
  151.8355  133.3410  159.3635 H   0  0  0  0  0  0  0  0  0  0  0  0  # atno 6908 bound_to 6896
  150.7205  134.5370  159.5773 H   0  0  0  0  0  0  0  0  0  0  0  0  # atno 6909 bound_to 6896
  145.3384  140.9455  143.2622 H   0  0  0  0  0  0  0  0  0  0  0  0  # atno 7974 bound_to 7965
  155.5334  140.3482  155.4431 H   0  0  0  0  0  0  0  0  0  0  0  0  # atno 8008 bound_to 7997
  156.0702  140.1361  156.9864 H   0  0  0  0  0  0  0  0  0  0  0  0  # atno 8009 bound_to 7997
  154.4524  140.0967  156.6633 H   0  0  0  0  0  0  0  0  0  0  0  0  # atno 8010 bound_to 7997
  139.4923  144.5891  151.6717 H   0  0  0  0  0  0  0  0  0  0  0  0  # atno 10167 bound_to 10162
  156.5908  130.8769  151.2889 H   0  0  0  0  0  0  0  0  0  0  0  0  # atno 10718 bound_to 10713
  154.3388  135.2754  155.2433 H   0  0  0  0  0  0  0  0  0  0  0  0  # atno 10763 bound_to 10752
  154.4713  135.5882  153.6327 H   0  0  0  0  0  0  0  0  0  0  0  0  # atno 10764 bound_to 10752
  152.9859  135.6089  154.3587 H   0  0  0  0  0  0  0  0  0  0  0  0  # atno 10765 bound_to 10752
  139.9286  134.7623  156.1430 H   0  0  0  0  0  0  0  0  0  0  0  0  # atno 11005 bound_to 11000
  144.8810  139.4905  143.6723 LP  0  0  0  0  0  0  0  0  0  0  0  0  # atno 17320 bound_to 7965
  146.3017  139.7449  142.9086 LP  0  0  0  0  0  0  0  0  0  0  0  0  # atno 17321 bound_to 7965
  140.5514  144.0419  150.6128 LP  0  0  0  0  0  0  0  0  0  0  0  0  # atno 17342 bound_to 10162
  140.3475  143.2983  152.0523 LP  0  0  0  0  0  0  0  0  0  0  0  0  # atno 17343 bound_to 10162
  157.7304  130.9685  150.1831 LP  0  0  0  0  0  0  0  0  0  0  0  0  # atno 17370 bound_to 10713
  156.2551  130.3705  149.8190 LP  0  0  0  0  0  0  0  0  0  0  0  0  # atno 17371 bound_to 10713
  141.0861  133.6734  156.2438 LP  0  0  0  0  0  0  0  0  0  0  0  0  # atno 17394 bound_to 11000
  140.6265  134.5308  157.5554 LP  0  0  0  0  0  0  0  0  0  0  0  0  # atno 17395 bound_to 11000

$$$$
