AV-unprocessed.smi:1872|AV-procd|sdf|7604|dock5
  -GOLD-   22720 9323D 1   1.00000     0.00000
 Structure written by MMmdl.
 39 41  0  0  0  0  0  0  0  0  1 V2000
  149.1740  140.9108  154.3932 C   0  0  0  0  0  0  0  0  0  0  0  0
  150.0766  140.9341  155.5861 C   0  0  0  0  0  0  0  0  0  0  0  0
  150.1488  141.9852  156.4028 N   0  0  0  0  0  0  0  0  0  0  0  0
  151.0758  141.5756  157.3421 C   0  0  0  0  0  0  0  0  0  0  0  0
  151.5884  142.2424  158.4781 C   0  0  0  0  0  0  0  0  0  0  0  0
  152.5435  141.6144  159.3041 C   0  0  0  0  0  0  0  0  0  0  0  0
  152.9994  140.3137  159.0068 C   0  0  0  0  0  0  0  0  0  0  0  0
  152.5016  139.6315  157.8801 C   0  0  0  0  0  0  0  0  0  0  0  0
  151.5476  140.2623  157.0591 C   0  0  0  0  0  0  0  0  0  0  0  0
  150.8706  139.8822  155.9040 N   0  0  0  0  0  0  0  0  0  0  0  0
  151.0003  138.6127  155.2016 C   0  0  0  0  0  0  0  0  0  0  0  0
  149.7172  137.7595  155.2585 C   0  0  1  0  0  0  0  0  0  0  0  0
  149.9254  136.5225  154.6038 O   0  0  0  0  0  0  0  0  0  0  0  0
  149.2417  137.5844  156.6927 C   0  0  0  0  0  0  0  0  0  0  0  0
  147.9313  137.9649  157.0485 C   0  0  0  0  0  0  0  0  0  0  0  0
  147.4853  137.8202  158.3762 C   0  0  0  0  0  0  0  0  0  0  0  0
  148.3417  137.3045  159.3696 C   0  0  0  0  0  0  0  0  0  0  0  0
  147.8424  137.1779  160.6462 O   0  0  0  0  0  0  0  0  0  0  0  0
  147.8157  135.9516  161.2333 C   0  0  0  0  0  0  0  0  0  0  0  0
  147.5305  136.0810  162.5516 F   0  0  0  0  0  0  0  0  0  0  0  0
  146.8470  135.1820  160.6787 F   0  0  0  0  0  0  0  0  0  0  0  0
  149.6542  136.9152  159.0097 C   0  0  0  0  0  0  0  0  0  0  0  0
  150.1015  137.0605  157.6824 C   0  0  0  0  0  0  0  0  0  0  0  0
  148.6365  141.8553  154.3023 H   0  0  0  0  0  0  0  0  0  0  0  0
  148.4415  140.1089  154.4877 H   0  0  0  0  0  0  0  0  0  0  0  0
  149.7513  140.7586  153.4818 H   0  0  0  0  0  0  0  0  0  0  0  0
  151.2459  143.2391  158.7142 H   0  0  0  0  0  0  0  0  0  0  0  0
  152.9284  142.1334  160.1697 H   0  0  0  0  0  0  0  0  0  0  0  0
  153.7322  139.8404  159.6437 H   0  0  0  0  0  0  0  0  0  0  0  0
  152.8510  138.6365  157.6475 H   0  0  0  0  0  0  0  0  0  0  0  0
  151.2712  138.8165  154.1648 H   0  0  0  0  0  0  0  0  0  0  0  0
  151.8393  138.0619  155.6277 H   0  0  0  0  0  0  0  0  0  0  0  0
  148.9284  138.2679  154.7037 H   0  0  0  0  0  0  0  0  0  0  0  0
  149.5716  136.5831  153.7297 H   0  0  0  0  0  0  0  0  0  0  0  0
  147.2626  138.3718  156.3040 H   0  0  0  0  0  0  0  0  0  0  0  0
  146.4785  138.1128  158.6360 H   0  0  0  0  0  0  0  0  0  0  0  0
  148.7765  135.4430  161.1497 H   0  0  0  0  0  0  0  0  0  0  0  0
  150.3297  136.4994  159.7425 H   0  0  0  0  0  0  0  0  0  0  0  0
  151.1097  136.7672  157.4285 H   0  0  0  0  0  0  0  0  0  0  0  0
  1  2  1  0  0  0  0
  1 24  1  0  0  0  0
  1 25  1  0  0  0  0
  1 26  1  0  0  0  0
  2 10  1  0  0  0  0
  2  3  2  0  0  0  0
  3  4  1  0  0  0  0
  4  9  2  0  0  0  0
  4  5  1  0  0  0  0
  5  6  2  0  0  0  0
  5 27  1  0  0  0  0
  6  7  1  0  0  0  0
  6 28  1  0  0  0  0
  7  8  2  0  0  0  0
  7 29  1  0  0  0  0
  8  9  1  0  0  0  0
  8 30  1  0  0  0  0
  9 10  1  0  0  0  0
 10 11  1  0  0  0  0
 11 12  1  0  0  0  0
 11 31  1  0  0  0  0
 11 32  1  0  0  0  0
 12 13  1  0  0  0  0
 12 14  1  0  0  0  0
 12 33  1  0  0  0  0
 13 34  1  0  0  0  0
 14 23  1  0  0  0  0
 14 15  2  0  0  0  0
 15 16  1  0  0  0  0
 15 35  1  0  0  0  0
 16 17  2  0  0  0  0
 16 36  1  0  0  0  0
 17 18  1  0  0  0  0
 17 22  1  0  0  0  0
 18 19  1  0  0  0  0
 19 20  1  0  0  0  0
 19 21  1  0  0  0  0
 19 37  1  0  0  0  0
 22 23  2  0  0  0  0
 22 38  1  0  0  0  0
 23 39  1  0  0  0  0
M  END
> <s_m_source_file>
AV-unprocessed.smi

> <i_m_source_file_index>
1872

> <i_lp_mmshare_version>
43012

> <i_f3d_flags>
0

> <s_epik_input>
W2NIXTFbY0hdW2NIXVtjSF1jKGMxMiluKGMobjIpW0NIM10pW0NIMl1bQ0BIXShbT0hdKWMzW2NIXVtjSF1jKE9bQ0hdKEYpRilbY0hdW2NIXTM=

> <s_epik_cmdline>
J2VwaWtfcHl0aG9uJywgJy1waCcsICc3LjAnLCAnLXRuJywgJzgnLCAnLW1hJywgJzIwMCcsICctbWV0YWxfYmluZGluZycsICctaW1hZScsICc8aW5maWxlLm1hZT4nLCAnLW9tYWUnLCAnPG91dGZpbGUubWFlPic=

> <r_lp_tautomer_probability>
1

> <r_epik_Ionization_Penalty>
0.129663

> <r_epik_Ionization_Penalty_Charging>
0

> <r_epik_Ionization_Penalty_Neutral>
0.129663

> <r_epik_State_Penalty>
0.119073

> <r_epik_Charging_Adjusted_Penalty>
0.119073

> <i_epik_Tot_Q>
0

> <i_epik_Tot_abs_Q>
0

> <r_epik_Metal_State_Penalty>
0.000131867

> <b_epik_Metal_Only>
0

> <s_lp_Force_Field>
OPLS_2005

> <r_lp_Energy>
11.3105

> <b_lp_Chiralities_Consistent>
1

> <s_lp_Variant>
AV-unprocessed.smi:1872-2

> <Gold.Version>
5.8.1

> <Gold.Id.Protein>
6NUR|6NUR_protein|mol2

> <Gold.PLP.Fitness>
45.5352

> <Gold.PLP.PLP>
-38.0924

> <Gold.PLP.part.hbond>
-3.0000

> <Gold.PLP.part.metal>
0.0000

> <Gold.PLP.part.buried>
-5.5853

> <Gold.PLP.part.nonpolar>
-31.4124

> <Gold.PLP.part.repulsive>
0.4559

> <Gold.PLP.ligand.clash>
0.0000

> <Gold.PLP.ligand.torsion>
0.2253

> <Gold.PLP.Chemscore.Hbond>
2.6155

> <Gold.PLP.Chemscore.CHOScore>
0.0000

> <Gold.PLP.Chemscore.Metal>
0.0000

> <Gold.Chemscore.Hbonds>
donor molecule, donor type, donor heavy atom, donor atom, acceptor molecule, acceptor atom, score
      L1  H    13    34       P1  7948  1.00
      P1  H  6931  6943       L1    18  0.79
      P1  H  6934  6947       L1    18  0.81

> <Gold.PLP.Chemscore.Internal.Correction>
0.0470

> <Gold.Rescore>
     Score         DG    S(hbond)    S(metal)    S(lipo)     H(rot)  DE(clash)    DE(int)     intcor
     14.58     -14.90       1.73        0.00      80.43       2.25       0.03       0.29       ----

> <Gold.Chemscore.Fitness>
14.5790

> <Gold.Chemscore.DG>
-14.9022

> <Gold.Chemscore.ZeroCoef>
-5.4800

> <Gold.Chemscore.Hbond>
1.7310

> <Gold.Chemscore.Metal>
0.0000

> <Gold.Chemscore.Lipo>
80.4298

> <Gold.Chemscore.Internal_Hbond>
0.0000

> <Gold.Chemscore.DEClash>
0.0295

> <Gold.Chemscore.DEInternal>
0.2937

> <Gold.Chemscore.Rot>
2.2538

> <Gold.Chemscore.Internal.Correction>
   9.000000E+99

> <Gold.Chemscore.Hbonds>
donor molecule, donor type, donor heavy atom, donor atom, acceptor molecule, acceptor atom, score
      L1  H    13    34       P1  7948  0.73
      P1  H  6931  6943       L1    18  0.19
      P1  H  6934  6947       L1    18  0.18

> <Gold.Chemscore.Hbond.Weighted>
-5.7816

> <Gold.Chemscore.Metal.Weighted>
-0.0000

> <Gold.Chemscore.Lipo.Weighted>
-9.4103

> <Gold.Chemscore.Internal_Hbond.Weighted>
0.0000

> <Gold.Chemscore.DEClash.Weighted>
0.0295

> <Gold.Chemscore.DEInternal.Weighted>
0.2937

> <Gold.Chemscore.Rot.Weighted>
5.7697

> <Gold.Chemscore.Internal.Correction.Weighted>
   9.000000E+99

> <Gold.Protein.RotatedTorsions>
[ 6907 6896 6895 6894 ] final -110.97 input  -60.11 | X-H torsion
[ 7974 7965 7964 7962 ] final   70.18 input  175.53 | X-H torsion
[ 8008 7997 7996 7995 ] final  -75.90 input   59.86 | X-H torsion
[ 10167 10162 10161 10158 ] final   76.03 input  -65.29 | X-H torsion
[ 10718 10713 10712 10709 ] final  -66.94 input   66.30 | X-H torsion
[ 10763 10752 10751 10750 ] final  -84.53 input  -60.55 | X-H torsion
[ 11005 11000 10999 10996 ] final  150.77 input  -57.11 | X-H torsion

> <Gold.Protein.ActiveResidues>
 VAL166  LYS551  ARG553  GLY616  TRP617  ASP618  TYR619  PRO620  LYS621  CYS622 
 ASP623  PHE694  ASN695  SER759  ASP760  ASP761  ALA762  ILE779  LEU786  VAL792 
 PHE793  MET794  SER795  GLU796  ALA797  LYS798  CYS799  TRP800  GLU811  SER814 

> <Gold.Protein.RotatedAtoms>
  150.7659  133.9304  159.3424 H   0  0  0  0  0  0  0  0  0  0  0  0  # atno 6907 bound_to 6896
  151.7201  135.0894  160.0292 H   0  0  0  0  0  0  0  0  0  0  0  0  # atno 6908 bound_to 6896
  152.3655  133.6313  159.6083 H   0  0  0  0  0  0  0  0  0  0  0  0  # atno 6909 bound_to 6896
  145.7813  139.2889  143.1264 H   0  0  0  0  0  0  0  0  0  0  0  0  # atno 7974 bound_to 7965
  154.5457  140.0736  156.8585 H   0  0  0  0  0  0  0  0  0  0  0  0  # atno 8008 bound_to 7997
  155.3092  140.3389  155.4226 H   0  0  0  0  0  0  0  0  0  0  0  0  # atno 8009 bound_to 7997
  156.1916  140.1688  156.8067 H   0  0  0  0  0  0  0  0  0  0  0  0  # atno 8010 bound_to 7997
  139.9966  144.5718  150.7773 H   0  0  0  0  0  0  0  0  0  0  0  0  # atno 10167 bound_to 10162
  156.0585  130.4270  150.1781 H   0  0  0  0  0  0  0  0  0  0  0  0  # atno 10718 bound_to 10713
  154.6006  135.5517  153.7371 H   0  0  0  0  0  0  0  0  0  0  0  0  # atno 10763 bound_to 10752
  153.0153  135.6365  154.1719 H   0  0  0  0  0  0  0  0  0  0  0  0  # atno 10764 bound_to 10752
  154.1659  135.2894  155.3075 H   0  0  0  0  0  0  0  0  0  0  0  0  # atno 10765 bound_to 10752
  140.1160  134.8894  157.2005 H   0  0  0  0  0  0  0  0  0  0  0  0  # atno 11005 bound_to 11000
  146.0071  140.8469  142.9989 LP  0  0  0  0  0  0  0  0  0  0  0  0  # atno 17320 bound_to 7965
  144.6796  140.2436  143.7340 LP  0  0  0  0  0  0  0  0  0  0  0  0  # atno 17321 bound_to 7965
  140.7435  143.2847  151.3498 LP  0  0  0  0  0  0  0  0  0  0  0  0  # atno 17342 bound_to 10162
  139.6302  144.0736  152.2469 LP  0  0  0  0  0  0  0  0  0  0  0  0  # atno 17343 bound_to 10162
  156.9854  130.9877  151.3427 LP  0  0  0  0  0  0  0  0  0  0  0  0  # atno 17370 bound_to 10713
  157.5574  130.8223  149.8222 LP  0  0  0  0  0  0  0  0  0  0  0  0  # atno 17371 bound_to 10713
  140.3027  134.3113  155.7286 LP  0  0  0  0  0  0  0  0  0  0  0  0  # atno 17394 bound_to 11000
  141.2141  133.7602  156.9664 LP  0  0  0  0  0  0  0  0  0  0  0  0  # atno 17395 bound_to 11000

$$$$
