AV-unprocessed.smi:249|AV-procd|sdf|1923|dock8
  -GOLD-   2262021 33D 1   1.00000     0.00000
 Structure written by MMmdl.
 64 67  0  0  0  0  0  0  0  0  2 V2000
  153.3002  143.2630  163.9766 C   0  0  0  0  0  0  0  0  0  0  0  0
  152.3350  143.5108  162.8055 C   0  0  0  0  0  0  0  0  0  0  0  0
  152.9381  143.2519  161.4654 N   0  3  1  0  0  0  0  0  0  0  0  0
  153.4523  141.8564  161.3473 C   0  0  0  0  0  0  0  0  0  0  0  0
  154.1489  141.6050  160.0004 C   0  0  0  0  0  0  0  0  0  0  0  0
  153.2050  141.8773  158.8172 C   0  0  1  0  0  0  0  0  0  0  0  0
  152.1030  140.9039  158.7412 N   0  0  0  0  0  0  0  0  0  0  0  0
  152.2534  139.6635  159.4955 C   0  0  0  0  0  0  0  0  0  0  0  0
  151.6490  140.6438  157.4948 C   0  0  0  0  0  0  0  0  0  0  0  0
  152.4113  139.8444  156.7088 N   0  0  0  0  0  0  0  0  0  0  0  0
  152.0044  139.5430  155.4716 C   0  0  0  0  0  0  0  0  0  0  0  0
  150.8934  139.9298  154.8400 N   0  0  0  0  0  0  0  0  0  0  0  0
  150.1305  140.7407  155.6284 C   0  0  0  0  0  0  0  0  0  0  0  0
  150.4311  141.1472  156.9580 C   0  0  0  0  0  0  0  0  0  0  0  0
  149.4241  141.9727  157.4431 N   0  0  0  0  0  0  0  0  0  0  0  0
  148.5739  142.0488  156.4554 C   0  0  0  0  0  0  0  0  0  0  0  0
  148.9219  141.3415  155.3265 N   0  0  0  0  0  0  0  0  0  0  0  0
  148.1666  141.2493  154.0899 C   0  0  0  0  0  0  0  0  0  0  0  0
  147.1041  140.1196  154.1193 C   0  0  2  0  0  0  0  0  0  0  0  0
  146.7969  139.6083  155.5462 C   0  0  0  0  0  0  0  0  0  0  0  0
  145.4412  139.2395  155.6964 O   0  0  0  0  0  0  0  0  0  0  0  0
  147.3689  138.9622  153.1190 C   0  0  1  0  0  0  0  0  0  0  0  0
  146.5070  137.7143  153.3225 C   0  0  0  0  0  0  0  0  0  0  0  0
  145.9977  137.3735  151.9213 C   0  0  0  0  0  0  0  0  0  0  0  0
  146.9156  138.0160  151.0524 O   0  0  0  0  0  0  0  0  0  0  0  0
  147.1964  139.2809  151.6272 C   0  0  0  0  0  0  0  0  0  0  0  0
  152.7320  143.3395  158.9660 C   0  0  0  0  0  0  0  0  0  0  0  0
  152.0371  143.6104  160.3212 C   0  0  2  0  0  0  0  0  0  0  0  0
  151.5737  145.0813  160.3495 C   0  0  0  0  0  0  0  0  0  0  0  0
  152.8664  143.6256  164.9090 H   0  0  0  0  0  0  0  0  0  0  0  0
  154.2456  143.7859  163.8293 H   0  0  0  0  0  0  0  0  0  0  0  0
  153.5126  142.2045  164.1223 H   0  0  0  0  0  0  0  0  0  0  0  0
  151.4302  142.9137  162.9274 H   0  0  0  0  0  0  0  0  0  0  0  0
  152.0335  144.5528  162.8862 H   0  0  0  0  0  0  0  0  0  0  0  0
  154.1784  141.6491  162.1315 H   0  0  0  0  0  0  0  0  0  0  0  0
  152.6311  141.1516  161.4860 H   0  0  0  0  0  0  0  0  0  0  0  0
  155.0195  142.2582  159.9238 H   0  0  0  0  0  0  0  0  0  0  0  0
  154.5459  140.5906  159.9641 H   0  0  0  0  0  0  0  0  0  0  0  0
  153.7838  141.7914  157.8970 H   0  0  0  0  0  0  0  0  0  0  0  0
  151.5441  138.8989  159.1734 H   0  0  0  0  0  0  0  0  0  0  0  0
  152.0740  139.8436  160.5554 H   0  0  0  0  0  0  0  0  0  0  0  0
  153.2606  139.2613  159.3816 H   0  0  0  0  0  0  0  0  0  0  0  0
  152.6628  138.8995  154.9067 H   0  0  0  0  0  0  0  0  0  0  0  0
  147.6659  142.6309  156.5208 H   0  0  0  0  0  0  0  0  0  0  0  0
  147.7044  142.2198  153.9118 H   0  0  0  0  0  0  0  0  0  0  0  0
  148.8755  141.0958  153.2770 H   0  0  0  0  0  0  0  0  0  0  0  0
  146.1718  140.5733  153.7797 H   0  0  0  0  0  0  0  0  0  0  0  0
  147.4172  138.7452  155.7887 H   0  0  0  0  0  0  0  0  0  0  0  0
  147.0365  140.3732  156.2854 H   0  0  0  0  0  0  0  0  0  0  0  0
  145.2990  138.4248  155.2389 H   0  0  0  0  0  0  0  0  0  0  0  0
  148.4022  138.6388  153.2536 H   0  0  0  0  0  0  0  0  0  0  0  0
  147.1204  136.9011  153.7128 H   0  0  0  0  0  0  0  0  0  0  0  0
  145.6811  137.8552  154.0193 H   0  0  0  0  0  0  0  0  0  0  0  0
  145.9525  136.2998  151.7380 H   0  0  0  0  0  0  0  0  0  0  0  0
  145.0014  137.7892  151.7626 H   0  0  0  0  0  0  0  0  0  0  0  0
  146.3547  139.9459  151.4352 H   0  0  0  0  0  0  0  0  0  0  0  0
  148.0889  139.7260  151.1870 H   0  0  0  0  0  0  0  0  0  0  0  0
  153.5971  143.9982  158.8749 H   0  0  0  0  0  0  0  0  0  0  0  0
  152.0770  143.6200  158.1404 H   0  0  0  0  0  0  0  0  0  0  0  0
  151.1480  142.9815  160.3873 H   0  0  0  0  0  0  0  0  0  0  0  0
  151.0427  145.3380  159.4321 H   0  0  0  0  0  0  0  0  0  0  0  0
  152.4186  145.7646  160.4413 H   0  0  0  0  0  0  0  0  0  0  0  0
  150.8775  145.2840  161.1624 H   0  0  0  0  0  0  0  0  0  0  0  0
  153.7408  143.8606  161.3915 H   0  0  0  0  0  0  0  0  0  0  0  0
  1  2  1  0  0  0  0
  1 30  1  0  0  0  0
  1 31  1  0  0  0  0
  1 32  1  0  0  0  0
  2  3  1  0  0  0  0
  2 33  1  0  0  0  0
  2 34  1  0  0  0  0
  3 28  1  0  0  0  0
  3  4  1  0  0  0  0
  3 64  1  0  0  0  0
  4  5  1  0  0  0  0
  4 35  1  0  0  0  0
  4 36  1  0  0  0  0
  5  6  1  0  0  0  0
  5 37  1  0  0  0  0
  5 38  1  0  0  0  0
  6  7  1  0  0  0  0
  6 27  1  0  0  0  0
  6 39  1  0  0  0  0
  7  8  1  0  0  0  0
  7  9  1  0  0  0  0
  8 40  1  0  0  0  0
  8 41  1  0  0  0  0
  8 42  1  0  0  0  0
  9 14  1  0  0  0  0
  9 10  2  0  0  0  0
 10 11  1  0  0  0  0
 11 12  2  0  0  0  0
 11 43  1  0  0  0  0
 12 13  1  0  0  0  0
 13 17  1  0  0  0  0
 13 14  2  0  0  0  0
 14 15  1  0  0  0  0
 15 16  2  0  0  0  0
 16 17  1  0  0  0  0
 16 44  1  0  0  0  0
 17 18  1  0  0  0  0
 18 19  1  0  0  0  0
 18 45  1  0  0  0  0
 18 46  1  0  0  0  0
 19 20  1  0  0  0  0
 19 22  1  0  0  0  0
 19 47  1  0  0  0  0
 20 21  1  0  0  0  0
 20 48  1  0  0  0  0
 20 49  1  0  0  0  0
 21 50  1  0  0  0  0
 22 26  1  0  0  0  0
 22 23  1  0  0  0  0
 22 51  1  0  0  0  0
 23 24  1  0  0  0  0
 23 52  1  0  0  0  0
 23 53  1  0  0  0  0
 24 25  1  0  0  0  0
 24 54  1  0  0  0  0
 24 55  1  0  0  0  0
 25 26  1  0  0  0  0
 26 56  1  0  0  0  0
 26 57  1  0  0  0  0
 27 28  1  0  0  0  0
 27 58  1  0  0  0  0
 27 59  1  0  0  0  0
 28 29  1  0  0  0  0
 28 60  1  0  0  0  0
 29 61  1  0  0  0  0
 29 62  1  0  0  0  0
 29 63  1  0  0  0  0
M  CHG  1   3   1
M  END
> <s_m_source_file>
AV-unprocessed.smi

> <i_m_source_file_index>
249

> <i_lp_mmshare_version>
43012

> <i_f3d_flags>
0

> <s_epik_input>
W0NIM11bQ0gyXU4xW0NIMl1bQ0gyXVtDQEhdKFtDSDJdW0NASF0xW0NIM10pTihbQ0gzXSljKG5bY0hdbjIpYyhjMjMpbltjSF1uM1tDSDJdW0NASF0oW0NIMl1bT0hdKVtDQEBIXTRbQ0gyXVtDSDJdT1tDSDJdNA==

> <s_epik_cmdline>
J2VwaWtfcHl0aG9uJywgJy1waCcsICc3LjAnLCAnLXRuJywgJzgnLCAnLW1hJywgJzIwMCcsICctbWV0YWxfYmluZGluZycsICctaW1hZScsICc8aW5maWxlLm1hZT4nLCAnLW9tYWUnLCAnPG91dGZpbGUubWFlPic=

> <r_lp_tautomer_probability>
1

> <r_epik_Ionization_Penalty>
0.00294688

> <r_epik_Ionization_Penalty_Charging>
0.00169971

> <r_epik_Ionization_Penalty_Neutral>
0.00124717

> <r_epik_State_Penalty>
-0

> <r_epik_Charging_Adjusted_Penalty>
0.00169971

> <i_epik_Tot_Q>
1

> <i_epik_Tot_abs_Q>
1

> <r_epik_Metal_State_Penalty>
-0

> <b_epik_Metal_Only>
0

> <s_lp_Force_Field>
OPLS_2005

> <r_lp_Energy>
58.1803

> <b_lp_Chiralities_Consistent>
1

> <s_lp_Variant>
AV-unprocessed.smi:249-26

> <Gold.Version>
5.8.1

> <Gold.Id.Protein>
6NUR|6NUR_protein|mol2

> <Gold.PLP.Fitness>
54.0629

> <Gold.PLP.PLP>
-49.7395

> <Gold.PLP.part.hbond>
-3.0000

> <Gold.PLP.part.metal>
0.0000

> <Gold.PLP.part.buried>
4.7451

> <Gold.PLP.part.nonpolar>
-51.5495

> <Gold.PLP.part.repulsive>
1.4321

> <Gold.PLP.ligand.clash>
0.0000

> <Gold.PLP.ligand.torsion>
2.8769

> <Gold.PLP.Chemscore.Hbond>
2.9000

> <Gold.PLP.Chemscore.CHOScore>
0.2586

> <Gold.PLP.Chemscore.Metal>
0.0000

> <Gold.Chemscore.Hbonds>
donor molecule, donor type, donor heavy atom, donor atom, acceptor molecule, acceptor atom, score
      P1  H  7954  7966       L1    25  1.00
      P1  H  7989  7998       L1    12  0.95
      P1  H  7997  8009       L1    10  1.00
      L1  C    16    44       P1  8028  0.23

> <Gold.PLP.Chemscore.Internal.Correction>
0.6013

> <Gold.Rescore>
     Score         DG    S(hbond)    S(metal)    S(lipo)     H(rot)  DE(clash)    DE(int)     intcor
     11.25     -20.58       1.59        0.00     147.09       2.90       6.60       2.73       ----

> <Gold.Chemscore.Fitness>
11.2465

> <Gold.Chemscore.DG>
-20.5812

> <Gold.Chemscore.ZeroCoef>
-5.4800

> <Gold.Chemscore.Hbond>
1.5921

> <Gold.Chemscore.Metal>
0.0000

> <Gold.Chemscore.Lipo>
147.0890

> <Gold.Chemscore.Internal_Hbond>
0.0000

> <Gold.Chemscore.DEClash>
6.6017

> <Gold.Chemscore.DEInternal>
2.7330

> <Gold.Chemscore.Rot>
2.9006

> <Gold.Chemscore.Internal.Correction>
   9.000000E+99

> <Gold.Chemscore.Hbonds>
donor molecule, donor type, donor heavy atom, donor atom, acceptor molecule, acceptor atom, score
      P1  H  7954  7966       L1    25  0.35
      P1  H  7989  7998       L1    12  0.17
      P1  H  7997  8009       L1    10  0.34

> <Gold.Chemscore.Hbond.Weighted>
-5.3175

> <Gold.Chemscore.Metal.Weighted>
-0.0000

> <Gold.Chemscore.Lipo.Weighted>
-17.2094

> <Gold.Chemscore.Internal_Hbond.Weighted>
0.0000

> <Gold.Chemscore.DEClash.Weighted>
6.6017

> <Gold.Chemscore.DEInternal.Weighted>
2.7330

> <Gold.Chemscore.Rot.Weighted>
7.4256

> <Gold.Chemscore.Internal.Correction.Weighted>
   9.000000E+99

> <Gold.Protein.RotatedTorsions>
[ 6907 6896 6895 6894 ] final  -87.19 input  -60.11 | X-H torsion
[ 7974 7965 7964 7962 ] final  103.28 input  175.53 | X-H torsion
[ 8008 7997 7996 7995 ] final -168.00 input   59.86 | X-H torsion
[ 10167 10162 10161 10158 ] final  106.76 input  -65.29 | X-H torsion
[ 10718 10713 10712 10709 ] final  147.95 input   66.30 | X-H torsion
[ 10763 10752 10751 10750 ] final -177.75 input  -60.55 | X-H torsion
[ 11005 11000 10999 10996 ] final   96.74 input  -57.11 | X-H torsion

> <Gold.Protein.ActiveResidues>
 VAL166  LYS551  ARG553  GLY616  TRP617  ASP618  TYR619  PRO620  LYS621  CYS622 
 ASP623  PHE694  ASN695  SER759  ASP760  ASP761  ALA762  ILE779  LEU786  VAL792 
 PHE793  MET794  SER795  GLU796  ALA797  LYS798  CYS799  TRP800  GLU811  SER814 

> <Gold.Protein.RotatedAtoms>
  150.6866  134.2935  159.4676 H   0  0  0  0  0  0  0  0  0  0  0  0  # atno 6907 bound_to 6896
  152.0838  134.9451  160.0582 H   0  0  0  0  0  0  0  0  0  0  0  0  # atno 6908 bound_to 6896
  152.0793  133.4110  159.4531 H   0  0  0  0  0  0  0  0  0  0  0  0  # atno 6909 bound_to 6896
  145.3480  139.2446  143.3573 H   0  0  0  0  0  0  0  0  0  0  0  0  # atno 7974 bound_to 7965
  155.8855  140.1016  157.1456 H   0  0  0  0  0  0  0  0  0  0  0  0  # atno 8008 bound_to 7997
  154.4009  140.1321  156.4313 H   0  0  0  0  0  0  0  0  0  0  0  0  # atno 8009 bound_to 7997
  155.7594  140.3463  155.5193 H   0  0  0  0  0  0  0  0  0  0  0  0  # atno 8010 bound_to 7997
  139.6982  144.7098  151.1230 H   0  0  0  0  0  0  0  0  0  0  0  0  # atno 10167 bound_to 10162
  157.3146  131.0894  151.1289 H   0  0  0  0  0  0  0  0  0  0  0  0  # atno 10718 bound_to 10713
  154.5563  135.2816  155.0962 H   0  0  0  0  0  0  0  0  0  0  0  0  # atno 10763 bound_to 10752
  154.2388  135.6361  153.5204 H   0  0  0  0  0  0  0  0  0  0  0  0  # atno 10764 bound_to 10752
  153.0016  135.5555  154.6143 H   0  0  0  0  0  0  0  0  0  0  0  0  # atno 10765 bound_to 10752
  139.8780  134.8966  156.4203 H   0  0  0  0  0  0  0  0  0  0  0  0  # atno 11005 bound_to 11000
  146.2980  140.4091  142.8714 LP  0  0  0  0  0  0  0  0  0  0  0  0  # atno 17320 bound_to 7965
  144.8739  140.7310  143.6029 LP  0  0  0  0  0  0  0  0  0  0  0  0  # atno 17321 bound_to 7965
  140.7702  143.5461  150.9257 LP  0  0  0  0  0  0  0  0  0  0  0  0  # atno 17342 bound_to 10162
  139.9141  143.6684  152.3109 LP  0  0  0  0  0  0  0  0  0  0  0  0  # atno 17343 bound_to 10162
  157.2597  130.6653  149.5969 LP  0  0  0  0  0  0  0  0  0  0  0  0  # atno 17370 bound_to 10713
  155.9680  130.4512  150.5728 LP  0  0  0  0  0  0  0  0  0  0  0  0  # atno 17371 bound_to 10713
  140.9138  133.7693  155.9823 LP  0  0  0  0  0  0  0  0  0  0  0  0  # atno 17394 bound_to 11000
  140.8516  134.2947  157.5273 LP  0  0  0  0  0  0  0  0  0  0  0  0  # atno 17395 bound_to 11000

$$$$
