AV-unprocessed.smi:299|AV-procd|sdf|2267|dock6
  -GOLD-   2262022153D 1   1.00000     0.00000
 Structure written by MMmdl.
 42 43  0  0  0  0  0  0  0  0  2 V2000
  152.6721  144.5566  158.4519 C   0  0  0  0  0  0  0  0  0  0  0  0
  151.5625  143.9445  159.3347 C   0  0  2  0  0  0  0  0  0  0  0  0
  151.5171  144.5771  160.7418 C   0  0  0  0  0  0  0  0  0  0  0  0
  152.6908  144.1184  161.6197 C   0  0  0  0  0  0  0  0  0  0  0  0
  152.7416  142.5867  161.6695 C   0  0  0  0  0  0  0  0  0  0  0  0
  152.7870  141.9850  160.2555 C   0  0  0  0  0  0  0  0  0  0  0  0
  151.6369  142.4554  159.4352 N   0  3  2  0  0  0  0  0  0  0  0  0
  151.5136  141.7624  158.1261 C   0  0  0  0  0  0  0  0  0  0  0  0
  150.2493  142.1817  157.3570 C   0  0  0  0  0  0  0  0  0  0  0  0
  150.2329  141.6327  155.9204 C   0  0  0  0  0  0  0  0  0  0  0  0
  149.1333  142.1913  155.1432 N   0  0  0  0  0  0  0  0  0  0  0  0
  147.9839  141.5571  154.8624 C   0  0  0  0  0  0  0  0  0  0  0  0
  147.7269  140.4173  155.2489 O   0  0  0  0  0  0  0  0  0  0  0  0
  146.9709  142.3231  154.0106 C   0  0  0  0  0  0  0  0  0  0  0  0
  145.9687  142.9614  154.8432 N   0  0  0  0  0  0  0  0  0  0  0  0
  144.8713  143.6498  154.5227 C   0  0  0  0  0  0  0  0  0  0  0  0
  144.2348  144.0837  155.6000 N   0  0  0  0  0  0  0  0  0  0  0  0
  145.0178  143.6115  156.6401 N   0  0  0  0  0  0  0  0  0  0  0  0
  146.0485  142.9452  156.1974 N   0  0  0  0  0  0  0  0  0  0  0  0
  152.5607  145.6397  158.3919 H   0  0  0  0  0  0  0  0  0  0  0  0
  152.6319  144.1783  157.4307 H   0  0  0  0  0  0  0  0  0  0  0  0
  153.6704  144.3565  158.8397 H   0  0  0  0  0  0  0  0  0  0  0  0
  150.6114  144.1834  158.8565 H   0  0  0  0  0  0  0  0  0  0  0  0
  151.5072  145.6651  160.6684 H   0  0  0  0  0  0  0  0  0  0  0  0
  150.5810  144.2997  161.2288 H   0  0  0  0  0  0  0  0  0  0  0  0
  153.6303  144.5092  161.2277 H   0  0  0  0  0  0  0  0  0  0  0  0
  152.5852  144.5227  162.6271 H   0  0  0  0  0  0  0  0  0  0  0  0
  153.6110  142.2609  162.2414 H   0  0  0  0  0  0  0  0  0  0  0  0
  151.8649  142.2093  162.1981 H   0  0  0  0  0  0  0  0  0  0  0  0
  153.7277  142.2374  159.7652 H   0  0  0  0  0  0  0  0  0  0  0  0
  152.7689  140.8995  160.3426 H   0  0  0  0  0  0  0  0  0  0  0  0
  152.3784  142.0108  157.5093 H   0  0  0  0  0  0  0  0  0  0  0  0
  151.5353  140.6813  158.2708 H   0  0  0  0  0  0  0  0  0  0  0  0
  149.3558  141.8357  157.8758 H   0  0  0  0  0  0  0  0  0  0  0  0
  150.1903  143.2708  157.3331 H   0  0  0  0  0  0  0  0  0  0  0  0
  151.1817  141.8331  155.4197 H   0  0  0  0  0  0  0  0  0  0  0  0
  150.1137  140.5490  155.9386 H   0  0  0  0  0  0  0  0  0  0  0  0
  149.2573  143.1274  154.7838 H   0  0  0  0  0  0  0  0  0  0  0  0
  147.4778  143.0901  153.4236 H   0  0  0  0  0  0  0  0  0  0  0  0
  146.4836  141.6468  153.3064 H   0  0  0  0  0  0  0  0  0  0  0  0
  144.5455  143.8362  153.5101 H   0  0  0  0  0  0  0  0  0  0  0  0
  150.8095  142.1931  159.9520 H   0  0  0  0  0  0  0  0  0  0  0  0
  1  2  1  0  0  0  0
  1 20  1  0  0  0  0
  1 21  1  0  0  0  0
  1 22  1  0  0  0  0
  2  7  1  0  0  0  0
  2  3  1  0  0  0  0
  2 23  1  0  0  0  0
  3  4  1  0  0  0  0
  3 24  1  0  0  0  0
  3 25  1  0  0  0  0
  4  5  1  0  0  0  0
  4 26  1  0  0  0  0
  4 27  1  0  0  0  0
  5  6  1  0  0  0  0
  5 28  1  0  0  0  0
  5 29  1  0  0  0  0
  6  7  1  0  0  0  0
  6 30  1  0  0  0  0
  6 31  1  0  0  0  0
  7  8  1  0  0  0  0
  7 42  1  0  0  0  0
  8  9  1  0  0  0  0
  8 32  1  0  0  0  0
  8 33  1  0  0  0  0
  9 10  1  0  0  0  0
  9 34  1  0  0  0  0
  9 35  1  0  0  0  0
 10 11  1  0  0  0  0
 10 36  1  0  0  0  0
 10 37  1  0  0  0  0
 11 12  1  0  0  0  0
 11 38  1  0  0  0  0
 12 13  2  0  0  0  0
 12 14  1  0  0  0  0
 14 15  1  0  0  0  0
 14 39  1  0  0  0  0
 14 40  1  0  0  0  0
 15 19  1  0  0  0  0
 15 16  1  0  0  0  0
 16 17  2  0  0  0  0
 16 41  1  0  0  0  0
 17 18  1  0  0  0  0
 18 19  2  0  0  0  0
M  CHG  1   7   1
M  END
> <s_m_source_file>
AV-unprocessed.smi

> <i_m_source_file_index>
299

> <i_lp_mmshare_version>
43012

> <i_f3d_flags>
0

> <s_epik_input>
W0NIM11bQ0BASF0xW0NIMl1bQ0gyXVtDSDJdW0NIMl1OMVtDSDJdW0NIMl1bQ0gyXVtOSF1DKD1PKVtDSDJdbjJbY0hdbm5uMg==

> <s_epik_cmdline>
J2VwaWtfcHl0aG9uJywgJy1waCcsICc3LjAnLCAnLXRuJywgJzgnLCAnLW1hJywgJzIwMCcsICctbWV0YWxfYmluZGluZycsICctaW1hZScsICc8aW5maWxlLm1hZT4nLCAnLW9tYWUnLCAnPG91dGZpbGUubWFlPic=

> <r_lp_tautomer_probability>
1

> <r_epik_Ionization_Penalty>
0.000544863

> <r_epik_Ionization_Penalty_Charging>
0.000543475

> <r_epik_Ionization_Penalty_Neutral>
1.38784e-06

> <r_epik_State_Penalty>
0.000340025

> <r_epik_Charging_Adjusted_Penalty>
0.0008835

> <i_epik_Tot_Q>
1

> <i_epik_Tot_abs_Q>
1

> <r_epik_Metal_State_Penalty>
-0

> <b_epik_Metal_Only>
0

> <s_lp_Force_Field>
OPLS_2005

> <r_lp_Energy>
22.352

> <b_lp_Chiralities_Consistent>
1

> <s_lp_Variant>
AV-unprocessed.smi:299-3

> <Gold.Version>
5.8.1

> <Gold.Id.Protein>
6NUR|6NUR_protein|mol2

> <Gold.PLP.Fitness>
45.7844

> <Gold.PLP.PLP>
-41.8655

> <Gold.PLP.part.hbond>
-1.0000

> <Gold.PLP.part.metal>
0.0000

> <Gold.PLP.part.buried>
-7.4649

> <Gold.PLP.part.nonpolar>
-35.5382

> <Gold.PLP.part.repulsive>
0.6767

> <Gold.PLP.ligand.clash>
0.0000

> <Gold.PLP.ligand.torsion>
0.5245

> <Gold.PLP.Chemscore.Hbond>
0.7040

> <Gold.PLP.Chemscore.CHOScore>
0.9182

> <Gold.PLP.Chemscore.Metal>
0.0000

> <Gold.Chemscore.Hbonds>
donor molecule, donor type, donor heavy atom, donor atom, acceptor molecule, acceptor atom, score
      L1  H    11    38       P1  8028  0.56
      L1  C    16    41       P1 10174  0.60

> <Gold.PLP.Chemscore.Internal.Correction>
0.1012

> <Gold.Rescore>
     Score         DG    S(hbond)    S(metal)    S(lipo)     H(rot)  DE(clash)    DE(int)     intcor
     12.04     -12.54       0.94        0.00      98.45       2.97       0.01       0.49       ----

> <Gold.Chemscore.Fitness>
12.0410

> <Gold.Chemscore.DG>
-12.5401

> <Gold.Chemscore.ZeroCoef>
-5.4800

> <Gold.Chemscore.Hbond>
0.9399

> <Gold.Chemscore.Metal>
0.0000

> <Gold.Chemscore.Lipo>
98.4512

> <Gold.Chemscore.Internal_Hbond>
0.0000

> <Gold.Chemscore.DEClash>
0.0053

> <Gold.Chemscore.DEInternal>
0.4938

> <Gold.Chemscore.Rot>
2.9680

> <Gold.Chemscore.Internal.Correction>
   9.000000E+99

> <Gold.Chemscore.Hbonds>
donor molecule, donor type, donor heavy atom, donor atom, acceptor molecule, acceptor atom, score
      L1  H    11    38       P1  8028  0.56

> <Gold.Chemscore.Hbond.Weighted>
-3.1393

> <Gold.Chemscore.Metal.Weighted>
-0.0000

> <Gold.Chemscore.Lipo.Weighted>
-11.5188

> <Gold.Chemscore.Internal_Hbond.Weighted>
0.0000

> <Gold.Chemscore.DEClash.Weighted>
0.0053

> <Gold.Chemscore.DEInternal.Weighted>
0.4938

> <Gold.Chemscore.Rot.Weighted>
7.5980

> <Gold.Chemscore.Internal.Correction.Weighted>
   9.000000E+99

> <Gold.Protein.RotatedTorsions>
[ 6907 6896 6895 6894 ] final  153.87 input  -60.11 | X-H torsion
[ 7974 7965 7964 7962 ] final -132.88 input  175.53 | X-H torsion
[ 8008 7997 7996 7995 ] final  105.78 input   59.86 | X-H torsion
[ 10167 10162 10161 10158 ] final  125.36 input  -65.29 | X-H torsion
[ 10718 10713 10712 10709 ] final -125.43 input   66.30 | X-H torsion
[ 10763 10752 10751 10750 ] final -176.74 input  -60.55 | X-H torsion
[ 11005 11000 10999 10996 ] final   30.44 input  -57.11 | X-H torsion

> <Gold.Protein.ActiveResidues>
 VAL166  LYS551  ARG553  GLY616  TRP617  ASP618  TYR619  PRO620  LYS621  CYS622 
 ASP623  PHE694  ASN695  SER759  ASP760  ASP761  ALA762  ILE779  LEU786  VAL792 
 PHE793  MET794  SER795  GLU796  ALA797  LYS798  CYS799  TRP800  GLU811  SER814 

> <Gold.Protein.RotatedAtoms>
  152.0666  133.4086  159.4440 H   0  0  0  0  0  0  0  0  0  0  0  0  # atno 6907 bound_to 6896
  150.6864  134.3140  159.4767 H   0  0  0  0  0  0  0  0  0  0  0  0  # atno 6908 bound_to 6896
  152.0967  134.9369  160.0621 H   0  0  0  0  0  0  0  0  0  0  0  0  # atno 6909 bound_to 6896
  144.9245  140.7054  143.4945 H   0  0  0  0  0  0  0  0  0  0  0  0  # atno 7974 bound_to 7965
  156.1688  140.3124  155.8936 H   0  0  0  0  0  0  0  0  0  0  0  0  # atno 8008 bound_to 7997
  155.3630  140.0477  157.3063 H   0  0  0  0  0  0  0  0  0  0  0  0  # atno 8009 bound_to 7997
  154.5220  140.2201  155.8970 H   0  0  0  0  0  0  0  0  0  0  0  0  # atno 8010 bound_to 7997
  139.5690  144.6928  151.3832 H   0  0  0  0  0  0  0  0  0  0  0  0  # atno 10167 bound_to 10162
  156.1675  130.6644  151.0134 H   0  0  0  0  0  0  0  0  0  0  0  0  # atno 10718 bound_to 10713
  154.5686  135.2826  155.0849 H   0  0  0  0  0  0  0  0  0  0  0  0  # atno 10763 bound_to 10752
  154.2230  135.6388  153.5154 H   0  0  0  0  0  0  0  0  0  0  0  0  # atno 10764 bound_to 10752
  153.0051  135.5519  154.6303 H   0  0  0  0  0  0  0  0  0  0  0  0  # atno 10765 bound_to 10752
  140.2943  134.2828  155.7768 H   0  0  0  0  0  0  0  0  0  0  0  0  # atno 11005 bound_to 11000
  145.3242  139.1779  143.4571 LP  0  0  0  0  0  0  0  0  0  0  0  0  # atno 17320 bound_to 7965
  146.3220  140.3264  142.8637 LP  0  0  0  0  0  0  0  0  0  0  0  0  # atno 17321 bound_to 7965
  140.6974  143.7716  150.7348 LP  0  0  0  0  0  0  0  0  0  0  0  0  # atno 17342 bound_to 10162
  140.1216  143.4606  152.2309 LP  0  0  0  0  0  0  0  0  0  0  0  0  # atno 17343 bound_to 10162
  157.6778  131.0846  150.7448 LP  0  0  0  0  0  0  0  0  0  0  0  0  # atno 17370 bound_to 10713
  156.7508  130.4768  149.5457 LP  0  0  0  0  0  0  0  0  0  0  0  0  # atno 17371 bound_to 10713
  141.2140  133.7605  156.9672 LP  0  0  0  0  0  0  0  0  0  0  0  0  # atno 17394 bound_to 11000
  140.1167  134.9443  157.2144 LP  0  0  0  0  0  0  0  0  0  0  0  0  # atno 17395 bound_to 11000

$$$$
