AV-unprocessed.smi:703|AV-procd|sdf|3431|dock3
  -GOLD-   22720 0413D 1   1.00000     0.00000
 Structure written by MMmdl.
 38 39  0  0  0  0  0  0  0  0  2 V2000
  145.9099  137.7668  152.3261 C   0  0  0  0  0  0  0  0  0  0  0  0
  146.8112  138.9983  152.1644 C   0  0  0  0  0  0  0  0  0  0  0  0
  146.5145  140.0464  153.1692 N   0  3  2  0  0  0  0  0  0  0  0  0
  147.1632  141.3517  152.9244 C   0  0  0  0  0  0  0  0  0  0  0  0
  147.2491  142.0385  154.2898 C   0  0  1  0  0  0  0  0  0  0  0  0
  145.9722  142.8323  154.6119 C   0  0  0  0  0  0  0  0  0  0  0  0
  147.4636  140.8647  155.2549 C   0  0  2  0  0  0  0  0  0  0  0  0
  148.8990  140.6402  155.4547 N   0  0  0  0  0  0  0  0  0  0  0  0
  149.5467  140.8636  157.0385 S   0  0  0  0  0  0  0  0  0  0  0  0
  148.4369  141.2746  157.9115 O   0  0  0  0  0  0  0  0  0  0  0  0
  150.3399  139.6705  157.3719 O   0  0  0  0  0  0  0  0  0  0  0  0
  150.6938  142.2862  156.8080 C   0  0  0  0  0  0  0  0  0  0  0  0
  151.1692  142.7674  158.1490 C   0  0  0  0  0  0  0  0  0  0  0  0
  152.0295  143.8615  158.4413 C   0  0  0  0  0  0  0  0  0  0  0  0
  152.1195  143.8408  159.8032 C   0  0  0  0  0  0  0  0  0  0  0  0
  151.3836  142.8209  160.3125 O   0  0  0  0  0  0  0  0  0  0  0  0
  150.7816  142.1403  159.2482 N   0  0  0  0  0  0  0  0  0  0  0  0
  146.8115  139.6518  154.5652 C   0  0  0  0  0  0  0  0  0  0  0  0
  146.1883  136.9903  151.6134 H   0  0  0  0  0  0  0  0  0  0  0  0
  144.8614  138.0087  152.1516 H   0  0  0  0  0  0  0  0  0  0  0  0
  145.9961  137.3429  153.3269 H   0  0  0  0  0  0  0  0  0  0  0  0
  147.8502  138.6876  152.2818 H   0  0  0  0  0  0  0  0  0  0  0  0
  146.7183  139.4090  151.1578 H   0  0  0  0  0  0  0  0  0  0  0  0
  148.1722  141.1887  152.5416 H   0  0  0  0  0  0  0  0  0  0  0  0
  146.6208  141.9421  152.1851 H   0  0  0  0  0  0  0  0  0  0  0  0
  148.0887  142.7355  154.3128 H   0  0  0  0  0  0  0  0  0  0  0  0
  145.0881  142.1939  154.6023 H   0  0  0  0  0  0  0  0  0  0  0  0
  145.8143  143.6309  153.8866 H   0  0  0  0  0  0  0  0  0  0  0  0
  146.0376  143.2934  155.5978 H   0  0  0  0  0  0  0  0  0  0  0  0
  147.0079  141.0648  156.2260 H   0  0  0  0  0  0  0  0  0  0  0  0
  149.4473  141.1544  154.7652 H   0  0  0  0  0  0  0  0  0  0  0  0
  151.5258  141.9596  156.1835 H   0  0  0  0  0  0  0  0  0  0  0  0
  150.1652  143.0756  156.2745 H   0  0  0  0  0  0  0  0  0  0  0  0
  152.5013  144.5543  157.7603 H   0  0  0  0  0  0  0  0  0  0  0  0
  152.6419  144.4549  160.5219 H   0  0  0  0  0  0  0  0  0  0  0  0
  145.8751  139.3848  155.0559 H   0  0  0  0  0  0  0  0  0  0  0  0
  147.4556  138.7715  154.6036 H   0  0  0  0  0  0  0  0  0  0  0  0
  145.5191  140.2152  153.1406 H   0  0  0  0  0  0  0  0  0  0  0  0
  1  2  1  0  0  0  0
  1 19  1  0  0  0  0
  1 20  1  0  0  0  0
  1 21  1  0  0  0  0
  2  3  1  0  0  0  0
  2 22  1  0  0  0  0
  2 23  1  0  0  0  0
  3 18  1  0  0  0  0
  3  4  1  0  0  0  0
  3 38  1  0  0  0  0
  4  5  1  0  0  0  0
  4 24  1  0  0  0  0
  4 25  1  0  0  0  0
  5  6  1  0  0  0  0
  5  7  1  0  0  0  0
  5 26  1  0  0  0  0
  6 27  1  0  0  0  0
  6 28  1  0  0  0  0
  6 29  1  0  0  0  0
  7  8  1  0  0  0  0
  7 18  1  0  0  0  0
  7 30  1  0  0  0  0
  8  9  1  0  0  0  0
  8 31  1  0  0  0  0
  9 10  2  0  0  0  0
  9 11  2  0  0  0  0
  9 12  1  0  0  0  0
 12 13  1  0  0  0  0
 12 32  1  0  0  0  0
 12 33  1  0  0  0  0
 13 17  2  0  0  0  0
 13 14  1  0  0  0  0
 14 15  2  0  0  0  0
 14 34  1  0  0  0  0
 15 16  1  0  0  0  0
 15 35  1  0  0  0  0
 16 17  1  0  0  0  0
 18 36  1  0  0  0  0
 18 37  1  0  0  0  0
M  CHG  1   3   1
M  END
> <s_m_source_file>
AV-unprocessed.smi

> <i_m_source_file_index>
703

> <i_lp_mmshare_version>
43012

> <i_f3d_flags>
0

> <s_epik_input>
W0NIM11bQ0gyXU4xW0NIMl1bQ0BASF0oW0NIM10pW0NASF0oW0NIMl0xKVtOSF1TKD1PKSg9TylbQ0gyXWMyW2NIXVtjSF1vbjI=

> <s_epik_cmdline>
J2VwaWtfcHl0aG9uJywgJy1waCcsICc3LjAnLCAnLXRuJywgJzgnLCAnLW1hJywgJzIwMCcsICctbWV0YWxfYmluZGluZycsICctaW1hZScsICc8aW5maWxlLm1hZT4nLCAnLW9tYWUnLCAnPG91dGZpbGUubWFlPic=

> <r_epik_Ionization_Penalty>
0.00324529

> <r_epik_Ionization_Penalty_Charging>
0.0019384

> <r_epik_Ionization_Penalty_Neutral>
0.00130689

> <r_epik_State_Penalty>
0.00218682

> <r_epik_Charging_Adjusted_Penalty>
0.00412522

> <i_epik_Tot_Q>
1

> <i_epik_Tot_abs_Q>
1

> <r_epik_Metal_State_Penalty>
0.310831

> <b_epik_Metal_Only>
0

> <s_lp_Force_Field>
OPLS_2005

> <r_lp_Energy>
19.6136

> <b_lp_Chiralities_Consistent>
1

> <s_lp_Variant>
AV-unprocessed.smi:703-6

> <Gold.Version>
5.8.1

> <Gold.Id.Protein>
6NUR|6NUR_protein|mol2

> <Gold.PLP.Fitness>
37.2287

> <Gold.PLP.PLP>
-33.0277

> <Gold.PLP.part.hbond>
-1.9217

> <Gold.PLP.part.metal>
0.0000

> <Gold.PLP.part.buried>
-4.4585

> <Gold.PLP.part.nonpolar>
-26.7800

> <Gold.PLP.part.repulsive>
0.0943

> <Gold.PLP.ligand.clash>
0.0000

> <Gold.PLP.ligand.torsion>
0.9814

> <Gold.PLP.Chemscore.Hbond>
2.0000

> <Gold.PLP.Chemscore.CHOScore>
0.0000

> <Gold.PLP.Chemscore.Metal>
0.0000

> <Gold.Chemscore.Hbonds>
donor molecule, donor type, donor heavy atom, donor atom, acceptor molecule, acceptor atom, score
      L1  H     3    38       P1 10175  2.00

> <Gold.PLP.Chemscore.Internal.Correction>
0.1639

> <Gold.Rescore>
     Score         DG    S(hbond)    S(metal)    S(lipo)     H(rot)  DE(clash)    DE(int)     intcor
     11.06     -13.89       0.95        0.00      87.26       1.94       0.48       2.35       ----

> <Gold.Chemscore.Fitness>
11.0588

> <Gold.Chemscore.DG>
-13.8923

> <Gold.Chemscore.ZeroCoef>
-5.4800

> <Gold.Chemscore.Hbond>
0.9489

> <Gold.Chemscore.Metal>
0.0000

> <Gold.Chemscore.Lipo>
87.2598

> <Gold.Chemscore.Internal_Hbond>
0.0000

> <Gold.Chemscore.DEClash>
0.4791

> <Gold.Chemscore.DEInternal>
2.3544

> <Gold.Chemscore.Rot>
1.9400

> <Gold.Chemscore.Internal.Correction>
   9.000000E+99

> <Gold.Chemscore.Hbonds>
donor molecule, donor type, donor heavy atom, donor atom, acceptor molecule, acceptor atom, score
      L1  H     3    38       P1 10175  0.97

> <Gold.Chemscore.Hbond.Weighted>
-3.1694

> <Gold.Chemscore.Metal.Weighted>
-0.0000

> <Gold.Chemscore.Lipo.Weighted>
-10.2094

> <Gold.Chemscore.Internal_Hbond.Weighted>
0.0000

> <Gold.Chemscore.DEClash.Weighted>
0.4791

> <Gold.Chemscore.DEInternal.Weighted>
2.3544

> <Gold.Chemscore.Rot.Weighted>
4.9665

> <Gold.Chemscore.Internal.Correction.Weighted>
   9.000000E+99

> <Gold.Protein.RotatedTorsions>
[ 6907 6896 6895 6894 ] final -178.13 input  -60.11 | X-H torsion
[ 7974 7965 7964 7962 ] final -147.40 input  175.53 | X-H torsion
[ 8008 7997 7996 7995 ] final  -99.06 input   59.86 | X-H torsion
[ 10167 10162 10161 10158 ] final  140.29 input  -65.29 | X-H torsion
[ 10718 10713 10712 10709 ] final   24.50 input   66.30 | X-H torsion
[ 10763 10752 10751 10750 ] final -112.51 input  -60.55 | X-H torsion
[ 11005 11000 10999 10996 ] final  -30.13 input  -57.11 | X-H torsion

> <Gold.Protein.ActiveResidues>
 VAL166  LYS551  ARG553  GLY616  TRP617  ASP618  TYR619  PRO620  LYS621  CYS622 
 ASP623  PHE694  ASN695  SER759  ASP760  ASP761  ALA762  ILE779  LEU786  VAL792 
 PHE793  MET794  SER795  GLU796  ALA797  LYS798  CYS799  TRP800  GLU811  SER814 

> <Gold.Protein.RotatedAtoms>
  151.6323  133.3331  159.3111 H   0  0  0  0  0  0  0  0  0  0  0  0  # atno 6907 bound_to 6896
  150.8050  134.7173  159.6647 H   0  0  0  0  0  0  0  0  0  0  0  0  # atno 6908 bound_to 6896
  152.4145  134.6070  160.0067 H   0  0  0  0  0  0  0  0  0  0  0  0  # atno 6909 bound_to 6896
  144.8096  140.5332  143.5651 H   0  0  0  0  0  0  0  0  0  0  0  0  # atno 7974 bound_to 7965
  154.8097  140.0450  157.1334 H   0  0  0  0  0  0  0  0  0  0  0  0  # atno 8008 bound_to 7997
  154.9382  140.3049  155.5113 H   0  0  0  0  0  0  0  0  0  0  0  0  # atno 8009 bound_to 7997
  156.2970  140.2310  156.4449 H   0  0  0  0  0  0  0  0  0  0  0  0  # atno 8010 bound_to 7997
  139.5053  144.6243  151.5975 H   0  0  0  0  0  0  0  0  0  0  0  0  # atno 10167 bound_to 10162
  157.1807  130.6801  149.6112 H   0  0  0  0  0  0  0  0  0  0  0  0  # atno 10718 bound_to 10713
  154.8353  135.4488  154.1206 H   0  0  0  0  0  0  0  0  0  0  0  0  # atno 10763 bound_to 10752
  153.2443  135.6920  153.7755 H   0  0  0  0  0  0  0  0  0  0  0  0  # atno 10764 bound_to 10752
  153.7091  135.3359  155.3218 H   0  0  0  0  0  0  0  0  0  0  0  0  # atno 10765 bound_to 10752
  140.9356  133.7311  156.1000 H   0  0  0  0  0  0  0  0  0  0  0  0  # atno 11005 bound_to 11000
  145.5355  139.1475  143.3476 LP  0  0  0  0  0  0  0  0  0  0  0  0  # atno 17320 bound_to 7965
  146.2393  140.5495  142.8941 LP  0  0  0  0  0  0  0  0  0  0  0  0  # atno 17321 bound_to 7965
  140.5955  143.9703  150.6352 LP  0  0  0  0  0  0  0  0  0  0  0  0  # atno 17342 bound_to 10162
  140.2898  143.3332  152.1073 LP  0  0  0  0  0  0  0  0  0  0  0  0  # atno 17343 bound_to 10162
  155.9725  130.4648  150.6230 LP  0  0  0  0  0  0  0  0  0  0  0  0  # atno 17370 bound_to 10713
  157.3956  131.0802  151.1355 LP  0  0  0  0  0  0  0  0  0  0  0  0  # atno 17371 bound_to 10713
  140.7804  134.3732  157.5488 LP  0  0  0  0  0  0  0  0  0  0  0  0  # atno 17394 bound_to 11000
  139.8807  134.9078  156.2953 LP  0  0  0  0  0  0  0  0  0  0  0  0  # atno 17395 bound_to 11000

$$$$
