#       Name:                AV-unprocessed.smi:1061
#       Creating user name   scv26
#       Creation time:       Fri Mar 27 03:17:14 2020


#       File generated by GOLD software.
#

@<TRIPOS>MOLECULE
AV-unprocessed.smi:1061
    58    60     1
SMALL
NO_CHARGES


@<TRIPOS>ATOM
      1 ****         1.2816   0.3262  -1.0759 O.2            1 S1                 0.0000
      2 ****         0.7720  -0.7505  -1.3852 C.2            1 S1                 0.0000
      3 ****         1.4805  -1.8715  -1.5825 N.am           1 S1                 0.0000
      4 ****         2.9323  -1.9721  -1.4779 C.3            1 S1                 0.0000
      5 ****         3.3903  -2.0741  -0.0086 C.3            1 S1                 0.0000
      6 ****         4.9180  -2.1329   0.1585 C.2            1 S1                 0.0000
      7 ****         5.6388  -2.2587  -0.8326 O.2            1 S1                 0.0000
      8 ****         5.4262  -2.0406   1.4052 N.am           1 S1                 0.0000
      9 ****         4.6488  -1.9216   2.6385 C.3            1 S1                 0.0000
     10 ****         5.6521  -2.1026   3.7782 C.3            1 S1                 0.0000
     11 ****         6.9828  -1.6760   3.1743 C.3            1 S1                 0.0000
     12 ****         6.8584  -2.0503   1.6971 C.3            1 S1                 0.0000
     13 ****        -0.5434  -0.9719  -1.5519 N.am           1 S1                 0.0000
     14 ****        -1.6248  -0.0565  -1.4323 C.ar           1 S1                 0.0000
     15 ****        -1.4927   1.3515  -1.4589 C.ar           1 S1                 0.0000
     16 ****        -2.6481   2.1478  -1.3427 C.ar           1 S1                 0.0000
     17 ****        -3.9106   1.5238  -1.2084 C.ar           1 S1                 0.0000
     18 ****        -5.0805   2.3053  -1.0871 N.3            1 S1                 0.0000
     19 ****        -5.0533   3.3278  -0.0440 C.3            1 S1                 0.0000
     20 ****        -6.2346   4.2988  -0.2137 C.3            1 S1                 0.0000
     21 ****        -7.4576   3.5709  -0.2412 O.3            1 S1                 0.0000
     22 ****        -7.5066   2.6598  -1.3340 C.3            1 S1                 0.0000
     23 ****        -6.3718   1.6299  -1.2025 C.3            1 S1                 0.0000
     24 ****        -4.0349   0.1738  -1.2030 N.ar           1 S1                 0.0000
     25 ****        -2.9251  -0.5857  -1.3130 C.ar           1 S1                 0.0000
     26 ****         0.9821  -2.7145  -1.8280 H              1 S1                 0.0000
     27 ****         3.2455  -2.8582  -2.0313 H              1 S1                 0.0000
     28 ****         3.3965  -1.1160  -1.9714 H              1 S1                 0.0000
     29 ****         3.0143  -1.2137   0.5460 H              1 S1                 0.0000
     30 ****         2.9547  -2.9634   0.4484 H              1 S1                 0.0000
     31 ****         4.1995  -0.9284   2.6826 H              1 S1                 0.0000
     32 ****         3.8498  -2.6614   2.6995 H              1 S1                 0.0000
     33 ****         5.3880  -1.5321   4.6692 H              1 S1                 0.0000
     34 ****         5.7017  -3.1559   4.0581 H              1 S1                 0.0000
     35 ****         7.0968  -0.5954   3.2699 H              1 S1                 0.0000
     36 ****         7.8386  -2.1463   3.6594 H              1 S1                 0.0000
     37 ****         7.2501  -3.0533   1.5218 H              1 S1                 0.0000
     38 ****         7.4113  -1.3542   1.0646 H              1 S1                 0.0000
     39 ****        -0.8089  -1.9272  -1.7413 H              1 S1                 0.0000
     40 ****        -0.5391   1.8400  -1.5811 H              1 S1                 0.0000
     41 ****        -2.5536   3.2228  -1.3766 H              1 S1                 0.0000
     42 ****        -5.1107   2.8378   0.9289 H              1 S1                 0.0000
     43 ****        -4.1244   3.8960  -0.0579 H              1 S1                 0.0000
     44 ****        -6.2616   5.0047   0.6165 H              1 S1                 0.0000
     45 ****        -6.1267   4.8860  -1.1273 H              1 S1                 0.0000
     46 ****        -8.4727   2.1550  -1.3320 H              1 S1                 0.0000
     47 ****        -7.4321   3.2022  -2.2780 H              1 S1                 0.0000
     48 ****        -6.3788   0.9735  -2.0735 H              1 S1                 0.0000
     49 ****        -6.5333   1.0066  -0.3219 H              1 S1                 0.0000
     50 ****        -3.0832  -1.6543  -1.3023 H              1 S1                 0.0000
     51 ****         2.2724   0.3953  -0.9596 LP             1 S1                 0.0000
     52 ****         0.7048   1.1319  -0.9409 LP             1 S1                 0.0000
     53 ****         5.2302  -2.3223  -1.7431 LP             1 S1                 0.0000
     54 ****         6.6324  -2.2972  -0.7266 LP             1 S1                 0.0000
     55 ****        -5.0234   2.8027  -1.9527 LP             1 S1                 0.0000
     56 ****        -8.2167   4.2166  -0.3239 LP             1 S1                 0.0000
     57 ****        -7.5481   3.0577   0.6123 LP             1 S1                 0.0000
     58 ****        -4.9355  -0.2527  -1.1187 LP             1 S1                 0.0000
@<TRIPOS>BOND
    1    1    2 2     
    2    2    3 am    
    3    2   13 am    
    4    3    4 1     
    5    3   26 1     
    6    4    5 1     
    7    4   27 1     
    8    4   28 1     
    9    5    6 1     
   10    5   29 1     
   11    5   30 1     
   12    6    7 2     
   13    6    8 am    
   14    8   12 1     
   15    8    9 1     
   16    9   10 1     
   17    9   31 1     
   18    9   32 1     
   19   10   11 1     
   20   10   33 1     
   21   10   34 1     
   22   11   12 1     
   23   11   35 1     
   24   11   36 1     
   25   12   37 1     
   26   12   38 1     
   27   13   14 1     
   28   13   39 1     
   29   14   25 ar    
   30   14   15 ar    
   31   15   16 ar    
   32   15   40 1     
   33   16   17 ar    
   34   16   41 1     
   35   17   18 1     
   36   17   24 ar    
   37   18   23 1     
   38   18   19 1     
   39   19   20 1     
   40   19   42 1     
   41   19   43 1     
   42   20   21 1     
   43   20   44 1     
   44   20   45 1     
   45   21   22 1     
   46   22   23 1     
   47   22   46 1     
   48   22   47 1     
   49   23   48 1     
   50   23   49 1     
   51   24   25 ar    
   52   25   50 1     
   53    1   51 1     
   54    1   52 1     
   55    7   53 1     
   56    7   54 1     
   57   18   55 1     
   58   21   56 1     
   59   21   57 1     
   60   24   58 1     
@<TRIPOS>SUBSTRUCTURE
      1 S1             1
@<TRIPOS>SET
LONE_PAIRS      STATIC     ATOMS    <user>   **** ""
8 51 52 53 54 55 56 57 58
DONOR_HYDROGENS      STATIC     ATOMS    <user>   **** ""
2 26 39
ATOM$BLUE        STATIC     ATOMS    COLORGROUP SYSTEM
8 51 52 53 54 55 56 57 58
ATOM$RED        STATIC     ATOMS    COLORGROUP SYSTEM
2 26 39
