AV-unprocessed.smi:1897|AV-procd|sdf|7692|dock1
  -GOLD-   22720 9433D 1   1.00000     0.00000
 Structure written by MMmdl.
 38 40  0  0  0  0  0  0  0  0  3 V2000
  153.0467  138.7899  154.6798 C   0  0  0  0  0  0  0  0  0  0  0  0
  151.7630  138.0537  154.8551 C   0  0  0  0  0  0  0  0  0  0  0  0
  151.7080  136.7906  155.2843 N   0  0  0  0  0  0  0  0  0  0  0  0
  150.4049  136.3228  155.3666 N   0  0  0  0  0  0  0  0  0  0  0  0
  149.4953  137.2310  154.9861 C   0  0  0  0  0  0  0  0  0  0  0  0
  148.1742  136.9729  154.9801 N   0  5  0  0  0  0  0  0  0  0  0  0
  147.6764  135.7090  154.9611 C   0  0  0  0  0  0  0  0  0  0  0  0
  147.1969  135.1551  155.9494 O   0  0  0  0  0  0  0  0  0  0  0  0
  147.7160  135.0376  153.7951 N   0  0  0  0  0  0  0  0  0  0  0  0
  147.2355  133.6793  153.5745 C   0  0  2  0  0  0  0  0  0  0  0  0
  148.1256  132.5969  154.2028 C   0  0  0  0  0  0  0  0  0  0  0  0
  148.1164  131.4288  153.1970 C   0  0  0  0  0  0  0  0  0  0  0  0
  147.2276  131.8308  152.0813 N   0  3  1  0  0  0  0  0  0  0  0  0
  145.8693  131.2339  152.2059 C   0  0  0  0  0  0  0  0  0  0  0  0
  144.8801  131.8301  151.1965 C   0  0  0  0  0  0  0  0  0  0  0  0
  144.7876  133.3463  151.3833 C   0  0  0  0  0  0  0  0  0  0  0  0
  146.1761  133.9677  151.2000 C   0  0  0  0  0  0  0  0  0  0  0  0
  147.2572  133.3133  152.0894 C   0  0  1  0  0  0  0  0  0  0  0  0
  150.2007  138.7738  154.5053 S   0  0  0  0  0  0  0  0  0  0  0  0
  153.5099  138.5100  153.7337 H   0  0  0  0  0  0  0  0  0  0  0  0
  153.7335  138.5514  155.4923 H   0  0  0  0  0  0  0  0  0  0  0  0
  152.8689  139.8653  154.6793 H   0  0  0  0  0  0  0  0  0  0  0  0
  148.1177  135.5145  153.0012 H   0  0  0  0  0  0  0  0  0  0  0  0
  146.2184  133.5807  153.9582 H   0  0  0  0  0  0  0  0  0  0  0  0
  149.1468  132.9560  154.3409 H   0  0  0  0  0  0  0  0  0  0  0  0
  147.7491  132.2972  155.1813 H   0  0  0  0  0  0  0  0  0  0  0  0
  149.1214  131.2790  152.8008 H   0  0  0  0  0  0  0  0  0  0  0  0
  147.8083  130.4890  153.6571 H   0  0  0  0  0  0  0  0  0  0  0  0
  145.9413  130.1555  152.0604 H   0  0  0  0  0  0  0  0  0  0  0  0
  145.4881  131.3866  153.2169 H   0  0  0  0  0  0  0  0  0  0  0  0
  145.1963  131.5959  150.1791 H   0  0  0  0  0  0  0  0  0  0  0  0
  143.8965  131.3785  151.3292 H   0  0  0  0  0  0  0  0  0  0  0  0
  144.0880  133.7734  150.6642 H   0  0  0  0  0  0  0  0  0  0  0  0
  144.3972  133.5797  152.3745 H   0  0  0  0  0  0  0  0  0  0  0  0
  146.4693  133.8546  150.1555 H   0  0  0  0  0  0  0  0  0  0  0  0
  146.1351  135.0417  151.3846 H   0  0  0  0  0  0  0  0  0  0  0  0
  148.2303  133.6062  151.6893 H   0  0  0  0  0  0  0  0  0  0  0  0
  147.6185  131.5058  151.2087 H   0  0  0  0  0  0  0  0  0  0  0  0
  1  2  1  0  0  0  0
  1 20  1  0  0  0  0
  1 21  1  0  0  0  0
  1 22  1  0  0  0  0
  2 19  1  0  0  0  0
  2  3  2  0  0  0  0
  3  4  1  0  0  0  0
  4  5  2  0  0  0  0
  5  6  1  0  0  0  0
  5 19  1  0  0  0  0
  6  7  1  0  0  0  0
  7  8  2  0  0  0  0
  7  9  1  0  0  0  0
  9 10  1  0  0  0  0
  9 23  1  0  0  0  0
 10 18  1  0  0  0  0
 10 11  1  0  0  0  0
 10 24  1  0  0  0  0
 11 12  1  0  0  0  0
 11 25  1  0  0  0  0
 11 26  1  0  0  0  0
 12 13  1  0  0  0  0
 12 27  1  0  0  0  0
 12 28  1  0  0  0  0
 13 18  1  0  0  0  0
 13 14  1  0  0  0  0
 13 38  1  0  0  0  0
 14 15  1  0  0  0  0
 14 29  1  0  0  0  0
 14 30  1  0  0  0  0
 15 16  1  0  0  0  0
 15 31  1  0  0  0  0
 15 32  1  0  0  0  0
 16 17  1  0  0  0  0
 16 33  1  0  0  0  0
 16 34  1  0  0  0  0
 17 18  1  0  0  0  0
 17 35  1  0  0  0  0
 17 36  1  0  0  0  0
 18 37  1  0  0  0  0
M  CHG  1   6  -1
M  CHG  1  13   1
M  END
> <s_m_source_file>
AV-unprocessed.smi

> <i_m_source_file_index>
1897

> <i_lp_mmshare_version>
43012

> <i_f3d_flags>
0

> <s_epik_input>
W0NIM11jMW5uYyhzMSlbTkhdQyg9TylbTkhdW0NASF0oW0NIMl1bQ0gyXTIpW0NAQEhdKE4yMylbQ0gyXVtDSDJdW0NIMl1bQ0gyXTM=

> <s_epik_cmdline>
J2VwaWtfcHl0aG9uJywgJy1waCcsICc3LjAnLCAnLXRuJywgJzgnLCAnLW1hJywgJzIwMCcsICctbWV0YWxfYmluZGluZycsICctaW1hZScsICc8aW5maWxlLm1hZT4nLCAnLW9tYWUnLCAnPG91dGZpbGUubWFlPic=

> <r_lp_tautomer_probability>
1

> <r_epik_Ionization_Penalty>
3.77712

> <r_epik_Ionization_Penalty_Charging>
3.67739

> <r_epik_Ionization_Penalty_Neutral>
0.0997294

> <r_epik_State_Penalty>
3.67514

> <r_epik_Charging_Adjusted_Penalty>
7.35254

> <i_epik_Tot_Q>
0

> <i_epik_Tot_abs_Q>
2

> <r_epik_Metal_State_Penalty>
0.540795

> <b_epik_Metal_Only>
1

> <s_lp_Force_Field>
OPLS_2005

> <r_lp_Energy>
31.3184

> <b_lp_Chiralities_Consistent>
1

> <s_lp_Variant>
AV-unprocessed.smi:1897-9

> <Gold.Version>
5.8.1

> <Gold.Id.Protein>
6NUR|6NUR_protein|mol2

> <Gold.PLP.Fitness>
37.1149

> <Gold.PLP.PLP>
-29.8913

> <Gold.PLP.part.hbond>
-3.0000

> <Gold.PLP.part.metal>
0.0000

> <Gold.PLP.part.buried>
-4.0322

> <Gold.PLP.part.nonpolar>
-23.8172

> <Gold.PLP.part.repulsive>
0.3305

> <Gold.PLP.ligand.clash>
0.0000

> <Gold.PLP.ligand.torsion>
0.8971

> <Gold.PLP.Chemscore.Hbond>
3.0000

> <Gold.PLP.Chemscore.CHOScore>
0.0000

> <Gold.PLP.Chemscore.Metal>
0.0000

> <Gold.Chemscore.Hbonds>
donor molecule, donor type, donor heavy atom, donor atom, acceptor molecule, acceptor atom, score
      L1  H     9    23       P1  7948  1.00
      L1  H    13    38       P1 10747  1.00
      P1  H 10752 10764       L1     3  1.00

> <Gold.PLP.Chemscore.Internal.Correction>
0.0178

> <Gold.Rescore>
     Score         DG    S(hbond)    S(metal)    S(lipo)     H(rot)  DE(clash)    DE(int)     intcor
     19.98     -20.93       2.89        0.00      71.31       1.00       0.11       0.84       ----

> <Gold.Chemscore.Fitness>
19.9757

> <Gold.Chemscore.DG>
-20.9295

> <Gold.Chemscore.ZeroCoef>
-5.4800

> <Gold.Chemscore.Hbond>
2.8941

> <Gold.Chemscore.Metal>
0.0000

> <Gold.Chemscore.Lipo>
71.3098

> <Gold.Chemscore.Internal_Hbond>
0.0000

> <Gold.Chemscore.DEClash>
0.1103

> <Gold.Chemscore.DEInternal>
0.8435

> <Gold.Chemscore.Rot>
1.0000

> <Gold.Chemscore.Internal.Correction>
   9.000000E+99

> <Gold.Chemscore.Hbonds>
donor molecule, donor type, donor heavy atom, donor atom, acceptor molecule, acceptor atom, score
      L1  H     9    23       P1  7948  0.97
      L1  H    13    38       P1 10747  0.94
      P1  H 10752 10764       L1     3  0.90

> <Gold.Chemscore.Hbond.Weighted>
-9.6662

> <Gold.Chemscore.Metal.Weighted>
-0.0000

> <Gold.Chemscore.Lipo.Weighted>
-8.3433

> <Gold.Chemscore.Internal_Hbond.Weighted>
0.0000

> <Gold.Chemscore.DEClash.Weighted>
0.1103

> <Gold.Chemscore.DEInternal.Weighted>
0.8435

> <Gold.Chemscore.Rot.Weighted>
2.5600

> <Gold.Chemscore.Internal.Correction.Weighted>
   9.000000E+99

> <Gold.Protein.RotatedTorsions>
[ 6907 6896 6895 6894 ] final   99.89 input  -60.11 | X-H torsion
[ 7974 7965 7964 7962 ] final    5.74 input  175.53 | X-H torsion
[ 8008 7997 7996 7995 ] final  -42.81 input   59.86 | X-H torsion
[ 10167 10162 10161 10158 ] final  -75.56 input  -65.29 | X-H torsion
[ 10718 10713 10712 10709 ] final   25.86 input   66.30 | X-H torsion
[ 10763 10752 10751 10750 ] final  -41.01 input  -60.55 | X-H torsion
[ 11005 11000 10999 10996 ] final -161.29 input  -57.11 | X-H torsion

> <Gold.Protein.ActiveResidues>
 VAL166  LYS551  ARG553  GLY616  TRP617  ASP618  TYR619  PRO620  LYS621  CYS622 
 ASP623  PHE694  ASN695  SER759  ASP760  ASP761  ALA762  ILE779  LEU786  VAL792 
 PHE793  MET794  SER795  GLU796  ALA797  LYS798  CYS799  TRP800  GLU811  SER814 

> <Gold.Protein.RotatedAtoms>
  152.5383  134.0360  159.8045 H   0  0  0  0  0  0  0  0  0  0  0  0  # atno 6907 bound_to 6896
  151.0524  133.5605  159.2648 H   0  0  0  0  0  0  0  0  0  0  0  0  # atno 6908 bound_to 6896
  151.2535  135.0638  159.9125 H   0  0  0  0  0  0  0  0  0  0  0  0  # atno 6909 bound_to 6896
  146.2439  140.0338  142.8387 H   0  0  0  0  0  0  0  0  0  0  0  0  # atno 7974 bound_to 7965
  154.3998  140.1464  156.3417 H   0  0  0  0  0  0  0  0  0  0  0  0  # atno 8008 bound_to 7997
  155.8351  140.3464  155.5575 H   0  0  0  0  0  0  0  0  0  0  0  0  # atno 8009 bound_to 7997
  155.8147  140.0889  157.1874 H   0  0  0  0  0  0  0  0  0  0  0  0  # atno 8010 bound_to 7997
  140.4932  143.2376  151.7873 H   0  0  0  0  0  0  0  0  0  0  0  0  # atno 10167 bound_to 10162
  157.1990  130.6881  149.6180 H   0  0  0  0  0  0  0  0  0  0  0  0  # atno 10718 bound_to 10713
  153.9554  135.6746  153.4744 H   0  0  0  0  0  0  0  0  0  0  0  0  # atno 10763 bound_to 10752
  153.0864  135.4897  154.8601 H   0  0  0  0  0  0  0  0  0  0  0  0  # atno 10764 bound_to 10752
  154.7302  135.3136  154.8863 H   0  0  0  0  0  0  0  0  0  0  0  0  # atno 10765 bound_to 10752
  140.6221  134.4740  157.5224 H   0  0  0  0  0  0  0  0  0  0  0  0  # atno 11005 bound_to 11000
  145.1131  140.9417  143.4645 LP  0  0  0  0  0  0  0  0  0  0  0  0  # atno 17320 bound_to 7965
  145.0556  139.3146  143.5906 LP  0  0  0  0  0  0  0  0  0  0  0  0  # atno 17321 bound_to 7965
  139.4855  144.4622  151.9528 LP  0  0  0  0  0  0  0  0  0  0  0  0  # atno 17342 bound_to 10162
  140.3709  144.2857  150.5920 LP  0  0  0  0  0  0  0  0  0  0  0  0  # atno 17343 bound_to 10162
  155.9702  130.4589  150.6016 LP  0  0  0  0  0  0  0  0  0  0  0  0  # atno 17370 bound_to 10713
  157.3786  131.0777  151.1497 LP  0  0  0  0  0  0  0  0  0  0  0  0  # atno 17371 bound_to 10713
  139.9149  134.8266  156.1399 LP  0  0  0  0  0  0  0  0  0  0  0  0  # atno 17394 bound_to 11000
  141.0735  133.6786  156.2189 LP  0  0  0  0  0  0  0  0  0  0  0  0  # atno 17395 bound_to 11000

$$$$
