AV-unprocessed.smi:2090|AV-procd|sdf|8537|dock7
  -GOLD-   2272011253D 1   1.00000     0.00000
 Structure written by MMmdl.
 41 42  0  0  0  0  0  0  0  0  3 V2000
  147.1291  135.0781  162.6604 C   0  0  0  0  0  0  0  0  0  0  0  0
  147.5055  135.5583  161.3007 C   0  0  0  0  0  0  0  0  0  0  0  0
  147.9155  134.9130  160.1684 C   0  0  0  0  0  0  0  0  0  0  0  0
  148.1066  135.9748  159.2445 C   0  0  0  0  0  0  0  0  0  0  0  0
  148.5409  135.7109  157.9185 N   0  0  0  0  0  0  0  0  0  0  0  0
  149.0846  134.5865  157.4178 C   0  0  0  0  0  0  0  0  0  0  0  0
  149.2625  133.6007  158.1436 O   0  0  0  0  0  0  0  0  0  0  0  0
  149.3860  134.7041  156.0946 N   0  5  0  0  0  0  0  0  0  0  0  0
  148.4310  135.0772  155.0523 C   0  0  0  0  0  0  0  0  0  0  0  0
  147.9995  133.8319  154.2505 C   0  0  0  0  0  0  0  0  0  0  0  0
  147.3391  134.2005  152.9702 N   0  3  2  0  0  0  0  0  0  0  0  0
  146.0706  134.9591  153.1540 C   0  0  0  0  0  0  0  0  0  0  0  0
  145.5161  135.4484  151.8043 C   0  0  0  0  0  0  0  0  0  0  0  0
  145.3147  134.2942  150.8053 C   0  0  2  0  0  0  0  0  0  0  0  0
  144.0954  133.4189  151.1444 C   0  0  0  0  0  0  0  0  0  0  0  0
  146.6174  133.4815  150.6911 C   0  0  0  0  0  0  0  0  0  0  0  0
  147.1512  133.0371  152.0649 C   0  0  0  0  0  0  0  0  0  0  0  0
  147.8356  137.1618  159.7670 N   0  0  0  0  0  0  0  0  0  0  0  0
  147.4504  136.9009  161.0873 O   0  0  0  0  0  0  0  0  0  0  0  0
  146.7376  134.0616  162.6181 H   0  0  0  0  0  0  0  0  0  0  0  0
  146.3629  135.7160  163.1012 H   0  0  0  0  0  0  0  0  0  0  0  0
  147.9947  135.0805  163.3231 H   0  0  0  0  0  0  0  0  0  0  0  0
  148.0566  133.8519  160.0260 H   0  0  0  0  0  0  0  0  0  0  0  0
  148.4233  136.4691  157.2629 H   0  0  0  0  0  0  0  0  0  0  0  0
  147.5465  135.5655  155.4630 H   0  0  0  0  0  0  0  0  0  0  0  0
  148.8658  135.8021  154.3639 H   0  0  0  0  0  0  0  0  0  0  0  0
  148.8909  133.2347  154.0511 H   0  0  0  0  0  0  0  0  0  0  0  0
  147.3378  133.1927  154.8375 H   0  0  0  0  0  0  0  0  0  0  0  0
  145.3378  134.3311  153.6623 H   0  0  0  0  0  0  0  0  0  0  0  0
  146.2397  135.8205  153.8006 H   0  0  0  0  0  0  0  0  0  0  0  0
  144.5792  135.9855  151.9573 H   0  0  0  0  0  0  0  0  0  0  0  0
  146.2126  136.1722  151.3785 H   0  0  0  0  0  0  0  0  0  0  0  0
  145.1147  134.7352  149.8279 H   0  0  0  0  0  0  0  0  0  0  0  0
  144.1966  132.9274  152.1117 H   0  0  0  0  0  0  0  0  0  0  0  0
  143.9528  132.6413  150.3936 H   0  0  0  0  0  0  0  0  0  0  0  0
  143.1832  134.0157  151.1724 H   0  0  0  0  0  0  0  0  0  0  0  0
  146.4665  132.6130  150.0489 H   0  0  0  0  0  0  0  0  0  0  0  0
  147.3764  134.0917  150.1992 H   0  0  0  0  0  0  0  0  0  0  0  0
  148.1046  132.5269  151.9232 H   0  0  0  0  0  0  0  0  0  0  0  0
  146.4750  132.3172  152.5278 H   0  0  0  0  0  0  0  0  0  0  0  0
  147.9852  134.8180  152.4998 H   0  0  0  0  0  0  0  0  0  0  0  0
  1  2  1  0  0  0  0
  1 20  1  0  0  0  0
  1 21  1  0  0  0  0
  1 22  1  0  0  0  0
  2 19  1  0  0  0  0
  2  3  2  0  0  0  0
  3  4  1  0  0  0  0
  3 23  1  0  0  0  0
  4  5  1  0  0  0  0
  4 18  2  0  0  0  0
  5  6  1  0  0  0  0
  5 24  1  0  0  0  0
  6  7  2  0  0  0  0
  6  8  1  0  0  0  0
  8  9  1  0  0  0  0
  9 10  1  0  0  0  0
  9 25  1  0  0  0  0
  9 26  1  0  0  0  0
 10 11  1  0  0  0  0
 10 27  1  0  0  0  0
 10 28  1  0  0  0  0
 11 17  1  0  0  0  0
 11 12  1  0  0  0  0
 11 41  1  0  0  0  0
 12 13  1  0  0  0  0
 12 29  1  0  0  0  0
 12 30  1  0  0  0  0
 13 14  1  0  0  0  0
 13 31  1  0  0  0  0
 13 32  1  0  0  0  0
 14 15  1  0  0  0  0
 14 16  1  0  0  0  0
 14 33  1  0  0  0  0
 15 34  1  0  0  0  0
 15 35  1  0  0  0  0
 15 36  1  0  0  0  0
 16 17  1  0  0  0  0
 16 37  1  0  0  0  0
 16 38  1  0  0  0  0
 17 39  1  0  0  0  0
 17 40  1  0  0  0  0
 18 19  1  0  0  0  0
M  CHG  1   8  -1
M  CHG  1  11   1
M  END
> <s_m_source_file>
AV-unprocessed.smi

> <i_m_source_file_index>
2090

> <i_lp_mmshare_version>
43012

> <i_f3d_flags>
0

> <s_epik_input>
W0NIM11jMVtjSF1jKG5vMSlbTkhdQyg9TylbTkhdW0NIMl1bQ0gyXU4yW0NIMl1bQ0gyXVtDSF0oW0NIM10pW0NIMl1bQ0gyXTI=

> <s_epik_cmdline>
J2VwaWtfcHl0aG9uJywgJy1waCcsICc3LjAnLCAnLXRuJywgJzgnLCAnLW1hJywgJzIwMCcsICctbWV0YWxfYmluZGluZycsICctaW1hZScsICc8aW5maWxlLm1hZT4nLCAnLW9tYWUnLCAnPG91dGZpbGUubWFlPic=

> <r_epik_Ionization_Penalty>
6.7721

> <r_epik_Ionization_Penalty_Charging>
6.7721

> <r_epik_Ionization_Penalty_Neutral>
5.78572e-06

> <r_epik_State_Penalty>
6.79704

> <r_epik_Charging_Adjusted_Penalty>
13.5691

> <i_epik_Tot_Q>
0

> <i_epik_Tot_abs_Q>
2

> <r_epik_Metal_State_Penalty>
2.73105

> <b_epik_Metal_Only>
1

> <s_lp_Force_Field>
OPLS_2005

> <r_lp_Energy>
13.6419

> <b_lp_Chiralities_Consistent>
1

> <s_lp_Variant>
AV-unprocessed.smi:2090-6

> <Gold.Version>
5.8.1

> <Gold.Id.Protein>
6NUR|6NUR_protein|mol2

> <Gold.PLP.Fitness>
43.0495

> <Gold.PLP.PLP>
-31.8373

> <Gold.PLP.part.hbond>
-5.3970

> <Gold.PLP.part.metal>
0.0000

> <Gold.PLP.part.buried>
-4.1606

> <Gold.PLP.part.nonpolar>
-22.6361

> <Gold.PLP.part.repulsive>
0.0870

> <Gold.PLP.ligand.clash>
0.0000

> <Gold.PLP.ligand.torsion>
0.7662

> <Gold.PLP.Chemscore.Hbond>
4.2288

> <Gold.PLP.Chemscore.CHOScore>
0.0000

> <Gold.PLP.Chemscore.Metal>
0.0000

> <Gold.Chemscore.Hbonds>
donor molecule, donor type, donor heavy atom, donor atom, acceptor molecule, acceptor atom, score
      L1  H    11    41       P1  7948  2.00
      P1  H  6896  6908       L1     7  1.00
      P1  H  6931  6943       L1    19  0.29

> <Gold.PLP.Chemscore.Internal.Correction>
0.0581

> <Gold.Rescore>
     Score         DG    S(hbond)    S(metal)    S(lipo)     H(rot)  DE(clash)    DE(int)     intcor
     15.50     -17.88       2.69        0.00      62.94       1.54       0.11       2.26       ----

> <Gold.Chemscore.Fitness>
15.5028

> <Gold.Chemscore.DG>
-17.8791

> <Gold.Chemscore.ZeroCoef>
-5.4800

> <Gold.Chemscore.Hbond>
2.6887

> <Gold.Chemscore.Metal>
0.0000

> <Gold.Chemscore.Lipo>
62.9368

> <Gold.Chemscore.Internal_Hbond>
0.0000

> <Gold.Chemscore.DEClash>
0.1129

> <Gold.Chemscore.DEInternal>
2.2634

> <Gold.Chemscore.Rot>
1.5409

> <Gold.Chemscore.Internal.Correction>
   9.000000E+99

> <Gold.Chemscore.Hbonds>
donor molecule, donor type, donor heavy atom, donor atom, acceptor molecule, acceptor atom, score
      L1  H    11    41       P1  7948  0.74
      P1  H  6896  6908       L1     7  0.70
      P1  H  6931  6943       L1    19  0.02

> <Gold.Chemscore.Hbond.Weighted>
-8.9801

> <Gold.Chemscore.Metal.Weighted>
-0.0000

> <Gold.Chemscore.Lipo.Weighted>
-7.3636

> <Gold.Chemscore.Internal_Hbond.Weighted>
0.0000

> <Gold.Chemscore.DEClash.Weighted>
0.1129

> <Gold.Chemscore.DEInternal.Weighted>
2.2634

> <Gold.Chemscore.Rot.Weighted>
3.9446

> <Gold.Chemscore.Internal.Correction.Weighted>
   9.000000E+99

> <Gold.Protein.RotatedTorsions>
[ 6907 6896 6895 6894 ] final  130.79 input  -60.11 | X-H torsion
[ 7974 7965 7964 7962 ] final  177.19 input  175.53 | X-H torsion
[ 8008 7997 7996 7995 ] final -112.77 input   59.86 | X-H torsion
[ 10167 10162 10161 10158 ] final  -44.07 input  -65.29 | X-H torsion
[ 10718 10713 10712 10709 ] final  -88.66 input   66.30 | X-H torsion
[ 10763 10752 10751 10750 ] final  152.78 input  -60.55 | X-H torsion
[ 11005 11000 10999 10996 ] final  167.87 input  -57.11 | X-H torsion

> <Gold.Protein.ActiveResidues>
 VAL166  LYS551  ARG553  GLY616  TRP617  ASP618  TYR619  PRO620  LYS621  CYS622 
 ASP623  PHE694  ASN695  SER759  ASP760  ASP761  ALA762  ILE779  LEU786  VAL792 
 PHE793  MET794  SER795  GLU796  ALA797  LYS798  CYS799  TRP800  GLU811  SER814 

> <Gold.Protein.RotatedAtoms>
  152.3491  133.6158  159.5931 H   0  0  0  0  0  0  0  0  0  0  0  0  # atno 6907 bound_to 6896
  150.7526  133.9602  159.3522 H   0  0  0  0  0  0  0  0  0  0  0  0  # atno 6908 bound_to 6896
  151.7456  135.0845  160.0374 H   0  0  0  0  0  0  0  0  0  0  0  0  # atno 6909 bound_to 6896
  144.7173  140.0209  143.6440 H   0  0  0  0  0  0  0  0  0  0  0  0  # atno 7974 bound_to 7965
  155.0103  140.0393  157.2396 H   0  0  0  0  0  0  0  0  0  0  0  0  # atno 8008 bound_to 7997
  154.7466  140.2759  155.6305 H   0  0  0  0  0  0  0  0  0  0  0  0  # atno 8009 bound_to 7997
  156.2876  140.2655  156.2208 H   0  0  0  0  0  0  0  0  0  0  0  0  # atno 8010 bound_to 7997
  140.6910  143.2949  151.3443 H   0  0  0  0  0  0  0  0  0  0  0  0  # atno 10167 bound_to 10162
  155.9983  130.4844  150.5053 H   0  0  0  0  0  0  0  0  0  0  0  0  # atno 10718 bound_to 10713
  154.1255  135.2830  155.3198 H   0  0  0  0  0  0  0  0  0  0  0  0  # atno 10763 bound_to 10752
  154.6393  135.5408  153.7773 H   0  0  0  0  0  0  0  0  0  0  0  0  # atno 10764 bound_to 10752
  153.0298  135.6482  154.1407 H   0  0  0  0  0  0  0  0  0  0  0  0  # atno 10765 bound_to 10752
  140.2813  134.7748  157.3760 H   0  0  0  0  0  0  0  0  0  0  0  0  # atno 11005 bound_to 11000
  146.0181  139.3227  143.0829 LP  0  0  0  0  0  0  0  0  0  0  0  0  # atno 17320 bound_to 7965
  145.8601  140.9480  143.0704 LP  0  0  0  0  0  0  0  0  0  0  0  0  # atno 17321 bound_to 7965
  139.6314  144.0714  152.2479 LP  0  0  0  0  0  0  0  0  0  0  0  0  # atno 17342 bound_to 10162
  140.0190  144.6167  150.7583 LP  0  0  0  0  0  0  0  0  0  0  0  0  # atno 17343 bound_to 10162
  157.3032  131.0649  151.2053 LP  0  0  0  0  0  0  0  0  0  0  0  0  # atno 17370 bound_to 10713
  157.3025  130.6850  149.6172 LP  0  0  0  0  0  0  0  0  0  0  0  0  # atno 17371 bound_to 10713
  140.1281  134.5131  155.8128 LP  0  0  0  0  0  0  0  0  0  0  0  0  # atno 17394 bound_to 11000
  141.2162  133.6780  156.6989 LP  0  0  0  0  0  0  0  0  0  0  0  0  # atno 17395 bound_to 11000

$$$$
