AV-unprocessed.smi:797|AV-procd|sdf|3768|dock1
  -GOLD-   22720 1203D 1   1.00000     0.00000
 Structure written by MMmdl.
 34 35  0  0  0  0  0  0  0  0  2 V2000
  147.6125  139.5318  153.6705 C   0  0  0  0  0  0  0  0  0  0  0  0
  149.0295  139.6675  154.1437 C   0  0  0  0  0  0  0  0  0  0  0  0
  149.9707  138.6390  154.4200 C   0  0  0  0  0  0  0  0  0  0  0  0
  151.0859  139.3198  154.8192 C   0  0  0  0  0  0  0  0  0  0  0  0
  152.4423  138.8802  155.2629 C   0  0  0  0  0  0  0  0  0  0  0  0
  152.3582  138.1494  156.9553 S   0  0  0  0  0  0  0  0  0  0  0  0
  150.9444  138.2312  157.3564 O   0  0  0  0  0  0  0  0  0  0  0  0
  152.9520  136.8056  156.8584 O   0  0  0  0  0  0  0  0  0  0  0  0
  153.2875  139.1931  157.7812 N   0  5  0  0  0  0  0  0  0  0  0  0
  152.6693  140.2133  158.6146 C   0  0  0  0  0  0  0  0  0  0  0  0
  151.9683  141.2671  157.7222 C   0  0  0  0  0  0  0  0  0  0  0  0
  151.3964  142.4650  158.5226 C   0  0  0  0  0  0  0  0  0  0  0  0
  152.4655  143.1657  159.3872 C   0  0  0  0  0  0  0  0  0  0  0  0
  153.1659  142.1260  160.2868 C   0  0  0  0  0  0  0  0  0  0  0  0
  153.7344  140.9279  159.4850 C   0  0  0  0  0  0  0  0  0  0  0  0
  150.8547  140.6577  154.7820 O   0  0  0  0  0  0  0  0  0  0  0  0
  149.5412  140.8696  154.3486 N   0  0  0  0  0  0  0  0  0  0  0  0
  147.2169  138.5415  153.8970 H   0  0  0  0  0  0  0  0  0  0  0  0
  147.5453  139.6784  152.5926 H   0  0  0  0  0  0  0  0  0  0  0  0
  146.9617  140.2643  154.1489 H   0  0  0  0  0  0  0  0  0  0  0  0
  149.8477  137.5686  154.3483 H   0  0  0  0  0  0  0  0  0  0  0  0
  152.8702  138.1472  154.5796 H   0  0  0  0  0  0  0  0  0  0  0  0
  153.1182  139.7340  155.3023 H   0  0  0  0  0  0  0  0  0  0  0  0
  151.9148  139.7858  159.2761 H   0  0  0  0  0  0  0  0  0  0  0  0
  152.6755  141.6485  156.9838 H   0  0  0  0  0  0  0  0  0  0  0  0
  151.1646  140.7947  157.1564 H   0  0  0  0  0  0  0  0  0  0  0  0
  150.9607  143.1872  157.8316 H   0  0  0  0  0  0  0  0  0  0  0  0
  150.5748  142.1323  159.1605 H   0  0  0  0  0  0  0  0  0  0  0  0
  153.2009  143.6482  158.7424 H   0  0  0  0  0  0  0  0  0  0  0  0
  152.0129  143.9512  159.9930 H   0  0  0  0  0  0  0  0  0  0  0  0
  153.9743  142.6092  160.8361 H   0  0  0  0  0  0  0  0  0  0  0  0
  152.4646  141.7700  161.0443 H   0  0  0  0  0  0  0  0  0  0  0  0
  154.1870  140.2199  160.1794 H   0  0  0  0  0  0  0  0  0  0  0  0
  154.5447  141.2860  158.8480 H   0  0  0  0  0  0  0  0  0  0  0  0
  1  2  1  0  0  0  0
  1 18  1  0  0  0  0
  1 19  1  0  0  0  0
  1 20  1  0  0  0  0
  2 17  2  0  0  0  0
  2  3  1  0  0  0  0
  3  4  2  0  0  0  0
  3 21  1  0  0  0  0
  4  5  1  0  0  0  0
  4 16  1  0  0  0  0
  5  6  1  0  0  0  0
  5 22  1  0  0  0  0
  5 23  1  0  0  0  0
  6  7  2  0  0  0  0
  6  8  2  0  0  0  0
  6  9  1  0  0  0  0
  9 10  1  0  0  0  0
 10 15  1  0  0  0  0
 10 11  1  0  0  0  0
 10 24  1  0  0  0  0
 11 12  1  0  0  0  0
 11 25  1  0  0  0  0
 11 26  1  0  0  0  0
 12 13  1  0  0  0  0
 12 27  1  0  0  0  0
 12 28  1  0  0  0  0
 13 14  1  0  0  0  0
 13 29  1  0  0  0  0
 13 30  1  0  0  0  0
 14 15  1  0  0  0  0
 14 31  1  0  0  0  0
 14 32  1  0  0  0  0
 15 33  1  0  0  0  0
 15 34  1  0  0  0  0
 16 17  1  0  0  0  0
M  CHG  1   9  -1
M  END
> <s_m_source_file>
AV-unprocessed.smi

> <i_m_source_file_index>
797

> <i_lp_mmshare_version>
43012

> <i_f3d_flags>
0

> <s_epik_input>
W0NIM11jMVtjSF1jKG9uMSlbQ0gyXVMoPU8pKD1PKVtOSF1bQ0hdMltDSDJdW0NIMl1bQ0gyXVtDSDJdW0NIMl0y

> <s_epik_cmdline>
J2VwaWtfcHl0aG9uJywgJy1waCcsICc3LjAnLCAnLXRuJywgJzgnLCAnLW1hJywgJzIwMCcsICctbWV0YWxfYmluZGluZycsICctaW1hZScsICc8aW5maWxlLm1hZT4nLCAnLW9tYWUnLCAnPG91dGZpbGUubWFlPic=

> <r_lp_tautomer_probability>
1

> <r_epik_Ionization_Penalty>
5.48284

> <r_epik_Ionization_Penalty_Charging>
5.48284

> <r_epik_Ionization_Penalty_Neutral>
9.17401e-10

> <r_epik_State_Penalty>
5.48278

> <r_epik_Charging_Adjusted_Penalty>
10.9656

> <i_epik_Tot_Q>
-1

> <i_epik_Tot_abs_Q>
1

> <r_epik_Metal_State_Penalty>
1.49378

> <b_epik_Metal_Only>
1

> <s_lp_Force_Field>
OPLS_2005

> <r_lp_Energy>
6.0802

> <b_lp_Chiralities_Consistent>
1

> <s_lp_Variant>
AV-unprocessed.smi:797-2

> <Gold.Version>
5.8.1

> <Gold.Id.Protein>
6NUR|6NUR_protein|mol2

> <Gold.PLP.Fitness>
44.2345

> <Gold.PLP.PLP>
-32.7243

> <Gold.PLP.part.hbond>
-3.8262

> <Gold.PLP.part.metal>
0.0000

> <Gold.PLP.part.buried>
-2.2015

> <Gold.PLP.part.nonpolar>
-26.8201

> <Gold.PLP.part.repulsive>
0.2028

> <Gold.PLP.ligand.clash>
0.0000

> <Gold.PLP.ligand.torsion>
0.7410

> <Gold.PLP.Chemscore.Hbond>
3.9920

> <Gold.PLP.Chemscore.CHOScore>
0.0000

> <Gold.PLP.Chemscore.Metal>
0.0000

> <Gold.Chemscore.Hbonds>
donor molecule, donor type, donor heavy atom, donor atom, acceptor molecule, acceptor atom, score
      P1  H  7989  7998       L1    16  0.69
      P1  H  7997  8008       L1     9  2.00
      P1  H 10752 10765       L1     8  0.70

> <Gold.PLP.Chemscore.Internal.Correction>
1.0163

> <Gold.Rescore>
     Score         DG    S(hbond)    S(metal)    S(lipo)     H(rot)  DE(clash)    DE(int)     intcor
     17.25     -18.05       1.93        0.00      82.10       1.35       0.00       0.79       ----

> <Gold.Chemscore.Fitness>
17.2542

> <Gold.Chemscore.DG>
-18.0479

> <Gold.Chemscore.ZeroCoef>
-5.4800

> <Gold.Chemscore.Hbond>
1.9252

> <Gold.Chemscore.Metal>
0.0000

> <Gold.Chemscore.Lipo>
82.1009

> <Gold.Chemscore.Internal_Hbond>
0.0000

> <Gold.Chemscore.DEClash>
0.0000

> <Gold.Chemscore.DEInternal>
0.7937

> <Gold.Chemscore.Rot>
1.3546

> <Gold.Chemscore.Internal.Correction>
   9.000000E+99

> <Gold.Chemscore.Hbonds>
donor molecule, donor type, donor heavy atom, donor atom, acceptor molecule, acceptor atom, score
      P1  H  7989  7998       L1    16  0.02
      P1  H  7997  8008       L1     9  0.46
      P1  H 10752 10765       L1     8  0.66

> <Gold.Chemscore.Hbond.Weighted>
-6.4300

> <Gold.Chemscore.Metal.Weighted>
-0.0000

> <Gold.Chemscore.Lipo.Weighted>
-9.6058

> <Gold.Chemscore.Internal_Hbond.Weighted>
0.0000

> <Gold.Chemscore.DEClash.Weighted>
0.0000

> <Gold.Chemscore.DEInternal.Weighted>
0.7937

> <Gold.Chemscore.Rot.Weighted>
3.4679

> <Gold.Chemscore.Internal.Correction.Weighted>
   9.000000E+99

> <Gold.Protein.RotatedTorsions>
[ 6907 6896 6895 6894 ] final  -76.83 input  -60.11 | X-H torsion
[ 7974 7965 7964 7962 ] final   30.41 input  175.53 | X-H torsion
[ 8008 7997 7996 7995 ] final  -72.52 input   59.86 | X-H torsion
[ 10167 10162 10161 10158 ] final   96.76 input  -65.29 | X-H torsion
[ 10718 10713 10712 10709 ] final  -14.71 input   66.30 | X-H torsion
[ 10763 10752 10751 10750 ] final -124.81 input  -60.55 | X-H torsion
[ 11005 11000 10999 10996 ] final  -61.54 input  -57.11 | X-H torsion

> <Gold.Protein.ActiveResidues>
 VAL166  LYS551  ARG553  GLY616  TRP617  ASP618  TYR619  PRO620  LYS621  CYS622 
 ASP623  PHE694  ASN695  SER759  ASP760  ASP761  ALA762  ILE779  LEU786  VAL792 
 PHE793  MET794  SER795  GLU796  ALA797  LYS798  CYS799  TRP800  GLU811  SER814 

> <Gold.Protein.RotatedAtoms>
  150.7016  134.4513  159.5337 H   0  0  0  0  0  0  0  0  0  0  0  0  # atno 6907 bound_to 6896
  152.2205  134.8414  160.0495 H   0  0  0  0  0  0  0  0  0  0  0  0  # atno 6908 bound_to 6896
  151.9267  133.3565  159.3953 H   0  0  0  0  0  0  0  0  0  0  0  0  # atno 6909 bound_to 6896
  146.1613  139.6792  142.9031 H   0  0  0  0  0  0  0  0  0  0  0  0  # atno 7974 bound_to 7965
  154.5173  140.0796  156.8105 H   0  0  0  0  0  0  0  0  0  0  0  0  # atno 8008 bound_to 7997
  155.3653  140.3420  155.4223 H   0  0  0  0  0  0  0  0  0  0  0  0  # atno 8009 bound_to 7997
  156.1642  140.1598  156.8548 H   0  0  0  0  0  0  0  0  0  0  0  0  # atno 8010 bound_to 7997
  139.7864  144.6869  150.9952 H   0  0  0  0  0  0  0  0  0  0  0  0  # atno 10167 bound_to 10162
  156.6121  130.4852  149.6197 H   0  0  0  0  0  0  0  0  0  0  0  0  # atno 10718 bound_to 10713
  154.8728  135.4051  154.3166 H   0  0  0  0  0  0  0  0  0  0  0  0  # atno 10763 bound_to 10752
  153.4001  135.7018  153.6437 H   0  0  0  0  0  0  0  0  0  0  0  0  # atno 10764 bound_to 10752
  153.5184  135.3692  155.2591 H   0  0  0  0  0  0  0  0  0  0  0  0  # atno 10765 bound_to 10752
  141.1328  133.6631  156.5391 H   0  0  0  0  0  0  0  0  0  0  0  0  # atno 11005 bound_to 11000
  145.4580  141.0431  143.2767 LP  0  0  0  0  0  0  0  0  0  0  0  0  # atno 17320 bound_to 7965
  144.8031  139.6103  143.7063 LP  0  0  0  0  0  0  0  0  0  0  0  0  # atno 17321 bound_to 7965
  140.7819  143.4428  151.0527 LP  0  0  0  0  0  0  0  0  0  0  0  0  # atno 17342 bound_to 10162
  139.8106  143.7956  152.3171 LP  0  0  0  0  0  0  0  0  0  0  0  0  # atno 17343 bound_to 10162
  156.2381  130.6835  151.1529 LP  0  0  0  0  0  0  0  0  0  0  0  0  # atno 17370 bound_to 10713
  157.7251  131.0655  150.5966 LP  0  0  0  0  0  0  0  0  0  0  0  0  # atno 17371 bound_to 10713
  140.4154  134.7235  157.4860 LP  0  0  0  0  0  0  0  0  0  0  0  0  # atno 17394 bound_to 11000
  140.0397  134.6285  155.8996 LP  0  0  0  0  0  0  0  0  0  0  0  0  # atno 17395 bound_to 11000

$$$$
