AV-unprocessed.smi:1875|AV-procd|sdf|7616|dock3
  -GOLD-   22720 9343D 1   1.00000     0.00000
 Structure written by MMmdl.
 49 51  0  0  0  0  0  0  0  0  3 V2000
  145.9038  134.1505  151.6642 C   0  0  0  0  0  0  0  0  0  0  0  0
  146.9120  133.3473  152.4592 C   0  0  0  0  0  0  0  0  0  0  0  0
  146.8230  132.0161  152.3824 N   0  0  0  0  0  0  0  0  0  0  0  0
  147.7215  131.3000  153.0926 C   0  0  0  0  0  0  0  0  0  0  0  0
  148.7164  131.9243  153.8724 C   0  0  0  0  0  0  0  0  0  0  0  0
  148.7129  133.3349  153.8745 C   0  0  0  0  0  0  0  0  0  0  0  0
  149.7451  134.1242  154.6584 C   0  0  0  0  0  0  0  0  0  0  0  0
  149.5618  135.5819  154.4955 N   0  3  0  0  0  0  0  0  0  0  0  0
  150.6582  136.4107  155.0419 C   0  0  0  0  0  0  0  0  0  0  0  0
  150.2800  137.9030  155.0675 C   0  0  2  0  0  0  0  0  0  0  0  0
  149.9847  138.3265  153.7527 O   0  0  0  0  0  0  0  0  0  0  0  0
  151.3987  138.8136  155.6156 C   0  0  0  0  0  0  0  0  0  0  0  0
  150.9511  140.1877  155.8803 N   0  0  0  0  0  0  0  0  0  0  0  0
  150.0520  140.9628  155.2130 C   0  0  0  0  0  0  0  0  0  0  0  0
  149.9888  142.1624  155.8543 N   0  3  0  0  0  0  0  0  0  0  0  0
  150.8506  142.1495  156.9533 C   0  0  0  0  0  0  0  0  0  0  0  0
  151.1287  143.1238  157.9044 C   0  0  0  0  0  0  0  0  0  0  0  0
  152.0617  142.7927  158.9131 C   0  0  0  0  0  0  0  0  0  0  0  0
  152.3861  143.8350  159.9697 C   0  0  0  0  0  0  0  0  0  0  0  0
  152.6828  141.5171  158.9436 C   0  0  0  0  0  0  0  0  0  0  0  0
  153.6811  141.1710  160.0355 C   0  0  0  0  0  0  0  0  0  0  0  0
  152.3890  140.5407  157.9645 C   0  0  0  0  0  0  0  0  0  0  0  0
  151.4675  140.8838  156.9784 C   0  0  0  0  0  0  0  0  0  0  0  0
  147.8071  134.0450  153.1650 N   0  0  0  0  0  0  0  0  0  0  0  0
  145.3043  133.5101  151.0156 H   0  0  0  0  0  0  0  0  0  0  0  0
  146.4111  134.8856  151.0387 H   0  0  0  0  0  0  0  0  0  0  0  0
  145.2289  134.6791  152.3380 H   0  0  0  0  0  0  0  0  0  0  0  0
  147.6499  130.2241  153.0348 H   0  0  0  0  0  0  0  0  0  0  0  0
  149.4367  131.3491  154.4354 H   0  0  0  0  0  0  0  0  0  0  0  0
  149.7116  133.8581  155.7161 H   0  0  0  0  0  0  0  0  0  0  0  0
  150.7393  133.8573  154.2992 H   0  0  0  0  0  0  0  0  0  0  0  0
  149.4875  135.7818  153.5082 H   0  0  0  0  0  0  0  0  0  0  0  0
  150.8667  136.0739  156.0564 H   0  0  0  0  0  0  0  0  0  0  0  0
  151.5677  136.2546  154.4601 H   0  0  0  0  0  0  0  0  0  0  0  0
  149.3821  138.0348  155.6723 H   0  0  0  0  0  0  0  0  0  0  0  0
  149.7323  137.5741  153.2388 H   0  0  0  0  0  0  0  0  0  0  0  0
  151.7852  138.4139  156.5543 H   0  0  0  0  0  0  0  0  0  0  0  0
  152.2433  138.8558  154.9261 H   0  0  0  0  0  0  0  0  0  0  0  0
  149.4934  140.6809  154.3317 H   0  0  0  0  0  0  0  0  0  0  0  0
  150.6511  144.0926  157.8767 H   0  0  0  0  0  0  0  0  0  0  0  0
  152.1229  143.4686  160.9622 H   0  0  0  0  0  0  0  0  0  0  0  0
  151.8350  144.7603  159.7989 H   0  0  0  0  0  0  0  0  0  0  0  0
  153.4498  144.0743  159.9583 H   0  0  0  0  0  0  0  0  0  0  0  0
  154.0511  140.1508  159.9302 H   0  0  0  0  0  0  0  0  0  0  0  0
  153.2187  141.2561  161.0192 H   0  0  0  0  0  0  0  0  0  0  0  0
  154.5389  141.8429  159.9964 H   0  0  0  0  0  0  0  0  0  0  0  0
  152.8608  139.5693  157.9883 H   0  0  0  0  0  0  0  0  0  0  0  0
  148.6963  135.8483  154.9426 H   0  0  0  0  0  0  0  0  0  0  0  0
  149.3943  142.9295  155.5665 H   0  0  0  0  0  0  0  0  0  0  0  0
  1  2  1  0  0  0  0
  1 25  1  0  0  0  0
  1 26  1  0  0  0  0
  1 27  1  0  0  0  0
  2 24  1  0  0  0  0
  2  3  2  0  0  0  0
  3  4  1  0  0  0  0
  4  5  2  0  0  0  0
  4 28  1  0  0  0  0
  5  6  1  0  0  0  0
  5 29  1  0  0  0  0
  6  7  1  0  0  0  0
  6 24  2  0  0  0  0
  7  8  1  0  0  0  0
  7 30  1  0  0  0  0
  7 31  1  0  0  0  0
  8  9  1  0  0  0  0
  8 32  1  0  0  0  0
  8 48  1  0  0  0  0
  9 10  1  0  0  0  0
  9 33  1  0  0  0  0
  9 34  1  0  0  0  0
 10 11  1  0  0  0  0
 10 12  1  0  0  0  0
 10 35  1  0  0  0  0
 11 36  1  0  0  0  0
 12 13  1  0  0  0  0
 12 37  1  0  0  0  0
 12 38  1  0  0  0  0
 13 23  1  0  0  0  0
 13 14  1  0  0  0  0
 14 15  2  0  0  0  0
 14 39  1  0  0  0  0
 15 16  1  0  0  0  0
 15 49  1  0  0  0  0
 16 23  2  0  0  0  0
 16 17  1  0  0  0  0
 17 18  2  0  0  0  0
 17 40  1  0  0  0  0
 18 19  1  0  0  0  0
 18 20  1  0  0  0  0
 19 41  1  0  0  0  0
 19 42  1  0  0  0  0
 19 43  1  0  0  0  0
 20 21  1  0  0  0  0
 20 22  2  0  0  0  0
 21 44  1  0  0  0  0
 21 45  1  0  0  0  0
 21 46  1  0  0  0  0
 22 23  1  0  0  0  0
 22 47  1  0  0  0  0
M  CHG  1   8   1
M  CHG  1  15   1
M  END
> <s_m_source_file>
AV-unprocessed.smi

> <i_m_source_file_index>
1875

> <i_lp_mmshare_version>
43012

> <i_f3d_flags>
0

> <s_epik_input>
W0NIM11jMW5bY0hdW2NIXWMobjEpW0NIMl1bTkhdW0NIMl1bQ0BIXShbT0hdKVtDSDJdbihbY0hdbjIpYyhjMjMpW2NIXWMoW0NIM10pYyhbY0hdMylbQ0gzXQ==

> <s_epik_cmdline>
J2VwaWtfcHl0aG9uJywgJy1waCcsICc3LjAnLCAnLXRuJywgJzgnLCAnLW1hJywgJzIwMCcsICctbWV0YWxfYmluZGluZycsICctaW1hZScsICc8aW5maWxlLm1hZT4nLCAnLW9tYWUnLCAnPG91dGZpbGUubWFlPic=

> <r_lp_tautomer_probability>
1

> <r_epik_Ionization_Penalty>
1.27527

> <r_epik_Ionization_Penalty_Charging>
1.27526

> <r_epik_Ionization_Penalty_Neutral>
8.72389e-06

> <r_epik_State_Penalty>
1.28654

> <r_epik_Charging_Adjusted_Penalty>
2.5618

> <i_epik_Tot_Q>
2

> <i_epik_Tot_abs_Q>
2

> <r_epik_Metal_State_Penalty>
1.36882

> <b_epik_Metal_Only>
0

> <s_epik_Chemistry_Notes>
This compound contains an electron-poor aromatic ring that is susceptible to covalent hydrolysis at low pH, typically resulting in measured values for nitrogen ring protonation that are around two units higher than predicted values.

> <s_lp_Force_Field>
OPLS_2005

> <r_lp_Energy>
13.455

> <b_lp_Chiralities_Consistent>
1

> <s_lp_Variant>
AV-unprocessed.smi:1875-5

> <Gold.Version>
5.8.1

> <Gold.Id.Protein>
6NUR|6NUR_protein|mol2

> <Gold.PLP.Fitness>
61.1755

> <Gold.PLP.PLP>
-46.9381

> <Gold.PLP.part.hbond>
-3.6675

> <Gold.PLP.part.metal>
0.0000

> <Gold.PLP.part.buried>
-5.4370

> <Gold.PLP.part.nonpolar>
-40.3921

> <Gold.PLP.part.repulsive>
2.4682

> <Gold.PLP.ligand.clash>
0.0000

> <Gold.PLP.ligand.torsion>
0.4493

> <Gold.PLP.Chemscore.Hbond>
5.0000

> <Gold.PLP.Chemscore.CHOScore>
0.0000

> <Gold.PLP.Chemscore.Metal>
0.0000

> <Gold.Chemscore.Hbonds>
donor molecule, donor type, donor heavy atom, donor atom, acceptor molecule, acceptor atom, score
      L1  H     8    32       P1  7948  2.00
      L1  H    11    36       P1  7948  0.99
      L1  H    15    49       P1  8028  2.00

> <Gold.PLP.Chemscore.Internal.Correction>
0.1361

> <Gold.Rescore>
     Score         DG    S(hbond)    S(metal)    S(lipo)     H(rot)  DE(clash)    DE(int)     intcor
     20.65     -21.10       2.93        0.00     112.89       2.88       0.06       0.39       ----

> <Gold.Chemscore.Fitness>
20.6479

> <Gold.Chemscore.DG>
-21.0993

> <Gold.Chemscore.ZeroCoef>
-5.4800

> <Gold.Chemscore.Hbond>
2.9321

> <Gold.Chemscore.Metal>
0.0000

> <Gold.Chemscore.Lipo>
112.8922

> <Gold.Chemscore.Internal_Hbond>
0.0000

> <Gold.Chemscore.DEClash>
0.0639

> <Gold.Chemscore.DEInternal>
0.3875

> <Gold.Chemscore.Rot>
2.8838

> <Gold.Chemscore.Internal.Correction>
   9.000000E+99

> <Gold.Chemscore.Hbonds>
donor molecule, donor type, donor heavy atom, donor atom, acceptor molecule, acceptor atom, score
      L1  H     8    32       P1  7948  0.30
      L1  H    11    36       P1  7948  0.60
      L1  H    15    49       P1  8028  0.95

> <Gold.Chemscore.Hbond.Weighted>
-9.7933

> <Gold.Chemscore.Metal.Weighted>
-0.0000

> <Gold.Chemscore.Lipo.Weighted>
-13.2084

> <Gold.Chemscore.Internal_Hbond.Weighted>
0.0000

> <Gold.Chemscore.DEClash.Weighted>
0.0639

> <Gold.Chemscore.DEInternal.Weighted>
0.3875

> <Gold.Chemscore.Rot.Weighted>
7.3824

> <Gold.Chemscore.Internal.Correction.Weighted>
   9.000000E+99

> <Gold.Protein.RotatedTorsions>
[ 6907 6896 6895 6894 ] final   54.73 input  -60.11 | X-H torsion
[ 7974 7965 7964 7962 ] final -179.84 input  175.53 | X-H torsion
[ 8008 7997 7996 7995 ] final  -27.77 input   59.86 | X-H torsion
[ 10167 10162 10161 10158 ] final -104.51 input  -65.29 | X-H torsion
[ 10718 10713 10712 10709 ] final  176.85 input   66.30 | X-H torsion
[ 10763 10752 10751 10750 ] final  119.15 input  -60.55 | X-H torsion
[ 11005 11000 10999 10996 ] final   27.13 input  -57.11 | X-H torsion

> <Gold.Protein.ActiveResidues>
 VAL166  LYS551  ARG553  GLY616  TRP617  ASP618  TYR619  PRO620  LYS621  CYS622 
 ASP623  PHE694  ASN695  SER759  ASP760  ASP761  ALA762  ILE779  LEU786  VAL792 
 PHE793  MET794  SER795  GLU796  ALA797  LYS798  CYS799  TRP800  GLU811  SER814 

> <Gold.Protein.RotatedAtoms>
  152.3469  134.7059  160.0247 H   0  0  0  0  0  0  0  0  0  0  0  0  # atno 6907 bound_to 6896
  151.7426  133.3317  159.3378 H   0  0  0  0  0  0  0  0  0  0  0  0  # atno 6908 bound_to 6896
  150.7515  134.6197  159.6174 H   0  0  0  0  0  0  0  0  0  0  0  0  # atno 6909 bound_to 6896
  144.7139  140.0657  143.6431 H   0  0  0  0  0  0  0  0  0  0  0  0  # atno 7974 bound_to 7965
  154.4362  140.1863  156.0985 H   0  0  0  0  0  0  0  0  0  0  0  0  # atno 8008 bound_to 7997
  156.0311  140.3330  155.7114 H   0  0  0  0  0  0  0  0  0  0  0  0  # atno 8009 bound_to 7997
  155.5838  140.0624  157.2767 H   0  0  0  0  0  0  0  0  0  0  0  0  # atno 8010 bound_to 7997
  140.2085  143.3764  152.1070 H   0  0  0  0  0  0  0  0  0  0  0  0  # atno 10167 bound_to 10162
  156.9141  130.9919  151.3016 H   0  0  0  0  0  0  0  0  0  0  0  0  # atno 10718 bound_to 10713
  153.5786  135.3488  155.2866 H   0  0  0  0  0  0  0  0  0  0  0  0  # atno 10763 bound_to 10752
  154.8671  135.4176  154.2645 H   0  0  0  0  0  0  0  0  0  0  0  0  # atno 10764 bound_to 10752
  153.3427  135.7051  153.6924 H   0  0  0  0  0  0  0  0  0  0  0  0  # atno 10765 bound_to 10752
  140.3295  134.2453  155.7704 H   0  0  0  0  0  0  0  0  0  0  0  0  # atno 11005 bound_to 11000
  145.9826  139.2953  143.1033 LP  0  0  0  0  0  0  0  0  0  0  0  0  # atno 17320 bound_to 7965
  145.8994  140.9253  143.0511 LP  0  0  0  0  0  0  0  0  0  0  0  0  # atno 17321 bound_to 7965
  139.5189  144.7012  151.5488 LP  0  0  0  0  0  0  0  0  0  0  0  0  # atno 17342 bound_to 10162
  140.6340  143.9020  150.6630 LP  0  0  0  0  0  0  0  0  0  0  0  0  # atno 17343 bound_to 10162
  157.5949  130.8470  149.8714 LP  0  0  0  0  0  0  0  0  0  0  0  0  # atno 17370 bound_to 10713
  156.0522  130.3715  150.1175 LP  0  0  0  0  0  0  0  0  0  0  0  0  # atno 17371 bound_to 10713
  141.2067  133.7827  157.0163 LP  0  0  0  0  0  0  0  0  0  0  0  0  # atno 17394 bound_to 11000
  140.0872  134.9613  157.1719 LP  0  0  0  0  0  0  0  0  0  0  0  0  # atno 17395 bound_to 11000

$$$$
