#       Name:                AV-unprocessed.smi:1697
#       Creating user name   scv26
#       Creation time:       Fri Mar 27 07:58:10 2020


#       File generated by GOLD software.
#

@<TRIPOS>MOLECULE
AV-unprocessed.smi:1697
    59    61     1
SMALL
NO_CHARGES


@<TRIPOS>ATOM
      1 ****        -3.9188   6.6826  -0.3048 C.3            1 S1                 0.0000
      2 ****        -3.8225   5.1554  -0.3264 C.3            1 S1                 0.0000
      3 ****        -2.8303   4.7754  -1.2685 O.3            1 S1                 0.0000
      4 ****        -2.6671   3.3719  -1.4216 C.3            1 S1                 0.0000
      5 ****        -1.8162   2.7790  -0.2833 C.3            1 S1                 0.0000
      6 ****        -1.5025   1.2948  -0.5393 C.3            1 S1                 0.0000
      7 ****        -0.8236   1.1059  -1.8498 N.4            1 S1                 1.0000
      8 ****        -0.3927  -0.2947  -2.0993 C.3            1 S1                 0.0000
      9 ****         0.8513  -0.7077  -1.2850 C.3            1 S1                 0.0000
     10 ****         1.9535   0.0885  -1.6782 O.3            1 S1                 0.0000
     11 ****         1.2037  -2.1911  -1.5143 C.3            1 S1                 0.0000
     12 ****         2.3896  -2.6217  -0.7617 N.pl3          1 S1                 0.0000
     13 ****         3.6853  -2.7388  -1.1617 C.2            1 S1                 0.0000
     14 ****         4.4064  -3.1800  -0.0940 N.pl3          1 S1                 1.0000
     15 ****         3.5587  -3.3487   1.0030 C.ar           1 S1                 0.0000
     16 ****         3.8201  -3.7759   2.2995 C.ar           1 S1                 0.0000
     17 ****         2.7247  -3.8415   3.1902 C.ar           1 S1                 0.0000
     18 ****         2.9754  -4.3076   4.6143 C.3            1 S1                 0.0000
     19 ****         1.4182  -3.4812   2.7689 C.ar           1 S1                 0.0000
     20 ****         0.2482  -3.5555   3.7353 C.3            1 S1                 0.0000
     21 ****         1.1731  -3.0477   1.4462 C.ar           1 S1                 0.0000
     22 ****         2.2632  -2.9918   0.5813 C.ar           1 S1                 0.0000
     23 ****        -1.6435   1.6428  -2.9667 C.3            1 S1                 0.0000
     24 ****        -1.9547   3.1337  -2.7603 C.3            1 S1                 0.0000
     25 ****        -4.6705   7.0154   0.4114 H              1 S1                 0.0000
     26 ****        -4.1963   7.0715  -1.2849 H              1 S1                 0.0000
     27 ****        -2.9658   7.1317  -0.0235 H              1 S1                 0.0000
     28 ****        -3.5728   4.7898   0.6697 H              1 S1                 0.0000
     29 ****        -4.7880   4.7295  -0.6031 H              1 S1                 0.0000
     30 ****        -3.6420   2.8820  -1.4554 H              1 S1                 0.0000
     31 ****        -0.8836   3.3380  -0.1922 H              1 S1                 0.0000
     32 ****        -2.3301   2.8771   0.6727 H              1 S1                 0.0000
     33 ****        -0.8772   0.9265   0.2728 H              1 S1                 0.0000
     34 ****        -2.4232   0.7092  -0.5173 H              1 S1                 0.0000
     35 ****        -1.2263  -0.9661  -1.8867 H              1 S1                 0.0000
     36 ****        -0.1647  -0.4233  -3.1588 H              1 S1                 0.0000
     37 ****         0.6825  -0.5538  -0.2201 H              1 S1                 0.0000
     38 ****         1.8095   0.9774  -1.3918 H              1 S1                 0.0000
     39 ****         0.3690  -2.8390  -1.2431 H              1 S1                 0.0000
     40 ****         1.4048  -2.3745  -2.5709 H              1 S1                 0.0000
     41 ****         4.0720  -2.5197  -2.1467 H              1 S1                 0.0000
     42 ****         4.8174  -4.0476   2.6135 H              1 S1                 0.0000
     43 ****         2.3797  -5.1927   4.8387 H              1 S1                 0.0000
     44 ****         2.7132  -3.5238   5.3254 H              1 S1                 0.0000
     45 ****         4.0236  -4.5637   4.7717 H              1 S1                 0.0000
     46 ****        -0.6792  -3.2266   3.2658 H              1 S1                 0.0000
     47 ****         0.4256  -2.9195   4.6026 H              1 S1                 0.0000
     48 ****         0.1017  -4.5794   4.0799 H              1 S1                 0.0000
     49 ****         0.1788  -2.7748   1.1256 H              1 S1                 0.0000
     50 ****        -1.1098   1.5199  -3.9099 H              1 S1                 0.0000
     51 ****        -2.5696   1.0715  -3.0489 H              1 S1                 0.0000
     52 ****        -2.5735   3.5003  -3.5802 H              1 S1                 0.0000
     53 ****        -1.0272   3.7076  -2.7931 H              1 S1                 0.0000
     54 ****         0.0180   1.6638  -1.8310 H              1 S1                 0.0000
     55 ****         5.4031  -3.3541  -0.1162 H              1 S1                 0.0000
     56 ****        -1.9560   5.1608  -0.9734 LP             1 S1                 0.0000
     57 ****        -3.0807   5.1592  -2.1573 LP             1 S1                 0.0000
     58 ****         2.0437   0.0677  -2.6739 LP             1 S1                 0.0000
     59 ****         2.7896  -0.2669  -1.2603 LP             1 S1                 0.0000
@<TRIPOS>BOND
    1    1    2 1     
    2    1   25 1     
    3    1   26 1     
    4    1   27 1     
    5    2    3 1     
    6    2   28 1     
    7    2   29 1     
    8    3    4 1     
    9    4   24 1     
   10    4    5 1     
   11    4   30 1     
   12    5    6 1     
   13    5   31 1     
   14    5   32 1     
   15    6    7 1     
   16    6   33 1     
   17    6   34 1     
   18    7    8 1     
   19    7   23 1     
   20    7   54 1     
   21    8    9 1     
   22    8   35 1     
   23    8   36 1     
   24    9   10 1     
   25    9   11 1     
   26    9   37 1     
   27   10   38 1     
   28   11   12 1     
   29   11   39 1     
   30   11   40 1     
   31   12   22 1     
   32   12   13 1     
   33   13   14 2     
   34   13   41 1     
   35   14   15 1     
   36   14   55 1     
   37   15   22 ar    
   38   15   16 ar    
   39   16   17 ar    
   40   16   42 1     
   41   17   18 1     
   42   17   19 ar    
   43   18   43 1     
   44   18   44 1     
   45   18   45 1     
   46   19   20 1     
   47   19   21 ar    
   48   20   46 1     
   49   20   47 1     
   50   20   48 1     
   51   21   22 ar    
   52   21   49 1     
   53   23   24 1     
   54   23   50 1     
   55   23   51 1     
   56   24   52 1     
   57   24   53 1     
   58    3   56 1     
   59    3   57 1     
   60   10   58 1     
   61   10   59 1     
@<TRIPOS>SUBSTRUCTURE
      1 S1             1
@<TRIPOS>SET
LONE_PAIRS      STATIC     ATOMS    <user>   **** ""
4 56 57 58 59
DONOR_HYDROGENS      STATIC     ATOMS    <user>   **** ""
3 54 38 55
ATOM$BLUE        STATIC     ATOMS    COLORGROUP SYSTEM
4 56 57 58 59
ATOM$RED        STATIC     ATOMS    COLORGROUP SYSTEM
3 54 38 55
