AV-unprocessed.smi:2317|AV-procd|sdf|9272|dock6
  -GOLD-   2272012493D 1   1.00000     0.00000
 Structure written by MMmdl.
 37 38  0  0  0  0  0  0  0  0  1 V2000
  144.8402  137.2541  152.1346 O   0  0  0  0  0  0  0  0  0  0  0  0
  146.0275  136.9494  152.0267 C   0  0  0  0  0  0  0  0  0  0  0  0
  147.0330  137.8166  152.2161 N   0  0  0  0  0  0  0  0  0  0  0  0
  146.8858  139.2189  152.5978 C   0  0  0  0  0  0  0  0  0  0  0  0
  147.5729  139.5414  153.9446 C   0  0  1  0  0  0  0  0  0  0  0  0
  148.7422  138.5880  154.2845 C   0  0  0  0  0  0  0  0  0  0  0  0
  149.3711  138.9223  155.6471 C   0  0  0  0  0  0  0  0  0  0  0  0
  149.8331  140.3851  155.7095 C   0  0  0  0  0  0  0  0  0  0  0  0
  148.6802  141.3478  155.3773 C   0  0  0  0  0  0  0  0  0  0  0  0
  148.0252  141.0212  154.0211 C   0  0  1  0  0  0  0  0  0  0  0  0
  148.9335  141.3346  152.9814 O   0  0  0  0  0  0  0  0  0  0  0  0
  146.4950  135.7342  151.6921 N   0  0  0  0  0  0  0  0  0  0  0  0
  145.7777  134.5358  151.4203 C   0  0  0  0  0  0  0  0  0  0  0  0
  144.4810  134.4871  150.8524 C   0  0  0  0  0  0  0  0  0  0  0  0
  143.8781  133.2289  150.6513 C   0  0  0  0  0  0  0  0  0  0  0  0
  144.4680  132.0599  150.9778 N   0  0  0  0  0  0  0  0  0  0  0  0
  145.6991  132.1098  151.5287 C   0  0  0  0  0  0  0  0  0  0  0  0
  146.3899  133.3138  151.7721 C   0  0  0  0  0  0  0  0  0  0  0  0
  147.6231  133.2920  152.3332 F   0  0  0  0  0  0  0  0  0  0  0  0
  147.9768  137.4789  152.0966 H   0  0  0  0  0  0  0  0  0  0  0  0
  147.2558  139.8767  151.8098 H   0  0  0  0  0  0  0  0  0  0  0  0
  145.8170  139.4184  152.6782 H   0  0  0  0  0  0  0  0  0  0  0  0
  146.8186  139.4065  154.7216 H   0  0  0  0  0  0  0  0  0  0  0  0
  148.3978  137.5543  154.3050 H   0  0  0  0  0  0  0  0  0  0  0  0
  149.5033  138.6410  153.5050 H   0  0  0  0  0  0  0  0  0  0  0  0
  148.6452  138.7354  156.4393 H   0  0  0  0  0  0  0  0  0  0  0  0
  150.2149  138.2589  155.8388 H   0  0  0  0  0  0  0  0  0  0  0  0
  150.2279  140.6075  156.7013 H   0  0  0  0  0  0  0  0  0  0  0  0
  150.6557  140.5387  155.0100 H   0  0  0  0  0  0  0  0  0  0  0  0
  147.9262  141.2825  156.1628 H   0  0  0  0  0  0  0  0  0  0  0  0
  149.0385  142.3780  155.3863 H   0  0  0  0  0  0  0  0  0  0  0  0
  147.1567  141.6676  153.8899 H   0  0  0  0  0  0  0  0  0  0  0  0
  149.0696  140.5606  152.4566 H   0  0  0  0  0  0  0  0  0  0  0  0
  147.4959  135.6640  151.5803 H   0  0  0  0  0  0  0  0  0  0  0  0
  143.9335  135.3750  150.5786 H   0  0  0  0  0  0  0  0  0  0  0  0
  142.8900  133.1609  150.2211 H   0  0  0  0  0  0  0  0  0  0  0  0
  146.1467  131.1613  151.7858 H   0  0  0  0  0  0  0  0  0  0  0  0
  1  2  2  0  0  0  0
  2  3  1  0  0  0  0
  2 12  1  0  0  0  0
  3  4  1  0  0  0  0
  3 20  1  0  0  0  0
  4  5  1  0  0  0  0
  4 21  1  0  0  0  0
  4 22  1  0  0  0  0
  5 10  1  0  0  0  0
  5  6  1  0  0  0  0
  5 23  1  0  0  0  0
  6  7  1  0  0  0  0
  6 24  1  0  0  0  0
  6 25  1  0  0  0  0
  7  8  1  0  0  0  0
  7 26  1  0  0  0  0
  7 27  1  0  0  0  0
  8  9  1  0  0  0  0
  8 28  1  0  0  0  0
  8 29  1  0  0  0  0
  9 10  1  0  0  0  0
  9 30  1  0  0  0  0
  9 31  1  0  0  0  0
 10 11  1  0  0  0  0
 10 32  1  0  0  0  0
 11 33  1  0  0  0  0
 12 13  1  0  0  0  0
 12 34  1  0  0  0  0
 13 18  1  0  0  0  0
 13 14  2  0  0  0  0
 14 15  1  0  0  0  0
 14 35  1  0  0  0  0
 15 16  2  0  0  0  0
 15 36  1  0  0  0  0
 16 17  1  0  0  0  0
 17 18  2  0  0  0  0
 17 37  1  0  0  0  0
 18 19  1  0  0  0  0
M  END
> <s_m_source_file>
AV-unprocessed.smi

> <i_m_source_file_index>
2317

> <i_lp_mmshare_version>
43012

> <i_f3d_flags>
0

> <s_epik_input>
RmMxW2NIXW5bY0hdW2NIXWMxW05IXUMoPU8pW05IXVtDSDJdW0NAQEhdMltDSDJdW0NIMl1bQ0gyXVtDSDJdW0NASF0yW09IXQ==

> <s_epik_cmdline>
J2VwaWtfcHl0aG9uJywgJy1waCcsICc3LjAnLCAnLXRuJywgJzgnLCAnLW1hJywgJzIwMCcsICctbWV0YWxfYmluZGluZycsICctaW1hZScsICc8aW5maWxlLm1hZT4nLCAnLW9tYWUnLCAnPG91dGZpbGUubWFlPic=

> <r_epik_Ionization_Penalty>
0.00317647

> <r_epik_Ionization_Penalty_Charging>
0

> <r_epik_Ionization_Penalty_Neutral>
0.00317647

> <r_epik_State_Penalty>
0.0022093

> <r_epik_Charging_Adjusted_Penalty>
0.0022093

> <i_epik_Tot_Q>
0

> <i_epik_Tot_abs_Q>
0

> <r_epik_Metal_State_Penalty>
-0

> <b_epik_Metal_Only>
0

> <s_lp_Force_Field>
OPLS_2005

> <r_lp_Energy>
21.0871

> <b_lp_Chiralities_Consistent>
1

> <s_lp_Variant>
AV-unprocessed.smi:2317-2

> <Gold.Version>
5.8.1

> <Gold.Id.Protein>
6NUR|6NUR_protein|mol2

> <Gold.PLP.Fitness>
43.8467

> <Gold.PLP.PLP>
-30.3780

> <Gold.PLP.part.hbond>
-3.7080

> <Gold.PLP.part.metal>
0.0000

> <Gold.PLP.part.buried>
-2.1120

> <Gold.PLP.part.nonpolar>
-25.1472

> <Gold.PLP.part.repulsive>
1.3025

> <Gold.PLP.ligand.clash>
0.0000

> <Gold.PLP.ligand.torsion>
0.6043

> <Gold.PLP.Chemscore.Hbond>
3.8880

> <Gold.PLP.Chemscore.CHOScore>
1.0000

> <Gold.PLP.Chemscore.Metal>
0.0000

> <Gold.Chemscore.Hbonds>
donor molecule, donor type, donor heavy atom, donor atom, acceptor molecule, acceptor atom, score
      L1  H     3    20       P1  7948  0.98
      L1  H    11    33       P1  7957  0.80
      L1  H    12    34       P1  7948  1.00
      P1  H  8011  8017       L1    11  0.98
      L1  C    15    36       P1 10186  1.00

> <Gold.PLP.Chemscore.Internal.Correction>
0.0133

> <Gold.Rescore>
     Score         DG    S(hbond)    S(metal)    S(lipo)     H(rot)  DE(clash)    DE(int)     intcor
     18.84     -19.70       3.22        0.00      68.56       1.79       0.08       0.78       ----

> <Gold.Chemscore.Fitness>
18.8351

> <Gold.Chemscore.DG>
-19.6955

> <Gold.Chemscore.ZeroCoef>
-5.4800

> <Gold.Chemscore.Hbond>
3.2228

> <Gold.Chemscore.Metal>
0.0000

> <Gold.Chemscore.Lipo>
68.5630

> <Gold.Chemscore.Internal_Hbond>
0.0000

> <Gold.Chemscore.DEClash>
0.0766

> <Gold.Chemscore.DEInternal>
0.7838

> <Gold.Chemscore.Rot>
1.7853

> <Gold.Chemscore.Internal.Correction>
   9.000000E+99

> <Gold.Chemscore.Hbonds>
donor molecule, donor type, donor heavy atom, donor atom, acceptor molecule, acceptor atom, score
      L1  H     3    20       P1  7948  0.91
      L1  H    11    33       P1  7957  0.75
      L1  H    12    34       P1  7948  0.89
      P1  H  8011  8017       L1    11  0.45

> <Gold.Chemscore.Hbond.Weighted>
-10.7640

> <Gold.Chemscore.Metal.Weighted>
-0.0000

> <Gold.Chemscore.Lipo.Weighted>
-8.0219

> <Gold.Chemscore.Internal_Hbond.Weighted>
0.0000

> <Gold.Chemscore.DEClash.Weighted>
0.0766

> <Gold.Chemscore.DEInternal.Weighted>
0.7838

> <Gold.Chemscore.Rot.Weighted>
4.5704

> <Gold.Chemscore.Internal.Correction.Weighted>
   9.000000E+99

> <Gold.Protein.RotatedTorsions>
[ 6907 6896 6895 6894 ] final   69.28 input  -60.11 | X-H torsion
[ 7974 7965 7964 7962 ] final   98.06 input  175.53 | X-H torsion
[ 8008 7997 7996 7995 ] final   85.27 input   59.86 | X-H torsion
[ 10167 10162 10161 10158 ] final -115.41 input  -65.29 | X-H torsion
[ 10718 10713 10712 10709 ] final   98.36 input   66.30 | X-H torsion
[ 10763 10752 10751 10750 ] final  -39.73 input  -60.55 | X-H torsion
[ 11005 11000 10999 10996 ] final  -21.75 input  -57.11 | X-H torsion

> <Gold.Protein.ActiveResidues>
 VAL166  LYS551  ARG553  GLY616  TRP617  ASP618  TYR619  PRO620  LYS621  CYS622 
 ASP623  PHE694  ASN695  SER759  ASP760  ASP761  ALA762  ILE779  LEU786  VAL792 
 PHE793  MET794  SER795  GLU796  ALA797  LYS798  CYS799  TRP800  GLU811  SER814 

> <Gold.Protein.RotatedAtoms>
  152.4676  134.5038  159.9732 H   0  0  0  0  0  0  0  0  0  0  0  0  # atno 6907 bound_to 6896
  151.5072  133.3486  159.2887 H   0  0  0  0  0  0  0  0  0  0  0  0  # atno 6908 bound_to 6896
  150.8668  134.8062  159.7187 H   0  0  0  0  0  0  0  0  0  0  0  0  # atno 6909 bound_to 6896
  145.4173  139.2326  143.3216 H   0  0  0  0  0  0  0  0  0  0  0  0  # atno 7974 bound_to 7965
  155.9478  140.3403  155.6382 H   0  0  0  0  0  0  0  0  0  0  0  0  # atno 8008 bound_to 7997
  155.6958  140.0754  157.2448 H   0  0  0  0  0  0  0  0  0  0  0  0  # atno 8009 bound_to 7997
  154.4115  140.1649  156.2124 H   0  0  0  0  0  0  0  0  0  0  0  0  # atno 8010 bound_to 7997
  140.0904  143.4705  152.1873 H   0  0  0  0  0  0  0  0  0  0  0  0  # atno 10167 bound_to 10162
  157.6897  131.0638  150.4785 H   0  0  0  0  0  0  0  0  0  0  0  0  # atno 10718 bound_to 10713
  153.9343  135.6768  153.4745 H   0  0  0  0  0  0  0  0  0  0  0  0  # atno 10763 bound_to 10752
  153.0964  135.4849  154.8783 H   0  0  0  0  0  0  0  0  0  0  0  0  # atno 10764 bound_to 10752
  154.7411  135.3161  154.8683 H   0  0  0  0  0  0  0  0  0  0  0  0  # atno 10765 bound_to 10752
  140.8592  133.7801  156.0054 H   0  0  0  0  0  0  0  0  0  0  0  0  # atno 11005 bound_to 11000
  146.2675  140.4892  142.8828 LP  0  0  0  0  0  0  0  0  0  0  0  0  # atno 17320 bound_to 7965
  144.8269  140.6643  143.6316 LP  0  0  0  0  0  0  0  0  0  0  0  0  # atno 17321 bound_to 7965
  139.5728  144.7472  151.3845 LP  0  0  0  0  0  0  0  0  0  0  0  0  # atno 17342 bound_to 10162
  140.7031  143.7581  150.7437 LP  0  0  0  0  0  0  0  0  0  0  0  0  # atno 17343 bound_to 10162
  156.5118  130.4141  149.6297 LP  0  0  0  0  0  0  0  0  0  0  0  0  # atno 17370 bound_to 10713
  156.3233  130.7292  151.2208 LP  0  0  0  0  0  0  0  0  0  0  0  0  # atno 17371 bound_to 10713
  140.8703  134.2735  157.5194 LP  0  0  0  0  0  0  0  0  0  0  0  0  # atno 17394 bound_to 11000
  139.8706  134.9563  156.4235 LP  0  0  0  0  0  0  0  0  0  0  0  0  # atno 17395 bound_to 11000

$$$$
