#       Name:                AV-unprocessed.smi:1724
#       Creating user name   scv26
#       Creation time:       Fri Mar 27 08:16:20 2020


#       File generated by GOLD software.
#

@<TRIPOS>MOLECULE
AV-unprocessed.smi:1724
    44    45     1
SMALL
NO_CHARGES


@<TRIPOS>ATOM
      1 ****         0.2522   1.0037  -0.8840 O.2            1 S1                 0.0000
      2 ****        -0.3094  -0.0844  -1.0071 C.2            1 S1                 0.0000
      3 ****         0.3517  -1.2501  -1.0567 N.am           1 S1                 0.0000
      4 ****         1.8023  -1.4092  -0.9949 C.3            1 S1                 0.0000
      5 ****         2.2848  -1.8804   0.3926 C.3            1 S1                 0.0000
      6 ****         1.9703  -0.8752   1.5172 C.3            1 S1                 0.0000
      7 ****         2.5619  -1.3604   2.8454 C.3            1 S1                 0.0000
      8 ****         4.0560  -1.6768   2.6848 C.3            1 S1                 0.0000
      9 ****         4.2346  -2.6374   1.6503 O.3            1 S1                 0.0000
     10 ****         3.7998  -2.1709   0.3770 C.3            1 S1                 0.0000
     11 ****        -1.6371  -0.2865  -1.0932 N.am           1 S1                 0.0000
     12 ****        -2.6912   0.6441  -1.1014 C.2            1 S1                 0.0000
     13 ****        -2.5448   1.9914  -1.2383 C.2            1 S1                 0.0000
     14 ****        -3.6818   2.9031  -1.2517 C.2            1 S1                 0.0000
     15 ****        -3.5478   4.4147  -1.3036 C.3            1 S1                 0.0000
     16 ****        -4.5031   5.0063  -0.5861 F              1 S1                 0.0000
     17 ****        -2.3640   4.8060  -0.8318 F              1 S1                 0.0000
     18 ****        -3.6528   4.8362  -2.5630 F              1 S1                 0.0000
     19 ****        -4.8856   2.2425  -1.1023 C.2            1 S1                 0.0000
     20 ****        -5.1197   0.9171  -0.9874 N.pl3          1 S1                -1.0000
     21 ****        -4.0491   0.0736  -0.9764 C.2            1 S1                 0.0000
     22 ****        -4.1914  -1.1449  -0.8667 O.2            1 S1                 0.0000
     23 ****        -0.1924  -2.0951  -1.1507 H              1 S1                 0.0000
     24 ****         2.0770  -2.1503  -1.7460 H              1 S1                 0.0000
     25 ****         2.3120  -0.4877  -1.2822 H              1 S1                 0.0000
     26 ****         1.7730  -2.8158   0.6251 H              1 S1                 0.0000
     27 ****         2.3846   0.1025   1.2666 H              1 S1                 0.0000
     28 ****         0.8942  -0.7397   1.6282 H              1 S1                 0.0000
     29 ****         2.4161  -0.6069   3.6199 H              1 S1                 0.0000
     30 ****         2.0341  -2.2558   3.1761 H              1 S1                 0.0000
     31 ****         4.6248  -0.7730   2.4603 H              1 S1                 0.0000
     32 ****         4.4554  -2.0817   3.6149 H              1 S1                 0.0000
     33 ****         4.0271  -2.9383  -0.3635 H              1 S1                 0.0000
     34 ****         4.3663  -1.2821   0.0941 H              1 S1                 0.0000
     35 ****        -1.9397  -1.2486  -1.1386 H              1 S1                 0.0000
     36 ****        -1.5718   2.4362  -1.3606 H              1 S1                 0.0000
     37 ****        -5.7981   2.8750  -1.0648 H              1 S1                 0.0000
     38 ****         1.2490   1.0470  -0.8157 LP             1 S1                 0.0000
     39 ****        -0.2881   1.8445  -0.8524 LP             1 S1                 0.0000
     40 ****         3.7134  -3.4582   1.8840 LP             1 S1                 0.0000
     41 ****         5.2065  -2.8654   1.5913 LP             1 S1                 0.0000
     42 ****        -6.0525   0.5645  -0.9125 LP             1 S1                 0.0000
     43 ****        -3.3903  -1.7435  -0.8625 LP             1 S1                 0.0000
     44 ****        -5.1079  -1.5357  -0.7819 LP             1 S1                 0.0000
@<TRIPOS>BOND
    1    1    2 2     
    2    2    3 am    
    3    2   11 am    
    4    3    4 1     
    5    3   23 1     
    6    4    5 1     
    7    4   24 1     
    8    4   25 1     
    9    5   10 1     
   10    5    6 1     
   11    5   26 1     
   12    6    7 1     
   13    6   27 1     
   14    6   28 1     
   15    7    8 1     
   16    7   29 1     
   17    7   30 1     
   18    8    9 1     
   19    8   31 1     
   20    8   32 1     
   21    9   10 1     
   22   10   33 1     
   23   10   34 1     
   24   11   12 1     
   25   11   35 1     
   26   12   21 1     
   27   12   13 2     
   28   13   14 1     
   29   13   36 1     
   30   14   15 1     
   31   14   19 2     
   32   15   16 1     
   33   15   17 1     
   34   15   18 1     
   35   19   20 1     
   36   19   37 1     
   37   20   21 1     
   38   21   22 2     
   39    1   38 1     
   40    1   39 1     
   41    9   40 1     
   42    9   41 1     
   43   20   42 1     
   44   22   43 1     
   45   22   44 1     
@<TRIPOS>SUBSTRUCTURE
      1 S1             1
@<TRIPOS>SET
LONE_PAIRS      STATIC     ATOMS    <user>   **** ""
7 38 39 40 41 42 43 44
DONOR_HYDROGENS      STATIC     ATOMS    <user>   **** ""
2 23 35
ATOM$BLUE        STATIC     ATOMS    COLORGROUP SYSTEM
7 38 39 40 41 42 43 44
ATOM$RED        STATIC     ATOMS    COLORGROUP SYSTEM
2 23 35
