AV-unprocessed.smi:2057|AV-procd|sdf|8342|dock9
  -GOLD-   2272011 13D 1   1.00000     0.00000
 Structure written by MMmdl.
 45 47  0  0  0  0  0  0  0  0  2 V2000
  151.7748  145.5467  159.7653 C   0  0  0  0  0  0  0  0  0  0  0  0
  151.1074  144.5563  158.9965 O   0  0  0  0  0  0  0  0  0  0  0  0
  151.5764  143.2614  159.0559 C   0  0  0  0  0  0  0  0  0  0  0  0
  152.1979  142.8597  160.2524 C   0  0  0  0  0  0  0  0  0  0  0  0
  152.6955  141.5530  160.4040 C   0  0  0  0  0  0  0  0  0  0  0  0
  152.5875  140.6120  159.3504 C   0  0  0  0  0  0  0  0  0  0  0  0
  153.0391  139.3107  159.4462 O   0  0  0  0  0  0  0  0  0  0  0  0
  153.7688  138.9307  160.6036 C   0  0  0  0  0  0  0  0  0  0  0  0
  151.9793  141.0136  158.1360 C   0  0  0  0  0  0  0  0  0  0  0  0
  151.8461  140.0202  156.9854 C   0  0  2  0  0  0  0  0  0  0  0  0
  153.0429  139.3110  156.7246 O   0  0  0  0  0  0  0  0  0  0  0  0
  151.3586  140.7243  155.7040 C   0  0  0  0  0  0  0  0  0  0  0  0
  150.3651  139.9344  154.9613 N   0  0  0  0  0  0  0  0  0  0  0  0
  150.4500  138.6634  154.4748 C   0  0  0  0  0  0  0  0  0  0  0  0
  151.6253  137.7454  154.5947 C   0  0  0  0  0  0  0  0  0  0  0  0
  151.3726  136.4462  154.1018 O   0  0  0  0  0  0  0  0  0  0  0  0
  149.2617  138.3868  153.8653 N   0  3  0  0  0  0  0  0  0  0  0  0
  148.4122  139.4896  153.9602 C   0  0  0  0  0  0  0  0  0  0  0  0
  147.1151  139.6832  153.4953 C   0  0  0  0  0  0  0  0  0  0  0  0
  146.5292  140.9389  153.7587 C   0  0  0  0  0  0  0  0  0  0  0  0
  147.2294  141.9435  154.4577 C   0  0  0  0  0  0  0  0  0  0  0  0
  148.5436  141.7349  154.9251 C   0  0  0  0  0  0  0  0  0  0  0  0
  149.1153  140.4900  154.6624 C   0  0  0  0  0  0  0  0  0  0  0  0
  151.4693  142.3251  157.9997 C   0  0  0  0  0  0  0  0  0  0  0  0
  151.2892  146.5101  159.6104 H   0  0  0  0  0  0  0  0  0  0  0  0
  152.8174  145.6506  159.4621 H   0  0  0  0  0  0  0  0  0  0  0  0
  151.7288  145.3228  160.8320 H   0  0  0  0  0  0  0  0  0  0  0  0
  152.2896  143.5610  161.0689 H   0  0  0  0  0  0  0  0  0  0  0  0
  153.1547  141.2972  161.3465 H   0  0  0  0  0  0  0  0  0  0  0  0
  154.0322  137.8756  160.5309 H   0  0  0  0  0  0  0  0  0  0  0  0
  153.1758  139.0600  161.5099 H   0  0  0  0  0  0  0  0  0  0  0  0
  154.6968  139.4971  160.6934 H   0  0  0  0  0  0  0  0  0  0  0  0
  151.1188  139.2593  157.2687 H   0  0  0  0  0  0  0  0  0  0  0  0
  152.8270  138.5326  156.2339 H   0  0  0  0  0  0  0  0  0  0  0  0
  150.8816  141.6709  155.9612 H   0  0  0  0  0  0  0  0  0  0  0  0
  152.1911  140.9763  155.0468 H   0  0  0  0  0  0  0  0  0  0  0  0
  152.4703  138.1690  154.0511 H   0  0  0  0  0  0  0  0  0  0  0  0
  151.9169  137.6759  155.6430 H   0  0  0  0  0  0  0  0  0  0  0  0
  151.1691  136.5097  153.1808 H   0  0  0  0  0  0  0  0  0  0  0  0
  146.5776  138.9157  152.9579 H   0  0  0  0  0  0  0  0  0  0  0  0
  145.5236  141.1361  153.4162 H   0  0  0  0  0  0  0  0  0  0  0  0
  146.7497  142.8945  154.6383 H   0  0  0  0  0  0  0  0  0  0  0  0
  149.0726  142.5140  155.4535 H   0  0  0  0  0  0  0  0  0  0  0  0
  150.9906  142.5984  157.0720 H   0  0  0  0  0  0  0  0  0  0  0  0
  149.0548  137.5038  153.4164 H   0  0  0  0  0  0  0  0  0  0  0  0
  1  2  1  0  0  0  0
  1 25  1  0  0  0  0
  1 26  1  0  0  0  0
  1 27  1  0  0  0  0
  2  3  1  0  0  0  0
  3 24  1  0  0  0  0
  3  4  2  0  0  0  0
  4  5  1  0  0  0  0
  4 28  1  0  0  0  0
  5  6  2  0  0  0  0
  5 29  1  0  0  0  0
  6  7  1  0  0  0  0
  6  9  1  0  0  0  0
  7  8  1  0  0  0  0
  8 30  1  0  0  0  0
  8 31  1  0  0  0  0
  8 32  1  0  0  0  0
  9 10  1  0  0  0  0
  9 24  2  0  0  0  0
 10 11  1  0  0  0  0
 10 12  1  0  0  0  0
 10 33  1  0  0  0  0
 11 34  1  0  0  0  0
 12 13  1  0  0  0  0
 12 35  1  0  0  0  0
 12 36  1  0  0  0  0
 13 23  1  0  0  0  0
 13 14  1  0  0  0  0
 14 15  1  0  0  0  0
 14 17  2  0  0  0  0
 15 16  1  0  0  0  0
 15 37  1  0  0  0  0
 15 38  1  0  0  0  0
 16 39  1  0  0  0  0
 17 18  1  0  0  0  0
 17 45  1  0  0  0  0
 18 23  2  0  0  0  0
 18 19  1  0  0  0  0
 19 20  2  0  0  0  0
 19 40  1  0  0  0  0
 20 21  1  0  0  0  0
 20 41  1  0  0  0  0
 21 22  2  0  0  0  0
 21 42  1  0  0  0  0
 22 23  1  0  0  0  0
 22 43  1  0  0  0  0
 24 44  1  0  0  0  0
M  CHG  1  17   1
M  END
> <s_m_source_file>
AV-unprocessed.smi

> <i_m_source_file_index>
2057

> <i_lp_mmshare_version>
43012

> <i_f3d_flags>
0

> <s_epik_input>
W0NIM11PYzFbY0hdW2NIXWMoT1tDSDNdKWMoW2NIXTEpW0NASF0oW09IXSlbQ0gyXW4oYyhuMilbQ0gyXVtPSF0pYyhjMjMpW2NIXVtjSF1bY0hdW2NIXTM=

> <s_epik_cmdline>
J2VwaWtfcHl0aG9uJywgJy1waCcsICc3LjAnLCAnLXRuJywgJzgnLCAnLW1hJywgJzIwMCcsICctbWV0YWxfYmluZGluZycsICctaW1hZScsICc8aW5maWxlLm1hZT4nLCAnLW9tYWUnLCAnPG91dGZpbGUubWFlPic=

> <r_lp_tautomer_probability>
1

> <r_epik_Ionization_Penalty>
1.35643

> <r_epik_Ionization_Penalty_Charging>
1.35557

> <r_epik_Ionization_Penalty_Neutral>
0.000857128

> <r_epik_State_Penalty>
1.43401

> <r_epik_Charging_Adjusted_Penalty>
2.78958

> <i_epik_Tot_Q>
1

> <i_epik_Tot_abs_Q>
1

> <r_epik_Metal_State_Penalty>
5.47166

> <b_epik_Metal_Only>
0

> <s_lp_Force_Field>
OPLS_2005

> <r_lp_Energy>
20.8096

> <b_lp_Chiralities_Consistent>
1

> <s_lp_Variant>
AV-unprocessed.smi:2057-3

> <Gold.Version>
5.8.1

> <Gold.Id.Protein>
6NUR|6NUR_protein|mol2

> <Gold.PLP.Fitness>
63.8525

> <Gold.PLP.PLP>
-51.2457

> <Gold.PLP.part.hbond>
-4.9366

> <Gold.PLP.part.metal>
0.0000

> <Gold.PLP.part.buried>
-1.8208

> <Gold.PLP.part.nonpolar>
-46.0069

> <Gold.PLP.part.repulsive>
0.1564

> <Gold.PLP.ligand.clash>
0.0166

> <Gold.PLP.ligand.torsion>
1.2316

> <Gold.PLP.Chemscore.Hbond>
5.0000

> <Gold.PLP.Chemscore.CHOScore>
0.0000

> <Gold.PLP.Chemscore.Metal>
0.0000

> <Gold.Chemscore.Hbonds>
donor molecule, donor type, donor heavy atom, donor atom, acceptor molecule, acceptor atom, score
      L1  H    16    39       P1  7949  1.00
      L1  H    17    45       P1  7948  2.00
      P1  H  7997  8010       L1    11  1.00
      P1  H 10752 10765       L1    16  1.00

> <Gold.PLP.Chemscore.Internal.Correction>
0.0866

> <Gold.Rescore>
     Score         DG    S(hbond)    S(metal)    S(lipo)     H(rot)  DE(clash)    DE(int)     intcor
     22.04     -24.56       3.53        0.00     133.64       3.25       0.35       2.17       ----

> <Gold.Chemscore.Fitness>
22.0355

> <Gold.Chemscore.DG>
-24.5598

> <Gold.Chemscore.ZeroCoef>
-5.4800

> <Gold.Chemscore.Hbond>
3.5251

> <Gold.Chemscore.Metal>
0.0000

> <Gold.Chemscore.Lipo>
133.6370

> <Gold.Chemscore.Internal_Hbond>
0.0000

> <Gold.Chemscore.DEClash>
0.3536

> <Gold.Chemscore.DEInternal>
2.1707

> <Gold.Chemscore.Rot>
3.2537

> <Gold.Chemscore.Internal.Correction>
   9.000000E+99

> <Gold.Chemscore.Hbonds>
donor molecule, donor type, donor heavy atom, donor atom, acceptor molecule, acceptor atom, score
      L1  H    16    39       P1  7949  0.49
      L1  H    17    45       P1  7948  0.94
      P1  H  7997  8010       L1    11  0.93
      P1  H 10752 10765       L1    16  0.31

> <Gold.Chemscore.Hbond.Weighted>
-11.7738

> <Gold.Chemscore.Metal.Weighted>
-0.0000

> <Gold.Chemscore.Lipo.Weighted>
-15.6355

> <Gold.Chemscore.Internal_Hbond.Weighted>
0.0000

> <Gold.Chemscore.DEClash.Weighted>
0.3536

> <Gold.Chemscore.DEInternal.Weighted>
2.1707

> <Gold.Chemscore.Rot.Weighted>
8.3295

> <Gold.Chemscore.Internal.Correction.Weighted>
   9.000000E+99

> <Gold.Protein.RotatedTorsions>
[ 6907 6896 6895 6894 ] final   47.93 input  -60.11 | X-H torsion
[ 7974 7965 7964 7962 ] final  -25.65 input  175.53 | X-H torsion
[ 8008 7997 7996 7995 ] final   56.60 input   59.86 | X-H torsion
[ 10167 10162 10161 10158 ] final   99.70 input  -65.29 | X-H torsion
[ 10718 10713 10712 10709 ] final   74.04 input   66.30 | X-H torsion
[ 10763 10752 10751 10750 ] final  172.37 input  -60.55 | X-H torsion
[ 11005 11000 10999 10996 ] final  142.80 input  -57.11 | X-H torsion

> <Gold.Protein.ActiveResidues>
 VAL166  LYS551  ARG553  GLY616  TRP617  ASP618  TYR619  PRO620  LYS621  CYS622 
 ASP623  PHE694  ASN695  SER759  ASP760  ASP761  ALA762  ILE779  LEU786  VAL792 
 PHE793  MET794  SER795  GLU796  ALA797  LYS798  CYS799  TRP800  GLU811  SER814 

> <Gold.Protein.RotatedAtoms>
  152.2737  134.7905  160.0409 H   0  0  0  0  0  0  0  0  0  0  0  0  # atno 6907 bound_to 6896
  151.8508  133.3434  159.3681 H   0  0  0  0  0  0  0  0  0  0  0  0  # atno 6908 bound_to 6896
  150.7162  134.5229  159.5706 H   0  0  0  0  0  0  0  0  0  0  0  0  # atno 6909 bound_to 6896
  146.1477  140.4915  142.8625 H   0  0  0  0  0  0  0  0  0  0  0  0  # atno 7974 bound_to 7965
  155.5201  140.3479  155.4405 H   0  0  0  0  0  0  0  0  0  0  0  0  # atno 8008 bound_to 7997
  156.0790  140.1382  156.9763 H   0  0  0  0  0  0  0  0  0  0  0  0  # atno 8009 bound_to 7997
  154.4569  140.0950  156.6759 H   0  0  0  0  0  0  0  0  0  0  0  0  # atno 8010 bound_to 7997
  139.7594  144.6959  151.0315 H   0  0  0  0  0  0  0  0  0  0  0  0  # atno 10167 bound_to 10162
  157.6575  130.9658  150.1154 H   0  0  0  0  0  0  0  0  0  0  0  0  # atno 10718 bound_to 10713
  154.4251  135.2758  155.1949 H   0  0  0  0  0  0  0  0  0  0  0  0  # atno 10763 bound_to 10752
  154.3879  135.6073  153.5830 H   0  0  0  0  0  0  0  0  0  0  0  0  # atno 10764 bound_to 10752
  152.9834  135.5896  154.4554 H   0  0  0  0  0  0  0  0  0  0  0  0  # atno 10765 bound_to 10752
  140.0504  134.9258  157.1007 H   0  0  0  0  0  0  0  0  0  0  0  0  # atno 11005 bound_to 11000
  144.7866  140.5949  143.6569 LP  0  0  0  0  0  0  0  0  0  0  0  0  # atno 17320 bound_to 7965
  145.4898  139.1489  143.3716 LP  0  0  0  0  0  0  0  0  0  0  0  0  # atno 17321 bound_to 7965
  140.7806  143.4715  151.0140 LP  0  0  0  0  0  0  0  0  0  0  0  0  # atno 17342 bound_to 10162
  139.8401  143.7575  152.3180 LP  0  0  0  0  0  0  0  0  0  0  0  0  # atno 17343 bound_to 10162
  156.2040  130.3662  149.8753 LP  0  0  0  0  0  0  0  0  0  0  0  0  # atno 17370 bound_to 10713
  156.6649  130.8797  151.3553 LP  0  0  0  0  0  0  0  0  0  0  0  0  # atno 17371 bound_to 10713
  140.3926  134.2168  155.7165 LP  0  0  0  0  0  0  0  0  0  0  0  0  # atno 17394 bound_to 11000
  141.1927  133.8166  157.0827 LP  0  0  0  0  0  0  0  0  0  0  0  0  # atno 17395 bound_to 11000

$$$$
