AV-unprocessed.smi:155|AV-procd|sdf|1286|dock8
  -GOLD-   2262018563D 1   1.00000     0.00000
 Structure written by MMmdl.
 64 67  0  0  0  0  0  0  0  0  3 V2000
  146.2142  132.8953  150.4852 C   0  0  0  0  0  0  0  0  0  0  0  0
  146.4911  131.7638  151.3996 N   0  3  0  0  0  0  0  0  0  0  0  0
  145.7314  130.5540  151.0129 C   0  0  0  0  0  0  0  0  0  0  0  0
  146.3021  132.1094  152.8312 C   0  0  0  0  0  0  0  0  0  0  0  0
  146.9356  133.4668  153.2028 C   0  0  0  0  0  0  0  0  0  0  0  0
  147.7740  133.3899  154.4288 N   0  3  1  0  0  0  0  0  0  0  0  0
  147.1050  132.6761  155.5496 C   0  0  0  0  0  0  0  0  0  0  0  0
  147.3210  133.4291  156.8741 C   0  0  0  0  0  0  0  0  0  0  0  0
  148.7515  133.3206  157.4309 C   0  0  0  0  0  0  0  0  0  0  0  0
  149.7688  133.7352  156.4667 N   0  0  0  0  0  0  0  0  0  0  0  0
  150.1051  135.0491  156.2868 C   0  0  0  0  0  0  0  0  0  0  0  0
  150.6253  135.4071  155.0813 N   0  0  0  0  0  0  0  0  0  0  0  0
  150.9752  136.6693  154.8248 C   0  0  0  0  0  0  0  0  0  0  0  0
  150.8856  137.7332  155.6200 N   0  0  0  0  0  0  0  0  0  0  0  0
  150.3670  137.3974  156.8340 C   0  0  0  0  0  0  0  0  0  0  0  0
  149.9547  136.0961  157.2519 C   0  0  0  0  0  0  0  0  0  0  0  0
  149.4758  136.1722  158.5572 N   0  0  0  0  0  0  0  0  0  0  0  0
  149.6016  137.4273  158.8881 C   0  0  0  0  0  0  0  0  0  0  0  0
  150.1302  138.2341  157.9101 N   0  0  0  0  0  0  0  0  0  0  0  0
  150.3755  139.6635  158.0061 C   0  0  0  0  0  0  0  0  0  0  0  0
  151.8802  140.0028  158.0709 C   0  0  1  0  0  0  0  0  0  0  0  0
  152.4704  139.6313  156.8398 O   0  0  0  0  0  0  0  0  0  0  0  0
  152.1545  141.5048  158.2878 C   0  0  1  0  0  0  0  0  0  0  0  0
  151.4196  142.4402  157.3262 C   0  0  0  0  0  0  0  0  0  0  0  0
  151.3692  143.7558  158.0834 C   0  0  0  0  0  0  0  0  0  0  0  0
  151.5703  143.3440  159.5434 C   0  0  0  0  0  0  0  0  0  0  0  0
  151.6106  141.9231  159.5312 O   0  0  0  0  0  0  0  0  0  0  0  0
  150.0585  132.7663  155.4052 C   0  0  0  0  0  0  0  0  0  0  0  0
  149.1593  132.9114  154.1559 C   0  0  0  0  0  0  0  0  0  0  0  0
  145.1765  133.2211  150.5680 H   0  0  0  0  0  0  0  0  0  0  0  0
  146.3961  132.6043  149.4500 H   0  0  0  0  0  0  0  0  0  0  0  0
  146.8589  133.7470  150.6998 H   0  0  0  0  0  0  0  0  0  0  0  0
  144.6580  130.7129  151.1250 H   0  0  0  0  0  0  0  0  0  0  0  0
  146.0176  129.7016  151.6298 H   0  0  0  0  0  0  0  0  0  0  0  0
  145.9307  130.2880  149.9741 H   0  0  0  0  0  0  0  0  0  0  0  0
  145.2392  132.0852  153.0753 H   0  0  0  0  0  0  0  0  0  0  0  0
  146.7790  131.3359  153.4360 H   0  0  0  0  0  0  0  0  0  0  0  0
  147.5679  133.7705  152.3671 H   0  0  0  0  0  0  0  0  0  0  0  0
  146.1778  134.2421  153.3224 H   0  0  0  0  0  0  0  0  0  0  0  0
  146.0293  132.6252  155.3788 H   0  0  0  0  0  0  0  0  0  0  0  0
  147.4408  131.6399  155.6152 H   0  0  0  0  0  0  0  0  0  0  0  0
  147.0419  134.4751  156.7455 H   0  0  0  0  0  0  0  0  0  0  0  0
  146.6353  133.0301  157.6221 H   0  0  0  0  0  0  0  0  0  0  0  0
  148.8548  133.8632  158.3687 H   0  0  0  0  0  0  0  0  0  0  0  0
  148.9424  132.2809  157.6997 H   0  0  0  0  0  0  0  0  0  0  0  0
  151.3857  136.8526  153.8425 H   0  0  0  0  0  0  0  0  0  0  0  0
  149.3110  137.8013  159.8593 H   0  0  0  0  0  0  0  0  0  0  0  0
  149.9088  140.1608  157.1550 H   0  0  0  0  0  0  0  0  0  0  0  0
  149.8618  140.0264  158.8963 H   0  0  0  0  0  0  0  0  0  0  0  0
  152.3448  139.4258  158.8714 H   0  0  0  0  0  0  0  0  0  0  0  0
  152.0247  138.8657  156.5111 H   0  0  0  0  0  0  0  0  0  0  0  0
  153.2253  141.7178  158.2593 H   0  0  0  0  0  0  0  0  0  0  0  0
  151.9153  142.5306  156.3593 H   0  0  0  0  0  0  0  0  0  0  0  0
  150.4043  142.0797  157.1542 H   0  0  0  0  0  0  0  0  0  0  0  0
  152.1711  144.4228  157.7647 H   0  0  0  0  0  0  0  0  0  0  0  0
  150.4205  144.2700  157.9266 H   0  0  0  0  0  0  0  0  0  0  0  0
  152.5157  143.7308  159.9262 H   0  0  0  0  0  0  0  0  0  0  0  0
  150.7691  143.7002  160.1907 H   0  0  0  0  0  0  0  0  0  0  0  0
  151.1118  132.7991  155.1234 H   0  0  0  0  0  0  0  0  0  0  0  0
  149.9166  131.7661  155.8162 H   0  0  0  0  0  0  0  0  0  0  0  0
  149.1292  131.9611  153.6212 H   0  0  0  0  0  0  0  0  0  0  0  0
  149.6387  133.6243  153.4860 H   0  0  0  0  0  0  0  0  0  0  0  0
  147.4663  131.5271  151.2830 H   0  0  0  0  0  0  0  0  0  0  0  0
  147.8650  134.3425  154.7520 H   0  0  0  0  0  0  0  0  0  0  0  0
  1  2  1  0  0  0  0
  1 30  1  0  0  0  0
  1 31  1  0  0  0  0
  1 32  1  0  0  0  0
  2  3  1  0  0  0  0
  2  4  1  0  0  0  0
  2 63  1  0  0  0  0
  3 33  1  0  0  0  0
  3 34  1  0  0  0  0
  3 35  1  0  0  0  0
  4  5  1  0  0  0  0
  4 36  1  0  0  0  0
  4 37  1  0  0  0  0
  5  6  1  0  0  0  0
  5 38  1  0  0  0  0
  5 39  1  0  0  0  0
  6 29  1  0  0  0  0
  6  7  1  0  0  0  0
  6 64  1  0  0  0  0
  7  8  1  0  0  0  0
  7 40  1  0  0  0  0
  7 41  1  0  0  0  0
  8  9  1  0  0  0  0
  8 42  1  0  0  0  0
  8 43  1  0  0  0  0
  9 10  1  0  0  0  0
  9 44  1  0  0  0  0
  9 45  1  0  0  0  0
 10 11  1  0  0  0  0
 10 28  1  0  0  0  0
 11 16  1  0  0  0  0
 11 12  2  0  0  0  0
 12 13  1  0  0  0  0
 13 14  2  0  0  0  0
 13 46  1  0  0  0  0
 14 15  1  0  0  0  0
 15 19  1  0  0  0  0
 15 16  2  0  0  0  0
 16 17  1  0  0  0  0
 17 18  2  0  0  0  0
 18 19  1  0  0  0  0
 18 47  1  0  0  0  0
 19 20  1  0  0  0  0
 20 21  1  0  0  0  0
 20 48  1  0  0  0  0
 20 49  1  0  0  0  0
 21 22  1  0  0  0  0
 21 23  1  0  0  0  0
 21 50  1  0  0  0  0
 22 51  1  0  0  0  0
 23 27  1  0  0  0  0
 23 24  1  0  0  0  0
 23 52  1  0  0  0  0
 24 25  1  0  0  0  0
 24 53  1  0  0  0  0
 24 54  1  0  0  0  0
 25 26  1  0  0  0  0
 25 55  1  0  0  0  0
 25 56  1  0  0  0  0
 26 27  1  0  0  0  0
 26 57  1  0  0  0  0
 26 58  1  0  0  0  0
 28 29  1  0  0  0  0
 28 59  1  0  0  0  0
 28 60  1  0  0  0  0
 29 61  1  0  0  0  0
 29 62  1  0  0  0  0
M  CHG  1   2   1
M  CHG  1   6   1
M  END
> <s_m_source_file>
AV-unprocessed.smi

> <i_m_source_file_index>
155

> <i_lp_mmshare_version>
43012

> <i_f3d_flags>
0

> <s_epik_input>
W0NIM11OKFtDSDNdKVtDSDJdW0NIMl1OMVtDSDJdW0NIMl1bQ0gyXU4oW0NIMl1bQ0gyXTEpYyhuW2NIXW4yKWMoYzIzKW5bY0hdbjNbQ0gyXVtDQEhdKFtPSF0pW0NAQEhdNFtDSDJdW0NIMl1bQ0gyXU80

> <s_epik_cmdline>
J2VwaWtfcHl0aG9uJywgJy1waCcsICc3LjAnLCAnLXRuJywgJzgnLCAnLW1hJywgJzIwMCcsICctbWV0YWxfYmluZGluZycsICctaW1hZScsICc8aW5maWxlLm1hZT4nLCAnLW9tYWUnLCAnPG91dGZpbGUubWFlPic=

> <r_lp_tautomer_probability>
1

> <r_epik_Ionization_Penalty>
3.0333

> <r_epik_Ionization_Penalty_Charging>
3.03317

> <r_epik_Ionization_Penalty_Neutral>
0.000131872

> <r_epik_State_Penalty>
1.99939

> <r_epik_Charging_Adjusted_Penalty>
5.03256

> <i_epik_Tot_Q>
2

> <i_epik_Tot_abs_Q>
2

> <r_epik_Metal_State_Penalty>
2.00021

> <b_epik_Metal_Only>
0

> <s_lp_Force_Field>
OPLS_2005

> <r_lp_Energy>
62.6942

> <b_lp_Chiralities_Consistent>
1

> <s_lp_Variant>
AV-unprocessed.smi:155-20

> <Gold.Version>
5.8.1

> <Gold.Id.Protein>
6NUR|6NUR_protein|mol2

> <Gold.PLP.Fitness>
50.8087

> <Gold.PLP.PLP>
-39.9026

> <Gold.PLP.part.hbond>
-3.7185

> <Gold.PLP.part.metal>
0.0000

> <Gold.PLP.part.buried>
-7.2532

> <Gold.PLP.part.nonpolar>
-28.5859

> <Gold.PLP.part.repulsive>
0.2086

> <Gold.PLP.ligand.clash>
0.0000

> <Gold.PLP.ligand.torsion>
0.8778

> <Gold.PLP.Chemscore.Hbond>
3.0655

> <Gold.PLP.Chemscore.CHOScore>
0.9988

> <Gold.PLP.Chemscore.Metal>
0.0000

> <Gold.Chemscore.Hbonds>
donor molecule, donor type, donor heavy atom, donor atom, acceptor molecule, acceptor atom, score
      L1  H     2    63       P1 10747  1.00
      P1  H  6896  6907       L1    17  0.44
      P1  H  7997  8009       L1    22  1.00
      L1  C    13    46       P1  7949  1.00

> <Gold.PLP.Chemscore.Internal.Correction>
0.4688

> <Gold.Rescore>
     Score         DG    S(hbond)    S(metal)    S(lipo)     H(rot)  DE(clash)    DE(int)     intcor
     17.26     -19.17       2.78        0.00      97.66       2.75       0.15       1.76       ----

> <Gold.Chemscore.Fitness>
17.2601

> <Gold.Chemscore.DG>
-19.1651

> <Gold.Chemscore.ZeroCoef>
-5.4800

> <Gold.Chemscore.Hbond>
2.7834

> <Gold.Chemscore.Metal>
0.0000

> <Gold.Chemscore.Lipo>
97.6640

> <Gold.Chemscore.Internal_Hbond>
0.0000

> <Gold.Chemscore.DEClash>
0.1463

> <Gold.Chemscore.DEInternal>
1.7587

> <Gold.Chemscore.Rot>
2.7493

> <Gold.Chemscore.Internal.Correction>
   9.000000E+99

> <Gold.Chemscore.Hbonds>
donor molecule, donor type, donor heavy atom, donor atom, acceptor molecule, acceptor atom, score
      L1  H     2    63       P1 10747  0.96
      P1  H  6896  6907       L1    17  0.12
      P1  H  7997  8009       L1    22  0.86

> <Gold.Chemscore.Hbond.Weighted>
-9.2967

> <Gold.Chemscore.Metal.Weighted>
-0.0000

> <Gold.Chemscore.Lipo.Weighted>
-11.4267

> <Gold.Chemscore.Internal_Hbond.Weighted>
0.0000

> <Gold.Chemscore.DEClash.Weighted>
0.1463

> <Gold.Chemscore.DEInternal.Weighted>
1.7587

> <Gold.Chemscore.Rot.Weighted>
7.0383

> <Gold.Chemscore.Internal.Correction.Weighted>
   9.000000E+99

> <Gold.Protein.RotatedTorsions>
[ 6907 6896 6895 6894 ] final  -38.58 input  -60.11 | X-H torsion
[ 7974 7965 7964 7962 ] final -160.53 input  175.53 | X-H torsion
[ 8008 7997 7996 7995 ] final  174.04 input   59.86 | X-H torsion
[ 10167 10162 10161 10158 ] final -109.08 input  -65.29 | X-H torsion
[ 10718 10713 10712 10709 ] final  131.78 input   66.30 | X-H torsion
[ 10763 10752 10751 10750 ] final -160.42 input  -60.55 | X-H torsion
[ 11005 11000 10999 10996 ] final -176.41 input  -57.11 | X-H torsion

> <Gold.Protein.ActiveResidues>
 VAL166  LYS551  ARG553  GLY616  TRP617  ASP618  TYR619  PRO620  LYS621  CYS622 
 ASP623  PHE694  ASN695  SER759  ASP760  ASP761  ALA762  ILE779  LEU786  VAL792 
 PHE793  MET794  SER795  GLU796  ALA797  LYS798  CYS799  TRP800  GLU811  SER814 

> <Gold.Protein.RotatedAtoms>
  151.0007  134.9320  159.7951 H   0  0  0  0  0  0  0  0  0  0  0  0  # atno 6907 bound_to 6896
  152.5277  134.3158  159.9140 H   0  0  0  0  0  0  0  0  0  0  0  0  # atno 6908 bound_to 6896
  151.3163  133.4017  159.2685 H   0  0  0  0  0  0  0  0  0  0  0  0  # atno 6909 bound_to 6896
  144.7423  140.3528  143.6112 H   0  0  0  0  0  0  0  0  0  0  0  0  # atno 7974 bound_to 7965
  156.1014  140.1444  156.9462 H   0  0  0  0  0  0  0  0  0  0  0  0  # atno 8008 bound_to 7997
  154.4705  140.0911  156.7177 H   0  0  0  0  0  0  0  0  0  0  0  0  # atno 8009 bound_to 7997
  155.4753  140.3443  155.4334 H   0  0  0  0  0  0  0  0  0  0  0  0  # atno 8010 bound_to 7997
  140.1592  143.4134  152.1438 H   0  0  0  0  0  0  0  0  0  0  0  0  # atno 10167 bound_to 10162
  157.4934  131.1091  150.9525 H   0  0  0  0  0  0  0  0  0  0  0  0  # atno 10718 bound_to 10713
  154.7391  135.3064  154.8759 H   0  0  0  0  0  0  0  0  0  0  0  0  # atno 10763 bound_to 10752
  153.9579  135.6756  153.4749 H   0  0  0  0  0  0  0  0  0  0  0  0  # atno 10764 bound_to 10752
  153.0991  135.4920  154.8758 H   0  0  0  0  0  0  0  0  0  0  0  0  # atno 10765 bound_to 10752
  140.4524  134.6331  157.4807 H   0  0  0  0  0  0  0  0  0  0  0  0  # atno 11005 bound_to 11000
  145.7259  139.1722  143.2458 LP  0  0  0  0  0  0  0  0  0  0  0  0  # atno 17320 bound_to 7965
  146.1243  140.7269  142.9443 LP  0  0  0  0  0  0  0  0  0  0  0  0  # atno 17321 bound_to 7965
  139.5389  144.7237  151.4800 LP  0  0  0  0  0  0  0  0  0  0  0  0  # atno 17342 bound_to 10162
  140.6654  143.8410  150.6935 LP  0  0  0  0  0  0  0  0  0  0  0  0  # atno 17343 bound_to 10162
  157.0219  130.5677  149.5332 LP  0  0  0  0  0  0  0  0  0  0  0  0  # atno 17370 bound_to 10713
  156.0187  130.5281  150.8211 LP  0  0  0  0  0  0  0  0  0  0  0  0  # atno 17371 bound_to 10713
  139.9998  134.6854  155.9549 LP  0  0  0  0  0  0  0  0  0  0  0  0  # atno 17394 bound_to 11000
  141.1658  133.6537  156.4474 LP  0  0  0  0  0  0  0  0  0  0  0  0  # atno 17395 bound_to 11000

$$$$
