AV-unprocessed.smi:3237|AV-procd|sdf|12372|dock10
  -GOLD-   2272018233D 1   1.00000     0.00000
 Structure written by MMmdl.
 36 38  0  0  0  0  0  0  0  0  3 V2000
  147.0494  141.9575  153.8756 C   0  0  0  0  0  0  0  0  0  0  0  0
  148.0935  140.9065  154.0367 C   0  0  0  0  0  0  0  0  0  0  0  0
  148.0463  139.5408  154.0385 C   0  0  0  0  0  0  0  0  0  0  0  0
  149.4026  139.1729  154.2457 C   0  0  0  0  0  0  0  0  0  0  0  0
  149.7792  137.8055  154.3142 N   0  0  0  0  0  0  0  0  0  0  0  0
  150.6880  137.2212  155.1161 C   0  0  0  0  0  0  0  0  0  0  0  0
  151.3328  137.8961  155.9271 O   0  0  0  0  0  0  0  0  0  0  0  0
  150.7778  135.8792  154.9019 N   0  5  0  0  0  0  0  0  0  0  0  0
  150.0097  134.8615  155.6295 C   0  0  1  0  0  0  0  0  0  0  0  0
  148.6827  135.4588  156.1118 C   0  0  0  0  0  0  0  0  0  0  0  0
  147.6797  135.2114  154.9731 C   0  0  0  0  0  0  0  0  0  0  0  0
  148.3492  134.3137  154.0056 N   0  3  2  0  0  0  0  0  0  0  0  0
  147.4642  133.3001  153.3936 C   0  0  0  0  0  0  0  0  0  0  0  0
  147.0642  133.6270  151.9750 C   0  0  0  0  0  0  0  0  0  0  0  0
  146.0732  133.8106  153.1043 C   0  0  0  0  0  0  0  0  0  0  0  0
  149.5397  133.7580  154.6762 C   0  0  0  0  0  0  0  0  0  0  0  0
  150.2055  140.2213  154.3550 N   0  0  0  0  0  0  0  0  0  0  0  0
  149.3708  141.3372  154.2220 O   0  0  0  0  0  0  0  0  0  0  0  0
  146.0520  141.5177  153.8669 H   0  0  0  0  0  0  0  0  0  0  0  0
  147.1887  142.4996  152.9404 H   0  0  0  0  0  0  0  0  0  0  0  0
  147.0943  142.6756  154.6944 H   0  0  0  0  0  0  0  0  0  0  0  0
  147.1797  138.9083  153.9145 H   0  0  0  0  0  0  0  0  0  0  0  0
  149.2886  137.1874  153.6851 H   0  0  0  0  0  0  0  0  0  0  0  0
  150.5696  134.4430  156.4667 H   0  0  0  0  0  0  0  0  0  0  0  0
  148.3514  134.9222  157.0018 H   0  0  0  0  0  0  0  0  0  0  0  0
  148.7565  136.5126  156.3852 H   0  0  0  0  0  0  0  0  0  0  0  0
  146.7642  134.7653  155.3656 H   0  0  0  0  0  0  0  0  0  0  0  0
  147.4051  136.1395  154.4697 H   0  0  0  0  0  0  0  0  0  0  0  0
  147.6234  132.2675  153.6994 H   0  0  0  0  0  0  0  0  0  0  0  0
  147.4780  134.5241  151.5175 H   0  0  0  0  0  0  0  0  0  0  0  0
  146.8972  132.7935  151.2957 H   0  0  0  0  0  0  0  0  0  0  0  0
  145.2534  133.0978  153.1684 H   0  0  0  0  0  0  0  0  0  0  0  0
  145.8276  134.8299  153.3966 H   0  0  0  0  0  0  0  0  0  0  0  0
  150.3001  133.4452  153.9593 H   0  0  0  0  0  0  0  0  0  0  0  0
  149.2509  132.8790  155.2550 H   0  0  0  0  0  0  0  0  0  0  0  0
  148.7042  134.9082  153.2701 H   0  0  0  0  0  0  0  0  0  0  0  0
  1  2  1  0  0  0  0
  1 19  1  0  0  0  0
  1 20  1  0  0  0  0
  1 21  1  0  0  0  0
  2 18  1  0  0  0  0
  2  3  2  0  0  0  0
  3  4  1  0  0  0  0
  3 22  1  0  0  0  0
  4  5  1  0  0  0  0
  4 17  2  0  0  0  0
  5  6  1  0  0  0  0
  5 23  1  0  0  0  0
  6  7  2  0  0  0  0
  6  8  1  0  0  0  0
  8  9  1  0  0  0  0
  9 16  1  0  0  0  0
  9 10  1  0  0  0  0
  9 24  1  0  0  0  0
 10 11  1  0  0  0  0
 10 25  1  0  0  0  0
 10 26  1  0  0  0  0
 11 12  1  0  0  0  0
 11 27  1  0  0  0  0
 11 28  1  0  0  0  0
 12 13  1  0  0  0  0
 12 16  1  0  0  0  0
 12 36  1  0  0  0  0
 13 15  1  0  0  0  0
 13 14  1  0  0  0  0
 13 29  1  0  0  0  0
 14 15  1  0  0  0  0
 14 30  1  0  0  0  0
 14 31  1  0  0  0  0
 15 32  1  0  0  0  0
 15 33  1  0  0  0  0
 16 34  1  0  0  0  0
 16 35  1  0  0  0  0
 17 18  1  0  0  0  0
M  CHG  1   8  -1
M  CHG  1  12   1
M  END
> <s_m_source_file>
AV-unprocessed.smi

> <i_m_source_file_index>
3237

> <i_lp_mmshare_version>
43012

> <i_f3d_flags>
0

> <s_epik_input>
W0NIM11jMVtjSF1jKG5vMSlbTkhdQyg9TylbTkhdW0NAQEhdMltDSDJdW0NIMl1OKFtDSDJdMilbQ0hdM1tDSDJdW0NIMl0z

> <s_epik_cmdline>
J2VwaWtfcHl0aG9uJywgJy1waCcsICc3LjAnLCAnLXRuJywgJzgnLCAnLW1hJywgJzIwMCcsICctbWV0YWxfYmluZGluZycsICctaW1hZScsICc8aW5maWxlLm1hZT4nLCAnLW9tYWUnLCAnPG91dGZpbGUubWFlPic=

> <r_epik_Ionization_Penalty>
6.76456

> <r_epik_Ionization_Penalty_Charging>
6.76456

> <r_epik_Ionization_Penalty_Neutral>
5.76722e-06

> <r_epik_State_Penalty>
6.78919

> <r_epik_Charging_Adjusted_Penalty>
13.5538

> <i_epik_Tot_Q>
0

> <i_epik_Tot_abs_Q>
2

> <r_epik_Metal_State_Penalty>
2.728

> <b_epik_Metal_Only>
1

> <s_lp_Force_Field>
OPLS_2005

> <r_lp_Energy>
30.7434

> <b_lp_Chiralities_Consistent>
1

> <s_lp_Variant>
AV-unprocessed.smi:3237-10

> <Gold.Version>
5.8.1

> <Gold.Id.Protein>
6NUR|6NUR_protein|mol2

> <Gold.PLP.Fitness>
46.5867

> <Gold.PLP.PLP>
-29.8160

> <Gold.PLP.part.hbond>
-5.9509

> <Gold.PLP.part.metal>
0.0000

> <Gold.PLP.part.buried>
-2.5050

> <Gold.PLP.part.nonpolar>
-21.2533

> <Gold.PLP.part.repulsive>
0.8053

> <Gold.PLP.ligand.clash>
0.0000

> <Gold.PLP.ligand.torsion>
2.2095

> <Gold.PLP.Chemscore.Hbond>
6.6238

> <Gold.PLP.Chemscore.CHOScore>
0.0000

> <Gold.PLP.Chemscore.Metal>
0.0000

> <Gold.Chemscore.Hbonds>
donor molecule, donor type, donor heavy atom, donor atom, acceptor molecule, acceptor atom, score
      L1  H     5    23       P1  7948  0.91
      L1  H    12    36       P1  7948  2.00
      P1  H  7989  7998       L1    17  0.85
      P1  H  8011  8017       L1    18  0.37
      P1  H 10752 10765       L1     8  0.75

> <Gold.PLP.Chemscore.Internal.Correction>
1.3184

> <Gold.Rescore>
     Score         DG    S(hbond)    S(metal)    S(lipo)     H(rot)  DE(clash)    DE(int)     intcor
     15.31     -18.34       3.21        0.00      45.45       1.25       0.05       2.99       ----

> <Gold.Chemscore.Fitness>
15.3119

> <Gold.Chemscore.DG>
-18.3438

> <Gold.Chemscore.ZeroCoef>
-5.4800

> <Gold.Chemscore.Hbond>
3.2145

> <Gold.Chemscore.Metal>
0.0000

> <Gold.Chemscore.Lipo>
45.4535

> <Gold.Chemscore.Internal_Hbond>
0.0000

> <Gold.Chemscore.DEClash>
0.0458

> <Gold.Chemscore.DEInternal>
2.9860

> <Gold.Chemscore.Rot>
1.2464

> <Gold.Chemscore.Internal.Correction>
   9.000000E+99

> <Gold.Chemscore.Hbonds>
donor molecule, donor type, donor heavy atom, donor atom, acceptor molecule, acceptor atom, score
      L1  H     5    23       P1  7948  0.84
      L1  H    12    36       P1  7948  0.50
      P1  H  7989  7998       L1    17  0.14
      P1  H  8011  8017       L1    18  0.12
      P1  H 10752 10765       L1     8  0.13

> <Gold.Chemscore.Hbond.Weighted>
-10.7366

> <Gold.Chemscore.Metal.Weighted>
-0.0000

> <Gold.Chemscore.Lipo.Weighted>
-5.3181

> <Gold.Chemscore.Internal_Hbond.Weighted>
0.0000

> <Gold.Chemscore.DEClash.Weighted>
0.0458

> <Gold.Chemscore.DEInternal.Weighted>
2.9860

> <Gold.Chemscore.Rot.Weighted>
3.1909

> <Gold.Chemscore.Internal.Correction.Weighted>
   9.000000E+99

> <Gold.Protein.RotatedTorsions>
[ 6907 6896 6895 6894 ] final  162.21 input  -60.11 | X-H torsion
[ 7974 7965 7964 7962 ] final   79.78 input  175.53 | X-H torsion
[ 8008 7997 7996 7995 ] final  -96.62 input   59.86 | X-H torsion
[ 10167 10162 10161 10158 ] final -138.53 input  -65.29 | X-H torsion
[ 10718 10713 10712 10709 ] final  116.85 input   66.30 | X-H torsion
[ 10763 10752 10751 10750 ] final  158.25 input  -60.55 | X-H torsion
[ 11005 11000 10999 10996 ] final -120.92 input  -57.11 | X-H torsion

> <Gold.Protein.ActiveResidues>
 VAL166  LYS551  ARG553  GLY616  TRP617  ASP618  TYR619  PRO620  LYS621  CYS622 
 ASP623  PHE694  ASN695  SER759  ASP760  ASP761  ALA762  ILE779  LEU786  VAL792 
 PHE793  MET794  SER795  GLU796  ALA797  LYS798  CYS799  TRP800  GLU811  SER814 

> <Gold.Protein.RotatedAtoms>
  151.9438  133.3646  159.3974 H   0  0  0  0  0  0  0  0  0  0  0  0  # atno 6907 bound_to 6896
  150.6993  134.4411  159.5302 H   0  0  0  0  0  0  0  0  0  0  0  0  # atno 6908 bound_to 6896
  152.2073  134.8534  160.0552 H   0  0  0  0  0  0  0  0  0  0  0  0  # atno 6909 bound_to 6896
  145.6597  139.2468  143.1930 H   0  0  0  0  0  0  0  0  0  0  0  0  # atno 7974 bound_to 7965
  154.7769  140.0470  157.1096 H   0  0  0  0  0  0  0  0  0  0  0  0  # atno 8008 bound_to 7997
  154.9752  140.3094  155.4951 H   0  0  0  0  0  0  0  0  0  0  0  0  # atno 8009 bound_to 7997
  156.2930  140.2246  156.4847 H   0  0  0  0  0  0  0  0  0  0  0  0  # atno 8010 bound_to 7997
  139.8469  143.7249  152.2660 H   0  0  0  0  0  0  0  0  0  0  0  0  # atno 10167 bound_to 10162
  157.6134  131.1030  150.7532 H   0  0  0  0  0  0  0  0  0  0  0  0  # atno 10718 bound_to 10713
  154.2131  135.2785  155.2951 H   0  0  0  0  0  0  0  0  0  0  0  0  # atno 10763 bound_to 10752
  154.5762  135.5603  153.7145 H   0  0  0  0  0  0  0  0  0  0  0  0  # atno 10764 bound_to 10752
  153.0059  135.6333  154.2270 H   0  0  0  0  0  0  0  0  0  0  0  0  # atno 10765 bound_to 10752
  141.0108  134.0267  157.3416 H   0  0  0  0  0  0  0  0  0  0  0  0  # atno 11005 bound_to 11000
  146.1135  140.7398  142.9491 LP  0  0  0  0  0  0  0  0  0  0  0  0  # atno 17320 bound_to 7965
  144.7093  140.3978  143.7093 LP  0  0  0  0  0  0  0  0  0  0  0  0  # atno 17321 bound_to 7965
  139.7504  144.7536  151.0516 LP  0  0  0  0  0  0  0  0  0  0  0  0  # atno 17342 bound_to 10162
  140.7792  143.4867  150.9946 LP  0  0  0  0  0  0  0  0  0  0  0  0  # atno 17343 bound_to 10162
  156.7904  130.4888  149.5386 LP  0  0  0  0  0  0  0  0  0  0  0  0  # atno 17370 bound_to 10713
  156.1246  130.6134  151.0244 LP  0  0  0  0  0  0  0  0  0  0  0  0  # atno 17371 bound_to 10713
  139.9089  135.0186  156.7606 LP  0  0  0  0  0  0  0  0  0  0  0  0  # atno 17394 bound_to 11000
  140.6736  133.9537  155.7870 LP  0  0  0  0  0  0  0  0  0  0  0  0  # atno 17395 bound_to 11000

$$$$
