AV-unprocessed.smi:2275|AV-procd|sdf|9170|dock4
  -GOLD-   2272012383D 1   1.00000     0.00000
 Structure written by MMmdl.
 38 39  0  0  0  0  0  0  0  0  1 V2000
  152.2671  143.4254  161.6942 C   0  0  0  0  0  0  0  0  0  0  0  0
  151.9554  142.9762  160.2776 C   0  0  0  0  0  0  0  0  0  0  0  0
  150.9559  143.7002  159.6210 N   0  0  0  0  0  0  0  0  0  0  0  0
  150.6183  143.3843  158.4136 C   0  0  0  0  0  0  0  0  0  0  0  0
  151.2330  142.3229  157.7297 N   0  0  0  0  0  0  0  0  0  0  0  0
  150.7532  142.0640  156.3620 C   0  0  0  0  0  0  0  0  0  0  0  0
  150.4584  140.5671  156.1179 C   0  0  2  0  0  0  0  0  0  0  0  0
  150.9275  140.1707  154.8445 O   0  0  0  0  0  0  0  0  0  0  0  0
  148.9594  140.2289  156.1920 C   0  0  0  0  0  0  0  0  0  0  0  0
  148.2819  140.7678  155.0627 O   0  0  0  0  0  0  0  0  0  0  0  0
  147.0396  141.3335  155.2538 C   0  0  0  0  0  0  0  0  0  0  0  0
  146.3693  141.8057  154.1062 C   0  0  0  0  0  0  0  0  0  0  0  0
  145.0956  142.3976  154.2068 C   0  0  0  0  0  0  0  0  0  0  0  0
  144.4761  142.5233  155.4639 C   0  0  0  0  0  0  0  0  0  0  0  0
  145.1335  142.0577  156.6177 C   0  0  0  0  0  0  0  0  0  0  0  0
  146.4080  141.4663  156.5167 C   0  0  0  0  0  0  0  0  0  0  0  0
  152.2274  141.5755  158.2905 C   0  0  0  0  0  0  0  0  0  0  0  0
  152.7750  140.6603  157.6726 O   0  0  0  0  0  0  0  0  0  0  0  0
  152.5944  141.9403  159.6684 C   0  0  0  0  0  0  0  0  0  0  0  0
  153.6882  141.1149  160.3344 C   0  0  0  0  0  0  0  0  0  0  0  0
  152.0696  142.6199  162.4021 H   0  0  0  0  0  0  0  0  0  0  0  0
  151.6564  144.2818  161.9830 H   0  0  0  0  0  0  0  0  0  0  0  0
  153.3137  143.7183  161.7811 H   0  0  0  0  0  0  0  0  0  0  0  0
  149.8471  143.9190  157.8565 H   0  0  0  0  0  0  0  0  0  0  0  0
  149.8391  142.6398  156.2044 H   0  0  0  0  0  0  0  0  0  0  0  0
  151.4428  142.4457  155.6060 H   0  0  0  0  0  0  0  0  0  0  0  0
  150.9732  139.9534  156.8582 H   0  0  0  0  0  0  0  0  0  0  0  0
  150.4650  139.3897  154.5825 H   0  0  0  0  0  0  0  0  0  0  0  0
  148.8159  139.1490  156.2601 H   0  0  0  0  0  0  0  0  0  0  0  0
  148.5462  140.6751  157.0979 H   0  0  0  0  0  0  0  0  0  0  0  0
  146.8373  141.7122  153.1372 H   0  0  0  0  0  0  0  0  0  0  0  0
  144.5945  142.7546  153.3193 H   0  0  0  0  0  0  0  0  0  0  0  0
  143.4988  142.9766  155.5425 H   0  0  0  0  0  0  0  0  0  0  0  0
  144.6596  142.1538  157.5835 H   0  0  0  0  0  0  0  0  0  0  0  0
  146.8804  141.1223  157.4242 H   0  0  0  0  0  0  0  0  0  0  0  0
  154.6181  141.1983  159.7712 H   0  0  0  0  0  0  0  0  0  0  0  0
  153.4022  140.0630  160.3620 H   0  0  0  0  0  0  0  0  0  0  0  0
  153.8958  141.4230  161.3576 H   0  0  0  0  0  0  0  0  0  0  0  0
  1  2  1  0  0  0  0
  1 21  1  0  0  0  0
  1 22  1  0  0  0  0
  1 23  1  0  0  0  0
  2 19  2  0  0  0  0
  2  3  1  0  0  0  0
  3  4  2  0  0  0  0
  4  5  1  0  0  0  0
  4 24  1  0  0  0  0
  5  6  1  0  0  0  0
  5 17  1  0  0  0  0
  6  7  1  0  0  0  0
  6 25  1  0  0  0  0
  6 26  1  0  0  0  0
  7  8  1  0  0  0  0
  7  9  1  0  0  0  0
  7 27  1  0  0  0  0
  8 28  1  0  0  0  0
  9 10  1  0  0  0  0
  9 29  1  0  0  0  0
  9 30  1  0  0  0  0
 10 11  1  0  0  0  0
 11 16  1  0  0  0  0
 11 12  2  0  0  0  0
 12 13  1  0  0  0  0
 12 31  1  0  0  0  0
 13 14  2  0  0  0  0
 13 32  1  0  0  0  0
 14 15  1  0  0  0  0
 14 33  1  0  0  0  0
 15 16  2  0  0  0  0
 15 34  1  0  0  0  0
 16 35  1  0  0  0  0
 17 18  2  0  0  0  0
 17 19  1  0  0  0  0
 19 20  1  0  0  0  0
 20 36  1  0  0  0  0
 20 37  1  0  0  0  0
 20 38  1  0  0  0  0
M  END
> <s_m_source_file>
AV-unprocessed.smi

> <i_m_source_file_index>
2275

> <i_lp_mmshare_version>
43012

> <i_f3d_flags>
0

> <s_epik_input>
W0NIM11jMW5bY0hdbihjKD1PKWMxW0NIM10pW0NIMl1bQ0BIXShbT0hdKVtDSDJdT2MyW2NIXVtjSF1bY0hdW2NIXVtjSF0y

> <s_epik_cmdline>
J2VwaWtfcHl0aG9uJywgJy1waCcsICc3LjAnLCAnLXRuJywgJzgnLCAnLW1hJywgJzIwMCcsICctbWV0YWxfYmluZGluZycsICctaW1hZScsICc8aW5maWxlLm1hZT4nLCAnLW9tYWUnLCAnPG91dGZpbGUubWFlPic=

> <r_lp_tautomer_probability>
1

> <r_epik_Ionization_Penalty>
4.18311e-05

> <r_epik_Ionization_Penalty_Charging>
1.04093e-07

> <r_epik_Ionization_Penalty_Neutral>
4.1727e-05

> <r_epik_State_Penalty>
-0

> <r_epik_Charging_Adjusted_Penalty>
1.04093e-07

> <i_epik_Tot_Q>
0

> <i_epik_Tot_abs_Q>
0

> <r_epik_Metal_State_Penalty>
-0

> <b_epik_Metal_Only>
0

> <s_lp_Force_Field>
OPLS_2005

> <r_lp_Energy>
24.2901

> <b_lp_Chiralities_Consistent>
1

> <s_lp_Variant>
AV-unprocessed.smi:2275-1

> <Gold.Version>
5.8.1

> <Gold.Id.Protein>
6NUR|6NUR_protein|mol2

> <Gold.PLP.Fitness>
48.8746

> <Gold.PLP.PLP>
-42.1166

> <Gold.PLP.part.hbond>
-2.0000

> <Gold.PLP.part.metal>
0.0000

> <Gold.PLP.part.buried>
-6.7963

> <Gold.PLP.part.nonpolar>
-32.0437

> <Gold.PLP.part.repulsive>
0.1625

> <Gold.PLP.ligand.clash>
0.0000

> <Gold.PLP.ligand.torsion>
1.0513

> <Gold.PLP.Chemscore.Hbond>
1.9280

> <Gold.PLP.Chemscore.CHOScore>
1.0000

> <Gold.PLP.Chemscore.Metal>
0.0000

> <Gold.Chemscore.Hbonds>
donor molecule, donor type, donor heavy atom, donor atom, acceptor molecule, acceptor atom, score
      P1  H  7989  7998       L1     8  1.00
      P1  H  7997  8009       L1    18  0.75
      L1  C     4    24       P1  8028  1.00
      L1  C     4    24       P1  8029  0.05

> <Gold.PLP.Chemscore.Internal.Correction>
0.0767

> <Gold.Rescore>
     Score         DG    S(hbond)    S(metal)    S(lipo)     H(rot)  DE(clash)    DE(int)     intcor
     13.72     -15.72       1.89        0.00      85.64       2.38       0.02       1.98       ----

> <Gold.Chemscore.Fitness>
13.7156

> <Gold.Chemscore.DG>
-15.7209

> <Gold.Chemscore.ZeroCoef>
-5.4800

> <Gold.Chemscore.Hbond>
1.8925

> <Gold.Chemscore.Metal>
0.0000

> <Gold.Chemscore.Lipo>
85.6360

> <Gold.Chemscore.Internal_Hbond>
0.0000

> <Gold.Chemscore.DEClash>
0.0233

> <Gold.Chemscore.DEInternal>
1.9820

> <Gold.Chemscore.Rot>
2.3826

> <Gold.Chemscore.Internal.Correction>
   9.000000E+99

> <Gold.Chemscore.Hbonds>
donor molecule, donor type, donor heavy atom, donor atom, acceptor molecule, acceptor atom, score
      P1  H  7989  7998       L1     8  0.70
      P1  H  7997  8009       L1    18  0.73

> <Gold.Chemscore.Hbond.Weighted>
-6.3210

> <Gold.Chemscore.Metal.Weighted>
-0.0000

> <Gold.Chemscore.Lipo.Weighted>
-10.0194

> <Gold.Chemscore.Internal_Hbond.Weighted>
0.0000

> <Gold.Chemscore.DEClash.Weighted>
0.0233

> <Gold.Chemscore.DEInternal.Weighted>
1.9820

> <Gold.Chemscore.Rot.Weighted>
6.0996

> <Gold.Chemscore.Internal.Correction.Weighted>
   9.000000E+99

> <Gold.Protein.RotatedTorsions>
[ 6907 6896 6895 6894 ] final  -20.77 input  -60.11 | X-H torsion
[ 7974 7965 7964 7962 ] final   67.56 input  175.53 | X-H torsion
[ 8008 7997 7996 7995 ] final  170.17 input   59.86 | X-H torsion
[ 10167 10162 10161 10158 ] final  -78.32 input  -65.29 | X-H torsion
[ 10718 10713 10712 10709 ] final  120.88 input   66.30 | X-H torsion
[ 10763 10752 10751 10750 ] final  -76.76 input  -60.55 | X-H torsion
[ 11005 11000 10999 10996 ] final  -11.67 input  -57.11 | X-H torsion

> <Gold.Protein.ActiveResidues>
 VAL166  LYS551  ARG553  GLY616  TRP617  ASP618  TYR619  PRO620  LYS621  CYS622 
 ASP623  PHE694  ASN695  SER759  ASP760  ASP761  ALA762  ILE779  LEU786  VAL792 
 PHE793  MET794  SER795  GLU796  ALA797  LYS798  CYS799  TRP800  GLU811  SER814 

> <Gold.Protein.RotatedAtoms>
  151.2432  135.0596  159.9033 H   0  0  0  0  0  0  0  0  0  0  0  0  # atno 6907 bound_to 6896
  152.5390  134.0411  159.8078 H   0  0  0  0  0  0  0  0  0  0  0  0  # atno 6908 bound_to 6896
  151.0608  133.5497  159.2666 H   0  0  0  0  0  0  0  0  0  0  0  0  # atno 6909 bound_to 6896
  145.8132  139.3044  143.1087 H   0  0  0  0  0  0  0  0  0  0  0  0  # atno 7974 bound_to 7965
  156.1390  140.1545  156.8949 H   0  0  0  0  0  0  0  0  0  0  0  0  # atno 8008 bound_to 7997
  154.4972  140.0835  156.7759 H   0  0  0  0  0  0  0  0  0  0  0  0  # atno 8009 bound_to 7997
  155.4114  140.3419  155.4266 H   0  0  0  0  0  0  0  0  0  0  0  0  # atno 8010 bound_to 7997
  140.4692  143.2431  151.8230 H   0  0  0  0  0  0  0  0  0  0  0  0  # atno 10167 bound_to 10162
  157.5859  131.1070  150.8096 H   0  0  0  0  0  0  0  0  0  0  0  0  # atno 10718 bound_to 10713
  154.5041  135.5787  153.6553 H   0  0  0  0  0  0  0  0  0  0  0  0  # atno 10763 bound_to 10752
  152.9884  135.6143  154.2965 H   0  0  0  0  0  0  0  0  0  0  0  0  # atno 10764 bound_to 10752
  154.2874  135.2849  155.2649 H   0  0  0  0  0  0  0  0  0  0  0  0  # atno 10765 bound_to 10752
  140.7577  133.8540  155.9098 H   0  0  0  0  0  0  0  0  0  0  0  0  # atno 11005 bound_to 11000
  145.9755  140.8726  143.0141 LP  0  0  0  0  0  0  0  0  0  0  0  0  # atno 17320 bound_to 7965
  144.6755  140.2006  143.7387 LP  0  0  0  0  0  0  0  0  0  0  0  0  # atno 17321 bound_to 7965
  139.4816  144.4912  151.9182 LP  0  0  0  0  0  0  0  0  0  0  0  0  # atno 17342 bound_to 10162
  140.3998  144.2508  150.5894 LP  0  0  0  0  0  0  0  0  0  0  0  0  # atno 17343 bound_to 10162
  156.8531  130.5087  149.5310 LP  0  0  0  0  0  0  0  0  0  0  0  0  # atno 17370 bound_to 10713
  156.0908  130.5894  150.9729 LP  0  0  0  0  0  0  0  0  0  0  0  0  # atno 17371 bound_to 10713
  140.9692  134.1553  157.4590 LP  0  0  0  0  0  0  0  0  0  0  0  0  # atno 17394 bound_to 11000
  139.8776  134.9972  156.5837 LP  0  0  0  0  0  0  0  0  0  0  0  0  # atno 17395 bound_to 11000

$$$$
