AV-unprocessed.smi:3095|AV-procd|sdf|11795|dock6
  -GOLD-   2272017173D 1   1.00000     0.00000
 Structure written by MMmdl.
 24 25  0  0  0  0  0  0  0  0  1 V2000
  153.5037  142.0419  161.5357 C   0  0  0  0  0  0  0  0  0  0  0  0
  152.9059  142.1657  160.1694 C   0  0  0  0  0  0  0  0  0  0  0  0
  152.5734  143.3258  159.5156 C   0  0  0  0  0  0  0  0  0  0  0  0
  151.9074  143.0127  157.9367 S   0  0  0  0  0  0  0  0  0  0  0  0
  152.0914  141.2872  158.2321 C   0  0  0  0  0  0  0  0  0  0  0  0
  151.7354  140.2499  157.2151 C   0  0  1  0  0  0  0  0  0  0  0  0
  151.2701  140.8719  155.8844 C   0  0  0  0  0  0  0  0  0  0  0  0
  151.0069  139.8232  154.9004 N   0  0  0  0  0  0  0  0  0  0  0  0
  152.1734  138.9593  154.7250 C   0  0  0  0  0  0  0  0  0  0  0  0
  152.6262  138.3880  156.0810 C   0  0  0  0  0  0  0  0  0  0  0  0
  152.8964  139.4550  156.9843 O   0  0  0  0  0  0  0  0  0  0  0  0
  152.6349  141.0152  159.4234 N   0  0  0  0  0  0  0  0  0  0  0  0
  153.7206  143.0200  161.9662 H   0  0  0  0  0  0  0  0  0  0  0  0
  154.4376  141.4804  161.5075 H   0  0  0  0  0  0  0  0  0  0  0  0
  152.8264  141.5251  162.2160 H   0  0  0  0  0  0  0  0  0  0  0  0
  152.6820  144.3423  159.8637 H   0  0  0  0  0  0  0  0  0  0  0  0
  150.9456  139.6243  157.6349 H   0  0  0  0  0  0  0  0  0  0  0  0
  150.3729  141.4708  156.0423 H   0  0  0  0  0  0  0  0  0  0  0  0
  152.0373  141.5489  155.5057 H   0  0  0  0  0  0  0  0  0  0  0  0
  150.7597  140.2457  154.0111 H   0  0  0  0  0  0  0  0  0  0  0  0
  151.9385  138.1483  154.0356 H   0  0  0  0  0  0  0  0  0  0  0  0
  152.9903  139.5257  154.2760 H   0  0  0  0  0  0  0  0  0  0  0  0
  151.8680  137.7229  156.4979 H   0  0  0  0  0  0  0  0  0  0  0  0
  153.5327  137.7961  155.9541 H   0  0  0  0  0  0  0  0  0  0  0  0
  1  2  1  0  0  0  0
  1 13  1  0  0  0  0
  1 14  1  0  0  0  0
  1 15  1  0  0  0  0
  2 12  1  0  0  0  0
  2  3  2  0  0  0  0
  3  4  1  0  0  0  0
  3 16  1  0  0  0  0
  4  5  1  0  0  0  0
  5  6  1  0  0  0  0
  5 12  2  0  0  0  0
  6 11  1  0  0  0  0
  6  7  1  0  0  0  0
  6 17  1  0  0  0  0
  7  8  1  0  0  0  0
  7 18  1  0  0  0  0
  7 19  1  0  0  0  0
  8  9  1  0  0  0  0
  8 20  1  0  0  0  0
  9 10  1  0  0  0  0
  9 21  1  0  0  0  0
  9 22  1  0  0  0  0
 10 11  1  0  0  0  0
 10 23  1  0  0  0  0
 10 24  1  0  0  0  0
M  END
> <s_m_source_file>
AV-unprocessed.smi

> <i_m_source_file_index>
3095

> <i_lp_mmshare_version>
43012

> <i_f3d_flags>
0

> <s_epik_input>
W0NIM11jMVtjSF1zYyhuMSlbQ0BASF0yW0NIMl1bTkhdW0NIMl1bQ0gyXU8y

> <s_epik_cmdline>
J2VwaWtfcHl0aG9uJywgJy1waCcsICc3LjAnLCAnLXRuJywgJzgnLCAnLW1hJywgJzIwMCcsICctbWV0YWxfYmluZGluZycsICctaW1hZScsICc8aW5maWxlLm1hZT4nLCAnLW9tYWUnLCAnPG91dGZpbGUubWFlPic=

> <r_epik_Ionization_Penalty>
0.982843

> <r_epik_Ionization_Penalty_Charging>
0

> <r_epik_Ionization_Penalty_Neutral>
0.982843

> <r_epik_State_Penalty>
2.16535

> <r_epik_Charging_Adjusted_Penalty>
2.16535

> <i_epik_Tot_Q>
0

> <i_epik_Tot_abs_Q>
0

> <r_epik_Metal_State_Penalty>
2.16288

> <b_epik_Metal_Only>
0

> <s_lp_Force_Field>
OPLS_2005

> <r_lp_Energy>
7.28811

> <b_lp_Chiralities_Consistent>
1

> <s_lp_Variant>
AV-unprocessed.smi:3095-4

> <Gold.Version>
5.8.1

> <Gold.Id.Protein>
6NUR|6NUR_protein|mol2

> <Gold.PLP.Fitness>
31.8207

> <Gold.PLP.PLP>
-28.9134

> <Gold.PLP.part.hbond>
-2.0000

> <Gold.PLP.part.metal>
0.0000

> <Gold.PLP.part.buried>
-2.6643

> <Gold.PLP.part.nonpolar>
-23.2118

> <Gold.PLP.part.repulsive>
0.0000

> <Gold.PLP.ligand.clash>
0.0000

> <Gold.PLP.ligand.torsion>
0.0518

> <Gold.PLP.Chemscore.Hbond>
1.0000

> <Gold.PLP.Chemscore.CHOScore>
0.0000

> <Gold.PLP.Chemscore.Metal>
0.0000

> <Gold.Chemscore.Hbonds>
donor molecule, donor type, donor heavy atom, donor atom, acceptor molecule, acceptor atom, score
      P1  H  7997  8009       L1    11  1.00

> <Gold.PLP.Chemscore.Internal.Correction>
0.0110

> <Gold.Rescore>
     Score         DG    S(hbond)    S(metal)    S(lipo)     H(rot)  DE(clash)    DE(int)     intcor
     15.23     -15.31       0.95        0.00      78.64       1.00       0.00       0.08       ----

> <Gold.Chemscore.Fitness>
15.2279

> <Gold.Chemscore.DG>
-15.3070

> <Gold.Chemscore.ZeroCoef>
-5.4800

> <Gold.Chemscore.Hbond>
0.9540

> <Gold.Chemscore.Metal>
0.0000

> <Gold.Chemscore.Lipo>
78.6387

> <Gold.Chemscore.Internal_Hbond>
0.0000

> <Gold.Chemscore.DEClash>
0.0000

> <Gold.Chemscore.DEInternal>
0.0792

> <Gold.Chemscore.Rot>
1.0000

> <Gold.Chemscore.Internal.Correction>
   9.000000E+99

> <Gold.Chemscore.Hbonds>
donor molecule, donor type, donor heavy atom, donor atom, acceptor molecule, acceptor atom, score
      P1  H  7997  8009       L1    11  0.65

> <Gold.Chemscore.Hbond.Weighted>
-3.1863

> <Gold.Chemscore.Metal.Weighted>
-0.0000

> <Gold.Chemscore.Lipo.Weighted>
-9.2007

> <Gold.Chemscore.Internal_Hbond.Weighted>
0.0000

> <Gold.Chemscore.DEClash.Weighted>
0.0000

> <Gold.Chemscore.DEInternal.Weighted>
0.0792

> <Gold.Chemscore.Rot.Weighted>
2.5600

> <Gold.Chemscore.Internal.Correction.Weighted>
   9.000000E+99

> <Gold.Protein.RotatedTorsions>
[ 6907 6896 6895 6894 ] final   64.80 input  -60.11 | X-H torsion
[ 7974 7965 7964 7962 ] final  102.20 input  175.53 | X-H torsion
[ 8008 7997 7996 7995 ] final -178.65 input   59.86 | X-H torsion
[ 10167 10162 10161 10158 ] final   63.24 input  -65.29 | X-H torsion
[ 10718 10713 10712 10709 ] final  -47.21 input   66.30 | X-H torsion
[ 10763 10752 10751 10750 ] final   80.16 input  -60.55 | X-H torsion
[ 11005 11000 10999 10996 ] final   80.91 input  -57.11 | X-H torsion

> <Gold.Protein.ActiveResidues>
 VAL166  LYS551  ARG553  GLY616  TRP617  ASP618  TYR619  PRO620  LYS621  CYS622 
 ASP623  PHE694  ASN695  SER759  ASP760  ASP761  ALA762  ILE779  LEU786  VAL792 
 PHE793  MET794  SER795  GLU796  ALA797  LYS798  CYS799  TRP800  GLU811  SER814 

> <Gold.Protein.RotatedAtoms>
  152.4359  134.5687  159.9914 H   0  0  0  0  0  0  0  0  0  0  0  0  # atno 6907 bound_to 6896
  151.5797  133.3373  159.3014 H   0  0  0  0  0  0  0  0  0  0  0  0  # atno 6908 bound_to 6896
  150.8258  134.7522  159.6875 H   0  0  0  0  0  0  0  0  0  0  0  0  # atno 6909 bound_to 6896
  145.3623  139.2415  143.3500 H   0  0  0  0  0  0  0  0  0  0  0  0  # atno 7974 bound_to 7965
  156.0213  140.1262  157.0354 H   0  0  0  0  0  0  0  0  0  0  0  0  # atno 8008 bound_to 7997
  154.4313  140.1068  156.6038 H   0  0  0  0  0  0  0  0  0  0  0  0  # atno 8009 bound_to 7997
  155.5940  140.3469  155.4577 H   0  0  0  0  0  0  0  0  0  0  0  0  # atno 8010 bound_to 7997
  140.1351  144.4606  150.6842 H   0  0  0  0  0  0  0  0  0  0  0  0  # atno 10167 bound_to 10162
  156.2106  130.4160  149.9119 H   0  0  0  0  0  0  0  0  0  0  0  0  # atno 10718 bound_to 10713
  153.1011  135.4813  154.8868 H   0  0  0  0  0  0  0  0  0  0  0  0  # atno 10763 bound_to 10752
  154.7379  135.3075  154.8781 H   0  0  0  0  0  0  0  0  0  0  0  0  # atno 10764 bound_to 10752
  153.9398  135.6835  153.4798 H   0  0  0  0  0  0  0  0  0  0  0  0  # atno 10765 bound_to 10752
  139.9117  134.7956  156.1971 H   0  0  0  0  0  0  0  0  0  0  0  0  # atno 11005 bound_to 11000
  146.2922  140.4259  142.8735 LP  0  0  0  0  0  0  0  0  0  0  0  0  # atno 17320 bound_to 7965
  144.8637  140.7176  143.6091 LP  0  0  0  0  0  0  0  0  0  0  0  0  # atno 17321 bound_to 7965
  140.6794  143.2319  151.5424 LP  0  0  0  0  0  0  0  0  0  0  0  0  # atno 17342 bound_to 10162
  139.5500  144.2421  152.1512 LP  0  0  0  0  0  0  0  0  0  0  0  0  # atno 17343 bound_to 10162
  156.6799  130.8854  151.3574 LP  0  0  0  0  0  0  0  0  0  0  0  0  # atno 17370 bound_to 10713
  157.7036  130.9360  150.0862 LP  0  0  0  0  0  0  0  0  0  0  0  0  # atno 17371 bound_to 10713
  141.0548  133.6871  156.1839 LP  0  0  0  0  0  0  0  0  0  0  0  0  # atno 17394 bound_to 11000
  140.6754  134.4823  157.5588 LP  0  0  0  0  0  0  0  0  0  0  0  0  # atno 17395 bound_to 11000

$$$$
