AV-unprocessed.smi:2988|AV-procd|sdf|11390|dock1
  -GOLD-   2272016313D 1   1.00000     0.00000
 Structure written by MMmdl.
 37 38  0  0  0  0  0  0  0  0  1 V2000
  153.0914  142.6966  162.3274 C   0  0  0  0  0  0  0  0  0  0  0  0
  152.2884  143.3316  161.1775 C   0  0  1  0  0  0  0  0  0  0  0  0
  152.2916  144.8694  161.2991 C   0  0  0  0  0  0  0  0  0  0  0  0
  151.4901  145.5346  160.1703 C   0  0  0  0  0  0  0  0  0  0  0  0
  152.0183  145.1074  158.7943 C   0  0  0  0  0  0  0  0  0  0  0  0
  152.0092  143.5786  158.6505 C   0  0  0  0  0  0  0  0  0  0  0  0
  152.8017  142.8939  159.7830 C   0  0  2  0  0  0  0  0  0  0  0  0
  152.7045  141.4431  159.6387 N   0  0  0  0  0  0  0  0  0  0  0  0
  153.7341  140.6096  159.4269 C   0  0  0  0  0  0  0  0  0  0  0  0
  154.8981  140.9898  159.2952 O   0  0  0  0  0  0  0  0  0  0  0  0
  153.3856  139.1178  159.3291 C   0  0  0  0  0  0  0  0  0  0  0  0
  152.6067  138.7914  158.1259 N   0  0  0  0  0  0  0  0  0  0  0  0
  152.6307  139.7744  157.1520 N   0  0  0  0  0  0  0  0  0  0  0  0
  151.9962  139.5867  156.0463 C   0  0  0  0  0  0  0  0  0  0  0  0
  151.2471  138.3780  155.7831 C   0  0  0  0  0  0  0  0  0  0  0  0
  150.4159  138.1827  154.2804 Cl  0  0  0  0  0  0  0  0  0  0  0  0
  151.2246  137.4235  156.7473 C   0  0  0  0  0  0  0  0  0  0  0  0
  150.3502  135.9501  156.5058 Cl  0  0  0  0  0  0  0  0  0  0  0  0
  151.9357  137.6030  158.0208 C   0  0  0  0  0  0  0  0  0  0  0  0
  151.9362  136.7634  158.9224 O   0  0  0  0  0  0  0  0  0  0  0  0
  154.1447  142.9736  162.2739 H   0  0  0  0  0  0  0  0  0  0  0  0
  153.0333  141.6081  162.3090 H   0  0  0  0  0  0  0  0  0  0  0  0
  152.7119  143.0229  163.2961 H   0  0  0  0  0  0  0  0  0  0  0  0
  151.2546  142.9969  161.2778 H   0  0  0  0  0  0  0  0  0  0  0  0
  151.8769  145.1679  162.2624 H   0  0  0  0  0  0  0  0  0  0  0  0
  153.3181  145.2380  161.2791 H   0  0  0  0  0  0  0  0  0  0  0  0
  150.4371  145.2648  160.2600 H   0  0  0  0  0  0  0  0  0  0  0  0
  151.5414  146.6194  160.2673 H   0  0  0  0  0  0  0  0  0  0  0  0
  151.4133  145.5581  158.0072 H   0  0  0  0  0  0  0  0  0  0  0  0
  153.0335  145.4820  158.6584 H   0  0  0  0  0  0  0  0  0  0  0  0
  150.9778  143.2230  158.6539 H   0  0  0  0  0  0  0  0  0  0  0  0
  152.4264  143.3025  157.6813 H   0  0  0  0  0  0  0  0  0  0  0  0
  153.8480  143.1964  159.7034 H   0  0  0  0  0  0  0  0  0  0  0  0
  151.7824  141.0410  159.7261 H   0  0  0  0  0  0  0  0  0  0  0  0
  154.2977  138.5180  159.3554 H   0  0  0  0  0  0  0  0  0  0  0  0
  152.8301  138.8428  160.2274 H   0  0  0  0  0  0  0  0  0  0  0  0
  151.9904  140.3302  155.2490 H   0  0  0  0  0  0  0  0  0  0  0  0
  1  2  1  0  0  0  0
  1 21  1  0  0  0  0
  1 22  1  0  0  0  0
  1 23  1  0  0  0  0
  2  7  1  0  0  0  0
  2  3  1  0  0  0  0
  2 24  1  0  0  0  0
  3  4  1  0  0  0  0
  3 25  1  0  0  0  0
  3 26  1  0  0  0  0
  4  5  1  0  0  0  0
  4 27  1  0  0  0  0
  4 28  1  0  0  0  0
  5  6  1  0  0  0  0
  5 29  1  0  0  0  0
  5 30  1  0  0  0  0
  6  7  1  0  0  0  0
  6 31  1  0  0  0  0
  6 32  1  0  0  0  0
  7  8  1  0  0  0  0
  7 33  1  0  0  0  0
  8  9  1  0  0  0  0
  8 34  1  0  0  0  0
  9 10  2  0  0  0  0
  9 11  1  0  0  0  0
 11 12  1  0  0  0  0
 11 35  1  0  0  0  0
 11 36  1  0  0  0  0
 12 19  1  0  0  0  0
 12 13  1  0  0  0  0
 13 14  2  0  0  0  0
 14 15  1  0  0  0  0
 14 37  1  0  0  0  0
 15 16  1  0  0  0  0
 15 17  2  0  0  0  0
 17 18  1  0  0  0  0
 17 19  1  0  0  0  0
 19 20  2  0  0  0  0
M  END
> <s_m_source_file>
AV-unprocessed.smi

> <i_m_source_file_index>
2988

> <i_lp_mmshare_version>
43012

> <i_f3d_flags>
0

> <s_epik_input>
W0NIM11bQ0BASF0xW0NIMl1bQ0gyXVtDSDJdW0NIMl1bQ0BIXTFbTkhdQyg9TylbQ0gyXW4ybltjSF1jKENsKWMoQ2wpYzI9Tw==

> <s_epik_cmdline>
J2VwaWtfcHl0aG9uJywgJy1waCcsICc3LjAnLCAnLXRuJywgJzgnLCAnLW1hJywgJzIwMCcsICctbWV0YWxfYmluZGluZycsICctaW1hZScsICc8aW5maWxlLm1hZT4nLCAnLW9tYWUnLCAnPG91dGZpbGUubWFlPic=

> <r_lp_tautomer_probability>
1

> <r_epik_Ionization_Penalty>
1.90782e-08

> <r_epik_Ionization_Penalty_Charging>
3.13143e-11

> <r_epik_Ionization_Penalty_Neutral>
1.90469e-08

> <r_epik_State_Penalty>
-0

> <r_epik_Charging_Adjusted_Penalty>
3.13143e-11

> <i_epik_Tot_Q>
0

> <i_epik_Tot_abs_Q>
0

> <r_epik_Metal_State_Penalty>
-0

> <b_epik_Metal_Only>
0

> <s_lp_Force_Field>
OPLS_2005

> <r_lp_Energy>
24.109

> <b_lp_Chiralities_Consistent>
1

> <s_lp_Variant>
AV-unprocessed.smi:2988-4

> <Gold.Version>
5.8.1

> <Gold.Id.Protein>
6NUR|6NUR_protein|mol2

> <Gold.PLP.Fitness>
48.2930

> <Gold.PLP.PLP>
-43.5566

> <Gold.PLP.part.hbond>
-2.8856

> <Gold.PLP.part.metal>
0.0000

> <Gold.PLP.part.buried>
-4.2167

> <Gold.PLP.part.nonpolar>
-36.7810

> <Gold.PLP.part.repulsive>
0.1147

> <Gold.PLP.ligand.clash>
0.0000

> <Gold.PLP.ligand.torsion>
0.2766

> <Gold.PLP.Chemscore.Hbond>
1.7613

> <Gold.PLP.Chemscore.CHOScore>
0.0000

> <Gold.PLP.Chemscore.Metal>
0.0000

> <Gold.Chemscore.Hbonds>
donor molecule, donor type, donor heavy atom, donor atom, acceptor molecule, acceptor atom, score
      P1  H  6896  6909       L1    20  0.59
      P1  H  7997  8010       L1    13  1.00

> <Gold.PLP.Chemscore.Internal.Correction>
0.0057

> <Gold.Rescore>
     Score         DG    S(hbond)    S(metal)    S(lipo)     H(rot)  DE(clash)    DE(int)     intcor
     17.83     -19.27       1.23        0.00     115.63       1.50       0.25       1.18       ----

> <Gold.Chemscore.Fitness>
17.8350

> <Gold.Chemscore.DG>
-19.2720

> <Gold.Chemscore.ZeroCoef>
-5.4800

> <Gold.Chemscore.Hbond>
1.2269

> <Gold.Chemscore.Metal>
0.0000

> <Gold.Chemscore.Lipo>
115.6262

> <Gold.Chemscore.Internal_Hbond>
0.0000

> <Gold.Chemscore.DEClash>
0.2546

> <Gold.Chemscore.DEInternal>
1.1825

> <Gold.Chemscore.Rot>
1.4977

> <Gold.Chemscore.Internal.Correction>
   9.000000E+99

> <Gold.Chemscore.Hbonds>
donor molecule, donor type, donor heavy atom, donor atom, acceptor molecule, acceptor atom, score
      P1  H  6896  6909       L1    20  0.56
      P1  H  7997  8010       L1    13  0.33

> <Gold.Chemscore.Hbond.Weighted>
-4.0979

> <Gold.Chemscore.Metal.Weighted>
-0.0000

> <Gold.Chemscore.Lipo.Weighted>
-13.5283

> <Gold.Chemscore.Internal_Hbond.Weighted>
0.0000

> <Gold.Chemscore.DEClash.Weighted>
0.2546

> <Gold.Chemscore.DEInternal.Weighted>
1.1825

> <Gold.Chemscore.Rot.Weighted>
3.8341

> <Gold.Chemscore.Internal.Correction.Weighted>
   9.000000E+99

> <Gold.Protein.RotatedTorsions>
[ 6907 6896 6895 6894 ] final   93.98 input  -60.11 | X-H torsion
[ 7974 7965 7964 7962 ] final  118.59 input  175.53 | X-H torsion
[ 8008 7997 7996 7995 ] final   60.77 input   59.86 | X-H torsion
[ 10167 10162 10161 10158 ] final  179.26 input  -65.29 | X-H torsion
[ 10718 10713 10712 10709 ] final   -0.17 input   66.30 | X-H torsion
[ 10763 10752 10751 10750 ] final  128.74 input  -60.55 | X-H torsion
[ 11005 11000 10999 10996 ] final  -60.24 input  -57.11 | X-H torsion

> <Gold.Protein.ActiveResidues>
 VAL166  LYS551  ARG553  GLY616  TRP617  ASP618  TYR619  PRO620  LYS621  CYS622 
 ASP623  PHE694  ASN695  SER759  ASP760  ASP761  ALA762  ILE779  LEU786  VAL792 
 PHE793  MET794  SER795  GLU796  ALA797  LYS798  CYS799  TRP800  GLU811  SER814 

> <Gold.Protein.RotatedAtoms>
  152.5451  134.1264  159.8420 H   0  0  0  0  0  0  0  0  0  0  0  0  # atno 6907 bound_to 6896
  151.1315  133.5026  159.2606 H   0  0  0  0  0  0  0  0  0  0  0  0  # atno 6908 bound_to 6896
  151.1670  135.0310  159.8790 H   0  0  0  0  0  0  0  0  0  0  0  0  # atno 6909 bound_to 6896
  145.1534  139.3197  143.4555 H   0  0  0  0  0  0  0  0  0  0  0  0  # atno 7974 bound_to 7965
  155.5877  140.3492  155.4557 H   0  0  0  0  0  0  0  0  0  0  0  0  # atno 8008 bound_to 7997
  156.0325  140.1278  157.0267 H   0  0  0  0  0  0  0  0  0  0  0  0  # atno 8009 bound_to 7997
  154.4358  140.1040  156.6106 H   0  0  0  0  0  0  0  0  0  0  0  0  # atno 8010 bound_to 7997
  139.5329  144.2582  152.0729 H   0  0  0  0  0  0  0  0  0  0  0  0  # atno 10167 bound_to 10162
  156.8244  130.5467  149.5693 H   0  0  0  0  0  0  0  0  0  0  0  0  # atno 10718 bound_to 10713
  153.7304  135.3239  155.3284 H   0  0  0  0  0  0  0  0  0  0  0  0  # atno 10763 bound_to 10752
  154.8328  135.4520  154.1128 H   0  0  0  0  0  0  0  0  0  0  0  0  # atno 10764 bound_to 10752
  153.2273  135.6955  153.8011 H   0  0  0  0  0  0  0  0  0  0  0  0  # atno 10765 bound_to 10752
  141.1280  133.6621  156.5194 H   0  0  0  0  0  0  0  0  0  0  0  0  # atno 11005 bound_to 11000
  146.3492  140.1617  142.8590 LP  0  0  0  0  0  0  0  0  0  0  0  0  # atno 17320 bound_to 7965
  145.0407  140.8943  143.5054 LP  0  0  0  0  0  0  0  0  0  0  0  0  # atno 17321 bound_to 7965
  140.2048  144.4622  150.6414 LP  0  0  0  0  0  0  0  0  0  0  0  0  # atno 17342 bound_to 10162
  140.6518  143.2227  151.6059 LP  0  0  0  0  0  0  0  0  0  0  0  0  # atno 17343 bound_to 10162
  156.0970  130.5940  150.9830 LP  0  0  0  0  0  0  0  0  0  0  0  0  # atno 17370 bound_to 10713
  157.6440  131.0906  150.8192 LP  0  0  0  0  0  0  0  0  0  0  0  0  # atno 17371 bound_to 10713
  140.4305  134.7106  157.4939 LP  0  0  0  0  0  0  0  0  0  0  0  0  # atno 17394 bound_to 11000
  140.0297  134.6424  155.9123 LP  0  0  0  0  0  0  0  0  0  0  0  0  # atno 17395 bound_to 11000

$$$$
