AV-unprocessed.smi:686|AV-procd|sdf|3340|dock10
  -GOLD-   22720 0313D 1   1.00000     0.00000
 Structure written by MMmdl.
 41 42  0  0  0  0  0  0  0  0  2 V2000
  147.3646  140.4745  153.2459 C   0  0  0  0  0  0  0  0  0  0  0  0
  146.8073  139.0897  153.6141 C   0  0  1  0  0  0  0  0  0  0  0  0
  146.3741  138.2222  152.4231 C   0  0  0  0  0  0  0  0  0  0  0  0
  146.6649  136.8101  152.7812 N   0  3  2  0  0  0  0  0  0  0  0  0
  145.5950  135.8310  152.4389 C   0  0  0  0  0  0  0  0  0  0  0  0
  145.9573  134.4047  152.8961 C   0  0  0  0  0  0  0  0  0  0  0  0
  145.3143  135.8260  150.9240 C   0  0  0  0  0  0  0  0  0  0  0  0
  147.1198  136.7993  154.1911 C   0  0  0  0  0  0  0  0  0  0  0  0
  147.7222  138.1832  154.4433 C   0  0  1  0  0  0  0  0  0  0  0  0
  149.1119  138.2356  153.9751 N   0  0  0  0  0  0  0  0  0  0  0  0
  150.3918  137.8568  155.0677 S   0  0  0  0  0  0  0  0  0  0  0  0
  149.7784  137.6267  156.3843 O   0  0  0  0  0  0  0  0  0  0  0  0
  151.2119  136.8069  154.4444 O   0  0  0  0  0  0  0  0  0  0  0  0
  151.3438  139.4357  155.1175 C   0  0  0  0  0  0  0  0  0  0  0  0
  151.4955  139.8949  156.5407 C   0  0  0  0  0  0  0  0  0  0  0  0
  150.4957  140.3945  157.4204 C   0  0  0  0  0  0  0  0  0  0  0  0
  151.1819  140.6449  158.5737 C   0  0  0  0  0  0  0  0  0  0  0  0
  152.4935  140.3294  158.4245 O   0  0  0  0  0  0  0  0  0  0  0  0
  152.6850  139.8547  157.1222 N   0  0  0  0  0  0  0  0  0  0  0  0
  148.2340  140.4021  152.5918 H   0  0  0  0  0  0  0  0  0  0  0  0
  147.6622  141.0249  154.1388 H   0  0  0  0  0  0  0  0  0  0  0  0
  146.6126  141.0687  152.7259 H   0  0  0  0  0  0  0  0  0  0  0  0
  145.9152  139.2571  154.2202 H   0  0  0  0  0  0  0  0  0  0  0  0
  145.3175  138.3883  152.2091 H   0  0  0  0  0  0  0  0  0  0  0  0
  146.9370  138.4707  151.5224 H   0  0  0  0  0  0  0  0  0  0  0  0
  144.6828  136.1300  152.9577 H   0  0  0  0  0  0  0  0  0  0  0  0
  145.1911  133.6912  152.5914 H   0  0  0  0  0  0  0  0  0  0  0  0
  146.0404  134.3299  153.9804 H   0  0  0  0  0  0  0  0  0  0  0  0
  146.9035  134.0772  152.4636 H   0  0  0  0  0  0  0  0  0  0  0  0
  144.5463  135.0939  150.6722 H   0  0  0  0  0  0  0  0  0  0  0  0
  146.2102  135.5705  150.3570 H   0  0  0  0  0  0  0  0  0  0  0  0
  144.9588  136.7918  150.5661 H   0  0  0  0  0  0  0  0  0  0  0  0
  146.2580  136.6629  154.8470 H   0  0  0  0  0  0  0  0  0  0  0  0
  147.8146  135.9823  154.3839 H   0  0  0  0  0  0  0  0  0  0  0  0
  147.6938  138.4522  155.5000 H   0  0  0  0  0  0  0  0  0  0  0  0
  149.2405  137.7813  153.0711 H   0  0  0  0  0  0  0  0  0  0  0  0
  152.3077  139.2844  154.6307 H   0  0  0  0  0  0  0  0  0  0  0  0
  150.7937  140.1757  154.5362 H   0  0  0  0  0  0  0  0  0  0  0  0
  149.4419  140.5428  157.2361 H   0  0  0  0  0  0  0  0  0  0  0  0
  150.8926  141.0286  159.5410 H   0  0  0  0  0  0  0  0  0  0  0  0
  147.4755  136.5532  152.2360 H   0  0  0  0  0  0  0  0  0  0  0  0
  1  2  1  0  0  0  0
  1 20  1  0  0  0  0
  1 21  1  0  0  0  0
  1 22  1  0  0  0  0
  2  9  1  0  0  0  0
  2  3  1  0  0  0  0
  2 23  1  0  0  0  0
  3  4  1  0  0  0  0
  3 24  1  0  0  0  0
  3 25  1  0  0  0  0
  4  5  1  0  0  0  0
  4  8  1  0  0  0  0
  4 41  1  0  0  0  0
  5  6  1  0  0  0  0
  5  7  1  0  0  0  0
  5 26  1  0  0  0  0
  6 27  1  0  0  0  0
  6 28  1  0  0  0  0
  6 29  1  0  0  0  0
  7 30  1  0  0  0  0
  7 31  1  0  0  0  0
  7 32  1  0  0  0  0
  8  9  1  0  0  0  0
  8 33  1  0  0  0  0
  8 34  1  0  0  0  0
  9 10  1  0  0  0  0
  9 35  1  0  0  0  0
 10 11  1  0  0  0  0
 10 36  1  0  0  0  0
 11 12  2  0  0  0  0
 11 13  2  0  0  0  0
 11 14  1  0  0  0  0
 14 15  1  0  0  0  0
 14 37  1  0  0  0  0
 14 38  1  0  0  0  0
 15 19  2  0  0  0  0
 15 16  1  0  0  0  0
 16 17  2  0  0  0  0
 16 39  1  0  0  0  0
 17 18  1  0  0  0  0
 17 40  1  0  0  0  0
 18 19  1  0  0  0  0
M  CHG  1   4   1
M  END
> <s_m_source_file>
AV-unprocessed.smi

> <i_m_source_file_index>
686

> <i_lp_mmshare_version>
43012

> <i_f3d_flags>
0

> <s_epik_input>
W0NIM11bQ0BASF0xW0NIMl1OKFtDSF0oW0NIM10pW0NIM10pW0NIMl1bQ0BIXTFbTkhdUyg9TykoPU8pW0NIMl1jMltjSF1bY0hdb24y

> <s_epik_cmdline>
J2VwaWtfcHl0aG9uJywgJy1waCcsICc3LjAnLCAnLXRuJywgJzgnLCAnLW1hJywgJzIwMCcsICctbWV0YWxfYmluZGluZycsICctaW1hZScsICc8aW5maWxlLm1hZT4nLCAnLW9tYWUnLCAnPG91dGZpbGUubWFlPic=

> <r_epik_Ionization_Penalty>
0.00200818

> <r_epik_Ionization_Penalty_Charging>
0.000701289

> <r_epik_Ionization_Penalty_Neutral>
0.00130689

> <r_epik_State_Penalty>
0.00131314

> <r_epik_Charging_Adjusted_Penalty>
0.00201443

> <i_epik_Tot_Q>
1

> <i_epik_Tot_abs_Q>
1

> <r_epik_Metal_State_Penalty>
0.310831

> <b_epik_Metal_Only>
0

> <s_lp_Force_Field>
OPLS_2005

> <r_lp_Energy>
21.9273

> <b_lp_Chiralities_Consistent>
1

> <s_lp_Variant>
AV-unprocessed.smi:686-4

> <Gold.Version>
5.8.1

> <Gold.Id.Protein>
6NUR|6NUR_protein|mol2

> <Gold.PLP.Fitness>
40.2219

> <Gold.PLP.PLP>
-26.1895

> <Gold.PLP.part.hbond>
-4.3653

> <Gold.PLP.part.metal>
0.0000

> <Gold.PLP.part.buried>
0.4354

> <Gold.PLP.part.nonpolar>
-22.5997

> <Gold.PLP.part.repulsive>
0.9112

> <Gold.PLP.ligand.clash>
0.0000

> <Gold.PLP.ligand.torsion>
0.5761

> <Gold.PLP.Chemscore.Hbond>
5.0000

> <Gold.PLP.Chemscore.CHOScore>
0.0000

> <Gold.PLP.Chemscore.Metal>
0.0000

> <Gold.Chemscore.Hbonds>
donor molecule, donor type, donor heavy atom, donor atom, acceptor molecule, acceptor atom, score
      L1  H     4    41       P1  7948  2.00
      L1  H    10    36       P1  7948  1.00
      P1  H  7997  8010       L1    19  1.00
      P1  H 10752 10765       L1    13  0.88

> <Gold.PLP.Chemscore.Internal.Correction>
0.1846

> <Gold.Rescore>
     Score         DG    S(hbond)    S(metal)    S(lipo)     H(rot)  DE(clash)    DE(int)     intcor
     18.16     -20.26       3.85        0.00      58.12       1.91       0.44       1.66       ----

> <Gold.Chemscore.Fitness>
18.1571

> <Gold.Chemscore.DG>
-20.2553

> <Gold.Chemscore.ZeroCoef>
-5.4800

> <Gold.Chemscore.Hbond>
3.8529

> <Gold.Chemscore.Metal>
0.0000

> <Gold.Chemscore.Lipo>
58.1201

> <Gold.Chemscore.Internal_Hbond>
0.0000

> <Gold.Chemscore.DEClash>
0.4382

> <Gold.Chemscore.DEInternal>
1.6600

> <Gold.Chemscore.Rot>
1.9115

> <Gold.Chemscore.Internal.Correction>
   9.000000E+99

> <Gold.Chemscore.Hbonds>
donor molecule, donor type, donor heavy atom, donor atom, acceptor molecule, acceptor atom, score
      L1  H     4    41       P1  7948  0.94
      L1  H    10    36       P1  7948  0.93
      P1  H  7997  8010       L1    19  0.44
      P1  H 10752 10765       L1    13  0.86

> <Gold.Chemscore.Hbond.Weighted>
-12.8687

> <Gold.Chemscore.Metal.Weighted>
-0.0000

> <Gold.Chemscore.Lipo.Weighted>
-6.8000

> <Gold.Chemscore.Internal_Hbond.Weighted>
0.0000

> <Gold.Chemscore.DEClash.Weighted>
0.4382

> <Gold.Chemscore.DEInternal.Weighted>
1.6600

> <Gold.Chemscore.Rot.Weighted>
4.8935

> <Gold.Chemscore.Internal.Correction.Weighted>
   9.000000E+99

> <Gold.Protein.RotatedTorsions>
[ 6907 6896 6895 6894 ] final  105.43 input  -60.11 | X-H torsion
[ 7974 7965 7964 7962 ] final   13.87 input  175.53 | X-H torsion
[ 8008 7997 7996 7995 ] final   47.17 input   59.86 | X-H torsion
[ 10167 10162 10161 10158 ] final -118.44 input  -65.29 | X-H torsion
[ 10718 10713 10712 10709 ] final  -50.81 input   66.30 | X-H torsion
[ 10763 10752 10751 10750 ] final  160.50 input  -60.55 | X-H torsion
[ 11005 11000 10999 10996 ] final  -38.86 input  -57.11 | X-H torsion

> <Gold.Protein.ActiveResidues>
 VAL166  LYS551  ARG553  GLY616  TRP617  ASP618  TYR619  PRO620  LYS621  CYS622 
 ASP623  PHE694  ASN695  SER759  ASP760  ASP761  ALA762  ILE779  LEU786  VAL792 
 PHE793  MET794  SER795  GLU796  ALA797  LYS798  CYS799  TRP800  GLU811  SER814 

> <Gold.Protein.RotatedAtoms>
  152.5230  133.9530  159.7680 H   0  0  0  0  0  0  0  0  0  0  0  0  # atno 6907 bound_to 6896
  150.9836  133.6212  159.2726 H   0  0  0  0  0  0  0  0  0  0  0  0  # atno 6908 bound_to 6896
  151.3381  135.0863  159.9414 H   0  0  0  0  0  0  0  0  0  0  0  0  # atno 6909 bound_to 6896
  146.2319  139.9124  142.8522 H   0  0  0  0  0  0  0  0  0  0  0  0  # atno 7974 bound_to 7965
  155.3647  140.3420  155.4241 H   0  0  0  0  0  0  0  0  0  0  0  0  # atno 8008 bound_to 7997
  156.1695  140.1627  156.8507 H   0  0  0  0  0  0  0  0  0  0  0  0  # atno 8009 bound_to 7997
  154.5218  140.0765  156.8169 H   0  0  0  0  0  0  0  0  0  0  0  0  # atno 8010 bound_to 7997
  140.0575  143.5000  152.2049 H   0  0  0  0  0  0  0  0  0  0  0  0  # atno 10167 bound_to 10162
  156.1767  130.4150  149.9567 H   0  0  0  0  0  0  0  0  0  0  0  0  # atno 10718 bound_to 10713
  154.2483  135.2772  155.2827 H   0  0  0  0  0  0  0  0  0  0  0  0  # atno 10763 bound_to 10752
  154.5487  135.5681  153.6906 H   0  0  0  0  0  0  0  0  0  0  0  0  # atno 10764 bound_to 10752
  152.9985  135.6269  154.2629 H   0  0  0  0  0  0  0  0  0  0  0  0  # atno 10765 bound_to 10752
  141.0059  133.6932  156.2110 H   0  0  0  0  0  0  0  0  0  0  0  0  # atno 11005 bound_to 11000
  145.2216  140.9937  143.4042 LP  0  0  0  0  0  0  0  0  0  0  0  0  # atno 17320 bound_to 7965
  144.9605  139.3985  143.6358 LP  0  0  0  0  0  0  0  0  0  0  0  0  # atno 17321 bound_to 7965
  139.5914  144.7551  151.3391 LP  0  0  0  0  0  0  0  0  0  0  0  0  # atno 17342 bound_to 10162
  140.7188  143.7194  150.7707 LP  0  0  0  0  0  0  0  0  0  0  0  0  # atno 17343 bound_to 10162
  156.7350  130.9058  151.3628 LP  0  0  0  0  0  0  0  0  0  0  0  0  # atno 17370 bound_to 10713
  157.6840  130.9168  150.0340 LP  0  0  0  0  0  0  0  0  0  0  0  0  # atno 17371 bound_to 10713
  140.6813  134.4764  157.5589 LP  0  0  0  0  0  0  0  0  0  0  0  0  # atno 17394 bound_to 11000
  139.9063  134.8442  156.1694 LP  0  0  0  0  0  0  0  0  0  0  0  0  # atno 17395 bound_to 11000

$$$$
