AV-unprocessed.smi:1246|AV-procd|sdf|5242|dock6
  -GOLD-   22720 4353D 1   1.00000     0.00000
 Structure written by MMmdl.
 35 36  0  0  0  0  0  0  0  0  1 V2000
  151.1419  142.3613  156.3211 C   0  0  0  0  0  0  0  0  0  0  0  0
  150.7816  141.1395  155.5286 C   0  0  0  0  0  0  0  0  0  0  0  0
  149.5558  140.8566  154.8583 C   0  0  0  0  0  0  0  0  0  0  0  0
  149.7887  139.6237  154.3126 C   0  0  0  0  0  0  0  0  0  0  0  0
  148.9611  138.8493  153.5618 N   0  0  0  0  0  0  0  0  0  0  0  0
  147.6530  139.0198  153.3040 C   0  0  0  0  0  0  0  0  0  0  0  0
  146.9594  139.9527  153.7099 O   0  0  0  0  0  0  0  0  0  0  0  0
  147.1805  138.0297  152.5335 N   0  0  0  0  0  0  0  0  0  0  0  0
  145.7986  137.9032  152.0847 C   0  0  0  0  0  0  0  0  0  0  0  0
  145.2428  136.4947  152.3517 C   0  0  1  0  0  0  0  0  0  0  0  0
  143.7358  136.4614  152.5850 C   0  0  0  0  0  0  0  0  0  0  0  0
  143.4186  135.0120  152.2913 C   0  0  0  0  0  0  0  0  0  0  0  0
  144.3833  134.6861  151.1512 C   0  0  0  0  0  0  0  0  0  0  0  0
  145.4285  135.6543  151.2177 O   0  0  0  0  0  0  0  0  0  0  0  0
  151.0630  139.2229  154.6468 N   0  0  0  0  0  0  0  0  0  0  0  0
  151.7607  137.9979  154.3091 C   0  0  0  0  0  0  0  0  0  0  0  0
  151.6735  140.1637  155.3990 N   0  0  0  0  0  0  0  0  0  0  0  0
  150.2958  143.0445  156.3991 H   0  0  0  0  0  0  0  0  0  0  0  0
  151.9638  142.9036  155.8534 H   0  0  0  0  0  0  0  0  0  0  0  0
  151.4485  142.0978  157.3337 H   0  0  0  0  0  0  0  0  0  0  0  0
  148.6679  141.4681  154.8019 H   0  0  0  0  0  0  0  0  0  0  0  0
  149.3925  138.0371  153.1461 H   0  0  0  0  0  0  0  0  0  0  0  0
  147.8181  137.3010  152.2480 H   0  0  0  0  0  0  0  0  0  0  0  0
  145.1802  138.6537  152.5798 H   0  0  0  0  0  0  0  0  0  0  0  0
  145.7610  138.1258  151.0180 H   0  0  0  0  0  0  0  0  0  0  0  0
  145.7448  136.0364  153.2059 H   0  0  0  0  0  0  0  0  0  0  0  0
  143.4541  136.7653  153.5936 H   0  0  0  0  0  0  0  0  0  0  0  0
  143.2212  137.1091  151.8736 H   0  0  0  0  0  0  0  0  0  0  0  0
  143.6499  134.3985  153.1630 H   0  0  0  0  0  0  0  0  0  0  0  0
  142.3738  134.8468  152.0268 H   0  0  0  0  0  0  0  0  0  0  0  0
  144.7809  133.6747  151.2353 H   0  0  0  0  0  0  0  0  0  0  0  0
  143.8874  134.7745  150.1842 H   0  0  0  0  0  0  0  0  0  0  0  0
  151.7044  137.8278  153.2337 H   0  0  0  0  0  0  0  0  0  0  0  0
  151.2974  137.1587  154.8287 H   0  0  0  0  0  0  0  0  0  0  0  0
  152.8102  138.0607  154.6004 H   0  0  0  0  0  0  0  0  0  0  0  0
  1  2  1  0  0  0  0
  1 18  1  0  0  0  0
  1 19  1  0  0  0  0
  1 20  1  0  0  0  0
  2 17  2  0  0  0  0
  2  3  1  0  0  0  0
  3  4  2  0  0  0  0
  3 21  1  0  0  0  0
  4  5  1  0  0  0  0
  4 15  1  0  0  0  0
  5  6  1  0  0  0  0
  5 22  1  0  0  0  0
  6  7  2  0  0  0  0
  6  8  1  0  0  0  0
  8  9  1  0  0  0  0
  8 23  1  0  0  0  0
  9 10  1  0  0  0  0
  9 24  1  0  0  0  0
  9 25  1  0  0  0  0
 10 14  1  0  0  0  0
 10 11  1  0  0  0  0
 10 26  1  0  0  0  0
 11 12  1  0  0  0  0
 11 27  1  0  0  0  0
 11 28  1  0  0  0  0
 12 13  1  0  0  0  0
 12 29  1  0  0  0  0
 12 30  1  0  0  0  0
 13 14  1  0  0  0  0
 13 31  1  0  0  0  0
 13 32  1  0  0  0  0
 15 16  1  0  0  0  0
 15 17  1  0  0  0  0
 16 33  1  0  0  0  0
 16 34  1  0  0  0  0
 16 35  1  0  0  0  0
M  END
> <s_m_source_file>
AV-unprocessed.smi

> <i_m_source_file_index>
1246

> <i_lp_mmshare_version>
43012

> <i_f3d_flags>
0

> <s_epik_input>
W0NIM11jMVtjSF1jKG4objEpW0NIM10pW05IXUMoPU8pW05IXVtDSDJdW0NAQEhdMltDSDJdW0NIMl1bQ0gyXU8y

> <s_epik_cmdline>
J2VwaWtfcHl0aG9uJywgJy1waCcsICc3LjAnLCAnLXRuJywgJzgnLCAnLW1hJywgJzIwMCcsICctbWV0YWxfYmluZGluZycsICctaW1hZScsICc8aW5maWxlLm1hZT4nLCAnLW9tYWUnLCAnPG91dGZpbGUubWFlPic=

> <r_lp_tautomer_probability>
1

> <r_epik_Ionization_Penalty>
9.6187e-05

> <r_epik_Ionization_Penalty_Charging>
0

> <r_epik_Ionization_Penalty_Neutral>
9.6187e-05

> <r_epik_State_Penalty>
-0

> <r_epik_Charging_Adjusted_Penalty>
0

> <i_epik_Tot_Q>
0

> <i_epik_Tot_abs_Q>
0

> <r_epik_Metal_State_Penalty>
-0

> <b_epik_Metal_Only>
0

> <s_lp_Force_Field>
OPLS_2005

> <r_lp_Energy>
18.0702

> <b_lp_Chiralities_Consistent>
1

> <s_lp_Variant>
AV-unprocessed.smi:1246-2

> <Gold.Version>
5.8.1

> <Gold.Id.Protein>
6NUR|6NUR_protein|mol2

> <Gold.PLP.Fitness>
36.9651

> <Gold.PLP.PLP>
-33.4434

> <Gold.PLP.part.hbond>
-3.8285

> <Gold.PLP.part.metal>
0.0000

> <Gold.PLP.part.buried>
-1.3314

> <Gold.PLP.part.nonpolar>
-28.4481

> <Gold.PLP.part.repulsive>
0.5576

> <Gold.PLP.ligand.clash>
0.0000

> <Gold.PLP.ligand.torsion>
0.4648

> <Gold.PLP.Chemscore.Hbond>
1.4823

> <Gold.PLP.Chemscore.CHOScore>
0.0000

> <Gold.PLP.Chemscore.Metal>
0.0000

> <Gold.Chemscore.Hbonds>
donor molecule, donor type, donor heavy atom, donor atom, acceptor molecule, acceptor atom, score
      L1  H     5    22       P1  7948  0.46
      L1  H     8    23       P1  7948  1.00

> <Gold.PLP.Chemscore.Internal.Correction>
0.0043

> <Gold.Rescore>
     Score         DG    S(hbond)    S(metal)    S(lipo)     H(rot)  DE(clash)    DE(int)     intcor
     11.39     -13.54       1.38        0.00      56.69       1.25       0.81       1.34       ----

> <Gold.Chemscore.Fitness>
11.3905

> <Gold.Chemscore.DG>
-13.5408

> <Gold.Chemscore.ZeroCoef>
-5.4800

> <Gold.Chemscore.Hbond>
1.3839

> <Gold.Chemscore.Metal>
0.0000

> <Gold.Chemscore.Lipo>
56.6913

> <Gold.Chemscore.Internal_Hbond>
0.0000

> <Gold.Chemscore.DEClash>
0.8129

> <Gold.Chemscore.DEInternal>
1.3374

> <Gold.Chemscore.Rot>
1.2478

> <Gold.Chemscore.Internal.Correction>
   9.000000E+99

> <Gold.Chemscore.Hbonds>
donor molecule, donor type, donor heavy atom, donor atom, acceptor molecule, acceptor atom, score
      L1  H     5    22       P1  7948  0.42
      L1  H     8    23       P1  7948  0.98

> <Gold.Chemscore.Hbond.Weighted>
-4.6223

> <Gold.Chemscore.Metal.Weighted>
-0.0000

> <Gold.Chemscore.Lipo.Weighted>
-6.6329

> <Gold.Chemscore.Internal_Hbond.Weighted>
0.0000

> <Gold.Chemscore.DEClash.Weighted>
0.8129

> <Gold.Chemscore.DEInternal.Weighted>
1.3374

> <Gold.Chemscore.Rot.Weighted>
3.1944

> <Gold.Chemscore.Internal.Correction.Weighted>
   9.000000E+99

> <Gold.Protein.RotatedTorsions>
[ 6907 6896 6895 6894 ] final -177.41 input  -60.11 | X-H torsion
[ 7974 7965 7964 7962 ] final  -94.83 input  175.53 | X-H torsion
[ 8008 7997 7996 7995 ] final   47.47 input   59.86 | X-H torsion
[ 10167 10162 10161 10158 ] final  -69.93 input  -65.29 | X-H torsion
[ 10718 10713 10712 10709 ] final  -74.88 input   66.30 | X-H torsion
[ 10763 10752 10751 10750 ] final  -86.11 input  -60.55 | X-H torsion
[ 11005 11000 10999 10996 ] final  114.30 input  -57.11 | X-H torsion

> <Gold.Protein.ActiveResidues>
 VAL166  LYS551  ARG553  GLY616  TRP617  ASP618  TYR619  PRO620  LYS621  CYS622 
 ASP623  PHE694  ASN695  SER759  ASP760  ASP761  ALA762  ILE779  LEU786  VAL792 
 PHE793  MET794  SER795  GLU796  ALA797  LYS798  CYS799  TRP800  GLU811  SER814 

> <Gold.Protein.RotatedAtoms>
  151.6206  133.3339  159.3086 H   0  0  0  0  0  0  0  0  0  0  0  0  # atno 6907 bound_to 6896
  150.8108  134.7265  159.6697 H   0  0  0  0  0  0  0  0  0  0  0  0  # atno 6908 bound_to 6896
  152.4204  134.5970  160.0041 H   0  0  0  0  0  0  0  0  0  0  0  0  # atno 6909 bound_to 6896
  145.3681  140.9501  143.2462 H   0  0  0  0  0  0  0  0  0  0  0  0  # atno 7974 bound_to 7965
  155.3695  140.3423  155.4243 H   0  0  0  0  0  0  0  0  0  0  0  0  # atno 8008 bound_to 7997
  156.1670  140.1619  156.8548 H   0  0  0  0  0  0  0  0  0  0  0  0  # atno 8009 bound_to 7997
  154.5195  140.0770  156.8127 H   0  0  0  0  0  0  0  0  0  0  0  0  # atno 8010 bound_to 7997
  140.5392  143.2316  151.7120 H   0  0  0  0  0  0  0  0  0  0  0  0  # atno 10167 bound_to 10162
  156.0227  130.4427  150.2959 H   0  0  0  0  0  0  0  0  0  0  0  0  # atno 10718 bound_to 10713
  154.6187  135.5461  153.7551 H   0  0  0  0  0  0  0  0  0  0  0  0  # atno 10763 bound_to 10752
  153.0228  135.6407  154.1472 H   0  0  0  0  0  0  0  0  0  0  0  0  # atno 10764 bound_to 10752
  154.1407  135.2908  155.3141 H   0  0  0  0  0  0  0  0  0  0  0  0  # atno 10765 bound_to 10752
  139.8976  134.9565  156.6870 H   0  0  0  0  0  0  0  0  0  0  0  0  # atno 11005 bound_to 11000
  144.8596  139.5197  143.6818 LP  0  0  0  0  0  0  0  0  0  0  0  0  # atno 17320 bound_to 7965
  146.2897  139.7105  142.9169 LP  0  0  0  0  0  0  0  0  0  0  0  0  # atno 17321 bound_to 7965
  139.4982  144.3995  152.0196 LP  0  0  0  0  0  0  0  0  0  0  0  0  # atno 17342 bound_to 10162
  140.3103  144.3546  150.6036 LP  0  0  0  0  0  0  0  0  0  0  0  0  # atno 17343 bound_to 10162
  157.1062  131.0209  151.3066 LP  0  0  0  0  0  0  0  0  0  0  0  0  # atno 17370 bound_to 10713
  157.4741  130.7726  149.7351 LP  0  0  0  0  0  0  0  0  0  0  0  0  # atno 17371 bound_to 10713
  140.7254  133.9104  155.8175 LP  0  0  0  0  0  0  0  0  0  0  0  0  # atno 17394 bound_to 11000
  141.0195  134.0909  157.4136 LP  0  0  0  0  0  0  0  0  0  0  0  0  # atno 17395 bound_to 11000

$$$$
