AV-unprocessed.smi:2999|AV-procd|sdf|11423|dock4
  -GOLD-   2272016343D 1   1.00000     0.00000
 Structure written by MMmdl.
 36 38  0  0  0  0  0  0  0  0  2 V2000
  151.3558  139.2819  154.4996 O   0  0  0  0  0  0  0  0  0  0  0  0
  150.5379  139.1303  155.4101 C   0  0  0  0  0  0  0  0  0  0  0  0
  150.9358  139.2232  156.6853 N   0  0  0  0  0  0  0  0  0  0  0  0
  152.2973  139.5085  157.1214 C   0  0  0  0  0  0  0  0  0  0  0  0
  152.3088  140.2771  158.4518 C   0  0  2  0  0  0  0  0  0  0  0  0
  151.7297  141.7035  158.3291 C   0  0  0  0  0  0  0  0  0  0  0  0
  151.8281  142.4428  159.5817 N   0  0  0  0  0  0  0  0  0  0  0  0
  151.2949  143.7886  159.4348 C   0  0  0  0  0  0  0  0  0  0  0  0
  152.1470  144.8602  158.8053 C   0  0  0  0  0  0  0  0  0  0  0  0
  151.8464  144.8981  160.2925 C   0  0  0  0  0  0  0  0  0  0  0  0
  153.2235  142.4728  159.9991 C   0  0  0  0  0  0  0  0  0  0  0  0
  153.8041  141.0553  160.1334 C   0  0  0  0  0  0  0  0  0  0  0  0
  153.6615  140.3648  158.8960 O   0  0  0  0  0  0  0  0  0  0  0  0
  149.2187  138.8674  155.2685 N   0  5  0  0  0  0  0  0  0  0  0  0
  148.3912  139.8145  154.7973 C   0  0  0  0  0  0  0  0  0  0  0  0
  148.7506  141.0967  154.6644 N   0  0  0  0  0  0  0  0  0  0  0  0
  147.7329  141.9094  154.1616 C   0  0  0  0  0  0  0  0  0  0  0  0
  146.5691  141.2316  153.9128 C   0  0  0  0  0  0  0  0  0  0  0  0
  146.7161  139.5429  154.3080 S   0  0  0  0  0  0  0  0  0  0  0  0
  150.2387  139.0918  157.4036 H   0  0  0  0  0  0  0  0  0  0  0  0
  152.8374  138.5672  157.2329 H   0  0  0  0  0  0  0  0  0  0  0  0
  152.8144  140.0855  156.3531 H   0  0  0  0  0  0  0  0  0  0  0  0
  151.7357  139.7141  159.1909 H   0  0  0  0  0  0  0  0  0  0  0  0
  152.2572  142.2416  157.5395 H   0  0  0  0  0  0  0  0  0  0  0  0
  150.6847  141.6503  158.0221 H   0  0  0  0  0  0  0  0  0  0  0  0
  150.2275  143.7911  159.2190 H   0  0  0  0  0  0  0  0  0  0  0  0
  153.1587  144.5949  158.5043 H   0  0  0  0  0  0  0  0  0  0  0  0
  151.6474  145.5908  158.1727 H   0  0  0  0  0  0  0  0  0  0  0  0
  151.1471  145.6527  160.6467 H   0  0  0  0  0  0  0  0  0  0  0  0
  152.6602  144.6582  160.9745 H   0  0  0  0  0  0  0  0  0  0  0  0
  153.8155  143.0387  159.2779 H   0  0  0  0  0  0  0  0  0  0  0  0
  153.3126  142.9938  160.9528 H   0  0  0  0  0  0  0  0  0  0  0  0
  154.8608  141.1010  160.3966 H   0  0  0  0  0  0  0  0  0  0  0  0
  153.2982  140.5030  160.9268 H   0  0  0  0  0  0  0  0  0  0  0  0
  147.9251  142.9614  154.0121 H   0  0  0  0  0  0  0  0  0  0  0  0
  145.6394  141.6194  153.5252 H   0  0  0  0  0  0  0  0  0  0  0  0
  1  2  2  0  0  0  0
  2  3  1  0  0  0  0
  2 14  1  0  0  0  0
  3  4  1  0  0  0  0
  3 20  1  0  0  0  0
  4  5  1  0  0  0  0
  4 21  1  0  0  0  0
  4 22  1  0  0  0  0
  5 13  1  0  0  0  0
  5  6  1  0  0  0  0
  5 23  1  0  0  0  0
  6  7  1  0  0  0  0
  6 24  1  0  0  0  0
  6 25  1  0  0  0  0
  7  8  1  0  0  0  0
  7 11  1  0  0  0  0
  8 10  1  0  0  0  0
  8  9  1  0  0  0  0
  8 26  1  0  0  0  0
  9 10  1  0  0  0  0
  9 27  1  0  0  0  0
  9 28  1  0  0  0  0
 10 29  1  0  0  0  0
 10 30  1  0  0  0  0
 11 12  1  0  0  0  0
 11 31  1  0  0  0  0
 11 32  1  0  0  0  0
 12 13  1  0  0  0  0
 12 33  1  0  0  0  0
 12 34  1  0  0  0  0
 14 15  1  0  0  0  0
 15 19  1  0  0  0  0
 15 16  2  0  0  0  0
 16 17  1  0  0  0  0
 17 18  2  0  0  0  0
 17 35  1  0  0  0  0
 18 19  1  0  0  0  0
 18 36  1  0  0  0  0
M  CHG  1  14  -1
M  END
> <s_m_source_file>
AV-unprocessed.smi

> <i_m_source_file_index>
2999

> <i_lp_mmshare_version>
43012

> <i_f3d_flags>
0

> <s_epik_input>
czFbY0hdW2NIXW5jMVtOSF1DKD1PKVtOSF1bQ0gyXVtDQEBIXTJbQ0gyXU4oW0NIMl1bQ0gyXU8yKVtDSF0zW0NIMl1bQ0gyXTM=

> <s_epik_cmdline>
J2VwaWtfcHl0aG9uJywgJy1waCcsICc3LjAnLCAnLXRuJywgJzgnLCAnLW1hJywgJzIwMCcsICctbWV0YWxfYmluZGluZycsICctaW1hZScsICc8aW5maWxlLm1hZT4nLCAnLW9tYWUnLCAnPG91dGZpbGUubWFlPic=

> <r_lp_tautomer_probability>
0.999

> <r_epik_Ionization_Penalty>
6.67591

> <r_epik_Ionization_Penalty_Charging>
5.6519

> <r_epik_Ionization_Penalty_Neutral>
1.024

> <r_epik_State_Penalty>
5.68985

> <r_epik_Charging_Adjusted_Penalty>
11.3418

> <i_epik_Tot_Q>
-1

> <i_epik_Tot_abs_Q>
1

> <r_epik_Metal_State_Penalty>
1.67789

> <b_epik_Metal_Only>
1

> <s_lp_Force_Field>
OPLS_2005

> <r_lp_Energy>
28.4873

> <b_lp_Chiralities_Consistent>
1

> <s_lp_Variant>
AV-unprocessed.smi:2999-7

> <Gold.Version>
5.8.1

> <Gold.Id.Protein>
6NUR|6NUR_protein|mol2

> <Gold.PLP.Fitness>
44.5184

> <Gold.PLP.PLP>
-35.8192

> <Gold.PLP.part.hbond>
-2.0000

> <Gold.PLP.part.metal>
0.0000

> <Gold.PLP.part.buried>
-4.3861

> <Gold.PLP.part.nonpolar>
-30.6312

> <Gold.PLP.part.repulsive>
0.3670

> <Gold.PLP.ligand.clash>
0.0000

> <Gold.PLP.ligand.torsion>
1.4585

> <Gold.PLP.Chemscore.Hbond>
1.8143

> <Gold.PLP.Chemscore.CHOScore>
1.6514

> <Gold.PLP.Chemscore.Metal>
0.0000

> <Gold.Chemscore.Hbonds>
donor molecule, donor type, donor heavy atom, donor atom, acceptor molecule, acceptor atom, score
      P1  H  7989  7998       L1     1  1.00
      P1  H  7997  8009       L1    13  0.80
      L1  C    17    35       P1  8028  0.95
      L1  C    18    36       P1 10175  0.77

> <Gold.PLP.Chemscore.Internal.Correction>
1.2191

> <Gold.Rescore>
     Score         DG    S(hbond)    S(metal)    S(lipo)     H(rot)  DE(clash)    DE(int)     intcor
     17.29     -18.83       1.85        0.00      94.60       1.52       0.06       1.48       ----

> <Gold.Chemscore.Fitness>
17.2944

> <Gold.Chemscore.DG>
-18.8305

> <Gold.Chemscore.ZeroCoef>
-5.4800

> <Gold.Chemscore.Hbond>
1.8460

> <Gold.Chemscore.Metal>
0.0000

> <Gold.Chemscore.Lipo>
94.5951

> <Gold.Chemscore.Internal_Hbond>
0.0000

> <Gold.Chemscore.DEClash>
0.0579

> <Gold.Chemscore.DEInternal>
1.4782

> <Gold.Chemscore.Rot>
1.5167

> <Gold.Chemscore.Internal.Correction>
   9.000000E+99

> <Gold.Chemscore.Hbonds>
donor molecule, donor type, donor heavy atom, donor atom, acceptor molecule, acceptor atom, score
      P1  H  7989  7998       L1     1  1.00
      P1  H  7997  8009       L1    13  0.34

> <Gold.Chemscore.Hbond.Weighted>
-6.1655

> <Gold.Chemscore.Metal.Weighted>
-0.0000

> <Gold.Chemscore.Lipo.Weighted>
-11.0676

> <Gold.Chemscore.Internal_Hbond.Weighted>
0.0000

> <Gold.Chemscore.DEClash.Weighted>
0.0579

> <Gold.Chemscore.DEInternal.Weighted>
1.4782

> <Gold.Chemscore.Rot.Weighted>
3.8827

> <Gold.Chemscore.Internal.Correction.Weighted>
   9.000000E+99

> <Gold.Protein.RotatedTorsions>
[ 6907 6896 6895 6894 ] final -159.68 input  -60.11 | X-H torsion
[ 7974 7965 7964 7962 ] final  103.41 input  175.53 | X-H torsion
[ 8008 7997 7996 7995 ] final  140.70 input   59.86 | X-H torsion
[ 10167 10162 10161 10158 ] final  141.14 input  -65.29 | X-H torsion
[ 10718 10713 10712 10709 ] final -139.59 input   66.30 | X-H torsion
[ 10763 10752 10751 10750 ] final  -79.49 input  -60.55 | X-H torsion
[ 11005 11000 10999 10996 ] final   74.18 input  -57.11 | X-H torsion

> <Gold.Protein.ActiveResidues>
 VAL166  LYS551  ARG553  GLY616  TRP617  ASP618  TYR619  PRO620  LYS621  CYS622 
 ASP623  PHE694  ASN695  SER759  ASP760  ASP761  ALA762  ILE779  LEU786  VAL792 
 PHE793  MET794  SER795  GLU796  ALA797  LYS798  CYS799  TRP800  GLU811  SER814 

> <Gold.Protein.RotatedAtoms>
  151.3373  133.3976  159.2667 H   0  0  0  0  0  0  0  0  0  0  0  0  # atno 6907 bound_to 6896
  150.9907  134.9243  159.7908 H   0  0  0  0  0  0  0  0  0  0  0  0  # atno 6908 bound_to 6896
  152.5246  134.3338  159.9244 H   0  0  0  0  0  0  0  0  0  0  0  0  # atno 6909 bound_to 6896
  145.3462  139.2450  143.3582 H   0  0  0  0  0  0  0  0  0  0  0  0  # atno 7974 bound_to 7965
  156.2976  140.2334  156.4444 H   0  0  0  0  0  0  0  0  0  0  0  0  # atno 8008 bound_to 7997
  154.8157  140.0440  157.1395 H   0  0  0  0  0  0  0  0  0  0  0  0  # atno 8009 bound_to 7997
  154.9372  140.3024  155.5142 H   0  0  0  0  0  0  0  0  0  0  0  0  # atno 8010 bound_to 7997
  139.5029  144.6190  151.6096 H   0  0  0  0  0  0  0  0  0  0  0  0  # atno 10167 bound_to 10162
  156.3125  130.7489  151.1568 H   0  0  0  0  0  0  0  0  0  0  0  0  # atno 10718 bound_to 10713
  154.5393  135.5694  153.6825 H   0  0  0  0  0  0  0  0  0  0  0  0  # atno 10763 bound_to 10752
  152.9959  135.6224  154.2524 H   0  0  0  0  0  0  0  0  0  0  0  0  # atno 10764 bound_to 10752
  154.2454  135.2861  155.2817 H   0  0  0  0  0  0  0  0  0  0  0  0  # atno 10765 bound_to 10752
  139.9403  134.7411  156.1117 H   0  0  0  0  0  0  0  0  0  0  0  0  # atno 11005 bound_to 11000
  146.2987  140.4069  142.8712 LP  0  0  0  0  0  0  0  0  0  0  0  0  # atno 17320 bound_to 7965
  144.8752  140.7327  143.6021 LP  0  0  0  0  0  0  0  0  0  0  0  0  # atno 17321 bound_to 7965
  140.5887  143.9819  150.6311 LP  0  0  0  0  0  0  0  0  0  0  0  0  # atno 17342 bound_to 10162
  140.2992  143.3272  152.0988 LP  0  0  0  0  0  0  0  0  0  0  0  0  # atno 17343 bound_to 10162
  157.7394  131.0529  150.5233 LP  0  0  0  0  0  0  0  0  0  0  0  0  # atno 17370 bound_to 10713
  156.5375  130.4200  149.6170 LP  0  0  0  0  0  0  0  0  0  0  0  0  # atno 17371 bound_to 10713
  141.1035  133.6668  156.2809 LP  0  0  0  0  0  0  0  0  0  0  0  0  # atno 17394 bound_to 11000
  140.5968  134.5595  157.5510 LP  0  0  0  0  0  0  0  0  0  0  0  0  # atno 17395 bound_to 11000

$$$$
