AV-unprocessed.smi:36|AV-procd|sdf|289|dock10
  -GOLD-   2262016 73D 1   1.00000     0.00000
 Structure written by MMmdl.
 64 67  0  0  0  0  0  0  0  0  1 V2000
  147.2248  133.6427  161.9310 C   0  0  0  0  0  0  0  0  0  0  0  0
  145.7092  133.8378  161.7592 C   0  0  0  0  0  0  0  0  0  0  0  0
  144.9813  133.4619  163.0610 C   0  0  0  0  0  0  0  0  0  0  0  0
  145.4067  135.3025  161.4019 C   0  0  0  0  0  0  0  0  0  0  0  0
  145.0790  132.7098  160.3525 Si  0  0  0  0  0  0  0  0  0  0  0  0
  145.6212  130.9089  160.6192 C   0  0  0  0  0  0  0  0  0  0  0  0
  143.1846  132.7900  160.2154 C   0  0  0  0  0  0  0  0  0  0  0  0
  145.7707  133.2576  158.9073 O   0  0  0  0  0  0  0  0  0  0  0  0
  145.5758  132.6468  157.6478 C   0  0  0  0  0  0  0  0  0  0  0  0
  145.4215  133.7261  156.5674 C   0  0  2  0  0  0  0  0  0  0  0  0
  146.5229  134.6249  156.6551 O   0  0  0  0  0  0  0  0  0  0  0  0
  146.0701  135.8824  156.2864 C   0  0  2  0  0  0  0  0  0  0  0  0
  146.9971  136.9093  156.8431 N   0  0  0  0  0  0  0  0  0  0  0  0
  147.3557  137.0760  158.1305 C   0  0  0  0  0  0  0  0  0  0  0  0
  148.1987  138.0794  158.3602 N   0  0  0  0  0  0  0  0  0  0  0  0
  148.3942  138.6092  157.0887 C   0  0  0  0  0  0  0  0  0  0  0  0
  149.2216  139.7517  156.6450 C   0  0  0  0  0  0  0  0  0  0  0  0
  149.8997  140.3909  157.5494 N   0  0  0  0  0  0  0  0  0  0  0  0
  150.6932  141.4728  157.1913 C   0  0  0  0  0  0  0  0  0  0  0  0
  150.6788  142.1323  156.1483 O   0  0  0  0  0  0  0  0  0  0  0  0
  151.6779  141.8549  158.2474 C   0  0  0  0  0  0  0  0  0  0  0  0
  152.1000  143.1958  158.3695 C   0  0  0  0  0  0  0  0  0  0  0  0
  153.0371  143.5536  159.3586 C   0  0  0  0  0  0  0  0  0  0  0  0
  153.5559  142.5726  160.2259 C   0  0  0  0  0  0  0  0  0  0  0  0
  153.1376  141.2333  160.1049 C   0  0  0  0  0  0  0  0  0  0  0  0
  152.2005  140.8738  159.1163 C   0  0  0  0  0  0  0  0  0  0  0  0
  149.0967  139.9199  155.2597 N   0  0  0  0  0  0  0  0  0  0  0  0
  148.3106  139.1340  154.4026 C   0  0  0  0  0  0  0  0  0  0  0  0
  147.5766  138.1214  154.7804 N   0  0  0  0  0  0  0  0  0  0  0  0
  147.6665  137.9113  156.1491 C   0  0  0  0  0  0  0  0  0  0  0  0
  144.6871  136.0058  156.9066 C   0  0  0  0  0  0  0  0  0  0  0  0
  144.1535  134.5930  156.7301 C   0  0  1  0  0  0  0  0  0  0  0  0
  143.3533  134.5145  155.5666 O   0  0  0  0  0  0  0  0  0  0  0  0
  147.6174  134.2734  162.7294 H   0  0  0  0  0  0  0  0  0  0  0  0
  147.7640  133.8948  161.0175 H   0  0  0  0  0  0  0  0  0  0  0  0
  147.4663  132.6093  162.1810 H   0  0  0  0  0  0  0  0  0  0  0  0
  145.1863  132.4304  163.3486 H   0  0  0  0  0  0  0  0  0  0  0  0
  143.9006  133.5637  162.9546 H   0  0  0  0  0  0  0  0  0  0  0  0
  145.2927  134.1004  163.8883 H   0  0  0  0  0  0  0  0  0  0  0  0
  145.7319  135.9788  162.1931 H   0  0  0  0  0  0  0  0  0  0  0  0
  144.3380  135.4602  161.2525 H   0  0  0  0  0  0  0  0  0  0  0  0
  145.9147  135.6022  160.4851 H   0  0  0  0  0  0  0  0  0  0  0  0
  145.2216  130.5033  161.5484 H   0  0  0  0  0  0  0  0  0  0  0  0
  146.7063  130.8189  160.6647 H   0  0  0  0  0  0  0  0  0  0  0  0
  145.2769  130.2649  159.8101 H   0  0  0  0  0  0  0  0  0  0  0  0
  142.7030  132.4243  161.1220 H   0  0  0  0  0  0  0  0  0  0  0  0
  142.8169  132.1835  159.3880 H   0  0  0  0  0  0  0  0  0  0  0  0
  142.8356  133.8092  160.0518 H   0  0  0  0  0  0  0  0  0  0  0  0
  146.4257  132.0002  157.4280 H   0  0  0  0  0  0  0  0  0  0  0  0
  144.6903  132.0107  157.6787 H   0  0  0  0  0  0  0  0  0  0  0  0
  145.4506  133.2717  155.5765 H   0  0  0  0  0  0  0  0  0  0  0  0
  146.0853  136.0047  155.2022 H   0  0  0  0  0  0  0  0  0  0  0  0
  146.9856  136.4432  158.9240 H   0  0  0  0  0  0  0  0  0  0  0  0
  151.7088  143.9533  157.7056 H   0  0  0  0  0  0  0  0  0  0  0  0
  153.3587  144.5806  159.4508 H   0  0  0  0  0  0  0  0  0  0  0  0
  154.2755  142.8473  160.9830 H   0  0  0  0  0  0  0  0  0  0  0  0
  153.5367  140.4812  160.7692 H   0  0  0  0  0  0  0  0  0  0  0  0
  151.8870  139.8436  159.0271 H   0  0  0  0  0  0  0  0  0  0  0  0
  148.3556  139.4387  153.3562 H   0  0  0  0  0  0  0  0  0  0  0  0
  144.7872  136.2389  157.9679 H   0  0  0  0  0  0  0  0  0  0  0  0
  144.0977  136.7856  156.4224 H   0  0  0  0  0  0  0  0  0  0  0  0
  143.5507  134.2962  157.5894 H   0  0  0  0  0  0  0  0  0  0  0  0
  143.1177  133.6104  155.4253 H   0  0  0  0  0  0  0  0  0  0  0  0
  149.6205  140.6751  154.8413 H   0  0  0  0  0  0  0  0  0  0  0  0
  1  2  1  0  0  0  0
  1 34  1  0  0  0  0
  1 35  1  0  0  0  0
  1 36  1  0  0  0  0
  2  3  1  0  0  0  0
  2  4  1  0  0  0  0
  2  5  1  0  0  0  0
  3 37  1  0  0  0  0
  3 38  1  0  0  0  0
  3 39  1  0  0  0  0
  4 40  1  0  0  0  0
  4 41  1  0  0  0  0
  4 42  1  0  0  0  0
  5  6  1  0  0  0  0
  5  7  1  0  0  0  0
  5  8  1  0  0  0  0
  6 43  1  0  0  0  0
  6 44  1  0  0  0  0
  6 45  1  0  0  0  0
  7 46  1  0  0  0  0
  7 47  1  0  0  0  0
  7 48  1  0  0  0  0
  8  9  1  0  0  0  0
  9 10  1  0  0  0  0
  9 49  1  0  0  0  0
  9 50  1  0  0  0  0
 10 32  1  0  0  0  0
 10 11  1  0  0  0  0
 10 51  1  0  0  0  0
 11 12  1  0  0  0  0
 12 13  1  0  0  0  0
 12 31  1  0  0  0  0
 12 52  1  0  0  0  0
 13 30  1  0  0  0  0
 13 14  1  0  0  0  0
 14 15  2  0  0  0  0
 14 53  1  0  0  0  0
 15 16  1  0  0  0  0
 16 30  2  0  0  0  0
 16 17  1  0  0  0  0
 17 18  2  0  0  0  0
 17 27  1  0  0  0  0
 18 19  1  0  0  0  0
 19 20  2  0  0  0  0
 19 21  1  0  0  0  0
 21 26  1  0  0  0  0
 21 22  2  0  0  0  0
 22 23  1  0  0  0  0
 22 54  1  0  0  0  0
 23 24  2  0  0  0  0
 23 55  1  0  0  0  0
 24 25  1  0  0  0  0
 24 56  1  0  0  0  0
 25 26  2  0  0  0  0
 25 57  1  0  0  0  0
 26 58  1  0  0  0  0
 27 28  1  0  0  0  0
 27 64  1  0  0  0  0
 28 29  2  0  0  0  0
 28 59  1  0  0  0  0
 29 30  1  0  0  0  0
 31 32  1  0  0  0  0
 31 60  1  0  0  0  0
 31 61  1  0  0  0  0
 32 33  1  0  0  0  0
 32 62  1  0  0  0  0
 33 63  1  0  0  0  0
M  END
> <s_m_source_file>
AV-unprocessed.smi

> <i_m_source_file_index>
36

> <i_lp_mmshare_version>
43012

> <i_f3d_flags>
0

> <s_epik_input>
W0NIM11DKFtDSDNdKShbQ0gzXSlbU2ldKFtDSDNdKShbQ0gzXSlPW0NIMl1bQ0BASF0xT1tDQEhdKFtDSDJdW0NASF0xW09IXSluKFtjSF1uMiljKGMyMyluW2NIXW5jM1tOSF1DKD1PKWM0W2NIXVtjSF1bY0hdW2NIXVtjSF00

> <s_epik_cmdline>
J2VwaWtfcHl0aG9uJywgJy1waCcsICc3LjAnLCAnLXRuJywgJzgnLCAnLW1hJywgJzIwMCcsICctbWV0YWxfYmluZGluZycsICctaW1hZScsICc8aW5maWxlLm1hZT4nLCAnLW9tYWUnLCAnPG91dGZpbGUubWFlPic=

> <r_epik_Ionization_Penalty>
0.0850405

> <r_epik_Ionization_Penalty_Charging>
0.0850403

> <r_epik_Ionization_Penalty_Neutral>
1.47497e-07

> <r_epik_State_Penalty>
2.6133

> <r_epik_Charging_Adjusted_Penalty>
2.69834

> <i_epik_Tot_Q>
0

> <i_epik_Tot_abs_Q>
0

> <r_epik_Metal_State_Penalty>
2.92945

> <b_epik_Metal_Only>
0

> <s_epik_Chemistry_Notes>
This compound contains an acetal/aminal-like group ( X-CH(R)-Y where X, Y are N, S, or O) that may be acid/base labile, releasing an aldehyde.

> <s_lp_Force_Field>
OPLS_2005

> <r_lp_Energy>
44.9546

> <b_lp_Chiralities_Consistent>
1

> <s_lp_Variant>
AV-unprocessed.smi:36-11

> <Gold.Version>
5.8.1

> <Gold.Id.Protein>
6NUR|6NUR_protein|mol2

> <Gold.PLP.Fitness>
43.9999

> <Gold.PLP.PLP>
-39.3394

> <Gold.PLP.part.hbond>
-1.8849

> <Gold.PLP.part.metal>
0.0000

> <Gold.PLP.part.buried>
-5.9155

> <Gold.PLP.part.nonpolar>
-31.3084

> <Gold.PLP.part.repulsive>
0.2663

> <Gold.PLP.ligand.clash>
0.0000

> <Gold.PLP.ligand.torsion>
0.8467

> <Gold.PLP.Chemscore.Hbond>
1.0000

> <Gold.PLP.Chemscore.CHOScore>
1.0000

> <Gold.PLP.Chemscore.Metal>
0.0000

> <Gold.Chemscore.Hbonds>
donor molecule, donor type, donor heavy atom, donor atom, acceptor molecule, acceptor atom, score
      L1  H    33    63       P1 10957  1.00
      L1  C    28    59       P1  7957  0.84

> <Gold.PLP.Chemscore.Internal.Correction>
0.3538

> <Gold.Rescore>
     Score         DG    S(hbond)    S(metal)    S(lipo)     H(rot)  DE(clash)    DE(int)     intcor
     12.63     -13.61       1.00        0.00     100.15       2.70       0.17       0.81       ----

> <Gold.Chemscore.Fitness>
12.6267

> <Gold.Chemscore.DG>
-13.6108

> <Gold.Chemscore.ZeroCoef>
-5.4800

> <Gold.Chemscore.Hbond>
0.9986

> <Gold.Chemscore.Metal>
0.0000

> <Gold.Chemscore.Lipo>
100.1529

> <Gold.Chemscore.Internal_Hbond>
0.0000

> <Gold.Chemscore.DEClash>
0.1748

> <Gold.Chemscore.DEInternal>
0.8093

> <Gold.Chemscore.Rot>
2.7041

> <Gold.Chemscore.Internal.Correction>
   9.000000E+99

> <Gold.Chemscore.Hbonds>
donor molecule, donor type, donor heavy atom, donor atom, acceptor molecule, acceptor atom, score
      L1  H    33    63       P1 10957  0.97

> <Gold.Chemscore.Hbond.Weighted>
-3.3353

> <Gold.Chemscore.Metal.Weighted>
-0.0000

> <Gold.Chemscore.Lipo.Weighted>
-11.7179

> <Gold.Chemscore.Internal_Hbond.Weighted>
0.0000

> <Gold.Chemscore.DEClash.Weighted>
0.1748

> <Gold.Chemscore.DEInternal.Weighted>
0.8093

> <Gold.Chemscore.Rot.Weighted>
6.9225

> <Gold.Chemscore.Internal.Correction.Weighted>
   9.000000E+99

> <Gold.Protein.RotatedTorsions>
[ 6907 6896 6895 6894 ] final   -0.99 input  -60.11 | X-H torsion
[ 7974 7965 7964 7962 ] final  166.81 input  175.53 | X-H torsion
[ 8008 7997 7996 7995 ] final -143.48 input   59.86 | X-H torsion
[ 10167 10162 10161 10158 ] final   68.10 input  -65.29 | X-H torsion
[ 10718 10713 10712 10709 ] final   55.13 input   66.30 | X-H torsion
[ 10763 10752 10751 10750 ] final  -55.23 input  -60.55 | X-H torsion
[ 11005 11000 10999 10996 ] final  164.25 input  -57.11 | X-H torsion

> <Gold.Protein.ActiveResidues>
 VAL166  LYS551  ARG553  GLY616  TRP617  ASP618  TYR619  PRO620  LYS621  CYS622 
 ASP623  PHE694  ASN695  SER759  ASP760  ASP761  ALA762  ILE779  LEU786  VAL792 
 PHE793  MET794  SER795  GLU796  ALA797  LYS798  CYS799  TRP800  GLU811  SER814 

> <Gold.Protein.RotatedAtoms>
  151.5534  135.1067  159.9954 H   0  0  0  0  0  0  0  0  0  0  0  0  # atno 6907 bound_to 6896
  152.4481  133.7571  159.6737 H   0  0  0  0  0  0  0  0  0  0  0  0  # atno 6908 bound_to 6896
  150.8401  133.7882  159.3088 H   0  0  0  0  0  0  0  0  0  0  0  0  # atno 6909 bound_to 6896
  144.7448  139.8670  143.6385 H   0  0  0  0  0  0  0  0  0  0  0  0  # atno 7974 bound_to 7965
  155.5112  140.0583  157.2923 H   0  0  0  0  0  0  0  0  0  0  0  0  # atno 8008 bound_to 7997
  154.4551  140.1969  156.0351 H   0  0  0  0  0  0  0  0  0  0  0  0  # atno 8009 bound_to 7997
  156.0783  140.3250  155.7665 H   0  0  0  0  0  0  0  0  0  0  0  0  # atno 8010 bound_to 7997
  140.0824  144.5059  150.7153 H   0  0  0  0  0  0  0  0  0  0  0  0  # atno 10167 bound_to 10162
  157.5318  130.8635  149.8698 H   0  0  0  0  0  0  0  0  0  0  0  0  # atno 10718 bound_to 10713
  154.1874  135.6433  153.5050 H   0  0  0  0  0  0  0  0  0  0  0  0  # atno 10763 bound_to 10752
  153.0043  135.5420  154.6450 H   0  0  0  0  0  0  0  0  0  0  0  0  # atno 10764 bound_to 10752
  154.5830  135.2927  155.0686 H   0  0  0  0  0  0  0  0  0  0  0  0  # atno 10765 bound_to 10752
  140.2440  134.8029  157.3438 H   0  0  0  0  0  0  0  0  0  0  0  0  # atno 11005 bound_to 11000
  146.1307  139.4342  143.0170 LP  0  0  0  0  0  0  0  0  0  0  0  0  # atno 17320 bound_to 7965
  145.7167  141.0088  143.1424 LP  0  0  0  0  0  0  0  0  0  0  0  0  # atno 17321 bound_to 7965
  140.7071  143.2476  151.4694 LP  0  0  0  0  0  0  0  0  0  0  0  0  # atno 17342 bound_to 10162
  139.5772  144.1792  152.1919 LP  0  0  0  0  0  0  0  0  0  0  0  0  # atno 17343 bound_to 10162
  156.0428  130.3735  150.1392 LP  0  0  0  0  0  0  0  0  0  0  0  0  # atno 17370 bound_to 10713
  156.9576  130.9795  151.3485 LP  0  0  0  0  0  0  0  0  0  0  0  0  # atno 17371 bound_to 10713
  140.1624  134.4711  155.7885 LP  0  0  0  0  0  0  0  0  0  0  0  0  # atno 17394 bound_to 11000
  141.2208  133.6907  156.7568 LP  0  0  0  0  0  0  0  0  0  0  0  0  # atno 17395 bound_to 11000

$$$$
