AV-unprocessed.smi:72|AV-procd|sdf|734|dock1
  -GOLD-   2262017 63D 1   1.00000     0.00000
 Structure written by MMmdl.
 28 29  0  0  0  0  0  0  0  0  2 V2000
  153.3264  143.0961  159.8396 N   0  0  0  0  0  0  0  0  0  0  0  0
  152.4884  142.4917  159.1167 C   0  0  0  0  0  0  0  0  0  0  0  0
  151.8710  143.1737  157.9997 N   0  0  0  0  0  0  0  0  0  0  0  0
  151.0037  142.5154  157.2935 C   0  0  0  0  0  0  0  0  0  0  0  0
  150.6422  141.1403  157.6094 N   0  0  0  0  0  0  0  0  0  0  0  0
  149.6338  140.3783  156.7731 C   0  0  1  0  0  0  0  0  0  0  0  0
  148.6043  141.2368  156.3953 O   0  0  0  0  0  0  0  0  0  0  0  0
  148.0375  140.7454  155.1915 C   0  0  1  0  0  0  0  0  0  0  0  0
  147.2402  141.8572  154.4923 C   0  0  0  0  0  0  0  0  0  0  0  0
  148.1029  142.9044  154.1027 O   0  0  0  0  0  0  0  0  0  0  0  0
  149.2707  140.2878  154.4023 C   0  0  2  0  0  0  0  0  0  0  0  0
  148.9185  139.2487  153.5103 O   0  0  0  0  0  0  0  0  0  0  0  0
  150.2272  139.7770  155.4790 C   0  0  1  0  0  0  0  0  0  0  0  0
  151.5533  140.1877  155.1983 O   0  0  0  0  0  0  0  0  0  0  0  0
  151.2848  140.4856  158.6927 C   0  0  0  0  0  0  0  0  0  0  0  0
  150.9977  139.3086  158.9122 O   0  0  0  0  0  0  0  0  0  0  0  0
  152.1956  141.1818  159.4288 N   0  5  0  0  0  0  0  0  0  0  0  0
  149.1982  139.6211  157.4273 H   0  0  0  0  0  0  0  0  0  0  0  0
  147.4025  139.8872  155.4229 H   0  0  0  0  0  0  0  0  0  0  0  0
  149.7058  141.1290  153.8591 H   0  0  0  0  0  0  0  0  0  0  0  0
  150.1987  138.6905  155.5748 H   0  0  0  0  0  0  0  0  0  0  0  0
  153.4832  144.0484  159.5436 H   0  0  0  0  0  0  0  0  0  0  0  0
  150.5009  142.9429  156.4252 H   0  0  0  0  0  0  0  0  0  0  0  0
  146.6935  141.4718  153.6310 H   0  0  0  0  0  0  0  0  0  0  0  0
  146.5060  142.2797  155.1789 H   0  0  0  0  0  0  0  0  0  0  0  0
  148.2058  143.4961  154.8322 H   0  0  0  0  0  0  0  0  0  0  0  0
  149.3907  139.3762  152.7017 H   0  0  0  0  0  0  0  0  0  0  0  0
  151.9199  140.5672  155.9833 H   0  0  0  0  0  0  0  0  0  0  0  0
  1  2  2  0  0  0  0
  1 22  1  0  0  0  0
  2 17  1  0  0  0  0
  2  3  1  0  0  0  0
  3  4  2  0  0  0  0
  4  5  1  0  0  0  0
  4 23  1  0  0  0  0
  5  6  1  0  0  0  0
  5 15  1  0  0  0  0
  6 18  1  0  0  0  0
  6 13  1  0  0  0  0
  6  7  1  0  0  0  0
  7  8  1  0  0  0  0
  8 19  1  0  0  0  0
  8  9  1  0  0  0  0
  8 11  1  0  0  0  0
  9 10  1  0  0  0  0
  9 24  1  0  0  0  0
  9 25  1  0  0  0  0
 10 26  1  0  0  0  0
 11 20  1  0  0  0  0
 11 12  1  0  0  0  0
 11 13  1  0  0  0  0
 12 27  1  0  0  0  0
 13 21  1  0  0  0  0
 13 14  1  0  0  0  0
 14 28  1  0  0  0  0
 15 16  2  0  0  0  0
 15 17  1  0  0  0  0
M  CHG  1  17  -1
M  END
> <s_m_source_file>
AV-unprocessed.smi

> <i_m_source_file_index>
72

> <i_lp_mmshare_version>
43012

> <i_f3d_flags>
0

> <s_epik_input>
W05IMl1jMW5bY0hdbihjKD1PKW4xKVtDQEBIXTJPW0NASF0oW0NIMl1bT0hdKVtDQEBIXShbT0hdKVtDQEhdMltPSF0=

> <s_epik_cmdline>
J2VwaWtfcHl0aG9uJywgJy1waCcsICc3LjAnLCAnLXRuJywgJzgnLCAnLW1hJywgJzIwMCcsICctbWV0YWxfYmluZGluZycsICctaW1hZScsICc8aW5maWxlLm1hZT4nLCAnLW9tYWUnLCAnPG91dGZpbGUubWFlPic=

> <r_lp_tautomer_probability>
7.17554e-07

> <r_epik_Ionization_Penalty>
12.8705

> <r_epik_Ionization_Penalty_Charging>
5.64144

> <r_epik_Ionization_Penalty_Neutral>
7.22905

> <r_epik_State_Penalty>
3.30104

> <r_epik_Charging_Adjusted_Penalty>
8.94249

> <i_epik_Tot_Q>
-1

> <i_epik_Tot_abs_Q>
1

> <r_epik_Metal_State_Penalty>
0.529074

> <b_epik_Metal_Only>
1

> <s_epik_Chemistry_Notes>
This compound contains an acetal/aminal-like group ( X-CH(R)-Y where X, Y are N, S, or O) that may be acid/base labile, releasing an aldehyde.

> <s_lp_Force_Field>
OPLS_2005

> <r_lp_Energy>
37.9918

> <b_lp_Chiralities_Consistent>
1

> <s_lp_Variant>
AV-unprocessed.smi:72-72

> <Gold.Version>
5.8.1

> <Gold.Id.Protein>
6NUR|6NUR_protein|mol2

> <Gold.PLP.Fitness>
37.9149

> <Gold.PLP.PLP>
-27.1369

> <Gold.PLP.part.hbond>
-4.8270

> <Gold.PLP.part.metal>
0.0000

> <Gold.PLP.part.buried>
-4.9611

> <Gold.PLP.part.nonpolar>
-16.9432

> <Gold.PLP.part.repulsive>
0.1333

> <Gold.PLP.ligand.clash>
0.0000

> <Gold.PLP.ligand.torsion>
0.6666

> <Gold.PLP.Chemscore.Hbond>
2.9760

> <Gold.PLP.Chemscore.CHOScore>
1.0000

> <Gold.PLP.Chemscore.Metal>
0.0000

> <Gold.Chemscore.Hbonds>
donor molecule, donor type, donor heavy atom, donor atom, acceptor molecule, acceptor atom, score
      L1  H    10    26       P1  8028  1.00
      L1  H    12    27       P1  7957  1.00
      P1  H  7989  7998       L1    14  0.98
      L1  C     4    23       P1  8028  1.00

> <Gold.PLP.Chemscore.Internal.Correction>
0.1833

> <Gold.Rescore>
     Score         DG    S(hbond)    S(metal)    S(lipo)     H(rot)  DE(clash)    DE(int)     intcor
      6.65      -7.28       2.85        0.00      22.41       4.04       0.03       0.60       ----

> <Gold.Chemscore.Fitness>
6.6453

> <Gold.Chemscore.DG>
-7.2787

> <Gold.Chemscore.ZeroCoef>
-5.4800

> <Gold.Chemscore.Hbond>
2.8501

> <Gold.Chemscore.Metal>
0.0000

> <Gold.Chemscore.Lipo>
22.4138

> <Gold.Chemscore.Internal_Hbond>
0.0000

> <Gold.Chemscore.DEClash>
0.0291

> <Gold.Chemscore.DEInternal>
0.6043

> <Gold.Chemscore.Rot>
4.0403

> <Gold.Chemscore.Internal.Correction>
   9.000000E+99

> <Gold.Chemscore.Hbonds>
donor molecule, donor type, donor heavy atom, donor atom, acceptor molecule, acceptor atom, score
      L1  H    10    26       P1  8028  0.89
      L1  H    12    27       P1  7957  0.97
      P1  H  7989  7998       L1    14  0.69

> <Gold.Chemscore.Hbond.Weighted>
-9.5194

> <Gold.Chemscore.Metal.Weighted>
-0.0000

> <Gold.Chemscore.Lipo.Weighted>
-2.6224

> <Gold.Chemscore.Internal_Hbond.Weighted>
0.0000

> <Gold.Chemscore.DEClash.Weighted>
0.0291

> <Gold.Chemscore.DEInternal.Weighted>
0.6043

> <Gold.Chemscore.Rot.Weighted>
10.3431

> <Gold.Chemscore.Internal.Correction.Weighted>
   9.000000E+99

> <Gold.Protein.RotatedTorsions>
[ 6907 6896 6895 6894 ] final   52.70 input  -60.11 | X-H torsion
[ 7974 7965 7964 7962 ] final   59.10 input  175.53 | X-H torsion
[ 8008 7997 7996 7995 ] final -161.54 input   59.86 | X-H torsion
[ 10167 10162 10161 10158 ] final  -68.36 input  -65.29 | X-H torsion
[ 10718 10713 10712 10709 ] final  137.50 input   66.30 | X-H torsion
[ 10763 10752 10751 10750 ] final   -3.41 input  -60.55 | X-H torsion
[ 11005 11000 10999 10996 ] final    0.47 input  -57.11 | X-H torsion

> <Gold.Protein.ActiveResidues>
 VAL166  LYS551  ARG553  GLY616  TRP617  ASP618  TYR619  PRO620  LYS621  CYS622 
 ASP623  PHE694  ASN695  SER759  ASP760  ASP761  ALA762  ILE779  LEU786  VAL792 
 PHE793  MET794  SER795  GLU796  ALA797  LYS798  CYS799  TRP800  GLU811  SER814 

> <Gold.Protein.RotatedAtoms>
  152.3261  134.7319  160.0301 H   0  0  0  0  0  0  0  0  0  0  0  0  # atno 6907 bound_to 6896
  151.7752  133.3339  159.3464 H   0  0  0  0  0  0  0  0  0  0  0  0  # atno 6908 bound_to 6896
  150.7396  134.5913  159.6033 H   0  0  0  0  0  0  0  0  0  0  0  0  # atno 6909 bound_to 6896
  145.9109  139.3653  143.0536 H   0  0  0  0  0  0  0  0  0  0  0  0  # atno 7974 bound_to 7965
  155.7938  140.0882  157.1995 H   0  0  0  0  0  0  0  0  0  0  0  0  # atno 8008 bound_to 7997
  154.3984  140.1485  156.3252 H   0  0  0  0  0  0  0  0  0  0  0  0  # atno 8009 bound_to 7997
  155.8532  140.3433  155.5710 H   0  0  0  0  0  0  0  0  0  0  0  0  # atno 8010 bound_to 7997
  140.5513  143.2312  151.6906 H   0  0  0  0  0  0  0  0  0  0  0  0  # atno 10167 bound_to 10162
  157.4354  131.1052  151.0203 H   0  0  0  0  0  0  0  0  0  0  0  0  # atno 10718 bound_to 10713
  153.3711  135.6994  153.6637 H   0  0  0  0  0  0  0  0  0  0  0  0  # atno 10763 bound_to 10752
  153.5287  135.3597  155.2666 H   0  0  0  0  0  0  0  0  0  0  0  0  # atno 10764 bound_to 10752
  154.8681  135.4175  154.2989 H   0  0  0  0  0  0  0  0  0  0  0  0  # atno 10765 bound_to 10752
  140.6262  133.9616  155.8250 H   0  0  0  0  0  0  0  0  0  0  0  0  # atno 11005 bound_to 11000
  145.8672  140.9441  143.0669 LP  0  0  0  0  0  0  0  0  0  0  0  0  # atno 17320 bound_to 7965
  144.6743  140.0608  143.7476 LP  0  0  0  0  0  0  0  0  0  0  0  0  # atno 17321 bound_to 7965
  139.5028  144.3813  152.0373 LP  0  0  0  0  0  0  0  0  0  0  0  0  # atno 17342 bound_to 10162
  140.2930  144.3732  150.6083 LP  0  0  0  0  0  0  0  0  0  0  0  0  # atno 17343 bound_to 10162
  157.1085  130.6011  149.5476 LP  0  0  0  0  0  0  0  0  0  0  0  0  # atno 17370 bound_to 10713
  155.9928  130.4988  150.7357 LP  0  0  0  0  0  0  0  0  0  0  0  0  # atno 17371 bound_to 10713
  141.0707  134.0209  157.3529 LP  0  0  0  0  0  0  0  0  0  0  0  0  # atno 17394 bound_to 11000
  139.9134  135.0193  156.7783 LP  0  0  0  0  0  0  0  0  0  0  0  0  # atno 17395 bound_to 11000

$$$$
