AV-unprocessed.smi:1033|AV-procd|sdf|4511|dock10
  -GOLD-   22720 2523D 1   1.00000     0.00000
 Structure written by MMmdl.
 57 59  0  0  0  0  0  0  0  0  3 V2000
  155.4005  141.0951  163.1807 C   0  0  0  0  0  0  0  0  0  0  0  0
  154.4247  141.2847  162.0323 C   0  0  0  0  0  0  0  0  0  0  0  0
  154.5074  140.4277  160.9119 C   0  0  0  0  0  0  0  0  0  0  0  0
  153.6185  140.5696  159.8242 C   0  0  0  0  0  0  0  0  0  0  0  0
  153.5231  139.8560  158.6418 N   0  0  0  0  0  0  0  0  0  0  0  0
  152.5061  140.4658  158.0409 C   0  0  0  0  0  0  0  0  0  0  0  0
  151.9371  141.4998  158.6899 N   0  0  0  0  0  0  0  0  0  0  0  0
  150.8333  142.3189  158.2241 C   0  0  0  0  0  0  0  0  0  0  0  0
  149.9950  141.6158  157.1384 C   0  0  1  0  0  0  0  0  0  0  0  0
  148.7220  142.2289  157.1115 O   0  0  0  0  0  0  0  0  0  0  0  0
  150.6174  141.6979  155.7264 C   0  0  0  0  0  0  0  0  0  0  0  0
  150.2530  140.5397  154.8704 N   0  3  2  0  0  0  0  0  0  0  0  0
  148.7945  140.2534  154.8486 C   0  0  0  0  0  0  0  0  0  0  0  0
  148.4640  139.0806  153.9019 C   0  0  0  0  0  0  0  0  0  0  0  0
  149.2618  137.8639  154.2088 N   0  3  2  0  0  0  0  0  0  0  0  0
  148.7932  137.0926  155.3922 C   0  0  0  0  0  0  0  0  0  0  0  0
  149.1033  135.5878  155.2719 C   0  0  2  0  0  0  0  0  0  0  0  0
  150.6107  135.3125  155.1982 C   0  0  0  0  0  0  0  0  0  0  0  0
  148.5042  135.0854  154.0949 O   0  0  0  0  0  0  0  0  0  0  0  0
  150.7134  138.1718  154.2371 C   0  0  0  0  0  0  0  0  0  0  0  0
  151.0346  139.3240  155.2074 C   0  0  0  0  0  0  0  0  0  0  0  0
  152.6379  141.6025  159.8874 C   0  0  0  0  0  0  0  0  0  0  0  0
  152.5451  142.4615  160.9971 C   0  0  0  0  0  0  0  0  0  0  0  0
  153.4401  142.3045  162.0761 C   0  0  0  0  0  0  0  0  0  0  0  0
  153.3296  143.2335  163.2722 C   0  0  0  0  0  0  0  0  0  0  0  0
  156.0781  140.2613  162.9940 H   0  0  0  0  0  0  0  0  0  0  0  0
  154.8651  140.8896  164.1079 H   0  0  0  0  0  0  0  0  0  0  0  0
  156.0048  141.9917  163.3208 H   0  0  0  0  0  0  0  0  0  0  0  0
  155.2571  139.6504  160.8789 H   0  0  0  0  0  0  0  0  0  0  0  0
  152.1585  140.1480  157.0686 H   0  0  0  0  0  0  0  0  0  0  0  0
  150.2083  142.5671  159.0835 H   0  0  0  0  0  0  0  0  0  0  0  0
  151.2339  143.2619  157.8496 H   0  0  0  0  0  0  0  0  0  0  0  0
  149.8589  140.5755  157.4324 H   0  0  0  0  0  0  0  0  0  0  0  0
  148.7203  142.8973  156.4426 H   0  0  0  0  0  0  0  0  0  0  0  0
  150.2812  142.6241  155.2574 H   0  0  0  0  0  0  0  0  0  0  0  0
  151.7047  141.7625  155.7776 H   0  0  0  0  0  0  0  0  0  0  0  0
  148.4497  140.0358  155.8603 H   0  0  0  0  0  0  0  0  0  0  0  0
  148.2427  141.1328  154.5195 H   0  0  0  0  0  0  0  0  0  0  0  0
  147.3965  138.8650  153.9250 H   0  0  0  0  0  0  0  0  0  0  0  0
  148.6863  139.3777  152.8760 H   0  0  0  0  0  0  0  0  0  0  0  0
  149.2777  137.4712  156.2938 H   0  0  0  0  0  0  0  0  0  0  0  0
  147.7246  137.2487  155.5405 H   0  0  0  0  0  0  0  0  0  0  0  0
  148.6959  135.0411  156.1217 H   0  0  0  0  0  0  0  0  0  0  0  0
  151.1166  135.6628  156.0984 H   0  0  0  0  0  0  0  0  0  0  0  0
  151.0677  135.8138  154.3443 H   0  0  0  0  0  0  0  0  0  0  0  0
  150.8119  134.2447  155.1041 H   0  0  0  0  0  0  0  0  0  0  0  0
  148.7914  135.6060  153.3598 H   0  0  0  0  0  0  0  0  0  0  0  0
  151.2884  137.2808  154.4919 H   0  0  0  0  0  0  0  0  0  0  0  0
  151.0233  138.4515  153.2292 H   0  0  0  0  0  0  0  0  0  0  0  0
  152.1008  139.5476  155.1542 H   0  0  0  0  0  0  0  0  0  0  0  0
  150.8257  139.0270  156.2364 H   0  0  0  0  0  0  0  0  0  0  0  0
  151.7907  143.2338  161.0197 H   0  0  0  0  0  0  0  0  0  0  0  0
  152.5430  143.9751  163.1296 H   0  0  0  0  0  0  0  0  0  0  0  0
  154.2669  143.7669  163.4316 H   0  0  0  0  0  0  0  0  0  0  0  0
  153.0955  142.6670  164.1738 H   0  0  0  0  0  0  0  0  0  0  0  0
  149.1330  137.2326  153.4294 H   0  0  0  0  0  0  0  0  0  0  0  0
  150.5191  140.7944  153.9292 H   0  0  0  0  0  0  0  0  0  0  0  0
  1  2  1  0  0  0  0
  1 26  1  0  0  0  0
  1 27  1  0  0  0  0
  1 28  1  0  0  0  0
  2 24  1  0  0  0  0
  2  3  2  0  0  0  0
  3  4  1  0  0  0  0
  3 29  1  0  0  0  0
  4 22  2  0  0  0  0
  4  5  1  0  0  0  0
  5  6  2  0  0  0  0
  6  7  1  0  0  0  0
  6 30  1  0  0  0  0
  7  8  1  0  0  0  0
  7 22  1  0  0  0  0
  8  9  1  0  0  0  0
  8 31  1  0  0  0  0
  8 32  1  0  0  0  0
  9 10  1  0  0  0  0
  9 11  1  0  0  0  0
  9 33  1  0  0  0  0
 10 34  1  0  0  0  0
 11 12  1  0  0  0  0
 11 35  1  0  0  0  0
 11 36  1  0  0  0  0
 12 21  1  0  0  0  0
 12 13  1  0  0  0  0
 12 57  1  0  0  0  0
 13 14  1  0  0  0  0
 13 37  1  0  0  0  0
 13 38  1  0  0  0  0
 14 15  1  0  0  0  0
 14 39  1  0  0  0  0
 14 40  1  0  0  0  0
 15 16  1  0  0  0  0
 15 20  1  0  0  0  0
 15 56  1  0  0  0  0
 16 17  1  0  0  0  0
 16 41  1  0  0  0  0
 16 42  1  0  0  0  0
 17 18  1  0  0  0  0
 17 19  1  0  0  0  0
 17 43  1  0  0  0  0
 18 44  1  0  0  0  0
 18 45  1  0  0  0  0
 18 46  1  0  0  0  0
 19 47  1  0  0  0  0
 20 21  1  0  0  0  0
 20 48  1  0  0  0  0
 20 49  1  0  0  0  0
 21 50  1  0  0  0  0
 21 51  1  0  0  0  0
 22 23  1  0  0  0  0
 23 24  2  0  0  0  0
 23 52  1  0  0  0  0
 24 25  1  0  0  0  0
 25 53  1  0  0  0  0
 25 54  1  0  0  0  0
 25 55  1  0  0  0  0
M  CHG  1  12   1
M  CHG  1  15   1
M  END
> <s_m_source_file>
AV-unprocessed.smi

> <i_m_source_file_index>
1033

> <i_lp_mmshare_version>
43012

> <i_f3d_flags>
0

> <s_epik_input>
W0NIM11jKFtjSF0xKWMoW0NIM10pW2NIXWMoYzEyKW4oW2NIXW4yKVtDSDJdW0NASF0oW09IXSlbQ0gyXU4zW0NIMl1bQ0gyXU4oW0NIMl1bQ0gyXTMpW0NIMl1bQ0BIXShbQ0gzXSlbT0hd

> <s_epik_cmdline>
J2VwaWtfcHl0aG9uJywgJy1waCcsICc3LjAnLCAnLXRuJywgJzgnLCAnLW1hJywgJzIwMCcsICctbWV0YWxfYmluZGluZycsICctaW1hZScsICc8aW5maWxlLm1hZT4nLCAnLW9tYWUnLCAnPG91dGZpbGUubWFlPic=

> <r_epik_Ionization_Penalty>
3.16016

> <r_epik_Ionization_Penalty_Charging>
3.07679

> <r_epik_Ionization_Penalty_Neutral>
0.083365

> <r_epik_State_Penalty>
2.09701

> <r_epik_Charging_Adjusted_Penalty>
5.1738

> <i_epik_Tot_Q>
2

> <i_epik_Tot_abs_Q>
2

> <r_epik_Metal_State_Penalty>
2.02534

> <b_epik_Metal_Only>
0

> <s_lp_Force_Field>
OPLS_2005

> <r_lp_Energy>
29.7714

> <b_lp_Chiralities_Consistent>
1

> <s_lp_Variant>
AV-unprocessed.smi:1033-22

> <Gold.Version>
5.8.1

> <Gold.Id.Protein>
6NUR|6NUR_protein|mol2

> <Gold.PLP.Fitness>
59.9796

> <Gold.PLP.PLP>
-47.2932

> <Gold.PLP.part.hbond>
-3.8834

> <Gold.PLP.part.metal>
0.0000

> <Gold.PLP.part.buried>
-2.6008

> <Gold.PLP.part.nonpolar>
-41.0167

> <Gold.PLP.part.repulsive>
1.2496

> <Gold.PLP.ligand.clash>
0.0000

> <Gold.PLP.ligand.torsion>
1.2393

> <Gold.PLP.Chemscore.Hbond>
5.0000

> <Gold.PLP.Chemscore.CHOScore>
0.0000

> <Gold.PLP.Chemscore.Metal>
0.0000

> <Gold.Chemscore.Hbonds>
donor molecule, donor type, donor heavy atom, donor atom, acceptor molecule, acceptor atom, score
      L1  H    10    34       P1  8028  1.00
      L1  H    15    56       P1  7948  2.00
      L1  H    19    47       P1  7948  1.00
      P1  H  7997  8009       L1     5  0.80

> <Gold.PLP.Chemscore.Internal.Correction>
0.1651

> <Gold.Rescore>
     Score         DG    S(hbond)    S(metal)    S(lipo)     H(rot)  DE(clash)    DE(int)     intcor
     22.02     -23.88       3.48        0.00     126.55       3.14       0.51       1.36       ----

> <Gold.Chemscore.Fitness>
22.0170

> <Gold.Chemscore.DG>
-23.8817

> <Gold.Chemscore.ZeroCoef>
-5.4800

> <Gold.Chemscore.Hbond>
3.4816

> <Gold.Chemscore.Metal>
0.0000

> <Gold.Chemscore.Lipo>
126.5490

> <Gold.Chemscore.Internal_Hbond>
0.0000

> <Gold.Chemscore.DEClash>
0.5072

> <Gold.Chemscore.DEInternal>
1.3576

> <Gold.Chemscore.Rot>
3.1380

> <Gold.Chemscore.Internal.Correction>
   9.000000E+99

> <Gold.Chemscore.Hbonds>
donor molecule, donor type, donor heavy atom, donor atom, acceptor molecule, acceptor atom, score
      L1  H    10    34       P1  8028  0.93
      L1  H    15    56       P1  7948  1.00
      L1  H    19    47       P1  7948  0.92
      P1  H  7997  8009       L1     5  0.12

> <Gold.Chemscore.Hbond.Weighted>
-11.6287

> <Gold.Chemscore.Metal.Weighted>
-0.0000

> <Gold.Chemscore.Lipo.Weighted>
-14.8062

> <Gold.Chemscore.Internal_Hbond.Weighted>
0.0000

> <Gold.Chemscore.DEClash.Weighted>
0.5072

> <Gold.Chemscore.DEInternal.Weighted>
1.3576

> <Gold.Chemscore.Rot.Weighted>
8.0332

> <Gold.Chemscore.Internal.Correction.Weighted>
   9.000000E+99

> <Gold.Protein.RotatedTorsions>
[ 6907 6896 6895 6894 ] final  -56.67 input  -60.11 | X-H torsion
[ 7974 7965 7964 7962 ] final  167.97 input  175.53 | X-H torsion
[ 8008 7997 7996 7995 ] final  142.68 input   59.86 | X-H torsion
[ 10167 10162 10161 10158 ] final   97.65 input  -65.29 | X-H torsion
[ 10718 10713 10712 10709 ] final  -21.85 input   66.30 | X-H torsion
[ 10763 10752 10751 10750 ] final    7.29 input  -60.55 | X-H torsion
[ 11005 11000 10999 10996 ] final   50.89 input  -57.11 | X-H torsion

> <Gold.Protein.ActiveResidues>
 VAL166  LYS551  ARG553  GLY616  TRP617  ASP618  TYR619  PRO620  LYS621  CYS622 
 ASP623  PHE694  ASN695  SER759  ASP760  ASP761  ALA762  ILE779  LEU786  VAL792 
 PHE793  MET794  SER795  GLU796  ALA797  LYS798  CYS799  TRP800  GLU811  SER814 

> <Gold.Protein.RotatedAtoms>
  150.8148  134.7324  159.6719 H   0  0  0  0  0  0  0  0  0  0  0  0  # atno 6907 bound_to 6896
  152.4267  134.5851  159.9968 H   0  0  0  0  0  0  0  0  0  0  0  0  # atno 6908 bound_to 6896
  151.6051  133.3315  159.3091 H   0  0  0  0  0  0  0  0  0  0  0  0  # atno 6909 bound_to 6896
  144.7405  139.8839  143.6398 H   0  0  0  0  0  0  0  0  0  0  0  0  # atno 7974 bound_to 7965
  156.2945  140.2282  156.4767 H   0  0  0  0  0  0  0  0  0  0  0  0  # atno 8008 bound_to 7997
  154.7888  140.0455  157.1206 H   0  0  0  0  0  0  0  0  0  0  0  0  # atno 8009 bound_to 7997
  154.9670  140.3061  155.5008 H   0  0  0  0  0  0  0  0  0  0  0  0  # atno 8010 bound_to 7997
  139.7781  144.6898  151.0061 H   0  0  0  0  0  0  0  0  0  0  0  0  # atno 10167 bound_to 10162
  156.5125  130.4613  149.6640 H   0  0  0  0  0  0  0  0  0  0  0  0  # atno 10718 bound_to 10713
  153.2380  135.6900  153.7815 H   0  0  0  0  0  0  0  0  0  0  0  0  # atno 10763 bound_to 10752
  153.6955  135.3306  155.3213 H   0  0  0  0  0  0  0  0  0  0  0  0  # atno 10764 bound_to 10752
  154.8343  135.4555  154.1291 H   0  0  0  0  0  0  0  0  0  0  0  0  # atno 10765 bound_to 10752
  140.0979  134.5121  155.8790 H   0  0  0  0  0  0  0  0  0  0  0  0  # atno 11005 bound_to 11000
  146.1191  139.4206  143.0239 LP  0  0  0  0  0  0  0  0  0  0  0  0  # atno 17320 bound_to 7965
  145.7331  141.0035  143.1341 LP  0  0  0  0  0  0  0  0  0  0  0  0  # atno 17321 bound_to 7965
  140.7817  143.4513  151.0408 LP  0  0  0  0  0  0  0  0  0  0  0  0  # atno 17342 bound_to 10162
  139.8195  143.7840  152.3176 LP  0  0  0  0  0  0  0  0  0  0  0  0  # atno 17343 bound_to 10162
  156.3226  130.7289  151.2203 LP  0  0  0  0  0  0  0  0  0  0  0  0  # atno 17370 bound_to 10713
  157.7448  131.0451  150.4828 LP  0  0  0  0  0  0  0  0  0  0  0  0  # atno 17371 bound_to 10713
  141.2097  133.6687  156.6458 LP  0  0  0  0  0  0  0  0  0  0  0  0  # atno 17394 bound_to 11000
  140.3261  134.7967  157.4290 LP  0  0  0  0  0  0  0  0  0  0  0  0  # atno 17395 bound_to 11000

$$$$
