AV-unprocessed.smi:2718|AV-procd|sdf|10491|dock5
  -GOLD-   2272014533D 1   1.00000     0.00000
 Structure written by MMmdl.
 47 48  0  0  0  0  0  0  0  0  1 V2000
  151.8645  145.2531  159.1352 C   0  0  0  0  0  0  0  0  0  0  0  0
  151.8798  143.7383  159.0847 C   0  0  0  0  0  0  0  0  0  0  0  0
  152.5855  143.0723  160.2532 C   0  0  0  0  0  0  0  0  0  0  0  0
  151.3053  143.0589  158.0734 C   0  0  0  0  0  0  0  0  0  0  0  0
  151.2615  141.5757  157.9107 C   0  0  1  0  0  0  0  0  0  0  0  0
  149.9721  140.7631  157.9104 C   0  0  1  0  0  0  0  0  0  0  0  0
  148.6422  141.4411  158.0095 C   0  0  0  0  0  0  0  0  0  0  0  0
  148.3723  142.2448  158.9023 O   0  0  0  0  0  0  0  0  0  0  0  0
  147.8033  141.1608  157.0009 N   0  0  0  0  0  0  0  0  0  0  0  0
  146.4617  141.7130  156.8477 C   0  0  0  0  0  0  0  0  0  0  0  0
  146.3350  142.6192  155.6053 C   0  0  1  0  0  0  0  0  0  0  0  0
  146.5100  141.8544  154.2813 C   0  0  0  0  0  0  0  0  0  0  0  0
  145.0413  143.3846  155.6266 C   0  0  0  0  0  0  0  0  0  0  0  0
  144.1852  143.3645  156.6574 N   0  0  0  0  0  0  0  0  0  0  0  0
  143.1453  144.1977  156.2976 N   0  0  0  0  0  0  0  0  0  0  0  0
  143.4778  144.6438  155.0874 C   0  0  0  0  0  0  0  0  0  0  0  0
  144.6438  144.1817  154.6120 N   0  0  0  0  0  0  0  0  0  0  0  0
  145.2812  144.4809  153.3451 C   0  0  0  0  0  0  0  0  0  0  0  0
  150.7916  140.9074  156.6298 C   0  0  0  0  0  0  0  0  0  0  0  0
  150.3339  141.7460  155.4379 C   0  0  0  0  0  0  0  0  0  0  0  0
  151.5404  139.6878  156.1213 C   0  0  0  0  0  0  0  0  0  0  0  0
  152.8835  145.6406  159.1480 H   0  0  0  0  0  0  0  0  0  0  0  0
  151.3555  145.5958  160.0361 H   0  0  0  0  0  0  0  0  0  0  0  0
  151.3505  145.6789  158.2731 H   0  0  0  0  0  0  0  0  0  0  0  0
  152.1168  143.3693  161.1920 H   0  0  0  0  0  0  0  0  0  0  0  0
  153.6313  143.3784  160.2832 H   0  0  0  0  0  0  0  0  0  0  0  0
  152.5551  141.9846  160.1964 H   0  0  0  0  0  0  0  0  0  0  0  0
  150.8318  143.6291  157.2881 H   0  0  0  0  0  0  0  0  0  0  0  0
  152.1074  141.1110  158.4141 H   0  0  0  0  0  0  0  0  0  0  0  0
  150.0060  139.7825  158.3812 H   0  0  0  0  0  0  0  0  0  0  0  0
  148.1122  140.5084  156.2944 H   0  0  0  0  0  0  0  0  0  0  0  0
  145.7575  140.8830  156.7827 H   0  0  0  0  0  0  0  0  0  0  0  0
  146.1949  142.2691  157.7483 H   0  0  0  0  0  0  0  0  0  0  0  0
  147.1507  143.3400  155.6497 H   0  0  0  0  0  0  0  0  0  0  0  0
  146.4491  142.5326  153.4296 H   0  0  0  0  0  0  0  0  0  0  0  0
  145.7384  141.0940  154.1565 H   0  0  0  0  0  0  0  0  0  0  0  0
  147.4780  141.3559  154.2303 H   0  0  0  0  0  0  0  0  0  0  0  0
  142.8535  145.3300  154.5341 H   0  0  0  0  0  0  0  0  0  0  0  0
  144.6738  145.1849  152.7758 H   0  0  0  0  0  0  0  0  0  0  0  0
  145.3973  143.5648  152.7653 H   0  0  0  0  0  0  0  0  0  0  0  0
  146.2624  144.9226  153.5218 H   0  0  0  0  0  0  0  0  0  0  0  0
  149.6675  141.1633  154.8014 H   0  0  0  0  0  0  0  0  0  0  0  0
  151.1933  142.0568  154.8433 H   0  0  0  0  0  0  0  0  0  0  0  0
  149.8003  142.6440  155.7484 H   0  0  0  0  0  0  0  0  0  0  0  0
  150.8942  139.0838  155.4839 H   0  0  0  0  0  0  0  0  0  0  0  0
  151.8790  139.0666  156.9511 H   0  0  0  0  0  0  0  0  0  0  0  0
  152.4147  139.9914  155.5449 H   0  0  0  0  0  0  0  0  0  0  0  0
  1  2  1  0  0  0  0
  1 22  1  0  0  0  0
  1 23  1  0  0  0  0
  1 24  1  0  0  0  0
  2  3  1  0  0  0  0
  2  4  2  0  0  0  0
  3 25  1  0  0  0  0
  3 26  1  0  0  0  0
  3 27  1  0  0  0  0
  4  5  1  0  0  0  0
  4 28  1  0  0  0  0
  5 19  1  0  0  0  0
  5  6  1  0  0  0  0
  5 29  1  0  0  0  0
  6  7  1  0  0  0  0
  6 19  1  0  0  0  0
  6 30  1  0  0  0  0
  7  8  2  0  0  0  0
  7  9  1  0  0  0  0
  9 10  1  0  0  0  0
  9 31  1  0  0  0  0
 10 11  1  0  0  0  0
 10 32  1  0  0  0  0
 10 33  1  0  0  0  0
 11 12  1  0  0  0  0
 11 13  1  0  0  0  0
 11 34  1  0  0  0  0
 12 35  1  0  0  0  0
 12 36  1  0  0  0  0
 12 37  1  0  0  0  0
 13 17  1  0  0  0  0
 13 14  2  0  0  0  0
 14 15  1  0  0  0  0
 15 16  2  0  0  0  0
 16 17  1  0  0  0  0
 16 38  1  0  0  0  0
 17 18  1  0  0  0  0
 18 39  1  0  0  0  0
 18 40  1  0  0  0  0
 18 41  1  0  0  0  0
 19 20  1  0  0  0  0
 19 21  1  0  0  0  0
 20 42  1  0  0  0  0
 20 43  1  0  0  0  0
 20 44  1  0  0  0  0
 21 45  1  0  0  0  0
 21 46  1  0  0  0  0
 21 47  1  0  0  0  0
M  END
> <s_m_source_file>
AV-unprocessed.smi

> <i_m_source_file_index>
2718

> <i_lp_mmshare_version>
43012

> <i_f3d_flags>
0

> <s_epik_input>
W0NIM11DKFtDSDNdKT1bQ0hdW0NAQEhdKEMxKFtDSDNdKVtDSDNdKVtDQEhdMUMoPU8pW05IXVtDSDJdW0NASF0oW0NIM10pYzJubltjSF1uMltDSDNd

> <s_epik_cmdline>
J2VwaWtfcHl0aG9uJywgJy1waCcsICc3LjAnLCAnLXRuJywgJzgnLCAnLW1hJywgJzIwMCcsICctbWV0YWxfYmluZGluZycsICctaW1hZScsICc8aW5maWxlLm1hZT4nLCAnLW9tYWUnLCAnPG91dGZpbGUubWFlPic=

> <r_lp_tautomer_probability>
1

> <r_epik_Ionization_Penalty>
0.000449586

> <r_epik_Ionization_Penalty_Charging>
0

> <r_epik_Ionization_Penalty_Neutral>
0.000449586

> <r_epik_State_Penalty>
0.000243372

> <r_epik_Charging_Adjusted_Penalty>
0.000243372

> <i_epik_Tot_Q>
0

> <i_epik_Tot_abs_Q>
0

> <r_epik_Metal_State_Penalty>
-0

> <b_epik_Metal_Only>
0

> <s_lp_Force_Field>
OPLS_2005

> <r_lp_Energy>
17.9129

> <b_lp_Chiralities_Consistent>
1

> <s_lp_Variant>
AV-unprocessed.smi:2718-6

> <Gold.Version>
5.8.1

> <Gold.Id.Protein>
6NUR|6NUR_protein|mol2

> <Gold.PLP.Fitness>
40.4233

> <Gold.PLP.PLP>
-40.7625

> <Gold.PLP.part.hbond>
-1.1127

> <Gold.PLP.part.metal>
0.0000

> <Gold.PLP.part.buried>
-5.4677

> <Gold.PLP.part.nonpolar>
-34.5669

> <Gold.PLP.part.repulsive>
0.2137

> <Gold.PLP.ligand.clash>
0.0000

> <Gold.PLP.ligand.torsion>
0.3236

> <Gold.PLP.Chemscore.Hbond>
0.0000

> <Gold.PLP.Chemscore.CHOScore>
0.0000

> <Gold.PLP.Chemscore.Metal>
0.0000

> <Gold.PLP.Chemscore.Internal.Correction>
0.3081

> <Gold.Rescore>
     Score         DG    S(hbond)    S(metal)    S(lipo)     H(rot)  DE(clash)    DE(int)     intcor
     10.40     -12.20       0.08        0.00      97.97       1.95       0.03       1.77       ----

> <Gold.Chemscore.Fitness>
10.3993

> <Gold.Chemscore.DG>
-12.1956

> <Gold.Chemscore.ZeroCoef>
-5.4800

> <Gold.Chemscore.Hbond>
0.0759

> <Gold.Chemscore.Metal>
0.0000

> <Gold.Chemscore.Lipo>
97.9718

> <Gold.Chemscore.Internal_Hbond>
0.0000

> <Gold.Chemscore.DEClash>
0.0310

> <Gold.Chemscore.DEInternal>
1.7652

> <Gold.Chemscore.Rot>
1.9533

> <Gold.Chemscore.Internal.Correction>
   9.000000E+99

> <Gold.Chemscore.Hbond.Weighted>
-0.2534

> <Gold.Chemscore.Metal.Weighted>
-0.0000

> <Gold.Chemscore.Lipo.Weighted>
-11.4627

> <Gold.Chemscore.Internal_Hbond.Weighted>
0.0000

> <Gold.Chemscore.DEClash.Weighted>
0.0310

> <Gold.Chemscore.DEInternal.Weighted>
1.7652

> <Gold.Chemscore.Rot.Weighted>
5.0005

> <Gold.Chemscore.Internal.Correction.Weighted>
   9.000000E+99

> <Gold.Protein.RotatedTorsions>
[ 6907 6896 6895 6894 ] final  123.76 input  -60.11 | X-H torsion
[ 7974 7965 7964 7962 ] final  108.66 input  175.53 | X-H torsion
[ 8008 7997 7996 7995 ] final -169.81 input   59.86 | X-H torsion
[ 10167 10162 10161 10158 ] final  134.32 input  -65.29 | X-H torsion
[ 10718 10713 10712 10709 ] final  -99.36 input   66.30 | X-H torsion
[ 10763 10752 10751 10750 ] final  -43.54 input  -60.55 | X-H torsion
[ 11005 11000 10999 10996 ] final  154.14 input  -57.11 | X-H torsion

> <Gold.Protein.ActiveResidues>
 VAL166  LYS551  ARG553  GLY616  TRP617  ASP618  TYR619  PRO620  LYS621  CYS622 
 ASP623  PHE694  ASN695  SER759  ASP760  ASP761  ALA762  ILE779  LEU786  VAL792 
 PHE793  MET794  SER795  GLU796  ALA797  LYS798  CYS799  TRP800  GLU811  SER814 

> <Gold.Protein.RotatedAtoms>
  152.4134  133.7000  159.6417 H   0  0  0  0  0  0  0  0  0  0  0  0  # atno 6907 bound_to 6896
  150.8013  133.8583  159.3233 H   0  0  0  0  0  0  0  0  0  0  0  0  # atno 6908 bound_to 6896
  151.6319  135.1024  160.0175 H   0  0  0  0  0  0  0  0  0  0  0  0  # atno 6909 bound_to 6896
  145.2778  139.2643  143.3932 H   0  0  0  0  0  0  0  0  0  0  0  0  # atno 7974 bound_to 7965
  155.9099  140.1055  157.1287 H   0  0  0  0  0  0  0  0  0  0  0  0  # atno 8008 bound_to 7997
  154.4038  140.1276  156.4609 H   0  0  0  0  0  0  0  0  0  0  0  0  # atno 8009 bound_to 7997
  155.7322  140.3468  155.5067 H   0  0  0  0  0  0  0  0  0  0  0  0  # atno 8010 bound_to 7997
  139.5261  144.6573  151.5122 H   0  0  0  0  0  0  0  0  0  0  0  0  # atno 10167 bound_to 10162
  156.0132  130.5279  150.6658 H   0  0  0  0  0  0  0  0  0  0  0  0  # atno 10718 bound_to 10713
  153.9973  135.6698  153.4757 H   0  0  0  0  0  0  0  0  0  0  0  0  # atno 10763 bound_to 10752
  153.0678  135.4991  154.8234 H   0  0  0  0  0  0  0  0  0  0  0  0  # atno 10764 bound_to 10752
  154.7073  135.3090  154.9213 H   0  0  0  0  0  0  0  0  0  0  0  0  # atno 10765 bound_to 10752
  140.1462  134.8706  157.2395 H   0  0  0  0  0  0  0  0  0  0  0  0  # atno 11005 bound_to 11000
  146.3226  140.3237  142.8635 LP  0  0  0  0  0  0  0  0  0  0  0  0  # atno 17320 bound_to 7965
  144.9279  140.7942  143.5707 LP  0  0  0  0  0  0  0  0  0  0  0  0  # atno 17321 bound_to 7965
  140.6405  143.8899  150.6687 LP  0  0  0  0  0  0  0  0  0  0  0  0  # atno 17342 bound_to 10162
  140.2232  143.3793  152.1626 LP  0  0  0  0  0  0  0  0  0  0  0  0  # atno 17343 bound_to 10162
  157.4391  131.0859  151.0961 LP  0  0  0  0  0  0  0  0  0  0  0  0  # atno 17370 bound_to 10713
  157.1511  130.6184  149.5582 LP  0  0  0  0  0  0  0  0  0  0  0  0  # atno 17371 bound_to 10713
  140.2661  134.3515  155.7389 LP  0  0  0  0  0  0  0  0  0  0  0  0  # atno 17394 bound_to 11000
  141.2193  133.7397  156.9153 LP  0  0  0  0  0  0  0  0  0  0  0  0  # atno 17395 bound_to 11000

$$$$
