#       Name:                AV-unprocessed.smi:1911
#       Creating user name   scv26
#       Creation time:       Fri Mar 27 09:48:25 2020


#       File generated by GOLD software.
#

@<TRIPOS>MOLECULE
AV-unprocessed.smi:1911
    57    59     1
SMALL
NO_CHARGES


@<TRIPOS>ATOM
      1 ****        -6.4241  -5.0343   0.6134 N.pl3          1 S1                -1.0000
      2 ****        -6.9811  -3.8139   0.7490 C.2            1 S1                 0.0000
      3 ****        -7.9228  -3.3390   0.1184 O.2            1 S1                 0.0000
      4 ****        -6.3023  -2.9803   1.8415 C.3            1 S1                 0.0000
      5 ****        -4.8786  -2.7249   1.5036 N.4            1 S1                 1.0000
      6 ****        -4.0481  -2.4735   2.7082 C.3            1 S1                 0.0000
      7 ****        -2.5586  -2.3573   2.3433 C.3            1 S1                 0.0000
      8 ****        -2.3309  -1.2588   1.2933 C.3            1 S1                 0.0000
      9 ****        -0.9217  -1.2167   0.9124 N.am           1 S1                 0.0000
     10 ****        -0.2770  -0.1296   0.4643 C.2            1 S1                 0.0000
     11 ****        -0.8224   0.9614   0.2988 O.2            1 S1                 0.0000
     12 ****         1.0143  -0.3998   0.2066 N.am           1 S1                 0.0000
     13 ****         2.0355   0.4949  -0.2138 C.ar           1 S1                 0.0000
     14 ****         3.1876  -0.0467  -0.8162 C.ar           1 S1                 0.0000
     15 ****         4.2240   0.8154  -1.2218 C.ar           1 S1                 0.0000
     16 ****         4.0842   2.2069  -1.0060 C.ar           1 S1                 0.0000
     17 ****         5.0970   3.1094  -1.3868 N.pl3          1 S1                 0.0000
     18 ****         6.2336   2.7117  -2.2009 C.3            1 S1                 0.0000
     19 ****         7.0025   4.0085  -2.4530 C.3            1 S1                 0.0000
     20 ****         5.9033   5.0710  -2.4657 C.3            1 S1                 0.0000
     21 ****         4.8706   4.5471  -1.4619 C.3            1 S1                 0.0000
     22 ****         2.9850   2.7266  -0.4105 N.ar           1 S1                 0.0000
     23 ****         1.9929   1.8968  -0.0251 C.ar           1 S1                 0.0000
     24 ****        -3.2232  -1.5266   0.0684 C.3            1 S1                 0.0000
     25 ****        -4.6994  -1.6620   0.4779 C.3            1 S1                 0.0000
     26 ****        -6.8117  -5.6766  -0.0882 H              1 S1                 0.0000
     27 ****        -6.8324  -2.0388   1.9944 H              1 S1                 0.0000
     28 ****        -6.3779  -3.5349   2.7785 H              1 S1                 0.0000
     29 ****        -4.3888  -1.5621   3.2021 H              1 S1                 0.0000
     30 ****        -4.1781  -3.2890   3.4206 H              1 S1                 0.0000
     31 ****        -1.9757  -2.1453   3.2403 H              1 S1                 0.0000
     32 ****        -2.2040  -3.3163   1.9625 H              1 S1                 0.0000
     33 ****        -2.6131  -0.3017   1.7366 H              1 S1                 0.0000
     34 ****        -0.3975  -2.0745   1.0075 H              1 S1                 0.0000
     35 ****         1.2942  -1.3658   0.2933 H              1 S1                 0.0000
     36 ****         3.2795  -1.1120  -0.9705 H              1 S1                 0.0000
     37 ****         5.1046   0.3980  -1.6863 H              1 S1                 0.0000
     38 ****         6.8544   1.9712  -1.6957 H              1 S1                 0.0000
     39 ****         5.8760   2.2857  -3.1394 H              1 S1                 0.0000
     40 ****         7.6861   4.1991  -1.6247 H              1 S1                 0.0000
     41 ****         7.5857   3.9841  -3.3737 H              1 S1                 0.0000
     42 ****         6.2692   6.0671  -2.2159 H              1 S1                 0.0000
     43 ****         5.4555   5.1183  -3.4592 H              1 S1                 0.0000
     44 ****         3.8565   4.7941  -1.7786 H              1 S1                 0.0000
     45 ****         5.0358   4.9799  -0.4747 H              1 S1                 0.0000
     46 ****         1.1644   2.3840   0.4645 H              1 S1                 0.0000
     47 ****        -3.1178  -0.7206  -0.6589 H              1 S1                 0.0000
     48 ****        -2.9016  -2.4403  -0.4340 H              1 S1                 0.0000
     49 ****        -5.2947  -1.8889  -0.4070 H              1 S1                 0.0000
     50 ****        -5.0674  -0.7124   0.8693 H              1 S1                 0.0000
     51 ****        -4.5436  -3.5883   1.0986 H              1 S1                 0.0000
     52 ****        -5.6498  -5.3083   1.1839 LP             1 S1                 0.0000
     53 ****        -8.3696  -3.8787  -0.5950 LP             1 S1                 0.0000
     54 ****        -8.2422  -2.4128   0.3187 LP             1 S1                 0.0000
     55 ****        -1.7956   1.0697   0.5015 LP             1 S1                 0.0000
     56 ****        -0.2922   1.7394  -0.0383 LP             1 S1                 0.0000
     57 ****         2.9093   3.7120  -0.2582 LP             1 S1                 0.0000
@<TRIPOS>BOND
    1    1    2 1     
    2    1   26 1     
    3    2    3 2     
    4    2    4 1     
    5    4    5 1     
    6    4   27 1     
    7    4   28 1     
    8    5   25 1     
    9    5    6 1     
   10    5   51 1     
   11    6    7 1     
   12    6   29 1     
   13    6   30 1     
   14    7    8 1     
   15    7   31 1     
   16    7   32 1     
   17    8    9 1     
   18    8   24 1     
   19    8   33 1     
   20    9   10 am    
   21    9   34 1     
   22   10   11 2     
   23   10   12 am    
   24   12   13 1     
   25   12   35 1     
   26   13   23 ar    
   27   13   14 ar    
   28   14   15 ar    
   29   14   36 1     
   30   15   16 ar    
   31   15   37 1     
   32   16   17 1     
   33   16   22 ar    
   34   17   21 1     
   35   17   18 1     
   36   18   19 1     
   37   18   38 1     
   38   18   39 1     
   39   19   20 1     
   40   19   40 1     
   41   19   41 1     
   42   20   21 1     
   43   20   42 1     
   44   20   43 1     
   45   21   44 1     
   46   21   45 1     
   47   22   23 ar    
   48   23   46 1     
   49   24   25 1     
   50   24   47 1     
   51   24   48 1     
   52   25   49 1     
   53   25   50 1     
   54    1   52 1     
   55    3   53 1     
   56    3   54 1     
   57   11   55 1     
   58   11   56 1     
   59   22   57 1     
@<TRIPOS>SUBSTRUCTURE
      1 S1             1
@<TRIPOS>SET
LONE_PAIRS      STATIC     ATOMS    <user>   **** ""
6 52 53 54 55 56 57
DONOR_HYDROGENS      STATIC     ATOMS    <user>   **** ""
4 26 51 34 35
ATOM$BLUE        STATIC     ATOMS    COLORGROUP SYSTEM
6 52 53 54 55 56 57
ATOM$RED        STATIC     ATOMS    COLORGROUP SYSTEM
4 26 51 34 35
