AV-unprocessed.smi:3039|AV-procd|sdf|11591|dock5
  -GOLD-   2272016563D 1   1.00000     0.00000
 Structure written by MMmdl.
 38 39  0  0  0  0  0  0  0  0  1 V2000
  150.6963  139.7396  158.5870 O   0  0  0  0  0  0  0  0  0  0  0  0
  151.5991  140.5341  158.3250 C   0  0  0  0  0  0  0  0  0  0  0  0
  152.5526  140.9921  159.4282 C   0  0  0  0  0  0  0  0  0  0  0  0
  152.3866  142.4670  159.6744 C   0  0  0  0  0  0  0  0  0  0  0  0
  152.1724  143.1373  160.9109 C   0  0  0  0  0  0  0  0  0  0  0  0
  152.0944  144.4520  160.5519 C   0  0  0  0  0  0  0  0  0  0  0  0
  152.2514  144.5888  159.2111 O   0  0  0  0  0  0  0  0  0  0  0  0
  152.4395  143.3165  158.6593 N   0  0  0  0  0  0  0  0  0  0  0  0
  151.8158  141.0451  157.1002 N   0  0  0  0  0  0  0  0  0  0  0  0
  151.0486  140.7883  155.8769 C   0  0  2  0  0  0  0  0  0  0  0  0
  149.5899  141.2814  156.0478 C   0  0  0  0  0  0  0  0  0  0  0  0
  148.8532  141.4916  154.7148 C   0  0  0  0  0  0  0  0  0  0  0  0
  148.1435  140.2479  154.1566 C   0  0  0  0  0  0  0  0  0  0  0  0
  148.8935  138.9158  154.3157 C   0  0  0  0  0  0  0  0  0  0  0  0
  150.4138  138.9914  154.0987 C   0  0  0  0  0  0  0  0  0  0  0  0
  151.2072  139.3165  155.3865 C   0  0  1  0  0  0  0  0  0  0  0  0
  152.6885  138.8980  155.2231 C   0  0  0  0  0  0  0  0  0  0  0  0
  153.3656  138.8790  156.4635 O   0  0  0  0  0  0  0  0  0  0  0  0
  152.3414  140.4303  160.3387 H   0  0  0  0  0  0  0  0  0  0  0  0
  153.5810  140.7543  159.1509 H   0  0  0  0  0  0  0  0  0  0  0  0
  152.0858  142.7183  161.9024 H   0  0  0  0  0  0  0  0  0  0  0  0
  151.9396  145.3653  161.1071 H   0  0  0  0  0  0  0  0  0  0  0  0
  152.5880  141.6892  157.0049 H   0  0  0  0  0  0  0  0  0  0  0  0
  151.5132  141.4336  155.1309 H   0  0  0  0  0  0  0  0  0  0  0  0
  149.0177  140.6213  156.7007 H   0  0  0  0  0  0  0  0  0  0  0  0
  149.6174  142.2468  156.5559 H   0  0  0  0  0  0  0  0  0  0  0  0
  148.1034  142.2729  154.8445 H   0  0  0  0  0  0  0  0  0  0  0  0
  149.5477  141.8838  153.9709 H   0  0  0  0  0  0  0  0  0  0  0  0
  147.1675  140.1472  154.6327 H   0  0  0  0  0  0  0  0  0  0  0  0
  147.9375  140.4201  153.0995 H   0  0  0  0  0  0  0  0  0  0  0  0
  148.6839  138.4906  155.2980 H   0  0  0  0  0  0  0  0  0  0  0  0
  148.4688  138.2079  153.6031 H   0  0  0  0  0  0  0  0  0  0  0  0
  150.7330  138.0114  153.7422 H   0  0  0  0  0  0  0  0  0  0  0  0
  150.6603  139.6871  153.2958 H   0  0  0  0  0  0  0  0  0  0  0  0
  150.8075  138.6647  156.1636 H   0  0  0  0  0  0  0  0  0  0  0  0
  152.7739  137.9146  154.7608 H   0  0  0  0  0  0  0  0  0  0  0  0
  153.2063  139.5891  154.5572 H   0  0  0  0  0  0  0  0  0  0  0  0
  152.7390  138.6890  157.1448 H   0  0  0  0  0  0  0  0  0  0  0  0
  1  2  2  0  0  0  0
  2  3  1  0  0  0  0
  2  9  1  0  0  0  0
  3  4  1  0  0  0  0
  3 19  1  0  0  0  0
  3 20  1  0  0  0  0
  4  8  2  0  0  0  0
  4  5  1  0  0  0  0
  5  6  2  0  0  0  0
  5 21  1  0  0  0  0
  6  7  1  0  0  0  0
  6 22  1  0  0  0  0
  7  8  1  0  0  0  0
  9 10  1  0  0  0  0
  9 23  1  0  0  0  0
 10 16  1  0  0  0  0
 10 11  1  0  0  0  0
 10 24  1  0  0  0  0
 11 12  1  0  0  0  0
 11 25  1  0  0  0  0
 11 26  1  0  0  0  0
 12 13  1  0  0  0  0
 12 27  1  0  0  0  0
 12 28  1  0  0  0  0
 13 14  1  0  0  0  0
 13 29  1  0  0  0  0
 13 30  1  0  0  0  0
 14 15  1  0  0  0  0
 14 31  1  0  0  0  0
 14 32  1  0  0  0  0
 15 16  1  0  0  0  0
 15 33  1  0  0  0  0
 15 34  1  0  0  0  0
 16 17  1  0  0  0  0
 16 35  1  0  0  0  0
 17 18  1  0  0  0  0
 17 36  1  0  0  0  0
 17 37  1  0  0  0  0
 18 38  1  0  0  0  0
M  END
> <s_m_source_file>
AV-unprocessed.smi

> <i_m_source_file_index>
3039

> <i_lp_mmshare_version>
43012

> <i_f3d_flags>
0

> <s_epik_input>
bjFvW2NIXVtjSF1jMVtDSDJdQyg9TylbTkhdW0NAQEhdMltDSDJdW0NIMl1bQ0gyXVtDSDJdW0NIMl1bQ0BIXTJbQ0gyXVtPSF0=

> <s_epik_cmdline>
J2VwaWtfcHl0aG9uJywgJy1waCcsICc3LjAnLCAnLXRuJywgJzgnLCAnLW1hJywgJzIwMCcsICctbWV0YWxfYmluZGluZycsICctaW1hZScsICc8aW5maWxlLm1hZT4nLCAnLW9tYWUnLCAnPG91dGZpbGUubWFlPic=

> <r_lp_tautomer_probability>
1

> <r_epik_Ionization_Penalty>
3.05817e-07

> <r_epik_Ionization_Penalty_Charging>
0

> <r_epik_Ionization_Penalty_Neutral>
3.05817e-07

> <r_epik_State_Penalty>
-0

> <r_epik_Charging_Adjusted_Penalty>
0

> <i_epik_Tot_Q>
0

> <i_epik_Tot_abs_Q>
0

> <r_epik_Metal_State_Penalty>
-0

> <b_epik_Metal_Only>
0

> <s_lp_Force_Field>
OPLS_2005

> <r_lp_Energy>
18.2522

> <b_lp_Chiralities_Consistent>
1

> <s_lp_Variant>
AV-unprocessed.smi:3039-1

> <Gold.Version>
5.8.1

> <Gold.Id.Protein>
6NUR|6NUR_protein|mol2

> <Gold.PLP.Fitness>
40.4812

> <Gold.PLP.PLP>
-37.7423

> <Gold.PLP.part.hbond>
-0.8353

> <Gold.PLP.part.metal>
0.0000

> <Gold.PLP.part.buried>
-4.3220

> <Gold.PLP.part.nonpolar>
-32.2614

> <Gold.PLP.part.repulsive>
0.1319

> <Gold.PLP.ligand.clash>
0.0000

> <Gold.PLP.ligand.torsion>
0.1804

> <Gold.PLP.Chemscore.Hbond>
1.0000

> <Gold.PLP.Chemscore.CHOScore>
0.0000

> <Gold.PLP.Chemscore.Metal>
0.0000

> <Gold.Chemscore.Hbonds>
donor molecule, donor type, donor heavy atom, donor atom, acceptor molecule, acceptor atom, score
      P1  H  7997  8008       L1    18  1.00

> <Gold.PLP.Chemscore.Internal.Correction>
0.0997

> <Gold.Rescore>
     Score         DG    S(hbond)    S(metal)    S(lipo)     H(rot)  DE(clash)    DE(int)     intcor
     12.27     -13.89       0.87        0.00      96.52       2.26       0.07       1.55       ----

> <Gold.Chemscore.Fitness>
12.2690

> <Gold.Chemscore.DG>
-13.8910

> <Gold.Chemscore.ZeroCoef>
-5.4800

> <Gold.Chemscore.Hbond>
0.8705

> <Gold.Chemscore.Metal>
0.0000

> <Gold.Chemscore.Lipo>
96.5238

> <Gold.Chemscore.Internal_Hbond>
0.0000

> <Gold.Chemscore.DEClash>
0.0704

> <Gold.Chemscore.DEInternal>
1.5516

> <Gold.Chemscore.Rot>
2.2616

> <Gold.Chemscore.Internal.Correction>
   9.000000E+99

> <Gold.Chemscore.Hbonds>
donor molecule, donor type, donor heavy atom, donor atom, acceptor molecule, acceptor atom, score
      P1  H  7997  8008       L1    18  0.69

> <Gold.Chemscore.Hbond.Weighted>
-2.9074

> <Gold.Chemscore.Metal.Weighted>
-0.0000

> <Gold.Chemscore.Lipo.Weighted>
-11.2933

> <Gold.Chemscore.Internal_Hbond.Weighted>
0.0000

> <Gold.Chemscore.DEClash.Weighted>
0.0704

> <Gold.Chemscore.DEInternal.Weighted>
1.5516

> <Gold.Chemscore.Rot.Weighted>
5.7896

> <Gold.Chemscore.Internal.Correction.Weighted>
   9.000000E+99

> <Gold.Protein.RotatedTorsions>
[ 6907 6896 6895 6894 ] final  138.48 input  -60.11 | X-H torsion
[ 7974 7965 7964 7962 ] final   16.13 input  175.53 | X-H torsion
[ 8008 7997 7996 7995 ] final  -55.54 input   59.86 | X-H torsion
[ 10167 10162 10161 10158 ] final   50.47 input  -65.29 | X-H torsion
[ 10718 10713 10712 10709 ] final -164.28 input   66.30 | X-H torsion
[ 10763 10752 10751 10750 ] final   74.26 input  -60.55 | X-H torsion
[ 11005 11000 10999 10996 ] final  -96.95 input  -57.11 | X-H torsion

> <Gold.Protein.ActiveResidues>
 VAL166  LYS551  ARG553  GLY616  TRP617  ASP618  TYR619  PRO620  LYS621  CYS622 
 ASP623  PHE694  ASN695  SER759  ASP760  ASP761  ALA762  ILE779  LEU786  VAL792 
 PHE793  MET794  SER795  GLU796  ALA797  LYS798  CYS799  TRP800  GLU811  SER814 

> <Gold.Protein.RotatedAtoms>
  152.2661  133.5340  159.5410 H   0  0  0  0  0  0  0  0  0  0  0  0  # atno 6907 bound_to 6896
  150.7142  134.0762  159.3891 H   0  0  0  0  0  0  0  0  0  0  0  0  # atno 6908 bound_to 6896
  151.8679  135.0500  160.0527 H   0  0  0  0  0  0  0  0  0  0  0  0  # atno 6909 bound_to 6896
  146.2258  139.8792  142.8574 H   0  0  0  0  0  0  0  0  0  0  0  0  # atno 7974 bound_to 7965
  154.4198  140.1150  156.5493 H   0  0  0  0  0  0  0  0  0  0  0  0  # atno 8008 bound_to 7997
  155.6427  140.3496  155.4701 H   0  0  0  0  0  0  0  0  0  0  0  0  # atno 8009 bound_to 7997
  155.9858  140.1169  157.0674 H   0  0  0  0  0  0  0  0  0  0  0  0  # atno 8010 bound_to 7997
  140.2721  144.3253  150.6287 H   0  0  0  0  0  0  0  0  0  0  0  0  # atno 10167 bound_to 10162
  156.6368  130.8952  151.2988 H   0  0  0  0  0  0  0  0  0  0  0  0  # atno 10718 bound_to 10713
  153.0575  135.5032  154.8015 H   0  0  0  0  0  0  0  0  0  0  0  0  # atno 10763 bound_to 10752
  154.6830  135.2971  154.9589 H   0  0  0  0  0  0  0  0  0  0  0  0  # atno 10764 bound_to 10752
  154.0369  135.6722  153.4839 H   0  0  0  0  0  0  0  0  0  0  0  0  # atno 10765 bound_to 10752
  141.1395  133.8135  157.0640 H   0  0  0  0  0  0  0  0  0  0  0  0  # atno 11005 bound_to 11000
  145.2529  141.0050  143.3870 LP  0  0  0  0  0  0  0  0  0  0  0  0  # atno 17320 bound_to 7965
  144.9360  139.4244  143.6472 LP  0  0  0  0  0  0  0  0  0  0  0  0  # atno 17321 bound_to 7965
  140.5881  143.2169  151.7304 LP  0  0  0  0  0  0  0  0  0  0  0  0  # atno 17342 bound_to 10162
  139.4986  144.3980  152.0211 LP  0  0  0  0  0  0  0  0  0  0  0  0  # atno 17343 bound_to 10162
  157.7183  130.9525  150.1339 LP  0  0  0  0  0  0  0  0  0  0  0  0  # atno 17370 bound_to 10713
  156.2190  130.3672  149.8578 LP  0  0  0  0  0  0  0  0  0  0  0  0  # atno 17371 bound_to 10713
  140.0553  134.9784  157.1209 LP  0  0  0  0  0  0  0  0  0  0  0  0  # atno 17394 bound_to 11000
  140.3929  134.2165  155.7165 LP  0  0  0  0  0  0  0  0  0  0  0  0  # atno 17395 bound_to 11000

$$$$
