AV-unprocessed.smi:1217|AV-procd|sdf|5105|dock2
  -GOLD-   22720 4153D 1   1.00000     0.00000
 Structure written by MMmdl.
 34 35  0  0  0  0  0  0  0  0  1 V2000
  148.1070  140.3141  154.0961 C   0  0  0  0  0  0  0  0  0  0  0  0
  149.4809  140.7404  154.6357 C   0  0  1  0  0  0  0  0  0  0  0  0
  149.2768  141.6773  155.7387 N   0  0  0  0  0  0  0  0  0  0  0  0
  150.2283  142.1211  156.5738 C   0  0  0  0  0  0  0  0  0  0  0  0
  151.4102  141.7830  156.5027 O   0  0  0  0  0  0  0  0  0  0  0  0
  149.7163  142.9661  157.4859 N   0  0  0  0  0  0  0  0  0  0  0  0
  150.4030  143.6817  158.5028 C   0  0  0  0  0  0  0  0  0  0  0  0
  151.6603  144.2034  158.1228 C   0  0  0  0  0  0  0  0  0  0  0  0
  152.4240  144.9242  159.0612 C   0  0  0  0  0  0  0  0  0  0  0  0
  151.9118  145.1025  160.3585 C   0  0  0  0  0  0  0  0  0  0  0  0
  150.6524  144.5498  160.6556 C   0  0  0  0  0  0  0  0  0  0  0  0
  149.9182  143.8599  159.7573 N   0  0  0  0  0  0  0  0  0  0  0  0
  150.3174  139.5382  155.1188 C   0  0  1  0  0  0  0  0  0  0  0  0
  150.1528  138.2669  154.2834 C   0  0  0  0  0  0  0  0  0  0  0  0
  151.4639  137.5223  154.4883 C   0  0  0  0  0  0  0  0  0  0  0  0
  152.3848  138.5584  155.1366 C   0  0  0  0  0  0  0  0  0  0  0  0
  151.7067  139.7962  154.9828 O   0  0  0  0  0  0  0  0  0  0  0  0
  148.2055  139.6492  153.2379 H   0  0  0  0  0  0  0  0  0  0  0  0
  147.5287  141.1795  153.7706 H   0  0  0  0  0  0  0  0  0  0  0  0
  147.5256  139.7916  154.8565 H   0  0  0  0  0  0  0  0  0  0  0  0
  150.0148  141.2363  153.8230 H   0  0  0  0  0  0  0  0  0  0  0  0
  148.3337  142.0078  155.8791 H   0  0  0  0  0  0  0  0  0  0  0  0
  148.7213  143.1268  157.4389 H   0  0  0  0  0  0  0  0  0  0  0  0
  152.0395  144.0558  157.1220 H   0  0  0  0  0  0  0  0  0  0  0  0
  153.3866  145.3317  158.7896 H   0  0  0  0  0  0  0  0  0  0  0  0
  152.4687  145.6478  161.1059 H   0  0  0  0  0  0  0  0  0  0  0  0
  150.2235  144.6631  161.6402 H   0  0  0  0  0  0  0  0  0  0  0  0
  150.1024  139.3216  156.1673 H   0  0  0  0  0  0  0  0  0  0  0  0
  149.2831  137.6797  154.5797 H   0  0  0  0  0  0  0  0  0  0  0  0
  150.0422  138.5203  153.2281 H   0  0  0  0  0  0  0  0  0  0  0  0
  151.3391  136.6552  155.1378 H   0  0  0  0  0  0  0  0  0  0  0  0
  151.8624  137.1738  153.5351 H   0  0  0  0  0  0  0  0  0  0  0  0
  152.5102  138.3488  156.2000 H   0  0  0  0  0  0  0  0  0  0  0  0
  153.3729  138.5892  154.6768 H   0  0  0  0  0  0  0  0  0  0  0  0
  1  2  1  0  0  0  0
  1 18  1  0  0  0  0
  1 19  1  0  0  0  0
  1 20  1  0  0  0  0
  2  3  1  0  0  0  0
  2 13  1  0  0  0  0
  2 21  1  0  0  0  0
  3  4  1  0  0  0  0
  3 22  1  0  0  0  0
  4  5  2  0  0  0  0
  4  6  1  0  0  0  0
  6  7  1  0  0  0  0
  6 23  1  0  0  0  0
  7 12  1  0  0  0  0
  7  8  2  0  0  0  0
  8  9  1  0  0  0  0
  8 24  1  0  0  0  0
  9 10  2  0  0  0  0
  9 25  1  0  0  0  0
 10 11  1  0  0  0  0
 10 26  1  0  0  0  0
 11 12  2  0  0  0  0
 11 27  1  0  0  0  0
 13 17  1  0  0  0  0
 13 14  1  0  0  0  0
 13 28  1  0  0  0  0
 14 15  1  0  0  0  0
 14 29  1  0  0  0  0
 14 30  1  0  0  0  0
 15 16  1  0  0  0  0
 15 31  1  0  0  0  0
 15 32  1  0  0  0  0
 16 17  1  0  0  0  0
 16 33  1  0  0  0  0
 16 34  1  0  0  0  0
M  END
> <s_m_source_file>
AV-unprocessed.smi

> <i_m_source_file_index>
1217

> <i_lp_mmshare_version>
43012

> <i_f3d_flags>
0

> <s_epik_input>
TzFbQ0gyXVtDSDJdW0NIMl1bQ0BIXTFbQ0BIXShbQ0gzXSlbTkhdQyg9TylbTkhdYzJbY0hdW2NIXVtjSF1bY0hdbjI=

> <s_epik_cmdline>
J2VwaWtfcHl0aG9uJywgJy1waCcsICc3LjAnLCAnLXRuJywgJzgnLCAnLW1hJywgJzIwMCcsICctbWV0YWxfYmluZGluZycsICctaW1hZScsICc8aW5maWxlLm1hZT4nLCAnLW9tYWUnLCAnPG91dGZpbGUubWFlPic=

> <r_lp_tautomer_probability>
1

> <r_epik_Ionization_Penalty>
4.51768e-05

> <r_epik_Ionization_Penalty_Charging>
0

> <r_epik_Ionization_Penalty_Neutral>
4.51768e-05

> <r_epik_State_Penalty>
-0

> <r_epik_Charging_Adjusted_Penalty>
0

> <i_epik_Tot_Q>
0

> <i_epik_Tot_abs_Q>
0

> <r_epik_Metal_State_Penalty>
-0

> <b_epik_Metal_Only>
0

> <s_lp_Force_Field>
OPLS_2005

> <r_lp_Energy>
20.7335

> <b_lp_Chiralities_Consistent>
1

> <s_lp_Variant>
AV-unprocessed.smi:1217-4

> <Gold.Version>
5.8.1

> <Gold.Id.Protein>
6NUR|6NUR_protein|mol2

> <Gold.PLP.Fitness>
38.5808

> <Gold.PLP.PLP>
-37.5854

> <Gold.PLP.part.hbond>
-3.8261

> <Gold.PLP.part.metal>
0.0000

> <Gold.PLP.part.buried>
-1.7574

> <Gold.PLP.part.nonpolar>
-34.2887

> <Gold.PLP.part.repulsive>
0.3778

> <Gold.PLP.ligand.clash>
0.0000

> <Gold.PLP.ligand.torsion>
1.0125

> <Gold.PLP.Chemscore.Hbond>
1.0000

> <Gold.PLP.Chemscore.CHOScore>
0.0000

> <Gold.PLP.Chemscore.Metal>
0.0000

> <Gold.Chemscore.Hbonds>
donor molecule, donor type, donor heavy atom, donor atom, acceptor molecule, acceptor atom, score
      P1  H  7989  7998       L1    17  0.95

> <Gold.PLP.Chemscore.Internal.Correction>
0.0205

> <Gold.Rescore>
     Score         DG    S(hbond)    S(metal)    S(lipo)     H(rot)  DE(clash)    DE(int)     intcor
     10.42     -16.16       0.94        0.00      91.86       1.25       0.43       5.31       ----

> <Gold.Chemscore.Fitness>
10.4223

> <Gold.Chemscore.DG>
-16.1568

> <Gold.Chemscore.ZeroCoef>
-5.4800

> <Gold.Chemscore.Hbond>
0.9372

> <Gold.Chemscore.Metal>
0.0000

> <Gold.Chemscore.Lipo>
91.8638

> <Gold.Chemscore.Internal_Hbond>
0.0000

> <Gold.Chemscore.DEClash>
0.4271

> <Gold.Chemscore.DEInternal>
5.3074

> <Gold.Chemscore.Rot>
1.2506

> <Gold.Chemscore.Internal.Correction>
   9.000000E+99

> <Gold.Chemscore.Hbonds>
donor molecule, donor type, donor heavy atom, donor atom, acceptor molecule, acceptor atom, score
      P1  H  7989  7998       L1    17  0.21

> <Gold.Chemscore.Hbond.Weighted>
-3.1303

> <Gold.Chemscore.Metal.Weighted>
-0.0000

> <Gold.Chemscore.Lipo.Weighted>
-10.7481

> <Gold.Chemscore.Internal_Hbond.Weighted>
0.0000

> <Gold.Chemscore.DEClash.Weighted>
0.4271

> <Gold.Chemscore.DEInternal.Weighted>
5.3074

> <Gold.Chemscore.Rot.Weighted>
3.2016

> <Gold.Chemscore.Internal.Correction.Weighted>
   9.000000E+99

> <Gold.Protein.RotatedTorsions>
[ 6907 6896 6895 6894 ] final  177.74 input  -60.11 | X-H torsion
[ 7974 7965 7964 7962 ] final -167.27 input  175.53 | X-H torsion
[ 8008 7997 7996 7995 ] final  161.18 input   59.86 | X-H torsion
[ 10167 10162 10161 10158 ] final  -61.65 input  -65.29 | X-H torsion
[ 10718 10713 10712 10709 ] final   25.42 input   66.30 | X-H torsion
[ 10763 10752 10751 10750 ] final -156.71 input  -60.55 | X-H torsion
[ 11005 11000 10999 10996 ] final   93.97 input  -57.11 | X-H torsion

> <Gold.Protein.ActiveResidues>
 VAL166  LYS551  ARG553  GLY616  TRP617  ASP618  TYR619  PRO620  LYS621  CYS622 
 ASP623  PHE694  ASN695  SER759  ASP760  ASP761  ALA762  ILE779  LEU786  VAL792 
 PHE793  MET794  SER795  GLU796  ALA797  LYS798  CYS799  TRP800  GLU811  SER814 

> <Gold.Protein.RotatedAtoms>
  151.6991  133.3311  159.3261 H   0  0  0  0  0  0  0  0  0  0  0  0  # atno 6907 bound_to 6896
  150.7744  134.6631  159.6360 H   0  0  0  0  0  0  0  0  0  0  0  0  # atno 6908 bound_to 6896
  152.3781  134.6636  160.0205 H   0  0  0  0  0  0  0  0  0  0  0  0  # atno 6909 bound_to 6896
  144.7226  140.2543  143.6274 H   0  0  0  0  0  0  0  0  0  0  0  0  # atno 7974 bound_to 7965
  156.2121  140.1784  156.7672 H   0  0  0  0  0  0  0  0  0  0  0  0  # atno 8008 bound_to 7997
  154.5737  140.0678  156.9032 H   0  0  0  0  0  0  0  0  0  0  0  0  # atno 8009 bound_to 7997
  155.2626  140.3337  155.4274 H   0  0  0  0  0  0  0  0  0  0  0  0  # atno 8010 bound_to 7997
  140.5992  143.2357  151.5968 H   0  0  0  0  0  0  0  0  0  0  0  0  # atno 10167 bound_to 10162
  157.1930  130.6855  149.6158 H   0  0  0  0  0  0  0  0  0  0  0  0  # atno 10718 bound_to 10713
  154.7692  135.3140  154.8224 H   0  0  0  0  0  0  0  0  0  0  0  0  # atno 10763 bound_to 10752
  153.8963  135.6820  153.4762 H   0  0  0  0  0  0  0  0  0  0  0  0  # atno 10764 bound_to 10752
  153.1303  135.4783  154.9272 H   0  0  0  0  0  0  0  0  0  0  0  0  # atno 10765 bound_to 10752
  139.8804  134.8820  156.3796 H   0  0  0  0  0  0  0  0  0  0  0  0  # atno 11005 bound_to 11000
  145.8198  139.2039  143.1944 LP  0  0  0  0  0  0  0  0  0  0  0  0  # atno 17320 bound_to 7965
  146.0524  140.8056  142.9775 LP  0  0  0  0  0  0  0  0  0  0  0  0  # atno 17321 bound_to 7965
  139.5279  144.3004  152.1078 LP  0  0  0  0  0  0  0  0  0  0  0  0  # atno 17342 bound_to 10162
  140.2182  144.4494  150.6354 LP  0  0  0  0  0  0  0  0  0  0  0  0  # atno 17343 bound_to 10162
  155.9709  130.4608  150.6086 LP  0  0  0  0  0  0  0  0  0  0  0  0  # atno 17370 bound_to 10713
  157.3841  131.0785  151.1451 LP  0  0  0  0  0  0  0  0  0  0  0  0  # atno 17371 bound_to 10713
  140.9408  133.7516  156.0144 LP  0  0  0  0  0  0  0  0  0  0  0  0  # atno 17394 bound_to 11000
  140.8222  134.3276  157.5378 LP  0  0  0  0  0  0  0  0  0  0  0  0  # atno 17395 bound_to 11000

$$$$
