AV-unprocessed.smi:1183|AV-procd|sdf|4968|dock2
  -GOLD-   22720 3563D 1   1.00000     0.00000
 Structure written by MMmdl.
 42 43  0  0  0  0  0  0  0  0  1 V2000
  151.9463  145.1672  160.8132 C   0  0  0  0  0  0  0  0  0  0  0  0
  151.9556  143.6537  160.5861 C   0  0  0  0  0  0  0  0  0  0  0  0
  151.6338  142.9257  161.5253 O   0  0  0  0  0  0  0  0  0  0  0  0
  152.3207  143.1676  159.3754 N   0  0  0  0  0  0  0  0  0  0  0  0
  152.3198  141.7507  158.9930 C   0  0  0  0  0  0  0  0  0  0  0  0
  151.1617  141.5040  158.0106 C   0  0  0  0  0  0  0  0  0  0  0  0
  151.2561  142.4382  156.7815 C   0  0  0  0  0  0  0  0  0  0  0  0
  150.0467  142.3420  155.9702 N   0  0  0  0  0  0  0  0  0  0  0  0
  149.7440  141.3299  155.1430 C   0  0  0  0  0  0  0  0  0  0  0  0
  150.4795  140.3559  154.9736 O   0  0  0  0  0  0  0  0  0  0  0  0
  148.4046  141.4556  154.4062 C   0  0  0  0  0  0  0  0  0  0  0  0
  147.3562  142.0489  155.2248 N   0  0  0  0  0  0  0  0  0  0  0  0
  147.3602  141.8321  156.5582 N   0  0  0  0  0  0  0  0  0  0  0  0
  146.3033  142.4857  157.0116 C   0  0  0  0  0  0  0  0  0  0  0  0
  145.9938  142.4597  158.4793 C   0  0  0  0  0  0  0  0  0  0  0  0
  145.5912  143.1464  155.9718 C   0  0  0  0  0  0  0  0  0  0  0  0
  146.2920  142.8444  154.8384 C   0  0  0  0  0  0  0  0  0  0  0  0
  146.0461  143.2380  153.4191 C   0  0  0  0  0  0  0  0  0  0  0  0
  151.4787  143.9073  157.2029 C   0  0  0  0  0  0  0  0  0  0  0  0
  152.6194  144.0334  158.2292 C   0  0  0  0  0  0  0  0  0  0  0  0
  152.9323  145.5935  160.6258 H   0  0  0  0  0  0  0  0  0  0  0  0
  151.6750  145.3990  161.8438 H   0  0  0  0  0  0  0  0  0  0  0  0
  151.2198  145.6518  160.1605 H   0  0  0  0  0  0  0  0  0  0  0  0
  153.2698  141.5081  158.5145 H   0  0  0  0  0  0  0  0  0  0  0  0
  152.2411  141.0699  159.8392 H   0  0  0  0  0  0  0  0  0  0  0  0
  151.1639  140.4610  157.6922 H   0  0  0  0  0  0  0  0  0  0  0  0
  150.2145  141.6667  158.5275 H   0  0  0  0  0  0  0  0  0  0  0  0
  152.1158  142.1333  156.1814 H   0  0  0  0  0  0  0  0  0  0  0  0
  149.3869  143.1024  156.0476 H   0  0  0  0  0  0  0  0  0  0  0  0
  148.5419  142.0603  153.5082 H   0  0  0  0  0  0  0  0  0  0  0  0
  148.0770  140.4695  154.0761 H   0  0  0  0  0  0  0  0  0  0  0  0
  145.0960  143.0362  158.7026 H   0  0  0  0  0  0  0  0  0  0  0  0
  146.8131  142.8831  159.0610 H   0  0  0  0  0  0  0  0  0  0  0  0
  145.8280  141.4399  158.8277 H   0  0  0  0  0  0  0  0  0  0  0  0
  144.6987  143.7496  156.0465 H   0  0  0  0  0  0  0  0  0  0  0  0
  145.1421  143.8411  153.3333 H   0  0  0  0  0  0  0  0  0  0  0  0
  145.9227  142.3582  152.7872 H   0  0  0  0  0  0  0  0  0  0  0  0
  146.8782  143.8237  153.0280 H   0  0  0  0  0  0  0  0  0  0  0  0
  151.6972  144.5185  156.3265 H   0  0  0  0  0  0  0  0  0  0  0  0
  150.5635  144.3098  157.6400 H   0  0  0  0  0  0  0  0  0  0  0  0
  152.7510  145.0787  158.5120 H   0  0  0  0  0  0  0  0  0  0  0  0
  153.5651  143.7269  157.7798 H   0  0  0  0  0  0  0  0  0  0  0  0
  1  2  1  0  0  0  0
  1 21  1  0  0  0  0
  1 22  1  0  0  0  0
  1 23  1  0  0  0  0
  2  3  2  0  0  0  0
  2  4  1  0  0  0  0
  4 20  1  0  0  0  0
  4  5  1  0  0  0  0
  5  6  1  0  0  0  0
  5 24  1  0  0  0  0
  5 25  1  0  0  0  0
  6  7  1  0  0  0  0
  6 26  1  0  0  0  0
  6 27  1  0  0  0  0
  7  8  1  0  0  0  0
  7 19  1  0  0  0  0
  7 28  1  0  0  0  0
  8  9  1  0  0  0  0
  8 29  1  0  0  0  0
  9 10  2  0  0  0  0
  9 11  1  0  0  0  0
 11 12  1  0  0  0  0
 11 30  1  0  0  0  0
 11 31  1  0  0  0  0
 12 17  1  0  0  0  0
 12 13  1  0  0  0  0
 13 14  2  0  0  0  0
 14 15  1  0  0  0  0
 14 16  1  0  0  0  0
 15 32  1  0  0  0  0
 15 33  1  0  0  0  0
 15 34  1  0  0  0  0
 16 17  2  0  0  0  0
 16 35  1  0  0  0  0
 17 18  1  0  0  0  0
 18 36  1  0  0  0  0
 18 37  1  0  0  0  0
 18 38  1  0  0  0  0
 19 20  1  0  0  0  0
 19 39  1  0  0  0  0
 19 40  1  0  0  0  0
 20 41  1  0  0  0  0
 20 42  1  0  0  0  0
M  END
> <s_m_source_file>
AV-unprocessed.smi

> <i_m_source_file_index>
1183

> <i_lp_mmshare_version>
43012

> <i_f3d_flags>
0

> <s_epik_input>
W0NIM11DKD1PKU4xW0NIMl1bQ0gyXVtDSF0oW0NIMl1bQ0gyXTEpW05IXUMoPU8pW0NIMl1uMm5jKFtDSDNdKVtjSF1jMltDSDNd

> <s_epik_cmdline>
J2VwaWtfcHl0aG9uJywgJy1waCcsICc3LjAnLCAnLXRuJywgJzgnLCAnLW1hJywgJzIwMCcsICctbWV0YWxfYmluZGluZycsICctaW1hZScsICc8aW5maWxlLm1hZT4nLCAnLW9tYWUnLCAnPG91dGZpbGUubWFlPic=

> <r_lp_tautomer_probability>
1

> <r_epik_Ionization_Penalty>
0.000413777

> <r_epik_Ionization_Penalty_Charging>
0

> <r_epik_Ionization_Penalty_Neutral>
0.000413777

> <r_epik_State_Penalty>
-0

> <r_epik_Charging_Adjusted_Penalty>
0

> <i_epik_Tot_Q>
0

> <i_epik_Tot_abs_Q>
0

> <r_epik_Metal_State_Penalty>
-0

> <b_epik_Metal_Only>
0

> <s_lp_Force_Field>
OPLS_2005

> <r_lp_Energy>
21.0351

> <b_lp_Chiralities_Consistent>
1

> <s_lp_Variant>
AV-unprocessed.smi:1183-1

> <Gold.Version>
5.8.1

> <Gold.Id.Protein>
6NUR|6NUR_protein|mol2

> <Gold.PLP.Fitness>
49.1524

> <Gold.PLP.PLP>
-43.4483

> <Gold.PLP.part.hbond>
-3.0000

> <Gold.PLP.part.metal>
0.0000

> <Gold.PLP.part.buried>
-3.8361

> <Gold.PLP.part.nonpolar>
-37.2218

> <Gold.PLP.part.repulsive>
0.4441

> <Gold.PLP.ligand.clash>
0.0000

> <Gold.PLP.ligand.torsion>
0.9394

> <Gold.PLP.Chemscore.Hbond>
2.5200

> <Gold.PLP.Chemscore.CHOScore>
0.0000

> <Gold.PLP.Chemscore.Metal>
0.0000

> <Gold.Chemscore.Hbonds>
donor molecule, donor type, donor heavy atom, donor atom, acceptor molecule, acceptor atom, score
      L1  H     8    29       P1  8028  1.00
      P1  H  6933  6945       L1     3  0.48
      P1  H  7989  7998       L1    10  1.00

> <Gold.PLP.Chemscore.Internal.Correction>
0.0228

> <Gold.Rescore>
     Score         DG    S(hbond)    S(metal)    S(lipo)     H(rot)  DE(clash)    DE(int)     intcor
     18.49     -19.25       2.25        0.00      84.09       1.41       0.15       0.61       ----

> <Gold.Chemscore.Fitness>
18.4856

> <Gold.Chemscore.DG>
-19.2492

> <Gold.Chemscore.ZeroCoef>
-5.4800

> <Gold.Chemscore.Hbond>
2.2548

> <Gold.Chemscore.Metal>
0.0000

> <Gold.Chemscore.Lipo>
84.0887

> <Gold.Chemscore.Internal_Hbond>
0.0000

> <Gold.Chemscore.DEClash>
0.1520

> <Gold.Chemscore.DEInternal>
0.6116

> <Gold.Chemscore.Rot>
1.4064

> <Gold.Chemscore.Internal.Correction>
   9.000000E+99

> <Gold.Chemscore.Hbonds>
donor molecule, donor type, donor heavy atom, donor atom, acceptor molecule, acceptor atom, score
      L1  H     8    29       P1  8028  0.95
      P1  H  6933  6945       L1     3  0.47
      P1  H  7989  7998       L1    10  0.43

> <Gold.Chemscore.Hbond.Weighted>
-7.5311

> <Gold.Chemscore.Metal.Weighted>
-0.0000

> <Gold.Chemscore.Lipo.Weighted>
-9.8384

> <Gold.Chemscore.Internal_Hbond.Weighted>
0.0000

> <Gold.Chemscore.DEClash.Weighted>
0.1520

> <Gold.Chemscore.DEInternal.Weighted>
0.6116

> <Gold.Chemscore.Rot.Weighted>
3.6003

> <Gold.Chemscore.Internal.Correction.Weighted>
   9.000000E+99

> <Gold.Protein.RotatedTorsions>
[ 6907 6896 6895 6894 ] final -144.01 input  -60.11 | X-H torsion
[ 7974 7965 7964 7962 ] final -162.30 input  175.53 | X-H torsion
[ 8008 7997 7996 7995 ] final  120.02 input   59.86 | X-H torsion
[ 10167 10162 10161 10158 ] final  -44.51 input  -65.29 | X-H torsion
[ 10718 10713 10712 10709 ] final -123.70 input   66.30 | X-H torsion
[ 10763 10752 10751 10750 ] final  -87.80 input  -60.55 | X-H torsion
[ 11005 11000 10999 10996 ] final -141.83 input  -57.11 | X-H torsion

> <Gold.Protein.ActiveResidues>
 VAL166  LYS551  ARG553  GLY616  TRP617  ASP618  TYR619  PRO620  LYS621  CYS622 
 ASP623  PHE694  ASN695  SER759  ASP760  ASP761  ALA762  ILE779  LEU786  VAL792 
 PHE793  MET794  SER795  GLU796  ALA797  LYS798  CYS799  TRP800  GLU811  SER814 

> <Gold.Protein.RotatedAtoms>
  151.1082  133.5192  159.2606 H   0  0  0  0  0  0  0  0  0  0  0  0  # atno 6907 bound_to 6896
  151.1996  135.0436  159.8877 H   0  0  0  0  0  0  0  0  0  0  0  0  # atno 6908 bound_to 6896
  152.5448  134.0912  159.8331 H   0  0  0  0  0  0  0  0  0  0  0  0  # atno 6909 bound_to 6896
  144.7362  140.3273  143.6159 H   0  0  0  0  0  0  0  0  0  0  0  0  # atno 7974 bound_to 7965
  156.2623  140.2840  156.1083 H   0  0  0  0  0  0  0  0  0  0  0  0  # atno 8008 bound_to 7997
  155.1285  140.0393  157.2786 H   0  0  0  0  0  0  0  0  0  0  0  0  # atno 8009 bound_to 7997
  154.6617  140.2568  155.7107 H   0  0  0  0  0  0  0  0  0  0  0  0  # atno 8010 bound_to 7997
  140.6894  143.2927  151.3505 H   0  0  0  0  0  0  0  0  0  0  0  0  # atno 10167 bound_to 10162
  156.1524  130.6544  150.9933 H   0  0  0  0  0  0  0  0  0  0  0  0  # atno 10718 bound_to 10713
  154.6376  135.5400  153.7752 H   0  0  0  0  0  0  0  0  0  0  0  0  # atno 10763 bound_to 10752
  153.0316  135.6451  154.1208 H   0  0  0  0  0  0  0  0  0  0  0  0  # atno 10764 bound_to 10752
  154.1135  135.2925  155.3205 H   0  0  0  0  0  0  0  0  0  0  0  0  # atno 10765 bound_to 10752
  140.8285  134.2545  157.4867 H   0  0  0  0  0  0  0  0  0  0  0  0  # atno 11005 bound_to 11000
  145.7508  139.1793  143.2323 LP  0  0  0  0  0  0  0  0  0  0  0  0  # atno 17320 bound_to 7965
  146.1062  140.7484  142.9525 LP  0  0  0  0  0  0  0  0  0  0  0  0  # atno 17321 bound_to 7965
  139.6282  144.0772  152.2453 LP  0  0  0  0  0  0  0  0  0  0  0  0  # atno 17342 bound_to 10162
  140.0238  144.6133  150.7544 LP  0  0  0  0  0  0  0  0  0  0  0  0  # atno 17343 bound_to 10162
  157.6668  131.0870  150.7709 LP  0  0  0  0  0  0  0  0  0  0  0  0  # atno 17370 bound_to 10713
  156.7776  130.4849  149.5407 LP  0  0  0  0  0  0  0  0  0  0  0  0  # atno 17371 bound_to 10713
  139.8705  134.9574  156.4266 LP  0  0  0  0  0  0  0  0  0  0  0  0  # atno 17394 bound_to 11000
  140.9023  133.7771  155.9694 LP  0  0  0  0  0  0  0  0  0  0  0  0  # atno 17395 bound_to 11000

$$$$
