AV-unprocessed.smi:1228|AV-procd|sdf|5147|dock3
  -GOLD-   22720 4213D 1   1.00000     0.00000
 Structure written by MMmdl.
 44 46  0  0  0  0  0  0  0  0  2 V2000
  153.9879  137.9176  157.0809 C   0  0  0  0  0  0  0  0  0  0  0  0
  152.8821  137.6072  156.1158 C   0  0  0  0  0  0  0  0  0  0  0  0
  152.3609  136.3292  155.7601 C   0  0  0  0  0  0  0  0  0  0  0  0
  151.3833  136.6436  154.8560 C   0  0  0  0  0  0  0  0  0  0  0  0
  150.5428  135.8141  154.1819 N   0  0  0  0  0  0  0  0  0  0  0  0
  150.0555  134.6207  154.5645 C   0  0  0  0  0  0  0  0  0  0  0  0
  150.3165  134.0476  155.6224 O   0  0  0  0  0  0  0  0  0  0  0  0
  149.2342  134.1105  153.6349 N   0  0  0  0  0  0  0  0  0  0  0  0
  148.5299  132.8362  153.7481 C   0  0  2  0  0  0  0  0  0  0  0  0
  149.5212  131.6701  153.9225 C   0  0  0  0  0  0  0  0  0  0  0  0
  148.7859  130.3198  153.9491 C   0  0  0  0  0  0  0  0  0  0  0  0
  147.9673  130.1331  152.7253 N   0  3  1  0  0  0  0  0  0  0  0  0
  147.3365  128.7961  152.6762 C   0  0  0  0  0  0  0  0  0  0  0  0
  147.5550  128.0675  151.3707 C   0  0  0  0  0  0  0  0  0  0  0  0
  146.2108  128.6914  151.6738 C   0  0  0  0  0  0  0  0  0  0  0  0
  146.9769  131.2253  152.5536 C   0  0  0  0  0  0  0  0  0  0  0  0
  147.6700  132.5973  152.4961 C   0  0  0  0  0  0  0  0  0  0  0  0
  151.3425  138.0118  154.7026 N   0  0  0  0  0  0  0  0  0  0  0  0
  150.4802  138.8190  153.8618 C   0  0  0  0  0  0  0  0  0  0  0  0
  152.2736  138.6034  155.4819 N   0  0  0  0  0  0  0  0  0  0  0  0
  154.2690  137.0341  157.6544 H   0  0  0  0  0  0  0  0  0  0  0  0
  153.6881  138.6900  157.7898 H   0  0  0  0  0  0  0  0  0  0  0  0
  154.8766  138.2704  156.5573 H   0  0  0  0  0  0  0  0  0  0  0  0
  152.6669  135.3591  156.1217 H   0  0  0  0  0  0  0  0  0  0  0  0
  150.2468  136.1472  153.2763 H   0  0  0  0  0  0  0  0  0  0  0  0
  149.0757  134.6474  152.7947 H   0  0  0  0  0  0  0  0  0  0  0  0
  147.8669  132.8728  154.6151 H   0  0  0  0  0  0  0  0  0  0  0  0
  150.2460  131.6730  153.1068 H   0  0  0  0  0  0  0  0  0  0  0  0
  150.0923  131.7925  154.8437 H   0  0  0  0  0  0  0  0  0  0  0  0
  149.5130  129.5109  154.0297 H   0  0  0  0  0  0  0  0  0  0  0  0
  148.1452  130.2585  154.8304 H   0  0  0  0  0  0  0  0  0  0  0  0
  147.2939  128.2464  153.6152 H   0  0  0  0  0  0  0  0  0  0  0  0
  148.1689  128.5448  150.6088 H   0  0  0  0  0  0  0  0  0  0  0  0
  147.6195  126.9819  151.4062 H   0  0  0  0  0  0  0  0  0  0  0  0
  145.3901  128.0166  151.9091 H   0  0  0  0  0  0  0  0  0  0  0  0
  145.9335  129.5827  151.1138 H   0  0  0  0  0  0  0  0  0  0  0  0
  146.4112  131.0650  151.6351 H   0  0  0  0  0  0  0  0  0  0  0  0
  146.2593  131.2002  153.3754 H   0  0  0  0  0  0  0  0  0  0  0  0
  146.9209  133.3842  152.4003 H   0  0  0  0  0  0  0  0  0  0  0  0
  148.2917  132.6510  151.6010 H   0  0  0  0  0  0  0  0  0  0  0  0
  150.6750  138.5917  152.8136 H   0  0  0  0  0  0  0  0  0  0  0  0
  150.6604  139.8811  154.0332 H   0  0  0  0  0  0  0  0  0  0  0  0
  149.4369  138.5979  154.0877 H   0  0  0  0  0  0  0  0  0  0  0  0
  148.5999  130.1846  151.9397 H   0  0  0  0  0  0  0  0  0  0  0  0
  1  2  1  0  0  0  0
  1 21  1  0  0  0  0
  1 22  1  0  0  0  0
  1 23  1  0  0  0  0
  2 20  2  0  0  0  0
  2  3  1  0  0  0  0
  3  4  2  0  0  0  0
  3 24  1  0  0  0  0
  4  5  1  0  0  0  0
  4 18  1  0  0  0  0
  5  6  1  0  0  0  0
  5 25  1  0  0  0  0
  6  7  2  0  0  0  0
  6  8  1  0  0  0  0
  8  9  1  0  0  0  0
  8 26  1  0  0  0  0
  9 17  1  0  0  0  0
  9 10  1  0  0  0  0
  9 27  1  0  0  0  0
 10 11  1  0  0  0  0
 10 28  1  0  0  0  0
 10 29  1  0  0  0  0
 11 12  1  0  0  0  0
 11 30  1  0  0  0  0
 11 31  1  0  0  0  0
 12 13  1  0  0  0  0
 12 16  1  0  0  0  0
 12 44  1  0  0  0  0
 13 15  1  0  0  0  0
 13 14  1  0  0  0  0
 13 32  1  0  0  0  0
 14 15  1  0  0  0  0
 14 33  1  0  0  0  0
 14 34  1  0  0  0  0
 15 35  1  0  0  0  0
 15 36  1  0  0  0  0
 16 17  1  0  0  0  0
 16 37  1  0  0  0  0
 16 38  1  0  0  0  0
 17 39  1  0  0  0  0
 17 40  1  0  0  0  0
 18 19  1  0  0  0  0
 18 20  1  0  0  0  0
 19 41  1  0  0  0  0
 19 42  1  0  0  0  0
 19 43  1  0  0  0  0
M  CHG  1  12   1
M  END
> <s_m_source_file>
AV-unprocessed.smi

> <i_m_source_file_index>
1228

> <i_lp_mmshare_version>
43012

> <i_f3d_flags>
0

> <s_epik_input>
W0NIM11jMVtjSF1jKG4objEpW0NIM10pW05IXUMoPU8pW05IXVtDSF0yW0NIMl1bQ0gyXU4oW0NIMl1bQ0gyXTIpW0NIXTNbQ0gyXVtDSDJdMw==

> <s_epik_cmdline>
J2VwaWtfcHl0aG9uJywgJy1waCcsICc3LjAnLCAnLXRuJywgJzgnLCAnLW1hJywgJzIwMCcsICctbWV0YWxfYmluZGluZycsICctaW1hZScsICc8aW5maWxlLm1hZT4nLCAnLW9tYWUnLCAnPG91dGZpbGUubWFlPic=

> <r_lp_tautomer_probability>
1

> <r_epik_Ionization_Penalty>
0.11882

> <r_epik_Ionization_Penalty_Charging>
0.11874

> <r_epik_Ionization_Penalty_Neutral>
8.03064e-05

> <r_epik_State_Penalty>
0.108313

> <r_epik_Charging_Adjusted_Penalty>
0.227053

> <i_epik_Tot_Q>
1

> <i_epik_Tot_abs_Q>
1

> <r_epik_Metal_State_Penalty>
0.108316

> <b_epik_Metal_Only>
0

> <s_lp_Force_Field>
OPLS_2005

> <r_lp_Energy>
27.674

> <b_lp_Chiralities_Consistent>
1

> <s_lp_Variant>
AV-unprocessed.smi:1228-1

> <Gold.Version>
5.8.1

> <Gold.Id.Protein>
6NUR|6NUR_protein|mol2

> <Gold.PLP.Fitness>
41.7195

> <Gold.PLP.PLP>
-33.5218

> <Gold.PLP.part.hbond>
-3.5435

> <Gold.PLP.part.metal>
0.0000

> <Gold.PLP.part.buried>
0.1989

> <Gold.PLP.part.nonpolar>
-28.4344

> <Gold.PLP.part.repulsive>
0.0917

> <Gold.PLP.ligand.clash>
0.0000

> <Gold.PLP.ligand.torsion>
1.0319

> <Gold.PLP.Chemscore.Hbond>
3.0000

> <Gold.PLP.Chemscore.CHOScore>
0.0000

> <Gold.PLP.Chemscore.Metal>
0.0000

> <Gold.Chemscore.Hbonds>
donor molecule, donor type, donor heavy atom, donor atom, acceptor molecule, acceptor atom, score
      L1  H     5    25       P1  7948  0.15
      L1  H     8    26       P1  7948  0.30
      L1  H    12    44       P1 10747  1.00

> <Gold.PLP.Chemscore.Internal.Correction>
1.2614

> <Gold.Rescore>
     Score         DG    S(hbond)    S(metal)    S(lipo)     H(rot)  DE(clash)    DE(int)     intcor
     18.77     -20.10       2.68        0.00      74.96       1.21       0.03       1.30       ----

> <Gold.Chemscore.Fitness>
18.7703

> <Gold.Chemscore.DG>
-20.0964

> <Gold.Chemscore.ZeroCoef>
-5.4800

> <Gold.Chemscore.Hbond>
2.6774

> <Gold.Chemscore.Metal>
0.0000

> <Gold.Chemscore.Lipo>
74.9625

> <Gold.Chemscore.Internal_Hbond>
0.0000

> <Gold.Chemscore.DEClash>
0.0291

> <Gold.Chemscore.DEInternal>
1.2970

> <Gold.Chemscore.Rot>
1.2097

> <Gold.Chemscore.Internal.Correction>
   9.000000E+99

> <Gold.Chemscore.Hbonds>
donor molecule, donor type, donor heavy atom, donor atom, acceptor molecule, acceptor atom, score
      L1  H    12    44       P1 10747  0.52

> <Gold.Chemscore.Hbond.Weighted>
-8.9427

> <Gold.Chemscore.Metal.Weighted>
-0.0000

> <Gold.Chemscore.Lipo.Weighted>
-8.7706

> <Gold.Chemscore.Internal_Hbond.Weighted>
0.0000

> <Gold.Chemscore.DEClash.Weighted>
0.0291

> <Gold.Chemscore.DEInternal.Weighted>
1.2970

> <Gold.Chemscore.Rot.Weighted>
3.0969

> <Gold.Chemscore.Internal.Correction.Weighted>
   9.000000E+99

> <Gold.Protein.RotatedTorsions>
[ 6907 6896 6895 6894 ] final  -53.08 input  -60.11 | X-H torsion
[ 7974 7965 7964 7962 ] final   47.62 input  175.53 | X-H torsion
[ 8008 7997 7996 7995 ] final  -47.40 input   59.86 | X-H torsion
[ 10167 10162 10161 10158 ] final  121.88 input  -65.29 | X-H torsion
[ 10718 10713 10712 10709 ] final -156.18 input   66.30 | X-H torsion
[ 10763 10752 10751 10750 ] final   55.52 input  -60.55 | X-H torsion
[ 11005 11000 10999 10996 ] final  117.28 input  -57.11 | X-H torsion

> <Gold.Protein.ActiveResidues>
 VAL166  LYS551  ARG553  GLY616  TRP617  ASP618  TYR619  PRO620  LYS621  CYS622 
 ASP623  PHE694  ASN695  SER759  ASP760  ASP761  ALA762  ILE779  LEU786  VAL792 
 PHE793  MET794  SER795  GLU796  ALA797  LYS798  CYS799  TRP800  GLU811  SER814 

> <Gold.Protein.RotatedAtoms>
  150.8459  134.7767  159.6969 H   0  0  0  0  0  0  0  0  0  0  0  0  # atno 6907 bound_to 6896
  152.4536  134.5338  159.9828 H   0  0  0  0  0  0  0  0  0  0  0  0  # atno 6908 bound_to 6896
  151.5468  133.3386  159.2981 H   0  0  0  0  0  0  0  0  0  0  0  0  # atno 6909 bound_to 6896
  146.0281  139.4731  142.9855 H   0  0  0  0  0  0  0  0  0  0  0  0  # atno 7974 bound_to 7965
  154.4016  140.1347  156.4170 H   0  0  0  0  0  0  0  0  0  0  0  0  # atno 8008 bound_to 7997
  155.7679  140.3484  155.5211 H   0  0  0  0  0  0  0  0  0  0  0  0  # atno 8009 bound_to 7997
  155.8795  140.0985  157.1485 H   0  0  0  0  0  0  0  0  0  0  0  0  # atno 8010 bound_to 7997
  139.5892  144.7019  151.3332 H   0  0  0  0  0  0  0  0  0  0  0  0  # atno 10167 bound_to 10162
  156.5231  130.8487  151.2689 H   0  0  0  0  0  0  0  0  0  0  0  0  # atno 10718 bound_to 10713
  152.9818  135.5708  154.5079 H   0  0  0  0  0  0  0  0  0  0  0  0  # atno 10763 bound_to 10752
  154.4588  135.2781  155.1730 H   0  0  0  0  0  0  0  0  0  0  0  0  # atno 10764 bound_to 10752
  154.3327  135.6246  153.5612 H   0  0  0  0  0  0  0  0  0  0  0  0  # atno 10765 bound_to 10752
  139.9069  134.9608  156.7327 H   0  0  0  0  0  0  0  0  0  0  0  0  # atno 11005 bound_to 11000
  145.7085  141.0114  143.1466 LP  0  0  0  0  0  0  0  0  0  0  0  0  # atno 17320 bound_to 7965
  144.7018  139.8729  143.7442 LP  0  0  0  0  0  0  0  0  0  0  0  0  # atno 17321 bound_to 7965
  140.7158  143.7269  150.7653 LP  0  0  0  0  0  0  0  0  0  0  0  0  # atno 17342 bound_to 10162
  140.0821  143.4959  152.2525 LP  0  0  0  0  0  0  0  0  0  0  0  0  # atno 17343 bound_to 10162
  157.7434  130.9910  150.2587 LP  0  0  0  0  0  0  0  0  0  0  0  0  # atno 17370 bound_to 10713
  156.3131  130.3775  149.7643 LP  0  0  0  0  0  0  0  0  0  0  0  0  # atno 17371 bound_to 10713
  140.6912  133.9388  155.7967 LP  0  0  0  0  0  0  0  0  0  0  0  0  # atno 17394 bound_to 11000
  141.0440  134.0581  157.3867 LP  0  0  0  0  0  0  0  0  0  0  0  0  # atno 17395 bound_to 11000

$$$$
