AV-unprocessed.smi:2754|AV-procd|sdf|10616|dock1
  -GOLD-   2272015 63D 1   1.00000     0.00000
 Structure written by MMmdl.
 28 29  0  0  0  0  0  0  0  0  2 V2000
  152.8014  138.3964  157.6164 N   0  0  0  0  0  0  0  0  0  0  0  0
  153.0757  139.3097  158.6040 C   0  0  0  0  0  0  0  0  0  0  0  0
  154.0136  138.9686  159.4897 N   0  0  0  0  0  0  0  0  0  0  0  0
  154.2875  139.8657  160.4616 C   0  0  0  0  0  0  0  0  0  0  0  0
  153.6155  141.1027  160.5411 C   0  0  0  0  0  0  0  0  0  0  0  0
  152.6422  141.3509  159.5489 C   0  0  0  0  0  0  0  0  0  0  0  0
  151.8462  142.6482  159.5278 C   0  0  1  0  0  0  0  0  0  0  0  0
  152.7470  143.8884  159.6908 C   0  0  0  0  0  0  0  0  0  0  0  0
  151.9050  145.1732  159.6561 C   0  0  0  0  0  0  0  0  0  0  0  0
  151.0402  145.2298  158.3857 C   0  0  0  0  0  0  0  0  0  0  0  0
  150.1863  144.0266  158.2804 N   0  3  0  0  0  0  0  0  0  0  0  0
  150.9611  142.7659  158.2689 C   0  0  0  0  0  0  0  0  0  0  0  0
  152.3754  140.4459  158.5785 N   0  0  0  0  0  0  0  0  0  0  0  0
  152.1007  138.5984  156.9179 H   0  0  0  0  0  0  0  0  0  0  0  0
  153.2150  137.4758  157.6428 H   0  0  0  0  0  0  0  0  0  0  0  0
  155.0462  139.5945  161.1808 H   0  0  0  0  0  0  0  0  0  0  0  0
  153.8402  141.8152  161.3213 H   0  0  0  0  0  0  0  0  0  0  0  0
  151.1773  142.6221  160.3898 H   0  0  0  0  0  0  0  0  0  0  0  0
  153.3018  143.8321  160.6279 H   0  0  0  0  0  0  0  0  0  0  0  0
  153.4884  143.9218  158.8911 H   0  0  0  0  0  0  0  0  0  0  0  0
  151.2648  145.2166  160.5383 H   0  0  0  0  0  0  0  0  0  0  0  0
  152.5561  146.0465  159.7037 H   0  0  0  0  0  0  0  0  0  0  0  0
  150.4055  146.1163  158.3993 H   0  0  0  0  0  0  0  0  0  0  0  0
  151.6711  145.3024  157.4987 H   0  0  0  0  0  0  0  0  0  0  0  0
  149.5566  144.0103  159.0701 H   0  0  0  0  0  0  0  0  0  0  0  0
  151.5696  142.7360  157.3639 H   0  0  0  0  0  0  0  0  0  0  0  0
  150.2664  141.9272  158.2137 H   0  0  0  0  0  0  0  0  0  0  0  0
  149.6421  144.0838  157.4313 H   0  0  0  0  0  0  0  0  0  0  0  0
  1  2  1  0  0  0  0
  1 14  1  0  0  0  0
  1 15  1  0  0  0  0
  2 13  1  0  0  0  0
  2  3  2  0  0  0  0
  3  4  1  0  0  0  0
  4  5  2  0  0  0  0
  4 16  1  0  0  0  0
  5  6  1  0  0  0  0
  5 17  1  0  0  0  0
  6  7  1  0  0  0  0
  6 13  2  0  0  0  0
  7 12  1  0  0  0  0
  7  8  1  0  0  0  0
  7 18  1  0  0  0  0
  8  9  1  0  0  0  0
  8 19  1  0  0  0  0
  8 20  1  0  0  0  0
  9 10  1  0  0  0  0
  9 21  1  0  0  0  0
  9 22  1  0  0  0  0
 10 11  1  0  0  0  0
 10 23  1  0  0  0  0
 10 24  1  0  0  0  0
 11 12  1  0  0  0  0
 11 25  1  0  0  0  0
 11 28  1  0  0  0  0
 12 26  1  0  0  0  0
 12 27  1  0  0  0  0
M  CHG  1  11   1
M  END
> <s_m_source_file>
AV-unprocessed.smi

> <i_m_source_file_index>
2754

> <i_lp_mmshare_version>
43012

> <i_f3d_flags>
0

> <s_epik_input>
W05IMl1jMW5bY0hdW2NIXWMobjEpW0NAQEhdMltDSDJdW0NIMl1bQ0gyXVtOSF1bQ0gyXTI=

> <s_epik_cmdline>
J2VwaWtfcHl0aG9uJywgJy1waCcsICc3LjAnLCAnLXRuJywgJzgnLCAnLW1hJywgJzIwMCcsICctbWV0YWxfYmluZGluZycsICctaW1hZScsICc8aW5maWxlLm1hZT4nLCAnLW9tYWUnLCAnPG91dGZpbGUubWFlPic=

> <r_lp_tautomer_probability>
1

> <r_epik_Ionization_Penalty>
0.000528025

> <r_epik_Ionization_Penalty_Charging>
0.000372054

> <r_epik_Ionization_Penalty_Neutral>
0.000155972

> <r_epik_State_Penalty>
-0

> <r_epik_Charging_Adjusted_Penalty>
0.000372054

> <i_epik_Tot_Q>
1

> <i_epik_Tot_abs_Q>
1

> <r_epik_Metal_State_Penalty>
-0

> <b_epik_Metal_Only>
0

> <s_lp_Force_Field>
OPLS_2005

> <r_lp_Energy>
4.9837

> <b_lp_Chiralities_Consistent>
1

> <s_lp_Variant>
AV-unprocessed.smi:2754-2

> <Gold.Version>
5.8.1

> <Gold.Id.Protein>
6NUR|6NUR_protein|mol2

> <Gold.PLP.Fitness>
32.6333

> <Gold.PLP.PLP>
-26.9516

> <Gold.PLP.part.hbond>
-1.6308

> <Gold.PLP.part.metal>
0.0000

> <Gold.PLP.part.buried>
-3.5221

> <Gold.PLP.part.nonpolar>
-21.9113

> <Gold.PLP.part.repulsive>
0.1616

> <Gold.PLP.ligand.clash>
0.0000

> <Gold.PLP.ligand.torsion>
0.1768

> <Gold.PLP.Chemscore.Hbond>
2.0000

> <Gold.PLP.Chemscore.CHOScore>
0.0000

> <Gold.PLP.Chemscore.Metal>
0.0000

> <Gold.Chemscore.Hbonds>
donor molecule, donor type, donor heavy atom, donor atom, acceptor molecule, acceptor atom, score
      L1  H    11    28       P1  8028  2.00

> <Gold.PLP.Chemscore.Internal.Correction>
0.0352

> <Gold.Rescore>
     Score         DG    S(hbond)    S(metal)    S(lipo)     H(rot)  DE(clash)    DE(int)     intcor
     14.84     -15.76       0.90        0.00      83.99       1.00       0.76       0.16       ----

> <Gold.Chemscore.Fitness>
14.8396

> <Gold.Chemscore.DG>
-15.7571

> <Gold.Chemscore.ZeroCoef>
-5.4800

> <Gold.Chemscore.Hbond>
0.9012

> <Gold.Chemscore.Metal>
0.0000

> <Gold.Chemscore.Lipo>
83.9908

> <Gold.Chemscore.Internal_Hbond>
0.0000

> <Gold.Chemscore.DEClash>
0.7560

> <Gold.Chemscore.DEInternal>
0.1615

> <Gold.Chemscore.Rot>
1.0000

> <Gold.Chemscore.Internal.Correction>
   9.000000E+99

> <Gold.Chemscore.Hbonds>
donor molecule, donor type, donor heavy atom, donor atom, acceptor molecule, acceptor atom, score
      L1  H    11    28       P1  8028  0.33

> <Gold.Chemscore.Hbond.Weighted>
-3.0102

> <Gold.Chemscore.Metal.Weighted>
-0.0000

> <Gold.Chemscore.Lipo.Weighted>
-9.8269

> <Gold.Chemscore.Internal_Hbond.Weighted>
0.0000

> <Gold.Chemscore.DEClash.Weighted>
0.7560

> <Gold.Chemscore.DEInternal.Weighted>
0.1615

> <Gold.Chemscore.Rot.Weighted>
2.5600

> <Gold.Chemscore.Internal.Correction.Weighted>
   9.000000E+99

> <Gold.Protein.RotatedTorsions>
[ 6907 6896 6895 6894 ] final  120.50 input  -60.11 | X-H torsion
[ 7974 7965 7964 7962 ] final -147.36 input  175.53 | X-H torsion
[ 8008 7997 7996 7995 ] final  -87.38 input   59.86 | X-H torsion
[ 10167 10162 10161 10158 ] final  -88.91 input  -65.29 | X-H torsion
[ 10718 10713 10712 10709 ] final -126.89 input   66.30 | X-H torsion
[ 10763 10752 10751 10750 ] final -150.98 input  -60.55 | X-H torsion
[ 11005 11000 10999 10996 ] final   47.89 input  -57.11 | X-H torsion

> <Gold.Protein.ActiveResidues>
 VAL166  LYS551  ARG553  GLY616  TRP617  ASP618  TYR619  PRO620  LYS621  CYS622 
 ASP623  PHE694  ASN695  SER759  ASP760  ASP761  ALA762  ILE779  LEU786  VAL792 
 PHE793  MET794  SER795  GLU796  ALA797  LYS798  CYS799  TRP800  GLU811  SER814 

> <Gold.Protein.RotatedAtoms>
  152.4393  133.7419  159.6645 H   0  0  0  0  0  0  0  0  0  0  0  0  # atno 6907 bound_to 6896
  150.8281  133.8126  159.3116 H   0  0  0  0  0  0  0  0  0  0  0  0  # atno 6908 bound_to 6896
  151.5788  135.1062  160.0064 H   0  0  0  0  0  0  0  0  0  0  0  0  # atno 6909 bound_to 6896
  144.8098  140.5337  143.5650 H   0  0  0  0  0  0  0  0  0  0  0  0  # atno 7974 bound_to 7965
  154.6626  140.0566  157.0079 H   0  0  0  0  0  0  0  0  0  0  0  0  # atno 8008 bound_to 7997
  155.1206  140.3247  155.4480 H   0  0  0  0  0  0  0  0  0  0  0  0  # atno 8009 bound_to 7997
  156.2624  140.1998  156.6328 H   0  0  0  0  0  0  0  0  0  0  0  0  # atno 8010 bound_to 7997
  140.3700  143.2799  151.9511 H   0  0  0  0  0  0  0  0  0  0  0  0  # atno 10167 bound_to 10162
  156.1806  130.6729  151.0300 H   0  0  0  0  0  0  0  0  0  0  0  0  # atno 10718 bound_to 10713
  154.8086  135.3271  154.7365 H   0  0  0  0  0  0  0  0  0  0  0  0  # atno 10763 bound_to 10752
  153.8019  135.6903  153.4859 H   0  0  0  0  0  0  0  0  0  0  0  0  # atno 10764 bound_to 10752
  153.1849  135.4573  155.0021 H   0  0  0  0  0  0  0  0  0  0  0  0  # atno 10765 bound_to 10752
  140.1239  134.4793  155.8575 H   0  0  0  0  0  0  0  0  0  0  0  0  # atno 11005 bound_to 11000
  145.5350  139.1475  143.3478 LP  0  0  0  0  0  0  0  0  0  0  0  0  # atno 17320 bound_to 7965
  146.2395  140.5490  142.8940 LP  0  0  0  0  0  0  0  0  0  0  0  0  # atno 17321 bound_to 7965
  139.4805  144.5915  151.7763 LP  0  0  0  0  0  0  0  0  0  0  0  0  # atno 17342 bound_to 10162
  140.5042  144.1123  150.5978 LP  0  0  0  0  0  0  0  0  0  0  0  0  # atno 17343 bound_to 10162
  157.6866  131.0823  150.7226 LP  0  0  0  0  0  0  0  0  0  0  0  0  # atno 17370 bound_to 10713
  156.7284  130.4702  149.5505 LP  0  0  0  0  0  0  0  0  0  0  0  0  # atno 17371 bound_to 10713
  141.2157  133.6771  156.6941 LP  0  0  0  0  0  0  0  0  0  0  0  0  # atno 17394 bound_to 11000
  140.2929  134.8226  157.4032 LP  0  0  0  0  0  0  0  0  0  0  0  0  # atno 17395 bound_to 11000

$$$$
