AV-unprocessed.smi:3219|AV-procd|sdf|12295|dock5
  -GOLD-   2272018133D 1   1.00000     0.00000
 Structure written by MMmdl.
 41 42  0  0  0  0  0  0  0  0  2 V2000
  153.2387  142.5686  161.2507 C   0  0  0  0  0  0  0  0  0  0  0  0
  153.1411  141.5803  160.1332 C   0  0  0  0  0  0  0  0  0  0  0  0
  152.2191  141.4494  159.1285 C   0  0  0  0  0  0  0  0  0  0  0  0
  150.9968  142.2818  158.8395 C   0  0  0  0  0  0  0  0  0  0  0  0
  151.0249  142.8819  157.4259 C   0  0  0  0  0  0  0  0  0  0  0  0
  149.8992  142.3915  156.6059 N   0  3  0  0  0  0  0  0  0  0  0  0
  150.2309  141.2321  155.7549 C   0  0  0  0  0  0  0  0  0  0  0  0
  148.9785  140.6627  155.0640 C   0  0  2  0  0  0  0  0  0  0  0  0
  149.2632  139.3055  154.3775 C   0  0  0  0  0  0  0  0  0  0  0  0
  148.1401  138.8678  153.4541 C   0  0  0  0  0  0  0  0  0  0  0  0
  147.1672  139.6913  153.0301 C   0  0  0  0  0  0  0  0  0  0  0  0
  147.0854  141.1546  153.4216 C   0  0  0  0  0  0  0  0  0  0  0  0
  148.3973  141.6642  154.0470 C   0  0  0  0  0  0  0  0  0  0  0  0
  152.6811  140.3218  158.3928 C   0  0  0  0  0  0  0  0  0  0  0  0
  153.7895  139.8035  158.8896 N   0  0  0  0  0  0  0  0  0  0  0  0
  154.0716  140.5726  159.9608 N   0  0  0  0  0  0  0  0  0  0  0  0
  155.2442  140.2750  160.7604 C   0  0  0  0  0  0  0  0  0  0  0  0
  152.4820  143.3474  161.1603 H   0  0  0  0  0  0  0  0  0  0  0  0
  154.2149  143.0539  161.2568 H   0  0  0  0  0  0  0  0  0  0  0  0
  153.0994  142.0772  162.2137 H   0  0  0  0  0  0  0  0  0  0  0  0
  150.0971  141.6741  158.9414 H   0  0  0  0  0  0  0  0  0  0  0  0
  150.8857  143.0830  159.5706 H   0  0  0  0  0  0  0  0  0  0  0  0
  150.9870  143.9707  157.4819 H   0  0  0  0  0  0  0  0  0  0  0  0
  151.9627  142.6189  156.9349 H   0  0  0  0  0  0  0  0  0  0  0  0
  149.1426  142.1309  157.2220 H   0  0  0  0  0  0  0  0  0  0  0  0
  150.9546  141.5528  155.0043 H   0  0  0  0  0  0  0  0  0  0  0  0
  150.7154  140.4617  156.3565 H   0  0  0  0  0  0  0  0  0  0  0  0
  148.2160  140.5039  155.8287 H   0  0  0  0  0  0  0  0  0  0  0  0
  150.1768  139.3595  153.7842 H   0  0  0  0  0  0  0  0  0  0  0  0
  149.4181  138.5304  155.1287 H   0  0  0  0  0  0  0  0  0  0  0  0
  148.1527  137.8389  153.1252 H   0  0  0  0  0  0  0  0  0  0  0  0
  146.3874  139.3151  152.3839 H   0  0  0  0  0  0  0  0  0  0  0  0
  146.8388  141.7492  152.5417 H   0  0  0  0  0  0  0  0  0  0  0  0
  146.2604  141.2712  154.1250 H   0  0  0  0  0  0  0  0  0  0  0  0
  148.2211  142.6318  154.5185 H   0  0  0  0  0  0  0  0  0  0  0  0
  149.1293  141.8382  153.2570 H   0  0  0  0  0  0  0  0  0  0  0  0
  152.2459  139.8695  157.5137 H   0  0  0  0  0  0  0  0  0  0  0  0
  154.9484  140.1080  161.7964 H   0  0  0  0  0  0  0  0  0  0  0  0
  155.9395  141.1135  160.7182 H   0  0  0  0  0  0  0  0  0  0  0  0
  155.7476  139.3807  160.3904 H   0  0  0  0  0  0  0  0  0  0  0  0
  149.5862  143.1461  156.0120 H   0  0  0  0  0  0  0  0  0  0  0  0
  1  2  1  0  0  0  0
  1 18  1  0  0  0  0
  1 19  1  0  0  0  0
  1 20  1  0  0  0  0
  2 16  1  0  0  0  0
  2  3  2  0  0  0  0
  3  4  1  0  0  0  0
  3 14  1  0  0  0  0
  4  5  1  0  0  0  0
  4 21  1  0  0  0  0
  4 22  1  0  0  0  0
  5  6  1  0  0  0  0
  5 23  1  0  0  0  0
  5 24  1  0  0  0  0
  6  7  1  0  0  0  0
  6 25  1  0  0  0  0
  6 41  1  0  0  0  0
  7  8  1  0  0  0  0
  7 26  1  0  0  0  0
  7 27  1  0  0  0  0
  8 13  1  0  0  0  0
  8  9  1  0  0  0  0
  8 28  1  0  0  0  0
  9 10  1  0  0  0  0
  9 29  1  0  0  0  0
  9 30  1  0  0  0  0
 10 11  2  0  0  0  0
 10 31  1  0  0  0  0
 11 12  1  0  0  0  0
 11 32  1  0  0  0  0
 12 13  1  0  0  0  0
 12 33  1  0  0  0  0
 12 34  1  0  0  0  0
 13 35  1  0  0  0  0
 13 36  1  0  0  0  0
 14 15  2  0  0  0  0
 14 37  1  0  0  0  0
 15 16  1  0  0  0  0
 16 17  1  0  0  0  0
 17 38  1  0  0  0  0
 17 39  1  0  0  0  0
 17 40  1  0  0  0  0
M  CHG  1   6   1
M  END
> <s_m_source_file>
AV-unprocessed.smi

> <i_m_source_file_index>
3219

> <i_lp_mmshare_version>
43012

> <i_f3d_flags>
0

> <s_epik_input>
W0NIM11uMW5bY0hdYyhjMVtDSDNdKVtDSDJdW0NIMl1bTkhdW0NIMl1bQ0BASF0yW0NIMl1bQ0hdPVtDSF1bQ0gyXVtDSDJdMg==

> <s_epik_cmdline>
J2VwaWtfcHl0aG9uJywgJy1waCcsICc3LjAnLCAnLXRuJywgJzgnLCAnLW1hJywgJzIwMCcsICctbWV0YWxfYmluZGluZycsICctaW1hZScsICc8aW5maWxlLm1hZT4nLCAnLW9tYWUnLCAnPG91dGZpbGUubWFlPic=

> <r_lp_tautomer_probability>
1

> <r_epik_Ionization_Penalty>
0.000661401

> <r_epik_Ionization_Penalty_Charging>
0.00057791

> <r_epik_Ionization_Penalty_Neutral>
8.34914e-05

> <r_epik_State_Penalty>
-0

> <r_epik_Charging_Adjusted_Penalty>
0.00057791

> <i_epik_Tot_Q>
1

> <i_epik_Tot_abs_Q>
1

> <r_epik_Metal_State_Penalty>
-0

> <b_epik_Metal_Only>
0

> <s_lp_Force_Field>
OPLS_2005

> <r_lp_Energy>
9.86252

> <b_lp_Chiralities_Consistent>
1

> <s_lp_Variant>
AV-unprocessed.smi:3219-1

> <Gold.Version>
5.8.1

> <Gold.Id.Protein>
6NUR|6NUR_protein|mol2

> <Gold.PLP.Fitness>
45.1571

> <Gold.PLP.PLP>
-37.4776

> <Gold.PLP.part.hbond>
-2.0000

> <Gold.PLP.part.metal>
0.0000

> <Gold.PLP.part.buried>
-1.4778

> <Gold.PLP.part.nonpolar>
-33.6479

> <Gold.PLP.part.repulsive>
0.0448

> <Gold.PLP.ligand.clash>
0.0000

> <Gold.PLP.ligand.torsion>
0.6699

> <Gold.PLP.Chemscore.Hbond>
3.0000

> <Gold.PLP.Chemscore.CHOScore>
0.0000

> <Gold.PLP.Chemscore.Metal>
0.0000

> <Gold.Chemscore.Hbonds>
donor molecule, donor type, donor heavy atom, donor atom, acceptor molecule, acceptor atom, score
      L1  H     6    41       P1  8028  2.00
      P1  H  7997  8009       L1    15  0.90

> <Gold.PLP.Chemscore.Internal.Correction>
0.0194

> <Gold.Rescore>
     Score         DG    S(hbond)    S(metal)    S(lipo)     H(rot)  DE(clash)    DE(int)     intcor
     18.77     -19.62       1.54        0.00     108.74       1.46       0.07       0.78       ----

> <Gold.Chemscore.Fitness>
18.7726

> <Gold.Chemscore.DG>
-19.6237

> <Gold.Chemscore.ZeroCoef>
-5.4800

> <Gold.Chemscore.Hbond>
1.5442

> <Gold.Chemscore.Metal>
0.0000

> <Gold.Chemscore.Lipo>
108.7420

> <Gold.Chemscore.Internal_Hbond>
0.0000

> <Gold.Chemscore.DEClash>
0.0686

> <Gold.Chemscore.DEInternal>
0.7825

> <Gold.Chemscore.Rot>
1.4597

> <Gold.Chemscore.Internal.Correction>
   9.000000E+99

> <Gold.Chemscore.Hbonds>
donor molecule, donor type, donor heavy atom, donor atom, acceptor molecule, acceptor atom, score
      L1  H     6    41       P1  8028  0.99
      P1  H  7997  8009       L1    15  0.16

> <Gold.Chemscore.Hbond.Weighted>
-5.1577

> <Gold.Chemscore.Metal.Weighted>
-0.0000

> <Gold.Chemscore.Lipo.Weighted>
-12.7228

> <Gold.Chemscore.Internal_Hbond.Weighted>
0.0000

> <Gold.Chemscore.DEClash.Weighted>
0.0686

> <Gold.Chemscore.DEInternal.Weighted>
0.7825

> <Gold.Chemscore.Rot.Weighted>
3.7368

> <Gold.Chemscore.Internal.Correction.Weighted>
   9.000000E+99

> <Gold.Protein.RotatedTorsions>
[ 6907 6896 6895 6894 ] final -139.36 input  -60.11 | X-H torsion
[ 7974 7965 7964 7962 ] final  161.19 input  175.53 | X-H torsion
[ 8008 7997 7996 7995 ] final  128.06 input   59.86 | X-H torsion
[ 10167 10162 10161 10158 ] final  154.20 input  -65.29 | X-H torsion
[ 10718 10713 10712 10709 ] final  -24.81 input   66.30 | X-H torsion
[ 10763 10752 10751 10750 ] final -135.10 input  -60.55 | X-H torsion
[ 11005 11000 10999 10996 ] final   72.28 input  -57.11 | X-H torsion

> <Gold.Protein.ActiveResidues>
 VAL166  LYS551  ARG553  GLY616  TRP617  ASP618  TYR619  PRO620  LYS621  CYS622 
 ASP623  PHE694  ASN695  SER759  ASP760  ASP761  ALA762  ILE779  LEU786  VAL792 
 PHE793  MET794  SER795  GLU796  ALA797  LYS798  CYS799  TRP800  GLU811  SER814 

> <Gold.Protein.RotatedAtoms>
  151.0469  133.5658  159.2645 H   0  0  0  0  0  0  0  0  0  0  0  0  # atno 6907 bound_to 6896
  151.2683  135.0676  159.9134 H   0  0  0  0  0  0  0  0  0  0  0  0  # atno 6908 bound_to 6896
  152.5374  134.0203  159.8032 H   0  0  0  0  0  0  0  0  0  0  0  0  # atno 6909 bound_to 6896
  144.7698  139.7863  143.6301 H   0  0  0  0  0  0  0  0  0  0  0  0  # atno 7974 bound_to 7965
  156.2906  140.2654  156.2375 H   0  0  0  0  0  0  0  0  0  0  0  0  # atno 8008 bound_to 7997
  155.0010  140.0388  157.2378 H   0  0  0  0  0  0  0  0  0  0  0  0  # atno 8009 bound_to 7997
  154.7601  140.2759  155.6226 H   0  0  0  0  0  0  0  0  0  0  0  0  # atno 8010 bound_to 7997
  139.4824  144.5207  151.7880 H   0  0  0  0  0  0  0  0  0  0  0  0  # atno 10167 bound_to 10162
  156.4727  130.4528  149.6859 H   0  0  0  0  0  0  0  0  0  0  0  0  # atno 10718 bound_to 10713
  154.8708  135.3714  154.4844 H   0  0  0  0  0  0  0  0  0  0  0  0  # atno 10763 bound_to 10752
  153.5495  135.7025  153.5603 H   0  0  0  0  0  0  0  0  0  0  0  0  # atno 10764 bound_to 10752
  153.3728  135.4017  155.1765 H   0  0  0  0  0  0  0  0  0  0  0  0  # atno 10765 bound_to 10752
  139.9499  134.7246  156.0888 H   0  0  0  0  0  0  0  0  0  0  0  0  # atno 11005 bound_to 11000
  146.1836  139.5040  142.9850 LP  0  0  0  0  0  0  0  0  0  0  0  0  # atno 17320 bound_to 7965
  145.6358  141.0295  143.1839 LP  0  0  0  0  0  0  0  0  0  0  0  0  # atno 17321 bound_to 7965
  140.4721  144.1572  150.5919 LP  0  0  0  0  0  0  0  0  0  0  0  0  # atno 17342 bound_to 10162
  140.4371  143.2542  151.9521 LP  0  0  0  0  0  0  0  0  0  0  0  0  # atno 17343 bound_to 10162
  156.3601  130.7477  151.2448 LP  0  0  0  0  0  0  0  0  0  0  0  0  # atno 17370 bound_to 10713
  157.7490  131.0352  150.4354 LP  0  0  0  0  0  0  0  0  0  0  0  0  # atno 17371 bound_to 10713
  141.1159  133.6628  156.3093 LP  0  0  0  0  0  0  0  0  0  0  0  0  # atno 17394 bound_to 11000
  140.5744  134.5808  157.5465 LP  0  0  0  0  0  0  0  0  0  0  0  0  # atno 17395 bound_to 11000

$$$$
