#       Name:                AV-unprocessed.smi:2822
#       Creating user name   scv26
#       Creation time:       Fri Mar 27 15:31:37 2020


#       File generated by GOLD software.
#

@<TRIPOS>MOLECULE
AV-unprocessed.smi:2822
    43    45     1
SMALL
NO_CHARGES


@<TRIPOS>ATOM
      1 ****        -4.9324   1.4505  -0.2206 Cl             1 S1                 0.0000
      2 ****        -4.0379   2.9303  -0.1953 C.ar           1 S1                 0.0000
      3 ****        -4.7239   4.1604  -0.1267 C.ar           1 S1                 0.0000
      4 ****        -4.1029   5.3583  -0.1024 N.ar           1 S1                 0.0000
      5 ****        -2.7546   5.3675  -0.1470 C.ar           1 S1                 0.0000
      6 ****        -1.9721   4.1974  -0.2160 C.ar           1 S1                 0.0000
      7 ****        -2.6245   2.9421  -0.2406 C.ar           1 S1                 0.0000
      8 ****        -1.9234   1.7283  -0.3110 N.pl3          1 S1                 0.0000
      9 ****        -0.4824   1.6901  -0.1148 C.3            1 S1                 0.0000
     10 ****         0.0529   0.2514  -0.1246 C.3            1 S1                 0.0000
     11 ****         1.5979   0.2255  -0.1140 C.3            1 S1                 0.0000
     12 ****         2.1207  -1.1569   0.0072 N.4            1 S1                 1.0000
     13 ****         2.0558  -1.9287  -1.2638 C.3            1 S1                 0.0000
     14 ****         2.6732  -3.3252  -1.1004 C.3            1 S1                 0.0000
     15 ****         1.9791  -4.0939   0.0294 C.3            1 S1                 0.0000
     16 ****         2.0575  -3.2868   1.3323 C.3            1 S1                 0.0000
     17 ****         1.5091  -1.8529   1.1730 C.3            1 S1                 0.0000
     18 ****        -0.0308  -1.7746   1.1071 C.3            1 S1                 0.0000
     19 ****        -0.4261  -0.4091   1.0437 O.3            1 S1                 0.0000
     20 ****        -5.8031   4.1842  -0.0908 H              1 S1                 0.0000
     21 ****        -2.2824   6.3385  -0.1287 H              1 S1                 0.0000
     22 ****        -0.8968   4.2844  -0.2517 H              1 S1                 0.0000
     23 ****        -2.4420   0.8641  -0.2398 H              1 S1                 0.0000
     24 ****        -0.0107   2.2554  -0.9195 H              1 S1                 0.0000
     25 ****        -0.2233   2.1813   0.8240 H              1 S1                 0.0000
     26 ****        -0.3225  -0.2570  -1.0142 H              1 S1                 0.0000
     27 ****         2.0013   0.7023  -1.0082 H              1 S1                 0.0000
     28 ****         1.9660   0.8029   0.7353 H              1 S1                 0.0000
     29 ****         1.0246  -2.0243  -1.6035 H              1 S1                 0.0000
     30 ****         2.5912  -1.3848  -2.0428 H              1 S1                 0.0000
     31 ****         2.5915  -3.8809  -2.0350 H              1 S1                 0.0000
     32 ****         3.7389  -3.2344  -0.8854 H              1 S1                 0.0000
     33 ****         0.9381  -4.2844  -0.2335 H              1 S1                 0.0000
     34 ****         2.4492  -5.0686   0.1638 H              1 S1                 0.0000
     35 ****         1.5278  -3.8082   2.1303 H              1 S1                 0.0000
     36 ****         3.1003  -3.2335   1.6484 H              1 S1                 0.0000
     37 ****         1.8132  -1.2998   2.0633 H              1 S1                 0.0000
     38 ****        -0.4331  -2.3230   0.2546 H              1 S1                 0.0000
     39 ****        -0.4683  -2.2189   2.0013 H              1 S1                 0.0000
     40 ****         3.1056  -1.0708   0.2149 H              1 S1                 0.0000
     41 ****        -4.6244   6.2102  -0.0530 LP             1 S1                 0.0000
     42 ****        -1.4251  -0.3652   1.0485 LP             1 S1                 0.0000
     43 ****        -0.0678   0.0649   1.8481 LP             1 S1                 0.0000
@<TRIPOS>BOND
    1    1    2 1     
    2    2    7 ar    
    3    2    3 ar    
    4    3    4 ar    
    5    3   20 1     
    6    4    5 ar    
    7    5    6 ar    
    8    5   21 1     
    9    6    7 ar    
   10    6   22 1     
   11    7    8 1     
   12    8    9 1     
   13    8   23 1     
   14    9   10 1     
   15    9   24 1     
   16    9   25 1     
   17   10   19 1     
   18   10   11 1     
   19   10   26 1     
   20   11   12 1     
   21   11   27 1     
   22   11   28 1     
   23   12   17 1     
   24   12   13 1     
   25   12   40 1     
   26   13   14 1     
   27   13   29 1     
   28   13   30 1     
   29   14   15 1     
   30   14   31 1     
   31   14   32 1     
   32   15   16 1     
   33   15   33 1     
   34   15   34 1     
   35   16   17 1     
   36   16   35 1     
   37   16   36 1     
   38   17   18 1     
   39   17   37 1     
   40   18   19 1     
   41   18   38 1     
   42   18   39 1     
   43    4   41 1     
   44   19   42 1     
   45   19   43 1     
@<TRIPOS>SUBSTRUCTURE
      1 S1             1
@<TRIPOS>SET
LONE_PAIRS      STATIC     ATOMS    <user>   **** ""
3 41 42 43
DONOR_HYDROGENS      STATIC     ATOMS    <user>   **** ""
2 23 40
ATOM$BLUE        STATIC     ATOMS    COLORGROUP SYSTEM
3 41 42 43
ATOM$RED        STATIC     ATOMS    COLORGROUP SYSTEM
2 23 40
