AV-unprocessed.smi:2154|AV-procd|sdf|8777|dock1
  -GOLD-   2272011553D 1   1.00000     0.00000
 Structure written by MMmdl.
 31 32  0  0  0  0  0  0  0  0  2 V2000
  151.0935  145.3931  160.3208 C   0  0  0  0  0  0  0  0  0  0  0  0
  151.5764  144.1977  159.5279 C   0  0  1  0  0  0  0  0  0  0  0  0
  152.3742  144.3886  158.2578 C   0  0  0  0  0  0  0  0  0  0  0  0
  153.0441  143.8346  159.4928 C   0  0  2  0  0  0  0  0  0  0  0  0
  153.4824  142.3868  159.5588 C   0  0  0  0  0  0  0  0  0  0  0  0
  152.4862  141.4515  159.0552 N   0  0  0  0  0  0  0  0  0  0  0  0
  152.6974  140.1598  158.7521 C   0  0  0  0  0  0  0  0  0  0  0  0
  153.7902  139.6106  158.8899 O   0  0  0  0  0  0  0  0  0  0  0  0
  151.5118  139.3359  158.2189 C   0  0  0  0  0  0  0  0  0  0  0  0
  150.8213  139.9184  157.0531 N   0  0  0  0  0  0  0  0  0  0  0  0
  149.5376  140.4537  157.2598 C   0  0  0  0  0  0  0  0  0  0  0  0
  148.8303  141.0116  156.2588 C   0  0  0  0  0  0  0  0  0  0  0  0
  149.4286  141.0525  154.9305 C   0  0  0  0  0  0  0  0  0  0  0  0
  148.7968  141.5569  154.0044 O   0  0  0  0  0  0  0  0  0  0  0  0
  150.6778  140.5228  154.7807 N   0  5  0  0  0  0  0  0  0  0  0  0
  151.3858  139.9591  155.8080 C   0  0  0  0  0  0  0  0  0  0  0  0
  152.5151  139.4942  155.6527 O   0  0  0  0  0  0  0  0  0  0  0  0
  151.8367  146.1910  160.3116 H   0  0  0  0  0  0  0  0  0  0  0  0
  150.9069  145.1043  161.3553 H   0  0  0  0  0  0  0  0  0  0  0  0
  150.1668  145.7765  159.8934 H   0  0  0  0  0  0  0  0  0  0  0  0
  150.8734  143.3668  159.5231 H   0  0  0  0  0  0  0  0  0  0  0  0
  152.1801  143.7034  157.4350 H   0  0  0  0  0  0  0  0  0  0  0  0
  152.6301  145.4051  157.9652 H   0  0  0  0  0  0  0  0  0  0  0  0
  153.7138  144.5143  160.0172 H   0  0  0  0  0  0  0  0  0  0  0  0
  154.4157  142.2978  159.0011 H   0  0  0  0  0  0  0  0  0  0  0  0
  153.7111  142.1235  160.5920 H   0  0  0  0  0  0  0  0  0  0  0  0
  151.5564  141.8171  158.9052 H   0  0  0  0  0  0  0  0  0  0  0  0
  151.8682  138.3319  157.9834 H   0  0  0  0  0  0  0  0  0  0  0  0
  150.8045  139.1969  159.0377 H   0  0  0  0  0  0  0  0  0  0  0  0
  149.1700  140.3882  158.2734 H   0  0  0  0  0  0  0  0  0  0  0  0
  147.8462  141.4202  156.4351 H   0  0  0  0  0  0  0  0  0  0  0  0
  1  2  1  0  0  0  0
  1 18  1  0  0  0  0
  1 19  1  0  0  0  0
  1 20  1  0  0  0  0
  2  4  1  0  0  0  0
  2  3  1  0  0  0  0
  2 21  1  0  0  0  0
  3  4  1  0  0  0  0
  3 22  1  0  0  0  0
  3 23  1  0  0  0  0
  4  5  1  0  0  0  0
  4 24  1  0  0  0  0
  5  6  1  0  0  0  0
  5 25  1  0  0  0  0
  5 26  1  0  0  0  0
  6  7  1  0  0  0  0
  6 27  1  0  0  0  0
  7  8  2  0  0  0  0
  7  9  1  0  0  0  0
  9 10  1  0  0  0  0
  9 28  1  0  0  0  0
  9 29  1  0  0  0  0
 10 16  1  0  0  0  0
 10 11  1  0  0  0  0
 11 12  2  0  0  0  0
 11 30  1  0  0  0  0
 12 13  1  0  0  0  0
 12 31  1  0  0  0  0
 13 14  2  0  0  0  0
 13 15  1  0  0  0  0
 15 16  1  0  0  0  0
 16 17  2  0  0  0  0
M  CHG  1  15  -1
M  END
> <s_m_source_file>
AV-unprocessed.smi

> <i_m_source_file_index>
2154

> <i_lp_mmshare_version>
43012

> <i_f3d_flags>
0

> <s_epik_input>
W0NIM11bQ0BASF0xW0NIMl1bQ0BIXTFbQ0gyXVtOSF1DKD1PKVtDSDJdbjJbY0hdW2NIXWMoPU8pW25IXWMyPU8=

> <s_epik_cmdline>
J2VwaWtfcHl0aG9uJywgJy1waCcsICc3LjAnLCAnLXRuJywgJzgnLCAnLW1hJywgJzIwMCcsICctbWV0YWxfYmluZGluZycsICctaW1hZScsICc8aW5maWxlLm1hZT4nLCAnLW9tYWUnLCAnPG91dGZpbGUubWFlPic=

> <r_lp_tautomer_probability>
0.999537

> <r_epik_Ionization_Penalty>
3.12283

> <r_epik_Ionization_Penalty_Charging>
2.83566e-08

> <r_epik_Ionization_Penalty_Neutral>
3.12283

> <r_epik_State_Penalty>
3.12192

> <r_epik_Charging_Adjusted_Penalty>
3.12192

> <i_epik_Tot_Q>
-1

> <i_epik_Tot_abs_Q>
1

> <r_epik_Metal_State_Penalty>
0.463748

> <b_epik_Metal_Only>
1

> <s_lp_Force_Field>
OPLS_2005

> <r_lp_Energy>
24.2191

> <b_lp_Chiralities_Consistent>
1

> <s_lp_Variant>
AV-unprocessed.smi:2154-8

> <Gold.Version>
5.8.1

> <Gold.Id.Protein>
6NUR|6NUR_protein|mol2

> <Gold.PLP.Fitness>
46.9453

> <Gold.PLP.PLP>
-36.8637

> <Gold.PLP.part.hbond>
-4.1818

> <Gold.PLP.part.metal>
0.0000

> <Gold.PLP.part.buried>
-5.2510

> <Gold.PLP.part.nonpolar>
-28.2518

> <Gold.PLP.part.repulsive>
0.6083

> <Gold.PLP.ligand.clash>
0.0000

> <Gold.PLP.ligand.torsion>
0.5236

> <Gold.PLP.Chemscore.Hbond>
3.5294

> <Gold.PLP.Chemscore.CHOScore>
0.0000

> <Gold.PLP.Chemscore.Metal>
0.0000

> <Gold.Chemscore.Hbonds>
donor molecule, donor type, donor heavy atom, donor atom, acceptor molecule, acceptor atom, score
      P1  H  7989  7998       L1    15  1.00
      P1  H  7997  8008       L1     8  0.76
      P1  H  7997  8009       L1    17  0.56
      P1  H  8011  8017       L1    14  0.49

> <Gold.PLP.Chemscore.Internal.Correction>
0.5406

> <Gold.Rescore>
     Score         DG    S(hbond)    S(metal)    S(lipo)     H(rot)  DE(clash)    DE(int)     intcor
     19.02     -19.60       3.10        0.00      75.18       1.96       0.05       0.53       ----

> <Gold.Chemscore.Fitness>
19.0165

> <Gold.Chemscore.DG>
-19.5993

> <Gold.Chemscore.ZeroCoef>
-5.4800

> <Gold.Chemscore.Hbond>
3.0967

> <Gold.Chemscore.Metal>
0.0000

> <Gold.Chemscore.Lipo>
75.1823

> <Gold.Chemscore.Internal_Hbond>
0.0000

> <Gold.Chemscore.DEClash>
0.0507

> <Gold.Chemscore.DEInternal>
0.5321

> <Gold.Chemscore.Rot>
1.9609

> <Gold.Chemscore.Internal.Correction>
   9.000000E+99

> <Gold.Chemscore.Hbonds>
donor molecule, donor type, donor heavy atom, donor atom, acceptor molecule, acceptor atom, score
      P1  H  7989  7998       L1    15  0.78
      P1  H  7997  8008       L1     8  0.62
      P1  H  7997  8009       L1    17  0.55
      P1  H  8011  8017       L1    14  0.48

> <Gold.Chemscore.Hbond.Weighted>
-10.3429

> <Gold.Chemscore.Metal.Weighted>
-0.0000

> <Gold.Chemscore.Lipo.Weighted>
-8.7963

> <Gold.Chemscore.Internal_Hbond.Weighted>
0.0000

> <Gold.Chemscore.DEClash.Weighted>
0.0507

> <Gold.Chemscore.DEInternal.Weighted>
0.5321

> <Gold.Chemscore.Rot.Weighted>
5.0200

> <Gold.Chemscore.Internal.Correction.Weighted>
   9.000000E+99

> <Gold.Protein.RotatedTorsions>
[ 6907 6896 6895 6894 ] final  -27.55 input  -60.11 | X-H torsion
[ 7974 7965 7964 7962 ] final -107.75 input  175.53 | X-H torsion
[ 8008 7997 7996 7995 ] final -124.11 input   59.86 | X-H torsion
[ 10167 10162 10161 10158 ] final   67.54 input  -65.29 | X-H torsion
[ 10718 10713 10712 10709 ] final   28.07 input   66.30 | X-H torsion
[ 10763 10752 10751 10750 ] final -161.72 input  -60.55 | X-H torsion
[ 11005 11000 10999 10996 ] final -173.80 input  -57.11 | X-H torsion

> <Gold.Protein.ActiveResidues>
 VAL166  LYS551  ARG553  GLY616  TRP617  ASP618  TYR619  PRO620  LYS621  CYS622 
 ASP623  PHE694  ASN695  SER759  ASP760  ASP761  ALA762  ILE779  LEU786  VAL792 
 PHE793  MET794  SER795  GLU796  ALA797  LYS798  CYS799  TRP800  GLU811  SER814 

> <Gold.Protein.RotatedAtoms>
  151.1453  135.0200  159.8643 H   0  0  0  0  0  0  0  0  0  0  0  0  # atno 6907 bound_to 6896
  152.5453  134.1451  159.8505 H   0  0  0  0  0  0  0  0  0  0  0  0  # atno 6908 bound_to 6896
  151.1531  133.4849  159.2628 H   0  0  0  0  0  0  0  0  0  0  0  0  # atno 6909 bound_to 6896
  145.2014  140.9058  143.3367 H   0  0  0  0  0  0  0  0  0  0  0  0  # atno 7974 bound_to 7965
  155.1915  140.0413  157.2901 H   0  0  0  0  0  0  0  0  0  0  0  0  # atno 8008 bound_to 7997
  154.6135  140.2483  155.7610 H   0  0  0  0  0  0  0  0  0  0  0  0  # atno 8009 bound_to 7997
  156.2393  140.2910  156.0409 H   0  0  0  0  0  0  0  0  0  0  0  0  # atno 8010 bound_to 7997
  140.0884  144.5009  150.7115 H   0  0  0  0  0  0  0  0  0  0  0  0  # atno 10167 bound_to 10162
  157.2285  130.7012  149.6302 H   0  0  0  0  0  0  0  0  0  0  0  0  # atno 10718 bound_to 10713
  154.7278  135.3040  154.8941 H   0  0  0  0  0  0  0  0  0  0  0  0  # atno 10763 bound_to 10752
  153.9793  135.6732  153.4753 H   0  0  0  0  0  0  0  0  0  0  0  0  # atno 10764 bound_to 10752
  153.0891  135.4969  154.8574 H   0  0  0  0  0  0  0  0  0  0  0  0  # atno 10765 bound_to 10752
  140.4816  134.6070  157.4921 H   0  0  0  0  0  0  0  0  0  0  0  0  # atno 11005 bound_to 11000
  144.9944  139.3658  143.6199 LP  0  0  0  0  0  0  0  0  0  0  0  0  # atno 17320 bound_to 7965
  146.3417  139.9140  142.8776 LP  0  0  0  0  0  0  0  0  0  0  0  0  # atno 17321 bound_to 7965
  140.7041  143.2455  151.4778 LP  0  0  0  0  0  0  0  0  0  0  0  0  # atno 17342 bound_to 10162
  139.5739  144.1865  152.1875 LP  0  0  0  0  0  0  0  0  0  0  0  0  # atno 17343 bound_to 10162
  155.9677  130.4496  150.5666 LP  0  0  0  0  0  0  0  0  0  0  0  0  # atno 17370 bound_to 10713
  157.3502  131.0732  151.1719 LP  0  0  0  0  0  0  0  0  0  0  0  0  # atno 17371 bound_to 10713
  139.9823  134.7118  155.9837 LP  0  0  0  0  0  0  0  0  0  0  0  0  # atno 17394 bound_to 11000
  141.1528  133.6546  156.4067 LP  0  0  0  0  0  0  0  0  0  0  0  0  # atno 17395 bound_to 11000

$$$$
