AV-unprocessed.smi:2712|AV-procd|sdf|10477|dock1
  -GOLD-   2272014513D 1   1.00000     0.00000
 Structure written by MMmdl.
 52 53  0  0  0  0  0  0  0  0  1 V2000
  147.5031  141.3623  155.8693 C   0  0  0  0  0  0  0  0  0  0  0  0
  148.9564  140.9931  155.8319 C   0  0  0  0  0  0  0  0  0  0  0  0
  149.9455  141.5997  156.7023 C   0  0  0  0  0  0  0  0  0  0  0  0
  151.2361  141.2146  156.6063 C   0  0  0  0  0  0  0  0  0  0  0  0
  151.6657  140.1991  155.6473 C   0  0  0  0  0  0  0  0  0  0  0  0
  152.8342  139.8296  155.5325 O   0  0  0  0  0  0  0  0  0  0  0  0
  150.6478  139.6950  154.8880 N   0  0  0  0  0  0  0  0  0  0  0  0
  150.8947  138.6526  153.8812 C   0  0  0  0  0  0  0  0  0  0  0  0
  151.3534  137.3188  154.4882 C   0  0  0  0  0  0  0  0  0  0  0  0
  152.3352  137.2690  155.2307 O   0  0  0  0  0  0  0  0  0  0  0  0
  150.6162  136.2431  154.1702 N   0  0  0  0  0  0  0  0  0  0  0  0
  150.8655  134.8777  154.6281 C   0  0  1  0  0  0  0  0  0  0  0  0
  150.9048  134.8840  156.1677 C   0  0  0  0  0  0  0  0  0  0  0  0
  150.7573  133.5172  156.8557 C   0  0  0  0  0  0  0  0  0  0  0  0
  151.4576  132.3410  156.1545 C   0  0  0  0  0  0  0  0  0  0  0  0
  150.5660  131.6147  155.1076 C   0  0  2  0  0  0  0  0  0  0  0  0
  151.0491  130.1492  154.7951 C   0  0  0  0  0  0  0  0  0  0  0  0
  151.0474  129.2610  156.0584 C   0  0  0  0  0  0  0  0  0  0  0  0
  152.4775  130.1453  154.2024 C   0  0  0  0  0  0  0  0  0  0  0  0
  150.1419  129.4905  153.7285 C   0  0  0  0  0  0  0  0  0  0  0  0
  150.3659  132.4786  153.8319 C   0  0  0  0  0  0  0  0  0  0  0  0
  149.8228  133.9057  154.0375 C   0  0  0  0  0  0  0  0  0  0  0  0
  149.3239  140.0922  154.9806 N   0  0  0  0  0  0  0  0  0  0  0  0
  147.3284  142.2103  156.5319 H   0  0  0  0  0  0  0  0  0  0  0  0
  146.9010  140.5274  156.2290 H   0  0  0  0  0  0  0  0  0  0  0  0
  147.1439  141.6360  154.8767 H   0  0  0  0  0  0  0  0  0  0  0  0
  149.6442  142.3513  157.4171 H   0  0  0  0  0  0  0  0  0  0  0  0
  151.9716  141.6670  157.2551 H   0  0  0  0  0  0  0  0  0  0  0  0
  149.9894  138.4651  153.3009 H   0  0  0  0  0  0  0  0  0  0  0  0
  151.6365  139.0032  153.1608 H   0  0  0  0  0  0  0  0  0  0  0  0
  149.8260  136.3779  153.5562 H   0  0  0  0  0  0  0  0  0  0  0  0
  151.8544  134.5828  154.2723 H   0  0  0  0  0  0  0  0  0  0  0  0
  151.8463  135.3375  156.4805 H   0  0  0  0  0  0  0  0  0  0  0  0
  150.1225  135.5368  156.5581 H   0  0  0  0  0  0  0  0  0  0  0  0
  151.1545  133.6127  157.8669 H   0  0  0  0  0  0  0  0  0  0  0  0
  149.7002  133.2863  156.9904 H   0  0  0  0  0  0  0  0  0  0  0  0
  152.4010  132.6640  155.7131 H   0  0  0  0  0  0  0  0  0  0  0  0
  151.7364  131.6505  156.9463 H   0  0  0  0  0  0  0  0  0  0  0  0
  149.5762  131.5077  155.5539 H   0  0  0  0  0  0  0  0  0  0  0  0
  151.3949  128.2529  155.8289 H   0  0  0  0  0  0  0  0  0  0  0  0
  150.0504  129.1618  156.4868 H   0  0  0  0  0  0  0  0  0  0  0  0
  151.7030  129.6543  156.8347 H   0  0  0  0  0  0  0  0  0  0  0  0
  153.2310  130.4256  154.9382 H   0  0  0  0  0  0  0  0  0  0  0  0
  152.5608  130.8295  153.3574 H   0  0  0  0  0  0  0  0  0  0  0  0
  152.7592  129.1538  153.8459 H   0  0  0  0  0  0  0  0  0  0  0  0
  150.5450  128.5301  153.4049 H   0  0  0  0  0  0  0  0  0  0  0  0
  150.0508  130.1165  152.8402 H   0  0  0  0  0  0  0  0  0  0  0  0
  149.1376  129.2839  154.0943 H   0  0  0  0  0  0  0  0  0  0  0  0
  151.2939  132.5332  153.2631 H   0  0  0  0  0  0  0  0  0  0  0  0
  149.6481  131.9878  153.1771 H   0  0  0  0  0  0  0  0  0  0  0  0
  148.9116  133.8958  154.6370 H   0  0  0  0  0  0  0  0  0  0  0  0
  149.5175  134.2664  153.0541 H   0  0  0  0  0  0  0  0  0  0  0  0
  1  2  1  0  0  0  0
  1 24  1  0  0  0  0
  1 25  1  0  0  0  0
  1 26  1  0  0  0  0
  2 23  2  0  0  0  0
  2  3  1  0  0  0  0
  3  4  2  0  0  0  0
  3 27  1  0  0  0  0
  4  5  1  0  0  0  0
  4 28  1  0  0  0  0
  5  6  2  0  0  0  0
  5  7  1  0  0  0  0
  7  8  1  0  0  0  0
  7 23  1  0  0  0  0
  8  9  1  0  0  0  0
  8 29  1  0  0  0  0
  8 30  1  0  0  0  0
  9 10  2  0  0  0  0
  9 11  1  0  0  0  0
 11 12  1  0  0  0  0
 11 31  1  0  0  0  0
 12 22  1  0  0  0  0
 12 13  1  0  0  0  0
 12 32  1  0  0  0  0
 13 14  1  0  0  0  0
 13 33  1  0  0  0  0
 13 34  1  0  0  0  0
 14 15  1  0  0  0  0
 14 35  1  0  0  0  0
 14 36  1  0  0  0  0
 15 16  1  0  0  0  0
 15 37  1  0  0  0  0
 15 38  1  0  0  0  0
 16 17  1  0  0  0  0
 16 21  1  0  0  0  0
 16 39  1  0  0  0  0
 17 18  1  0  0  0  0
 17 19  1  0  0  0  0
 17 20  1  0  0  0  0
 18 40  1  0  0  0  0
 18 41  1  0  0  0  0
 18 42  1  0  0  0  0
 19 43  1  0  0  0  0
 19 44  1  0  0  0  0
 19 45  1  0  0  0  0
 20 46  1  0  0  0  0
 20 47  1  0  0  0  0
 20 48  1  0  0  0  0
 21 22  1  0  0  0  0
 21 49  1  0  0  0  0
 21 50  1  0  0  0  0
 22 51  1  0  0  0  0
 22 52  1  0  0  0  0
M  END
> <s_m_source_file>
AV-unprocessed.smi

> <i_m_source_file_index>
2712

> <i_lp_mmshare_version>
43012

> <i_f3d_flags>
0

> <s_epik_input>
W0NIM11jMVtjSF1bY0hdYyg9TyluKG4xKVtDSDJdQyg9TylbTkhdW0NAQEhdMltDSDJdW0NIMl1bQ0gyXVtDQEBIXShDKFtDSDNdKShbQ0gzXSlbQ0gzXSlbQ0gyXVtDSDJdMg==

> <s_epik_cmdline>
J2VwaWtfcHl0aG9uJywgJy1waCcsICc3LjAnLCAnLXRuJywgJzgnLCAnLW1hJywgJzIwMCcsICctbWV0YWxfYmluZGluZycsICctaW1hZScsICc8aW5maWxlLm1hZT4nLCAnLW9tYWUnLCAnPG91dGZpbGUubWFlPic=

> <r_lp_tautomer_probability>
1

> <r_epik_Ionization_Penalty>
8.71758e-07

> <r_epik_Ionization_Penalty_Charging>
8.50442e-07

> <r_epik_Ionization_Penalty_Neutral>
2.13165e-08

> <r_epik_State_Penalty>
-0

> <r_epik_Charging_Adjusted_Penalty>
8.50442e-07

> <i_epik_Tot_Q>
0

> <i_epik_Tot_abs_Q>
0

> <r_epik_Metal_State_Penalty>
-0

> <b_epik_Metal_Only>
0

> <s_lp_Force_Field>
OPLS_2005

> <r_lp_Energy>
38.5576

> <b_lp_Chiralities_Consistent>
1

> <s_lp_Variant>
AV-unprocessed.smi:2712-4

> <Gold.Version>
5.8.1

> <Gold.Id.Protein>
6NUR|6NUR_protein|mol2

> <Gold.PLP.Fitness>
48.6043

> <Gold.PLP.PLP>
-39.7541

> <Gold.PLP.part.hbond>
-4.0000

> <Gold.PLP.part.metal>
0.0000

> <Gold.PLP.part.buried>
-3.2553

> <Gold.PLP.part.nonpolar>
-32.7748

> <Gold.PLP.part.repulsive>
0.2028

> <Gold.PLP.ligand.clash>
0.0000

> <Gold.PLP.ligand.torsion>
0.1137

> <Gold.PLP.Chemscore.Hbond>
2.9920

> <Gold.PLP.Chemscore.CHOScore>
0.0000

> <Gold.PLP.Chemscore.Metal>
0.0000

> <Gold.Chemscore.Hbonds>
donor molecule, donor type, donor heavy atom, donor atom, acceptor molecule, acceptor atom, score
      L1  H    11    31       P1  7948  1.00
      P1  H  7997  8008       L1     6  1.00
      P1  H 10752 10763       L1    10  0.64

> <Gold.PLP.Chemscore.Internal.Correction>
0.1017

> <Gold.Rescore>
     Score         DG    S(hbond)    S(metal)    S(lipo)     H(rot)  DE(clash)    DE(int)     intcor
     18.02     -18.55       2.52        0.00      72.99       1.52       0.02       0.50       ----

> <Gold.Chemscore.Fitness>
18.0232

> <Gold.Chemscore.DG>
-18.5511

> <Gold.Chemscore.ZeroCoef>
-5.4800

> <Gold.Chemscore.Hbond>
2.5188

> <Gold.Chemscore.Metal>
0.0000

> <Gold.Chemscore.Lipo>
72.9904

> <Gold.Chemscore.Internal_Hbond>
0.0000

> <Gold.Chemscore.DEClash>
0.0237

> <Gold.Chemscore.DEInternal>
0.5041

> <Gold.Chemscore.Rot>
1.5162

> <Gold.Chemscore.Internal.Correction>
   9.000000E+99

> <Gold.Chemscore.Hbonds>
donor molecule, donor type, donor heavy atom, donor atom, acceptor molecule, acceptor atom, score
      L1  H    11    31       P1  7948  0.24
      P1  H  7997  8008       L1     6  1.00
      P1  H 10752 10763       L1    10  0.32

> <Gold.Chemscore.Hbond.Weighted>
-8.4126

> <Gold.Chemscore.Metal.Weighted>
-0.0000

> <Gold.Chemscore.Lipo.Weighted>
-8.5399

> <Gold.Chemscore.Internal_Hbond.Weighted>
0.0000

> <Gold.Chemscore.DEClash.Weighted>
0.0237

> <Gold.Chemscore.DEInternal.Weighted>
0.5041

> <Gold.Chemscore.Rot.Weighted>
3.8814

> <Gold.Chemscore.Internal.Correction.Weighted>
   9.000000E+99

> <Gold.Protein.RotatedTorsions>
[ 6907 6896 6895 6894 ] final  147.26 input  -60.11 | X-H torsion
[ 7974 7965 7964 7962 ] final   23.25 input  175.53 | X-H torsion
[ 8008 7997 7996 7995 ] final  -33.42 input   59.86 | X-H torsion
[ 10167 10162 10161 10158 ] final   -7.63 input  -65.29 | X-H torsion
[ 10718 10713 10712 10709 ] final   48.14 input   66.30 | X-H torsion
[ 10763 10752 10751 10750 ] final   82.92 input  -60.55 | X-H torsion
[ 11005 11000 10999 10996 ] final  170.13 input  -57.11 | X-H torsion

> <Gold.Protein.ActiveResidues>
 VAL166  LYS551  ARG553  GLY616  TRP617  ASP618  TYR619  PRO620  LYS621  CYS622 
 ASP623  PHE694  ASN695  SER759  ASP760  ASP761  ALA762  ILE779  LEU786  VAL792 
 PHE793  MET794  SER795  GLU796  ALA797  LYS798  CYS799  TRP800  GLU811  SER814 

> <Gold.Protein.RotatedAtoms>
  152.1571  133.4558  159.4842 H   0  0  0  0  0  0  0  0  0  0  0  0  # atno 6907 bound_to 6896
  150.6902  134.2117  159.4371 H   0  0  0  0  0  0  0  0  0  0  0  0  # atno 6908 bound_to 6896
  152.0017  134.9924  160.0616 H   0  0  0  0  0  0  0  0  0  0  0  0  # atno 6909 bound_to 6896
  146.1993  139.7771  142.8774 H   0  0  0  0  0  0  0  0  0  0  0  0  # atno 7974 bound_to 7965
  154.4149  140.1711  156.1885 H   0  0  0  0  0  0  0  0  0  0  0  0  # atno 8008 bound_to 7997
  155.9623  140.3392  155.6478 H   0  0  0  0  0  0  0  0  0  0  0  0  # atno 8009 bound_to 7997
  155.6733  140.0714  157.2503 H   0  0  0  0  0  0  0  0  0  0  0  0  # atno 8010 bound_to 7997
  140.7034  143.6059  150.8751 H   0  0  0  0  0  0  0  0  0  0  0  0  # atno 10167 bound_to 10162
  157.4656  130.8223  149.7933 H   0  0  0  0  0  0  0  0  0  0  0  0  # atno 10718 bound_to 10713
  153.1245  135.4710  154.9249 H   0  0  0  0  0  0  0  0  0  0  0  0  # atno 10763 bound_to 10752
  154.7607  135.3130  154.8386 H   0  0  0  0  0  0  0  0  0  0  0  0  # atno 10764 bound_to 10752
  153.8943  135.6881  153.4812 H   0  0  0  0  0  0  0  0  0  0  0  0  # atno 10765 bound_to 10752
  140.3050  134.7564  157.3946 H   0  0  0  0  0  0  0  0  0  0  0  0  # atno 11005 bound_to 11000
  145.3539  141.0313  143.3323 LP  0  0  0  0  0  0  0  0  0  0  0  0  # atno 17320 bound_to 7965
  144.8648  139.5124  143.6795 LP  0  0  0  0  0  0  0  0  0  0  0  0  # atno 17321 bound_to 7965
  139.9783  143.5979  152.2951 LP  0  0  0  0  0  0  0  0  0  0  0  0  # atno 17342 bound_to 10162
  139.6591  144.7662  151.1997 LP  0  0  0  0  0  0  0  0  0  0  0  0  # atno 17343 bound_to 10162
  156.0049  130.3861  150.2468 LP  0  0  0  0  0  0  0  0  0  0  0  0  # atno 17370 bound_to 10713
  157.0648  131.0100  151.3210 LP  0  0  0  0  0  0  0  0  0  0  0  0  # atno 17371 bound_to 10713
  140.1075  134.5390  155.8296 LP  0  0  0  0  0  0  0  0  0  0  0  0  # atno 17394 bound_to 11000
  141.2120  133.6714  156.6626 LP  0  0  0  0  0  0  0  0  0  0  0  0  # atno 17395 bound_to 11000

$$$$
