AV-unprocessed.smi:18|AV-procd|sdf|108|dock6
  -GOLD-   2262015263D 1   1.00000     0.00000
 Structure written by MMmdl.
 47 50  0  0  0  0  0  0  0  0  1 V2000
  147.6454  138.8537  152.3738 O   0  0  0  0  0  0  0  0  0  0  0  0
  147.4010  139.0087  153.7573 C   0  0  0  0  0  0  0  0  0  0  0  0
  148.6815  139.4014  154.5157 C   0  0  0  0  0  0  0  0  0  0  0  0
  149.7789  138.3311  154.3365 C   0  0  0  0  0  0  0  0  0  0  0  0
  150.9055  138.4722  155.2469 N   0  0  0  0  0  0  0  0  0  0  0  0
  152.1679  138.9213  154.9264 C   0  0  0  0  0  0  0  0  0  0  0  0
  153.0150  138.9624  155.9184 N   0  0  0  0  0  0  0  0  0  0  0  0
  152.2844  138.4925  157.0019 C   0  0  0  0  0  0  0  0  0  0  0  0
  152.5869  138.2716  158.3717 C   0  0  0  0  0  0  0  0  0  0  0  0
  153.8065  138.5570  158.8888 N   0  0  0  0  0  0  0  0  0  0  0  0
  154.8320  137.8016  158.1759 C   0  0  0  0  0  0  0  0  0  0  0  0
  156.1958  137.9698  158.8561 C   0  0  0  0  0  0  0  0  0  0  0  0
  156.5064  139.3540  158.9193 O   0  0  0  0  0  0  0  0  0  0  0  0
  155.5657  140.0692  159.7108 C   0  0  0  0  0  0  0  0  0  0  0  0
  154.1459  139.9720  159.1032 C   0  0  2  0  0  0  0  0  0  0  0  0
  153.1135  140.6892  160.0123 C   0  0  0  0  0  0  0  0  0  0  0  0
  153.3088  142.2100  160.1140 C   0  0  0  0  0  0  0  0  0  0  0  0
  152.7886  142.8224  159.0507 F   0  0  0  0  0  0  0  0  0  0  0  0
  152.7104  142.6670  161.2132 F   0  0  0  0  0  0  0  0  0  0  0  0
  151.5945  137.7956  159.1703 N   0  0  0  0  0  0  0  0  0  0  0  0
  150.3895  137.5330  158.6554 C   0  0  0  0  0  0  0  0  0  0  0  0
  149.9690  137.6819  157.3973 N   0  0  0  0  0  0  0  0  0  0  0  0
  150.9578  138.1743  156.5976 C   0  0  0  0  0  0  0  0  0  0  0  0
  149.1201  140.8572  154.3002 C   0  0  0  0  0  0  0  0  0  0  0  0
  148.5522  141.2724  155.5601 O   0  0  0  0  0  0  0  0  0  0  0  0
  148.4536  139.8875  155.9538 C   0  0  0  0  0  0  0  0  0  0  0  0
  147.9472  137.9713  152.2190 H   0  0  0  0  0  0  0  0  0  0  0  0
  146.6056  139.7399  153.9022 H   0  0  0  0  0  0  0  0  0  0  0  0
  147.0095  138.0627  154.1330 H   0  0  0  0  0  0  0  0  0  0  0  0
  149.3645  137.3314  154.4730 H   0  0  0  0  0  0  0  0  0  0  0  0
  150.1632  138.3476  153.3159 H   0  0  0  0  0  0  0  0  0  0  0  0
  152.4400  139.2278  153.9266 H   0  0  0  0  0  0  0  0  0  0  0  0
  154.5705  136.7428  158.1428 H   0  0  0  0  0  0  0  0  0  0  0  0
  154.8880  138.1509  157.1435 H   0  0  0  0  0  0  0  0  0  0  0  0
  156.1933  137.5330  159.8559 H   0  0  0  0  0  0  0  0  0  0  0  0
  156.9685  137.4572  158.2832 H   0  0  0  0  0  0  0  0  0  0  0  0
  155.5808  139.6894  160.7339 H   0  0  0  0  0  0  0  0  0  0  0  0
  155.8959  141.1062  159.7529 H   0  0  0  0  0  0  0  0  0  0  0  0
  154.1620  140.4643  158.1299 H   0  0  0  0  0  0  0  0  0  0  0  0
  152.0995  140.5176  159.6522 H   0  0  0  0  0  0  0  0  0  0  0  0
  153.1494  140.2541  161.0118 H   0  0  0  0  0  0  0  0  0  0  0  0
  154.3571  142.4968  160.1864 H   0  0  0  0  0  0  0  0  0  0  0  0
  149.6570  137.1519  159.3515 H   0  0  0  0  0  0  0  0  0  0  0  0
  150.2008  141.0032  154.2851 H   0  0  0  0  0  0  0  0  0  0  0  0
  148.6499  141.3422  153.4440 H   0  0  0  0  0  0  0  0  0  0  0  0
  147.4739  139.6348  156.3609 H   0  0  0  0  0  0  0  0  0  0  0  0
  149.2474  139.6067  156.6479 H   0  0  0  0  0  0  0  0  0  0  0  0
  1  2  1  0  0  0  0
  1 27  1  0  0  0  0
  2  3  1  0  0  0  0
  2 28  1  0  0  0  0
  2 29  1  0  0  0  0
  3 26  1  0  0  0  0
  3  4  1  0  0  0  0
  3 24  1  0  0  0  0
  4  5  1  0  0  0  0
  4 30  1  0  0  0  0
  4 31  1  0  0  0  0
  5 23  1  0  0  0  0
  5  6  1  0  0  0  0
  6  7  2  0  0  0  0
  6 32  1  0  0  0  0
  7  8  1  0  0  0  0
  8 23  2  0  0  0  0
  8  9  1  0  0  0  0
  9 10  1  0  0  0  0
  9 20  2  0  0  0  0
 10 15  1  0  0  0  0
 10 11  1  0  0  0  0
 11 12  1  0  0  0  0
 11 33  1  0  0  0  0
 11 34  1  0  0  0  0
 12 13  1  0  0  0  0
 12 35  1  0  0  0  0
 12 36  1  0  0  0  0
 13 14  1  0  0  0  0
 14 15  1  0  0  0  0
 14 37  1  0  0  0  0
 14 38  1  0  0  0  0
 15 16  1  0  0  0  0
 15 39  1  0  0  0  0
 16 17  1  0  0  0  0
 16 40  1  0  0  0  0
 16 41  1  0  0  0  0
 17 18  1  0  0  0  0
 17 19  1  0  0  0  0
 17 42  1  0  0  0  0
 20 21  1  0  0  0  0
 21 22  2  0  0  0  0
 21 43  1  0  0  0  0
 22 23  1  0  0  0  0
 24 25  1  0  0  0  0
 24 44  1  0  0  0  0
 24 45  1  0  0  0  0
 25 26  1  0  0  0  0
 26 46  1  0  0  0  0
 26 47  1  0  0  0  0
M  END
> <s_m_source_file>
AV-unprocessed.smi

> <i_m_source_file_index>
18

> <i_lp_mmshare_version>
43012

> <i_f3d_flags>
0

> <s_epik_input>
W0NIMl0xT1tDSDJdQzEoW0NIMl1bT0hdKVtDSDJdbihbY0hdbjIpYyhjMjMpbltjSF1uYzNONFtDSDJdW0NIMl1PW0NIMl1bQ0BIXTRbQ0gyXVtDSF0oRilG

> <s_epik_cmdline>
J2VwaWtfcHl0aG9uJywgJy1waCcsICc3LjAnLCAnLXRuJywgJzgnLCAnLW1hJywgJzIwMCcsICctbWV0YWxfYmluZGluZycsICctaW1hZScsICc8aW5maWxlLm1hZT4nLCAnLW9tYWUnLCAnPG91dGZpbGUubWFlPic=

> <r_lp_tautomer_probability>
1

> <r_epik_Ionization_Penalty>
6.63711e-05

> <r_epik_Ionization_Penalty_Charging>
0

> <r_epik_Ionization_Penalty_Neutral>
6.63711e-05

> <r_epik_State_Penalty>
-0

> <r_epik_Charging_Adjusted_Penalty>
0

> <i_epik_Tot_Q>
0

> <i_epik_Tot_abs_Q>
0

> <r_epik_Metal_State_Penalty>
-0

> <b_epik_Metal_Only>
0

> <s_lp_Force_Field>
OPLS_2005

> <r_lp_Energy>
38.6195

> <b_lp_Chiralities_Consistent>
1

> <s_lp_Variant>
AV-unprocessed.smi:18-2

> <Gold.Version>
5.8.1

> <Gold.Id.Protein>
6NUR|6NUR_protein|mol2

> <Gold.PLP.Fitness>
48.0754

> <Gold.PLP.PLP>
-40.4239

> <Gold.PLP.part.hbond>
-3.6935

> <Gold.PLP.part.metal>
0.0000

> <Gold.PLP.part.buried>
-3.9986

> <Gold.PLP.part.nonpolar>
-33.0218

> <Gold.PLP.part.repulsive>
0.1482

> <Gold.PLP.ligand.clash>
0.0000

> <Gold.PLP.ligand.torsion>
0.8647

> <Gold.PLP.Chemscore.Hbond>
2.9417

> <Gold.PLP.Chemscore.CHOScore>
0.0000

> <Gold.PLP.Chemscore.Metal>
0.0000

> <Gold.Chemscore.Hbonds>
donor molecule, donor type, donor heavy atom, donor atom, acceptor molecule, acceptor atom, score
      L1  H     1    27       P1  7948  1.00
      P1  H  7997  8008       L1    13  0.85
      P1  H  7997  8009       L1     7  1.00

> <Gold.PLP.Chemscore.Internal.Correction>
0.5559

> <Gold.Rescore>
     Score         DG    S(hbond)    S(metal)    S(lipo)     H(rot)  DE(clash)    DE(int)     intcor
     12.37     -13.26       2.01        0.00      74.10       2.96       0.03       0.85       ----

> <Gold.Chemscore.Fitness>
12.3745

> <Gold.Chemscore.DG>
-13.2601

> <Gold.Chemscore.ZeroCoef>
-5.4800

> <Gold.Chemscore.Hbond>
2.0055

> <Gold.Chemscore.Metal>
0.0000

> <Gold.Chemscore.Lipo>
74.1045

> <Gold.Chemscore.Internal_Hbond>
0.0000

> <Gold.Chemscore.DEClash>
0.0346

> <Gold.Chemscore.DEInternal>
0.8510

> <Gold.Chemscore.Rot>
2.9643

> <Gold.Chemscore.Internal.Correction>
   9.000000E+99

> <Gold.Chemscore.Hbonds>
donor molecule, donor type, donor heavy atom, donor atom, acceptor molecule, acceptor atom, score
      L1  H     1    27       P1  7948  0.94
      P1  H  7997  8008       L1    13  0.07
      P1  H  7997  8009       L1     7  0.76

> <Gold.Chemscore.Hbond.Weighted>
-6.6984

> <Gold.Chemscore.Metal.Weighted>
-0.0000

> <Gold.Chemscore.Lipo.Weighted>
-8.6702

> <Gold.Chemscore.Internal_Hbond.Weighted>
0.0000

> <Gold.Chemscore.DEClash.Weighted>
0.0346

> <Gold.Chemscore.DEInternal.Weighted>
0.8510

> <Gold.Chemscore.Rot.Weighted>
7.5886

> <Gold.Chemscore.Internal.Correction.Weighted>
   9.000000E+99

> <Gold.Protein.RotatedTorsions>
[ 6907 6896 6895 6894 ] final   94.46 input  -60.11 | X-H torsion
[ 7974 7965 7964 7962 ] final -159.26 input  175.53 | X-H torsion
[ 8008 7997 7996 7995 ] final -171.11 input   59.86 | X-H torsion
[ 10167 10162 10161 10158 ] final  -73.04 input  -65.29 | X-H torsion
[ 10718 10713 10712 10709 ] final   69.02 input   66.30 | X-H torsion
[ 10763 10752 10751 10750 ] final  163.04 input  -60.55 | X-H torsion
[ 11005 11000 10999 10996 ] final  166.87 input  -57.11 | X-H torsion

> <Gold.Protein.ActiveResidues>
 VAL166  LYS551  ARG553  GLY616  TRP617  ASP618  TYR619  PRO620  LYS621  CYS622 
 ASP623  PHE694  ASN695  SER759  ASP760  ASP761  ALA762  ILE779  LEU786  VAL792 
 PHE793  MET794  SER795  GLU796  ALA797  LYS798  CYS799  TRP800  GLU811  SER814 

> <Gold.Protein.RotatedAtoms>
  152.5449  134.1190  159.8390 H   0  0  0  0  0  0  0  0  0  0  0  0  # atno 6907 bound_to 6896
  151.1248  133.5071  159.2608 H   0  0  0  0  0  0  0  0  0  0  0  0  # atno 6908 bound_to 6896
  151.1739  135.0340  159.8818 H   0  0  0  0  0  0  0  0  0  0  0  0  # atno 6909 bound_to 6896
  144.7472  140.3710  143.6076 H   0  0  0  0  0  0  0  0  0  0  0  0  # atno 7974 bound_to 7965
  155.9273  140.1085  157.1160 H   0  0  0  0  0  0  0  0  0  0  0  0  # atno 8008 bound_to 7997
  154.4064  140.1244  156.4822 H   0  0  0  0  0  0  0  0  0  0  0  0  # atno 8009 bound_to 7997
  155.7123  140.3471  155.4981 H   0  0  0  0  0  0  0  0  0  0  0  0  # atno 8010 bound_to 7997
  140.5143  143.2340  151.7539 H   0  0  0  0  0  0  0  0  0  0  0  0  # atno 10167 bound_to 10162
  157.6322  130.9404  150.0456 H   0  0  0  0  0  0  0  0  0  0  0  0  # atno 10718 bound_to 10713
  154.2875  135.2762  155.2669 H   0  0  0  0  0  0  0  0  0  0  0  0  # atno 10763 bound_to 10752
  154.5163  135.5768  153.6648 H   0  0  0  0  0  0  0  0  0  0  0  0  # atno 10764 bound_to 10752
  152.9919  135.6193  154.3038 H   0  0  0  0  0  0  0  0  0  0  0  0  # atno 10765 bound_to 10752
  140.2709  134.7828  157.3674 H   0  0  0  0  0  0  0  0  0  0  0  0  # atno 11005 bound_to 11000
  145.7078  139.1677  143.2556 LP  0  0  0  0  0  0  0  0  0  0  0  0  # atno 17320 bound_to 7965
  146.1369  140.7111  142.9385 LP  0  0  0  0  0  0  0  0  0  0  0  0  # atno 17321 bound_to 7965
  139.4905  144.4346  151.9834 LP  0  0  0  0  0  0  0  0  0  0  0  0  # atno 17342 bound_to 10162
  140.3439  144.3170  150.5962 LP  0  0  0  0  0  0  0  0  0  0  0  0  # atno 17343 bound_to 10162
  156.1534  130.3643  149.9404 LP  0  0  0  0  0  0  0  0  0  0  0  0  # atno 17370 bound_to 10713
  156.7419  130.9082  151.3632 LP  0  0  0  0  0  0  0  0  0  0  0  0  # atno 17371 bound_to 10713
  140.1374  134.5016  155.8057 LP  0  0  0  0  0  0  0  0  0  0  0  0  # atno 17394 bound_to 11000
  141.2177  133.6812  156.7149 LP  0  0  0  0  0  0  0  0  0  0  0  0  # atno 17395 bound_to 11000

$$$$
