#       Name:                AV-unprocessed.smi:30
#       Creating user name   scv26
#       Creation time:       Thu Mar 26 15:46:19 2020


#       File generated by GOLD software.
#

@<TRIPOS>MOLECULE
AV-unprocessed.smi:30
    64    67     1
SMALL
NO_CHARGES


@<TRIPOS>ATOM
      1 ****        -1.2569   0.1252  -0.1693 O.2            1 S1                 0.0000
      2 ****        -1.5251  -1.0546   0.0622 C.2            1 S1                 0.0000
      3 ****        -2.9875  -1.5211   0.1419 C.3            1 S1                 0.0000
      4 ****        -3.9573  -0.5179  -0.3509 N.am           1 S1                 0.0000
      5 ****        -4.2390  -0.4771  -1.7386 C.2            1 S1                 0.0000
      6 ****        -3.7186  -1.2750  -2.5200 O.2            1 S1                 0.0000
      7 ****        -5.1567   0.5729  -2.1623 C.2            1 S1                 0.0000
      8 ****        -5.4430   0.7197  -3.4671 F              1 S1                 0.0000
      9 ****        -5.7106   1.4146  -1.2658 C.2            1 S1                 0.0000
     10 ****        -5.4727   1.3306   0.0951 N.am           1 S1                 0.0000
     11 ****        -6.0296   2.3530   1.0650 C.3            1 S1                 0.0000
     12 ****        -7.3920   2.9373   0.6520 C.3            1 S1                 0.0000
     13 ****        -7.0159   4.3231   0.1653 C.3            1 S1                 0.0000
     14 ****        -5.8117   4.6399   1.0433 C.3            1 S1                 0.0000
     15 ****        -5.1141   3.4049   1.1370 O.3            1 S1                 0.0000
     16 ****        -4.5325   0.3885   0.5721 C.2            1 S1                 0.0000
     17 ****        -4.2186   0.3566   1.7641 O.2            1 S1                 0.0000
     18 ****        -0.6080  -2.0116   0.2935 N.am           1 S1                 0.0000
     19 ****         0.8088  -1.9072   0.2626 C.ar           1 S1                 0.0000
     20 ****         1.5448  -2.8482   1.0094 C.ar           1 S1                 0.0000
     21 ****         2.9522  -2.8187   1.0060 C.ar           1 S1                 0.0000
     22 ****         3.6529  -1.8594   0.2483 C.ar           1 S1                 0.0000
     23 ****         5.0298  -1.9044   0.2998 O.3            1 S1                 0.0000
     24 ****         5.7642  -0.9698  -0.4795 C.3            1 S1                 0.0000
     25 ****         7.2574  -1.1582  -0.3008 C.ar           1 S1                 0.0000
     26 ****         7.8467  -0.9368   0.9615 C.ar           1 S1                 0.0000
     27 ****         9.2346  -1.1041   1.1343 C.ar           1 S1                 0.0000
     28 ****        10.0383  -1.4922   0.0448 C.ar           1 S1                 0.0000
     29 ****         9.4536  -1.7125  -1.2174 C.ar           1 S1                 0.0000
     30 ****         8.0658  -1.5447  -1.3909 C.ar           1 S1                 0.0000
     31 ****         2.9128  -0.9229  -0.5155 C.ar           1 S1                 0.0000
     32 ****         1.5047  -0.9497  -0.5123 C.ar           1 S1                 0.0000
     33 ****        -3.0887  -2.4546  -0.4145 H              1 S1                 0.0000
     34 ****        -3.2003  -1.8060   1.1733 H              1 S1                 0.0000
     35 ****        -6.3586   2.1855  -1.6508 H              1 S1                 0.0000
     36 ****        -6.1147   1.8453   2.0269 H              1 S1                 0.0000
     37 ****        -7.9281   2.3235  -0.0716 H              1 S1                 0.0000
     38 ****        -8.0111   3.0167   1.5465 H              1 S1                 0.0000
     39 ****        -6.7179   4.2985  -0.8829 H              1 S1                 0.0000
     40 ****        -7.8233   5.0474   0.2728 H              1 S1                 0.0000
     41 ****        -5.1813   5.4266   0.6287 H              1 S1                 0.0000
     42 ****        -6.1334   4.9465   2.0399 H              1 S1                 0.0000
     43 ****        -0.9699  -2.9109   0.5758 H              1 S1                 0.0000
     44 ****         1.0317  -3.5972   1.5950 H              1 S1                 0.0000
     45 ****         3.5004  -3.5438   1.5896 H              1 S1                 0.0000
     46 ****         5.5085  -1.0793  -1.5349 H              1 S1                 0.0000
     47 ****         5.5137   0.0489  -0.1797 H              1 S1                 0.0000
     48 ****         7.2341  -0.6385   1.7998 H              1 S1                 0.0000
     49 ****         9.6825  -0.9347   2.1024 H              1 S1                 0.0000
     50 ****        11.1025  -1.6205   0.1773 H              1 S1                 0.0000
     51 ****        10.0695  -2.0105  -2.0530 H              1 S1                 0.0000
     52 ****         7.6261  -1.7155  -2.3627 H              1 S1                 0.0000
     53 ****         3.4023  -0.1744  -1.1195 H              1 S1                 0.0000
     54 ****         0.9793  -0.2345  -1.1263 H              1 S1                 0.0000
     55 ****        -1.9933   0.7877  -0.3070 LP             1 S1                 0.0000
     56 ****        -0.3028   0.4205  -0.2195 LP             1 S1                 0.0000
     57 ****        -3.0841  -1.9681  -2.1780 LP             1 S1                 0.0000
     58 ****        -3.9307  -1.2294  -3.4962 LP             1 S1                 0.0000
     59 ****        -4.4609   3.3319   0.3833 LP             1 S1                 0.0000
     60 ****        -4.6243   3.3628   2.0078 LP             1 S1                 0.0000
     61 ****        -3.5514  -0.3143   2.0877 LP             1 S1                 0.0000
     62 ****        -4.6312   1.0017   2.4072 LP             1 S1                 0.0000
     63 ****         5.3074  -2.8187   0.0048 LP             1 S1                 0.0000
     64 ****         5.2950  -1.7672   1.2542 LP             1 S1                 0.0000
@<TRIPOS>BOND
    1    1    2 2     
    2    2    3 1     
    3    2   18 am    
    4    3    4 1     
    5    3   33 1     
    6    3   34 1     
    7    4   16 am    
    8    4    5 am    
    9    5    6 2     
   10    5    7 1     
   11    7    8 1     
   12    7    9 2     
   13    9   10 1     
   14    9   35 1     
   15   10   11 1     
   16   10   16 am    
   17   11   15 1     
   18   11   12 1     
   19   11   36 1     
   20   12   13 1     
   21   12   37 1     
   22   12   38 1     
   23   13   14 1     
   24   13   39 1     
   25   13   40 1     
   26   14   15 1     
   27   14   41 1     
   28   14   42 1     
   29   16   17 2     
   30   18   19 1     
   31   18   43 1     
   32   19   32 ar    
   33   19   20 ar    
   34   20   21 ar    
   35   20   44 1     
   36   21   22 ar    
   37   21   45 1     
   38   22   23 1     
   39   22   31 ar    
   40   23   24 1     
   41   24   25 1     
   42   24   46 1     
   43   24   47 1     
   44   25   30 ar    
   45   25   26 ar    
   46   26   27 ar    
   47   26   48 1     
   48   27   28 ar    
   49   27   49 1     
   50   28   29 ar    
   51   28   50 1     
   52   29   30 ar    
   53   29   51 1     
   54   30   52 1     
   55   31   32 ar    
   56   31   53 1     
   57   32   54 1     
   58    1   55 1     
   59    1   56 1     
   60    6   57 1     
   61    6   58 1     
   62   15   59 1     
   63   15   60 1     
   64   17   61 1     
   65   17   62 1     
   66   23   63 1     
   67   23   64 1     
@<TRIPOS>SUBSTRUCTURE
      1 S1             1
@<TRIPOS>SET
LONE_PAIRS      STATIC     ATOMS    <user>   **** ""
10 55 56 57 58 59 60 61 62 63 64
DONOR_HYDROGENS      STATIC     ATOMS    <user>   **** ""
1 43
ATOM$BLUE        STATIC     ATOMS    COLORGROUP SYSTEM
10 55 56 57 58 59 60 61 62 63 64
ATOM$RED        STATIC     ATOMS    COLORGROUP SYSTEM
1 43
