#       Name:                AV-unprocessed.smi:84
#       Creating user name   scv26
#       Creation time:       Thu Mar 26 17:20:18 2020


#       File generated by GOLD software.
#

@<TRIPOS>MOLECULE
AV-unprocessed.smi:84
    60    64     1
SMALL
NO_CHARGES


@<TRIPOS>ATOM
      1 ****        -7.6757  -0.9703  -2.5927 O.2            1 S1                 0.0000
      2 ****        -6.6095  -0.4517  -2.2702 C.2            1 S1                 0.0000
      3 ****        -5.6669  -1.0365  -1.2311 C.3            1 S1                 0.0000
      4 ****        -4.7249   0.1424  -0.9180 C.3            1 S1                 0.0000
      5 ****        -5.1570   0.9455   0.3232 C.3            1 S1                 0.0000
      6 ****        -3.8690   1.6362   0.7682 C.3            1 S1                 0.0000
      7 ****        -2.8107   0.7039   0.4108 N.pl3          1 S1                 0.0000
      8 ****        -1.4958   1.0133   0.5510 C.ar           1 S1                 0.0000
      9 ****        -1.1658   2.2201   1.0831 N.ar           1 S1                 0.0000
     10 ****         0.1145   2.5684   1.2355 C.ar           1 S1                 0.0000
     11 ****         1.2092   1.8689   0.9356 N.ar           1 S1                 0.0000
     12 ****         0.8903   0.6489   0.4172 C.ar           1 S1                 0.0000
     13 ****        -0.4231   0.1457   0.1879 C.ar           1 S1                 0.0000
     14 ****        -0.3426  -1.1319  -0.3566 N.2            1 S1                 0.0000
     15 ****         0.9377  -1.3616  -0.4570 C.2            1 S1                 0.0000
     16 ****         1.7509  -0.3565   0.0129 N.pl3          1 S1                 0.0000
     17 ****         3.1840  -0.3306  -0.0093 C.3            1 S1                 0.0000
     18 ****         4.0041  -1.6157   0.1288 C.3            1 S1                 0.0000
     19 ****         5.1118  -0.8204   0.8568 C.3            1 S1                 0.0000
     20 ****         5.7432  -1.5222   2.0705 C.3            1 S1                 0.0000
     21 ****         6.4068  -0.5980   2.9090 O.3            1 S1                 0.0000
     22 ****         6.2314  -0.2695  -0.0495 C.3            1 S1                 0.0000
     23 ****         6.9819  -1.3133  -0.6360 O.3            1 S1                 0.0000
     24 ****         3.9853   0.1823   1.1896 C.3            1 S1                 0.0000
     25 ****        -3.2802  -0.2631  -0.5721 C.3            1 S1                 0.0000
     26 ****        -4.8187   1.0161  -2.1920 C.3            1 S1                 0.0000
     27 ****        -6.1080   0.6788  -2.7645 N.am           1 S1                 0.0000
     28 ****        -6.2040  -1.4043  -0.3562 H              1 S1                 0.0000
     29 ****        -5.1272  -1.8712  -1.6803 H              1 S1                 0.0000
     30 ****        -5.9698   1.6475   0.1321 H              1 S1                 0.0000
     31 ****        -5.4861   0.2690   1.1133 H              1 S1                 0.0000
     32 ****        -3.7299   2.5748   0.2301 H              1 S1                 0.0000
     33 ****        -3.8750   1.8484   1.8379 H              1 S1                 0.0000
     34 ****         0.2860   3.5468   1.6596 H              1 S1                 0.0000
     35 ****         1.3247  -2.2807  -0.8727 H              1 S1                 0.0000
     36 ****         3.4600   0.2080  -0.9175 H              1 S1                 0.0000
     37 ****         3.5188  -2.3530   0.7714 H              1 S1                 0.0000
     38 ****         4.3008  -2.0636  -0.8201 H              1 S1                 0.0000
     39 ****         4.9806  -2.0233   2.6678 H              1 S1                 0.0000
     40 ****         6.4484  -2.2957   1.7660 H              1 S1                 0.0000
     41 ****         6.7672  -1.0671   3.6460 H              1 S1                 0.0000
     42 ****         5.8229   0.3389  -0.8564 H              1 S1                 0.0000
     43 ****         6.9086   0.3816   0.5036 H              1 S1                 0.0000
     44 ****         7.6574  -0.9303  -1.1749 H              1 S1                 0.0000
     45 ****         4.2721   1.2324   1.1252 H              1 S1                 0.0000
     46 ****         3.4931  -0.0298   2.1411 H              1 S1                 0.0000
     47 ****        -3.2568  -1.2523  -0.1138 H              1 S1                 0.0000
     48 ****        -2.6475  -0.2889  -1.4598 H              1 S1                 0.0000
     49 ****        -4.7422   2.0848  -1.9883 H              1 S1                 0.0000
     50 ****        -4.0459   0.7581  -2.9173 H              1 S1                 0.0000
     51 ****        -6.5594   1.2427  -3.4702 H              1 S1                 0.0000
     52 ****        -8.2523  -0.5383  -3.2862 LP             1 S1                 0.0000
     53 ****        -7.9669  -1.8244  -2.1616 LP             1 S1                 0.0000
     54 ****        -1.8881   2.8525   1.3629 LP             1 S1                 0.0000
     55 ****         2.1438   2.1968   1.0732 LP             1 S1                 0.0000
     56 ****        -1.0959  -1.7375  -0.6131 LP             1 S1                 0.0000
     57 ****         5.7578   0.0907   3.2322 LP             1 S1                 0.0000
     58 ****         7.1429  -0.1502   2.4015 LP             1 S1                 0.0000
     59 ****         6.3839  -1.8837  -1.1991 LP             1 S1                 0.0000
     60 ****         7.3986  -1.8730   0.0804 LP             1 S1                 0.0000
@<TRIPOS>BOND
    1    1    2 2     
    2    2   27 am    
    3    2    3 1     
    4    3    4 1     
    5    3   28 1     
    6    3   29 1     
    7    4   25 1     
    8    4    5 1     
    9    4   26 1     
   10    5    6 1     
   11    5   30 1     
   12    5   31 1     
   13    6    7 1     
   14    6   32 1     
   15    6   33 1     
   16    7    8 1     
   17    7   25 1     
   18    8   13 ar    
   19    8    9 ar    
   20    9   10 ar    
   21   10   11 ar    
   22   10   34 1     
   23   11   12 ar    
   24   12   16 1     
   25   12   13 ar    
   26   13   14 1     
   27   14   15 2     
   28   15   16 1     
   29   15   35 1     
   30   16   17 1     
   31   17   24 1     
   32   17   18 1     
   33   17   36 1     
   34   18   19 1     
   35   18   37 1     
   36   18   38 1     
   37   19   20 1     
   38   19   22 1     
   39   19   24 1     
   40   20   21 1     
   41   20   39 1     
   42   20   40 1     
   43   21   41 1     
   44   22   23 1     
   45   22   42 1     
   46   22   43 1     
   47   23   44 1     
   48   24   45 1     
   49   24   46 1     
   50   25   47 1     
   51   25   48 1     
   52   26   27 1     
   53   26   49 1     
   54   26   50 1     
   55   27   51 1     
   56    1   52 1     
   57    1   53 1     
   58    9   54 1     
   59   11   55 1     
   60   14   56 1     
   61   21   57 1     
   62   21   58 1     
   63   23   59 1     
   64   23   60 1     
@<TRIPOS>SUBSTRUCTURE
      1 S1             1
@<TRIPOS>SET
LONE_PAIRS      STATIC     ATOMS    <user>   **** ""
9 52 53 54 55 56 57 58 59 60
DONOR_HYDROGENS      STATIC     ATOMS    <user>   **** ""
3 41 44 51
ATOM$BLUE        STATIC     ATOMS    COLORGROUP SYSTEM
9 52 53 54 55 56 57 58 59 60
ATOM$RED        STATIC     ATOMS    COLORGROUP SYSTEM
3 41 44 51
