AV-unprocessed.smi:290|AV-procd|sdf|2236|dock6
  -GOLD-   2262022103D 1   1.00000     0.00000
 Structure written by MMmdl.
 59 62  0  0  0  0  0  0  0  0  2 V2000
  150.5521  141.7602  156.9148 C   0  0  0  0  0  0  0  0  0  0  0  0
  150.5048  141.0014  155.5797 C   0  0  1  0  0  0  0  0  0  0  0  0
  151.7304  140.3151  155.3306 O   0  0  0  0  0  0  0  0  0  0  0  0
  151.4764  138.9967  154.8593 C   0  0  0  0  0  0  0  0  0  0  0  0
  150.0134  138.9952  154.4277 C   0  0  0  0  0  0  0  0  0  0  0  0
  149.3748  139.9598  155.4176 C   0  0  1  0  0  0  0  0  0  0  0  0
  149.1577  139.2731  156.6391 O   0  0  0  0  0  0  0  0  0  0  0  0
  147.9936  140.5234  154.9923 C   0  0  0  0  0  0  0  0  0  0  0  0
  147.1524  139.5964  154.2511 N   0  0  0  0  0  0  0  0  0  0  0  0
  147.3067  139.2084  152.9389 C   0  0  0  0  0  0  0  0  0  0  0  0
  146.4187  138.3584  152.5008 N   0  0  0  0  0  0  0  0  0  0  0  0
  145.5976  138.1315  153.5985 C   0  0  0  0  0  0  0  0  0  0  0  0
  144.4454  137.3291  153.8319 C   0  0  0  0  0  0  0  0  0  0  0  0
  143.8572  136.5346  152.9121 N   0  0  0  0  0  0  0  0  0  0  0  0
  144.4687  136.5296  151.5868 C   0  0  0  0  0  0  0  0  0  0  0  0
  144.4002  135.0839  151.0916 C   0  0  0  0  0  0  0  0  0  0  0  0
  144.4395  134.2805  152.3956 C   0  0  2  0  0  0  0  0  0  0  0  0
  144.0076  132.8546  152.2955 N   0  3  1  0  0  0  0  0  0  0  0  0
  142.8510  132.6682  151.3823 C   0  0  0  0  0  0  0  0  0  0  0  0
  145.1379  131.9454  151.9574 C   0  0  0  0  0  0  0  0  0  0  0  0
  145.5548  132.0156  150.4761 C   0  0  0  0  0  0  0  0  0  0  0  0
  146.7983  132.6708  150.3456 O   0  0  0  0  0  0  0  0  0  0  0  0
  143.5852  135.1633  153.3348 C   0  0  2  0  0  0  0  0  0  0  0  0
  142.0696  134.8996  153.2573 C   0  0  0  0  0  0  0  0  0  0  0  0
  143.8962  137.3468  155.0702 N   0  0  0  0  0  0  0  0  0  0  0  0
  144.4347  138.1074  156.0284 C   0  0  0  0  0  0  0  0  0  0  0  0
  145.5000  138.9088  155.9582 N   0  0  0  0  0  0  0  0  0  0  0  0
  146.0536  138.8918  154.7115 C   0  0  0  0  0  0  0  0  0  0  0  0
  145.4711  134.2853  152.7505 H   0  0  0  0  0  0  0  0  0  0  0  0
  143.9044  135.0147  154.3679 H   0  0  0  0  0  0  0  0  0  0  0  0
  149.6129  142.2807  157.1027 H   0  0  0  0  0  0  0  0  0  0  0  0
  151.3475  142.5055  156.9064 H   0  0  0  0  0  0  0  0  0  0  0  0
  150.7414  141.0901  157.7536 H   0  0  0  0  0  0  0  0  0  0  0  0
  150.4374  141.7331  154.7762 H   0  0  0  0  0  0  0  0  0  0  0  0
  152.1527  138.7261  154.0484 H   0  0  0  0  0  0  0  0  0  0  0  0
  151.6340  138.2952  155.6793 H   0  0  0  0  0  0  0  0  0  0  0  0
  149.9548  139.3828  153.4113 H   0  0  0  0  0  0  0  0  0  0  0  0
  149.5663  138.0005  154.4323 H   0  0  0  0  0  0  0  0  0  0  0  0
  149.8925  139.4346  157.2105 H   0  0  0  0  0  0  0  0  0  0  0  0
  147.4377  140.8474  155.8733 H   0  0  0  0  0  0  0  0  0  0  0  0
  148.1308  141.4150  154.3787 H   0  0  0  0  0  0  0  0  0  0  0  0
  148.1010  139.5847  152.3105 H   0  0  0  0  0  0  0  0  0  0  0  0
  143.9362  137.2033  150.9152 H   0  0  0  0  0  0  0  0  0  0  0  0
  145.5064  136.8636  151.6321 H   0  0  0  0  0  0  0  0  0  0  0  0
  143.4594  134.9163  150.5655 H   0  0  0  0  0  0  0  0  0  0  0  0
  145.2184  134.8457  150.4112 H   0  0  0  0  0  0  0  0  0  0  0  0
  143.0913  133.0119  150.3754 H   0  0  0  0  0  0  0  0  0  0  0  0
  141.9761  133.2163  151.7311 H   0  0  0  0  0  0  0  0  0  0  0  0
  142.5467  131.6252  151.3176 H   0  0  0  0  0  0  0  0  0  0  0  0
  145.9898  132.1799  152.5973 H   0  0  0  0  0  0  0  0  0  0  0  0
  144.8747  130.9115  152.1797 H   0  0  0  0  0  0  0  0  0  0  0  0
  145.6057  131.0341  150.0072 H   0  0  0  0  0  0  0  0  0  0  0  0
  144.8133  132.5859  149.9162 H   0  0  0  0  0  0  0  0  0  0  0  0
  147.4392  132.0455  150.0414 H   0  0  0  0  0  0  0  0  0  0  0  0
  141.8149  133.9033  153.6141 H   0  0  0  0  0  0  0  0  0  0  0  0
  141.6916  134.9982  152.2396 H   0  0  0  0  0  0  0  0  0  0  0  0
  141.5238  135.6099  153.8795 H   0  0  0  0  0  0  0  0  0  0  0  0
  143.9410  138.0702  156.9884 H   0  0  0  0  0  0  0  0  0  0  0  0
  143.6952  132.5901  153.2192 H   0  0  0  0  0  0  0  0  0  0  0  0
  1  2  1  0  0  0  0
  1 31  1  0  0  0  0
  1 32  1  0  0  0  0
  1 33  1  0  0  0  0
  2  6  1  0  0  0  0
  2  3  1  0  0  0  0
  2 34  1  0  0  0  0
  3  4  1  0  0  0  0
  4  5  1  0  0  0  0
  4 35  1  0  0  0  0
  4 36  1  0  0  0  0
  5  6  1  0  0  0  0
  5 37  1  0  0  0  0
  5 38  1  0  0  0  0
  6  7  1  0  0  0  0
  6  8  1  0  0  0  0
  7 39  1  0  0  0  0
  8  9  1  0  0  0  0
  8 40  1  0  0  0  0
  8 41  1  0  0  0  0
  9 28  1  0  0  0  0
  9 10  1  0  0  0  0
 10 11  2  0  0  0  0
 10 42  1  0  0  0  0
 11 12  1  0  0  0  0
 12 28  2  0  0  0  0
 12 13  1  0  0  0  0
 13 14  1  0  0  0  0
 13 25  2  0  0  0  0
 14 23  1  0  0  0  0
 14 15  1  0  0  0  0
 15 16  1  0  0  0  0
 15 43  1  0  0  0  0
 15 44  1  0  0  0  0
 16 17  1  0  0  0  0
 16 45  1  0  0  0  0
 16 46  1  0  0  0  0
 17 29  1  0  0  0  0
 17 18  1  0  0  0  0
 17 23  1  0  0  0  0
 18 19  1  0  0  0  0
 18 20  1  0  0  0  0
 18 59  1  0  0  0  0
 19 47  1  0  0  0  0
 19 48  1  0  0  0  0
 19 49  1  0  0  0  0
 20 21  1  0  0  0  0
 20 50  1  0  0  0  0
 20 51  1  0  0  0  0
 21 22  1  0  0  0  0
 21 52  1  0  0  0  0
 21 53  1  0  0  0  0
 22 54  1  0  0  0  0
 23 30  1  0  0  0  0
 23 24  1  0  0  0  0
 24 55  1  0  0  0  0
 24 56  1  0  0  0  0
 24 57  1  0  0  0  0
 25 26  1  0  0  0  0
 26 27  2  0  0  0  0
 26 58  1  0  0  0  0
 27 28  1  0  0  0  0
M  CHG  1  18   1
M  END
> <s_m_source_file>
AV-unprocessed.smi

> <i_m_source_file_index>
290

> <i_lp_mmshare_version>
43012

> <i_f3d_flags>
0

> <s_epik_input>
W0NIMl0xW0NIMl1PW0NAQEhdKFtDSDNdKVtDQEBdMShbT0hdKVtDSDJdbihbY0hdbjIpYyhjMjMpbltjSF1uYzNONFtDSDJdW0NIMl1bQ0BIXShbQ0BIXTRbQ0gzXSlOKFtDSDNdKVtDSDJdW0NIMl1bT0hd

> <s_epik_cmdline>
J2VwaWtfcHl0aG9uJywgJy1waCcsICc3LjAnLCAnLXRuJywgJzgnLCAnLW1hJywgJzIwMCcsICctbWV0YWxfYmluZGluZycsICctaW1hZScsICc8aW5maWxlLm1hZT4nLCAnLW9tYWUnLCAnPG91dGZpbGUubWFlPic=

> <r_lp_tautomer_probability>
1

> <r_epik_Ionization_Penalty>
0.0036983

> <r_epik_Ionization_Penalty_Charging>
0.0032725

> <r_epik_Ionization_Penalty_Neutral>
0.000425798

> <r_epik_State_Penalty>
-0

> <r_epik_Charging_Adjusted_Penalty>
0.0032725

> <i_epik_Tot_Q>
1

> <i_epik_Tot_abs_Q>
1

> <r_epik_Metal_State_Penalty>
-0

> <b_epik_Metal_Only>
0

> <s_lp_Force_Field>
OPLS_2005

> <r_lp_Energy>
67.6637

> <b_lp_Chiralities_Consistent>
1

> <s_lp_Variant>
AV-unprocessed.smi:290-22

> <Gold.Version>
5.8.1

> <Gold.Id.Protein>
6NUR|6NUR_protein|mol2

> <Gold.PLP.Fitness>
43.5918

> <Gold.PLP.PLP>
-35.0867

> <Gold.PLP.part.hbond>
-3.0000

> <Gold.PLP.part.metal>
0.0000

> <Gold.PLP.part.buried>
-2.3289

> <Gold.PLP.part.nonpolar>
-31.8484

> <Gold.PLP.part.repulsive>
0.5335

> <Gold.PLP.ligand.clash>
0.0000

> <Gold.PLP.ligand.torsion>
1.6830

> <Gold.PLP.Chemscore.Hbond>
3.1281

> <Gold.PLP.Chemscore.CHOScore>
0.7365

> <Gold.PLP.Chemscore.Metal>
0.0000

> <Gold.Chemscore.Hbonds>
donor molecule, donor type, donor heavy atom, donor atom, acceptor molecule, acceptor atom, score
      L1  H    18    59       P1 10957  1.88
      L1  H    22    54       P1 10747  1.00
      P1  H  7989  7998       L1     3  0.15
      L1  C    10    42       P1  7957  0.76

> <Gold.PLP.Chemscore.Internal.Correction>
0.2775

> <Gold.Rescore>
     Score         DG    S(hbond)    S(metal)    S(lipo)     H(rot)  DE(clash)    DE(int)     intcor
      7.53     -11.26       1.77        0.00      79.22       3.67       0.43       3.30       ----

> <Gold.Chemscore.Fitness>
7.5258

> <Gold.Chemscore.DG>
-11.2603

> <Gold.Chemscore.ZeroCoef>
-5.4800

> <Gold.Chemscore.Hbond>
1.7653

> <Gold.Chemscore.Metal>
0.0000

> <Gold.Chemscore.Lipo>
79.2200

> <Gold.Chemscore.Internal_Hbond>
0.0000

> <Gold.Chemscore.DEClash>
0.4301

> <Gold.Chemscore.DEInternal>
3.3044

> <Gold.Chemscore.Rot>
3.6658

> <Gold.Chemscore.Internal.Correction>
   9.000000E+99

> <Gold.Chemscore.Hbonds>
donor molecule, donor type, donor heavy atom, donor atom, acceptor molecule, acceptor atom, score
      L1  H    18    59       P1 10957  0.20
      L1  H    22    54       P1 10747  0.97

> <Gold.Chemscore.Hbond.Weighted>
-5.8960

> <Gold.Chemscore.Metal.Weighted>
-0.0000

> <Gold.Chemscore.Lipo.Weighted>
-9.2687

> <Gold.Chemscore.Internal_Hbond.Weighted>
0.0000

> <Gold.Chemscore.DEClash.Weighted>
0.4301

> <Gold.Chemscore.DEInternal.Weighted>
3.3044

> <Gold.Chemscore.Rot.Weighted>
9.3844

> <Gold.Chemscore.Internal.Correction.Weighted>
   9.000000E+99

> <Gold.Protein.RotatedTorsions>
[ 6907 6896 6895 6894 ] final -174.86 input  -60.11 | X-H torsion
[ 7974 7965 7964 7962 ] final  106.28 input  175.53 | X-H torsion
[ 8008 7997 7996 7995 ] final   21.60 input   59.86 | X-H torsion
[ 10167 10162 10161 10158 ] final  -47.90 input  -65.29 | X-H torsion
[ 10718 10713 10712 10709 ] final   27.28 input   66.30 | X-H torsion
[ 10763 10752 10751 10750 ] final  -54.83 input  -60.55 | X-H torsion
[ 11005 11000 10999 10996 ] final  -26.04 input  -57.11 | X-H torsion

> <Gold.Protein.ActiveResidues>
 VAL166  LYS551  ARG553  GLY616  TRP617  ASP618  TYR619  PRO620  LYS621  CYS622 
 ASP623  PHE694  ASN695  SER759  ASP760  ASP761  ALA762  ILE779  LEU786  VAL792 
 PHE793  MET794  SER795  GLU796  ALA797  LYS798  CYS799  TRP800  GLU811  SER814 

> <Gold.Protein.RotatedAtoms>
  151.5792  133.3380  159.3004 H   0  0  0  0  0  0  0  0  0  0  0  0  # atno 6907 bound_to 6896
  150.8323  134.7584  159.6875 H   0  0  0  0  0  0  0  0  0  0  0  0  # atno 6908 bound_to 6896
  152.4404  134.5608  159.9945 H   0  0  0  0  0  0  0  0  0  0  0  0  # atno 6909 bound_to 6896
  145.3087  139.2547  143.3775 H   0  0  0  0  0  0  0  0  0  0  0  0  # atno 7974 bound_to 7965
  154.9530  140.3068  155.5066 H   0  0  0  0  0  0  0  0  0  0  0  0  # atno 8008 bound_to 7997
  156.2985  140.2315  156.4548 H   0  0  0  0  0  0  0  0  0  0  0  0  # atno 8009 bound_to 7997
  154.8036  140.0432  157.1280 H   0  0  0  0  0  0  0  0  0  0  0  0  # atno 8010 bound_to 7997
  140.6755  143.2763  151.3994 H   0  0  0  0  0  0  0  0  0  0  0  0  # atno 10167 bound_to 10162
  157.2181  130.6965  149.6258 H   0  0  0  0  0  0  0  0  0  0  0  0  # atno 10718 bound_to 10713
  154.1811  135.6443  153.5034 H   0  0  0  0  0  0  0  0  0  0  0  0  # atno 10763 bound_to 10752
  153.0059  135.5406  154.6513 H   0  0  0  0  0  0  0  0  0  0  0  0  # atno 10764 bound_to 10752
  154.5877  135.2931  155.0640 H   0  0  0  0  0  0  0  0  0  0  0  0  # atno 10765 bound_to 10752
  140.8993  133.7535  156.0523 H   0  0  0  0  0  0  0  0  0  0  0  0  # atno 11005 bound_to 11000
  146.3126  140.3618  142.8665 LP  0  0  0  0  0  0  0  0  0  0  0  0  # atno 17320 bound_to 7965
  144.9034  140.7670  143.5853 LP  0  0  0  0  0  0  0  0  0  0  0  0  # atno 17321 bound_to 7965
  139.6045  144.1227  152.2234 LP  0  0  0  0  0  0  0  0  0  0  0  0  # atno 17342 bound_to 10162
  140.0621  144.5848  150.7255 LP  0  0  0  0  0  0  0  0  0  0  0  0  # atno 17343 bound_to 10162
  155.9684  130.4529  150.5791 LP  0  0  0  0  0  0  0  0  0  0  0  0  # atno 17370 bound_to 10713
  157.3604  131.0749  151.1641 LP  0  0  0  0  0  0  0  0  0  0  0  0  # atno 17371 bound_to 10713
  140.8250  134.3245  157.5369 LP  0  0  0  0  0  0  0  0  0  0  0  0  # atno 17394 bound_to 11000
  139.8740  134.9331  156.3571 LP  0  0  0  0  0  0  0  0  0  0  0  0  # atno 17395 bound_to 11000

$$$$
