#       Name:                AV-unprocessed.smi:2510
#       Creating user name   scv26
#       Creation time:       Fri Mar 27 13:51:28 2020


#       File generated by GOLD software.
#

@<TRIPOS>MOLECULE
AV-unprocessed.smi:2510
    53    54     1
SMALL
NO_CHARGES


@<TRIPOS>ATOM
      1 ****        -2.7810   0.1507  -2.1307 C.3            1 S1                 0.0000
      2 ****        -1.8115   0.9625  -1.2601 C.3            1 S1                 0.0000
      3 ****        -1.1771   0.1996  -0.0760 C.3            1 S1                 0.0000
      4 ****        -0.1843  -0.8548  -0.6601 C.3            1 S1                 0.0000
      5 ****        -0.7396  -2.2751  -0.8642 C.3            1 S1                 0.0000
      6 ****        -0.6223   1.1310   1.0420 C.3            1 S1                 0.0000
      7 ****         0.8220   1.3265   1.0228 N.am           1 S1                 0.0000
      8 ****         1.4597   2.2043   0.2340 C.2            1 S1                 0.0000
      9 ****         0.8809   3.0366  -0.4638 O.2            1 S1                 0.0000
     10 ****         2.9844   2.1017   0.2023 C.3            1 S1                 0.0000
     11 ****         3.4039   0.7959  -0.3957 C.2            1 S1                 0.0000
     12 ****         3.3913   0.3492  -1.6878 C.2            1 S1                 0.0000
     13 ****         3.8757  -0.9888  -1.6036 C.2            1 S1                 0.0000
     14 ****         4.0614  -1.9779  -2.7160 C.3            1 S1                 0.0000
     15 ****         4.1743  -1.3414  -0.3620 N.2            1 S1                 0.0000
     16 ****         3.8864  -0.2457   0.3643 N.pl3          1 S1                 0.0000
     17 ****        -1.0750   0.0970   2.0786 C.3            1 S1                 0.0000
     18 ****        -1.4671   0.5501   3.4791 C.3            1 S1                 0.0000
     19 ****        -2.1458  -0.2925   1.0407 C.3            1 S1                 0.0000
     20 ****        -3.3121   0.5217   1.1252 O.3            1 S1                 0.0000
     21 ****        -4.3771  -0.0972   1.8263 C.3            1 S1                 0.0000
     22 ****         4.0165  -0.2260   1.3658 H              1 S1                 0.0000
     23 ****        -3.3125   0.8063  -2.8208 H              1 S1                 0.0000
     24 ****        -3.5274  -0.3660  -1.5269 H              1 S1                 0.0000
     25 ****        -2.2552  -0.5864  -2.7359 H              1 S1                 0.0000
     26 ****        -1.0359   1.3893  -1.8970 H              1 S1                 0.0000
     27 ****        -2.3590   1.8275  -0.8843 H              1 S1                 0.0000
     28 ****         0.2234  -0.5054  -1.6094 H              1 S1                 0.0000
     29 ****         0.6903  -0.9701  -0.0209 H              1 S1                 0.0000
     30 ****        -0.0275  -2.8826  -1.4233 H              1 S1                 0.0000
     31 ****        -1.6798  -2.2868  -1.4114 H              1 S1                 0.0000
     32 ****        -0.9024  -2.7782   0.0886 H              1 S1                 0.0000
     33 ****        -1.1838   2.0638   1.1388 H              1 S1                 0.0000
     34 ****         1.3779   0.6862   1.5707 H              1 S1                 0.0000
     35 ****         3.3957   2.9266  -0.3809 H              1 S1                 0.0000
     36 ****         3.3749   2.2055   1.2155 H              1 S1                 0.0000
     37 ****         3.0685   0.8939  -2.5628 H              1 S1                 0.0000
     38 ****         3.9155  -1.5078  -3.6889 H              1 S1                 0.0000
     39 ****         3.3472  -2.7975  -2.6331 H              1 S1                 0.0000
     40 ****         5.0648  -2.4050  -2.7020 H              1 S1                 0.0000
     41 ****        -0.3437  -0.7118   2.1433 H              1 S1                 0.0000
     42 ****        -2.1860   1.3693   3.4500 H              1 S1                 0.0000
     43 ****        -0.5971   0.8989   4.0354 H              1 S1                 0.0000
     44 ****        -1.9146  -0.2656   4.0468 H              1 S1                 0.0000
     45 ****        -2.3765  -1.3570   1.0085 H              1 S1                 0.0000
     46 ****        -5.2201   0.5904   1.8909 H              1 S1                 0.0000
     47 ****        -4.0871  -0.3712   2.8407 H              1 S1                 0.0000
     48 ****        -4.7155  -0.9945   1.3067 H              1 S1                 0.0000
     49 ****        -0.1180   3.0830  -0.4617 LP             1 S1                 0.0000
     50 ****         1.4096   3.6665  -1.0328 LP             1 S1                 0.0000
     51 ****         4.5309  -2.2182  -0.0394 LP             1 S1                 0.0000
     52 ****        -3.6215   0.7305   0.1975 LP             1 S1                 0.0000
     53 ****        -3.0731   1.3710   1.5960 LP             1 S1                 0.0000
@<TRIPOS>BOND
    1    1    2 1     
    2    1   23 1     
    3    1   24 1     
    4    1   25 1     
    5    2    3 1     
    6    2   26 1     
    7    2   27 1     
    8    3   19 1     
    9    3    4 1     
   10    3    6 1     
   11    4    5 1     
   12    4   28 1     
   13    4   29 1     
   14    5   30 1     
   15    5   31 1     
   16    5   32 1     
   17    6    7 1     
   18    6   17 1     
   19    6   33 1     
   20    7    8 am    
   21    7   34 1     
   22    8    9 2     
   23    8   10 1     
   24   10   35 1     
   25   10   36 1     
   26   10   11 1     
   27   11   16 1     
   28   11   12 2     
   29   12   13 1     
   30   12   37 1     
   31   13   14 1     
   32   13   15 2     
   33   14   38 1     
   34   14   39 1     
   35   14   40 1     
   36   15   16 1     
   37   16   22 1     
   38   17   18 1     
   39   17   19 1     
   40   17   41 1     
   41   18   42 1     
   42   18   43 1     
   43   18   44 1     
   44   19   20 1     
   45   19   45 1     
   46   20   21 1     
   47   21   46 1     
   48   21   47 1     
   49   21   48 1     
   50    9   49 1     
   51    9   50 1     
   52   15   51 1     
   53   20   52 1     
   54   20   53 1     
@<TRIPOS>SUBSTRUCTURE
      1 S1             1
@<TRIPOS>SET
LONE_PAIRS      STATIC     ATOMS    <user>   **** ""
5 49 50 51 52 53
DONOR_HYDROGENS      STATIC     ATOMS    <user>   **** ""
2 34 22
ATOM$BLUE        STATIC     ATOMS    COLORGROUP SYSTEM
5 49 50 51 52 53
ATOM$RED        STATIC     ATOMS    COLORGROUP SYSTEM
2 34 22
