#       Name:                AV-unprocessed.smi:2941
#       Creating user name   scv26
#       Creation time:       Fri Mar 27 16:15:46 2020


#       File generated by GOLD software.
#

@<TRIPOS>MOLECULE
AV-unprocessed.smi:2941
    42    43     1
SMALL
NO_CHARGES


@<TRIPOS>ATOM
      1 ****        -5.2798   3.2227  -0.3885 C.3            1 S1                 0.0000
      2 ****        -4.8392   1.8761  -0.4041 O.3            1 S1                 0.0000
      3 ****        -3.4398   1.7650  -0.5998 C.3            1 S1                 0.0000
      4 ****        -3.0565   0.2778  -0.6078 C.3            1 S1                 0.0000
      5 ****        -1.6095   0.0983  -0.7845 N.am           1 S1                 0.0000
      6 ****        -0.8354  -0.0104   0.3867 C.2            1 S1                 0.0000
      7 ****         0.5000  -0.1786   0.3522 C.2            1 S1                 0.0000
      8 ****         1.2773  -0.2772   1.6118 C.2            1 S1                 0.0000
      9 ****         0.8637   0.2322   2.6546 O.2            1 S1                 0.0000
     10 ****         2.5643  -1.0358   1.5829 C.ar           1 S1                 0.0000
     11 ****         2.5876  -2.3211   0.9913 C.ar           1 S1                 0.0000
     12 ****         3.7750  -3.0753   0.9546 C.ar           1 S1                 0.0000
     13 ****         3.7786  -4.3049   0.3872 F              1 S1                 0.0000
     14 ****         4.9567  -2.5534   1.5095 C.ar           1 S1                 0.0000
     15 ****         4.9491  -1.2759   2.0984 C.ar           1 S1                 0.0000
     16 ****         3.7638  -0.5133   2.1387 C.ar           1 S1                 0.0000
     17 ****         3.8226   0.7314   2.7033 O.co2          1 S1                -1.0000
     18 ****         1.1373  -0.2314  -0.9496 C.2            1 S1                 0.0000
     19 ****         0.4033  -0.1158  -2.0740 C.2            1 S1                 0.0000
     20 ****         1.0103  -0.1554  -3.3631 C.1            1 S1                 0.0000
     21 ****         1.5219  -0.1936  -4.4007 N.1            1 S1                 0.0000
     22 ****        -1.0549   0.0638  -2.0340 C.2            1 S1                 0.0000
     23 ****        -1.7389   0.1801  -3.0524 O.2            1 S1                 0.0000
     24 ****        -6.3582   3.2536  -0.2340 H              1 S1                 0.0000
     25 ****        -5.0610   3.7203  -1.3342 H              1 S1                 0.0000
     26 ****        -4.8078   3.7830   0.4196 H              1 S1                 0.0000
     27 ****        -3.1582   2.2348  -1.5435 H              1 S1                 0.0000
     28 ****        -2.9096   2.2851   0.1997 H              1 S1                 0.0000
     29 ****        -3.3809  -0.1866   0.3247 H              1 S1                 0.0000
     30 ****        -3.6097  -0.2452  -1.3897 H              1 S1                 0.0000
     31 ****        -1.4008   0.0541   1.3062 H              1 S1                 0.0000
     32 ****         1.6883  -2.7440   0.5674 H              1 S1                 0.0000
     33 ****         5.8688  -3.1307   1.4825 H              1 S1                 0.0000
     34 ****         5.8619  -0.8787   2.5185 H              1 S1                 0.0000
     35 ****         2.2084  -0.3493  -1.0311 H              1 S1                 0.0000
     36 ****        -5.3059   1.3945  -1.1458 LP             1 S1                 0.0000
     37 ****        -5.0755   1.4512   0.4698 LP             1 S1                 0.0000
     38 ****        -0.0084   0.7213   2.6605 LP             1 S1                 0.0000
     39 ****         1.4002   0.1564   3.4952 LP             1 S1                 0.0000
     40 ****         1.9639  -0.2267  -5.2971 LP             1 S1                 0.0000
     41 ****        -2.7284   0.3037  -2.9786 LP             1 S1                 0.0000
     42 ****        -1.3044   0.1508  -3.9526 LP             1 S1                 0.0000
@<TRIPOS>BOND
    1    1    2 1     
    2    1   24 1     
    3    1   25 1     
    4    1   26 1     
    5    2    3 1     
    6    3    4 1     
    7    3   27 1     
    8    3   28 1     
    9    4    5 1     
   10    4   29 1     
   11    4   30 1     
   12    5   22 am    
   13    5    6 1     
   14    6    7 2     
   15    6   31 1     
   16    7    8 1     
   17    7   18 1     
   18    8    9 2     
   19    8   10 1     
   20   10   16 ar    
   21   10   11 ar    
   22   11   12 ar    
   23   11   32 1     
   24   12   13 1     
   25   12   14 ar    
   26   14   15 ar    
   27   14   33 1     
   28   15   16 ar    
   29   15   34 1     
   30   16   17 ar    
   31   18   19 2     
   32   18   35 1     
   33   19   20 1     
   34   19   22 1     
   35   20   21 3     
   36   22   23 2     
   37    2   36 1     
   38    2   37 1     
   39    9   38 1     
   40    9   39 1     
   41   21   40 1     
   42   23   41 1     
   43   23   42 1     
@<TRIPOS>SUBSTRUCTURE
      1 S1             1
@<TRIPOS>SET
LONE_PAIRS      STATIC     ATOMS    <user>   **** ""
8 36 37 38 39 17 40 41 42
ATOM$BLUE        STATIC     ATOMS    COLORGROUP SYSTEM
8 36 37 38 39 17 40 41 42
