AV-unprocessed.smi:196|AV-procd|sdf|1531|dock2
  -GOLD-   2262019383D 1   1.00000     0.00000
 Structure written by MMmdl.
 47 50  0  0  0  0  0  0  0  0  1 V2000
  147.5002  133.3481  159.4844 C   0  0  0  0  0  0  0  0  0  0  0  0
  146.8701  134.6291  160.0537 C   0  0  1  0  0  0  0  0  0  0  0  0
  146.9725  134.5620  161.4743 O   0  0  0  0  0  0  0  0  0  0  0  0
  147.1245  135.8722  161.9913 C   0  0  0  0  0  0  0  0  0  0  0  0
  148.0482  136.5224  160.9730 C   0  0  0  0  0  0  0  0  0  0  0  0
  147.5319  135.9757  159.6452 C   0  0  2  0  0  0  0  0  0  0  0  0
  146.5017  136.8386  159.1917 O   0  0  0  0  0  0  0  0  0  0  0  0
  148.6156  135.9053  158.5372 C   0  0  0  0  0  0  0  0  0  0  0  0
  149.1506  137.2074  158.1680 N   0  0  0  0  0  0  0  0  0  0  0  0
  148.5884  138.1104  157.2950 C   0  0  0  0  0  0  0  0  0  0  0  0
  149.2594  139.2174  157.1313 N   0  0  0  0  0  0  0  0  0  0  0  0
  150.3796  139.0624  157.9406 C   0  0  0  0  0  0  0  0  0  0  0  0
  151.5125  139.8751  158.2383 C   0  0  0  0  0  0  0  0  0  0  0  0
  151.7143  141.1066  157.6947 N   0  0  0  0  0  0  0  0  0  0  0  0
  152.4186  142.1136  158.4819 C   0  0  0  0  0  0  0  0  0  0  0  0
  151.7332  143.4424  158.1665 C   0  0  2  0  0  0  0  0  0  0  0  0
  150.7416  143.6474  159.0349 F   0  0  0  0  0  0  0  0  0  0  0  0
  151.1539  143.2146  156.7750 C   0  0  0  0  0  0  0  0  0  0  0  0
  150.7461  141.7320  156.7821 C   0  0  1  0  0  0  0  0  0  0  0  0
  150.7353  141.1584  155.3512 C   0  0  0  0  0  0  0  0  0  0  0  0
  149.8555  141.6425  154.4682 N   0  0  0  0  0  0  0  0  0  0  0  0
  151.5321  140.2742  155.0450 O   0  0  0  0  0  0  0  0  0  0  0  0
  152.4150  139.3786  159.1258 N   0  0  0  0  0  0  0  0  0  0  0  0
  152.2389  138.1724  159.6719 C   0  0  0  0  0  0  0  0  0  0  0  0
  151.2416  137.3082  159.4799 N   0  0  0  0  0  0  0  0  0  0  0  0
  150.3228  137.8019  158.6018 C   0  0  0  0  0  0  0  0  0  0  0  0
  152.4041  144.2998  158.2241 H   0  0  0  0  0  0  0  0  0  0  0  0
  149.7436  141.6491  157.2057 H   0  0  0  0  0  0  0  0  0  0  0  0
  147.4449  133.3260  158.3959 H   0  0  0  0  0  0  0  0  0  0  0  0
  146.9765  132.4663  159.8540 H   0  0  0  0  0  0  0  0  0  0  0  0
  148.5461  133.2518  159.7770 H   0  0  0  0  0  0  0  0  0  0  0  0
  145.8089  134.6321  159.7971 H   0  0  0  0  0  0  0  0  0  0  0  0
  146.1557  136.3731  162.0228 H   0  0  0  0  0  0  0  0  0  0  0  0
  147.5436  135.8621  162.9975 H   0  0  0  0  0  0  0  0  0  0  0  0
  148.0565  137.6117  161.0308 H   0  0  0  0  0  0  0  0  0  0  0  0
  149.0652  136.1724  161.1528 H   0  0  0  0  0  0  0  0  0  0  0  0
  146.2721  136.5915  158.3090 H   0  0  0  0  0  0  0  0  0  0  0  0
  149.4515  135.2832  158.8576 H   0  0  0  0  0  0  0  0  0  0  0  0
  148.2104  135.4388  157.6382 H   0  0  0  0  0  0  0  0  0  0  0  0
  147.6535  137.9235  156.7864 H   0  0  0  0  0  0  0  0  0  0  0  0
  152.4034  141.9110  159.5542 H   0  0  0  0  0  0  0  0  0  0  0  0
  153.4595  142.1361  158.1574 H   0  0  0  0  0  0  0  0  0  0  0  0
  150.3185  143.8802  156.5543 H   0  0  0  0  0  0  0  0  0  0  0  0
  151.9305  143.4000  156.0305 H   0  0  0  0  0  0  0  0  0  0  0  0
  149.8337  141.2753  153.5279 H   0  0  0  0  0  0  0  0  0  0  0  0
  149.2148  142.3711  154.7469 H   0  0  0  0  0  0  0  0  0  0  0  0
  153.0070  137.8551  160.3617 H   0  0  0  0  0  0  0  0  0  0  0  0
  1  2  1  0  0  0  0
  1 29  1  0  0  0  0
  1 30  1  0  0  0  0
  1 31  1  0  0  0  0
  2  6  1  0  0  0  0
  2  3  1  0  0  0  0
  2 32  1  0  0  0  0
  3  4  1  0  0  0  0
  4  5  1  0  0  0  0
  4 33  1  0  0  0  0
  4 34  1  0  0  0  0
  5  6  1  0  0  0  0
  5 35  1  0  0  0  0
  5 36  1  0  0  0  0
  6  7  1  0  0  0  0
  6  8  1  0  0  0  0
  7 37  1  0  0  0  0
  8  9  1  0  0  0  0
  8 38  1  0  0  0  0
  8 39  1  0  0  0  0
  9 26  1  0  0  0  0
  9 10  1  0  0  0  0
 10 11  2  0  0  0  0
 10 40  1  0  0  0  0
 11 12  1  0  0  0  0
 12 26  2  0  0  0  0
 12 13  1  0  0  0  0
 13 14  1  0  0  0  0
 13 23  2  0  0  0  0
 14 19  1  0  0  0  0
 14 15  1  0  0  0  0
 15 16  1  0  0  0  0
 15 41  1  0  0  0  0
 15 42  1  0  0  0  0
 16 27  1  0  0  0  0
 16 17  1  0  0  0  0
 16 18  1  0  0  0  0
 18 19  1  0  0  0  0
 18 43  1  0  0  0  0
 18 44  1  0  0  0  0
 19 28  1  0  0  0  0
 19 20  1  0  0  0  0
 20 21  1  0  0  0  0
 20 22  2  0  0  0  0
 21 45  1  0  0  0  0
 21 46  1  0  0  0  0
 23 24  1  0  0  0  0
 24 25  2  0  0  0  0
 24 47  1  0  0  0  0
 25 26  1  0  0  0  0
M  END
> <s_m_source_file>
AV-unprocessed.smi

> <i_m_source_file_index>
196

> <i_lp_mmshare_version>
43012

> <i_f3d_flags>
0

> <s_epik_input>
W0NIMl0xW0NIMl1PW0NAQEhdKFtDSDNdKVtDQEBdMShbT0hdKVtDSDJdbihbY0hdbjIpYyhjMjMpbltjSF1uYzNONFtDSDJdW0NASF0oRilbQ0gyXVtDQEhdNEMoPU8pW05IMl0=

> <s_epik_cmdline>
J2VwaWtfcHl0aG9uJywgJy1waCcsICc3LjAnLCAnLXRuJywgJzgnLCAnLW1hJywgJzIwMCcsICctbWV0YWxfYmluZGluZycsICctaW1hZScsICc8aW5maWxlLm1hZT4nLCAnLW9tYWUnLCAnPG91dGZpbGUubWFlPic=

> <r_lp_tautomer_probability>
1

> <r_epik_Ionization_Penalty>
0.000857933

> <r_epik_Ionization_Penalty_Charging>
0

> <r_epik_Ionization_Penalty_Neutral>
0.000857933

> <r_epik_State_Penalty>
0.000462053

> <r_epik_Charging_Adjusted_Penalty>
0.000462053

> <i_epik_Tot_Q>
0

> <i_epik_Tot_abs_Q>
0

> <r_epik_Metal_State_Penalty>
-0

> <b_epik_Metal_Only>
0

> <s_lp_Force_Field>
OPLS_2005

> <r_lp_Energy>
43.6884

> <b_lp_Chiralities_Consistent>
1

> <s_lp_Variant>
AV-unprocessed.smi:196-4

> <Gold.Version>
5.8.1

> <Gold.Id.Protein>
6NUR|6NUR_protein|mol2

> <Gold.PLP.Fitness>
53.6619

> <Gold.PLP.PLP>
-43.4146

> <Gold.PLP.part.hbond>
-3.9985

> <Gold.PLP.part.metal>
0.0000

> <Gold.PLP.part.buried>
-4.9499

> <Gold.PLP.part.nonpolar>
-33.9325

> <Gold.PLP.part.repulsive>
0.2073

> <Gold.PLP.ligand.clash>
0.0000

> <Gold.PLP.ligand.torsion>
0.5485

> <Gold.PLP.Chemscore.Hbond>
3.6842

> <Gold.PLP.Chemscore.CHOScore>
0.0000

> <Gold.PLP.Chemscore.Metal>
0.0000

> <Gold.Chemscore.Hbonds>
donor molecule, donor type, donor heavy atom, donor atom, acceptor molecule, acceptor atom, score
      P1  H  6896  6907       L1    25  0.59
      P1  H  7989  7998       L1    22  0.54

> <Gold.PLP.Chemscore.Internal.Correction>
0.2916

> <Gold.Rescore>
     Score         DG    S(hbond)    S(metal)    S(lipo)     H(rot)  DE(clash)    DE(int)     intcor
     13.82     -17.53       2.81        0.00      79.50       2.60       0.67       3.03       ----

> <Gold.Chemscore.Fitness>
13.8214

> <Gold.Chemscore.DG>
-17.5280

> <Gold.Chemscore.ZeroCoef>
-5.4800

> <Gold.Chemscore.Hbond>
2.8125

> <Gold.Chemscore.Metal>
0.0000

> <Gold.Chemscore.Lipo>
79.5048

> <Gold.Chemscore.Internal_Hbond>
0.0000

> <Gold.Chemscore.DEClash>
0.6741

> <Gold.Chemscore.DEInternal>
3.0324

> <Gold.Chemscore.Rot>
2.5968

> <Gold.Chemscore.Internal.Correction>
   9.000000E+99

> <Gold.Chemscore.Hbonds>
donor molecule, donor type, donor heavy atom, donor atom, acceptor molecule, acceptor atom, score
      L1  H    21    46       P1  8028  0.01
      P1  H  6896  6907       L1    25  0.58
      P1  H  7989  7998       L1    22  0.03

> <Gold.Chemscore.Hbond.Weighted>
-9.3937

> <Gold.Chemscore.Metal.Weighted>
-0.0000

> <Gold.Chemscore.Lipo.Weighted>
-9.3021

> <Gold.Chemscore.Internal_Hbond.Weighted>
0.0000

> <Gold.Chemscore.DEClash.Weighted>
0.6741

> <Gold.Chemscore.DEInternal.Weighted>
3.0324

> <Gold.Chemscore.Rot.Weighted>
6.6477

> <Gold.Chemscore.Internal.Correction.Weighted>
   9.000000E+99

> <Gold.Protein.RotatedTorsions>
[ 6907 6896 6895 6894 ] final   -9.21 input  -60.11 | X-H torsion
[ 7974 7965 7964 7962 ] final  -29.42 input  175.53 | X-H torsion
[ 8008 7997 7996 7995 ] final   47.46 input   59.86 | X-H torsion
[ 10167 10162 10161 10158 ] final -149.64 input  -65.29 | X-H torsion
[ 10718 10713 10712 10709 ] final  -98.51 input   66.30 | X-H torsion
[ 10763 10752 10751 10750 ] final   83.47 input  -60.55 | X-H torsion
[ 11005 11000 10999 10996 ] final  -89.63 input  -57.11 | X-H torsion

> <Gold.Protein.ActiveResidues>
 VAL166  LYS551  ARG553  GLY616  TRP617  ASP618  TYR619  PRO620  LYS621  CYS622 
 ASP623  PHE694  ASN695  SER759  ASP760  ASP761  ALA762  ILE779  LEU786  VAL792 
 PHE793  MET794  SER795  GLU796  ALA797  LYS798  CYS799  TRP800  GLU811  SER814 

> <Gold.Protein.RotatedAtoms>
  151.4213  135.0998  159.9614 H   0  0  0  0  0  0  0  0  0  0  0  0  # atno 6907 bound_to 6896
  152.4987  133.8704  159.7306 H   0  0  0  0  0  0  0  0  0  0  0  0  # atno 6908 bound_to 6896
  150.9221  133.6810  159.2857 H   0  0  0  0  0  0  0  0  0  0  0  0  # atno 6909 bound_to 6896
  146.1217  140.5410  142.8732 H   0  0  0  0  0  0  0  0  0  0  0  0  # atno 7974 bound_to 7965
  155.3694  140.3423  155.4243 H   0  0  0  0  0  0  0  0  0  0  0  0  # atno 8008 bound_to 7997
  156.1670  140.1619  156.8547 H   0  0  0  0  0  0  0  0  0  0  0  0  # atno 8009 bound_to 7997
  154.5195  140.0770  156.8128 H   0  0  0  0  0  0  0  0  0  0  0  0  # atno 8010 bound_to 7997
  139.7425  143.8641  152.2566 H   0  0  0  0  0  0  0  0  0  0  0  0  # atno 10167 bound_to 10162
  156.0109  130.5241  150.6533 H   0  0  0  0  0  0  0  0  0  0  0  0  # atno 10718 bound_to 10713
  153.1294  135.4690  154.9324 H   0  0  0  0  0  0  0  0  0  0  0  0  # atno 10763 bound_to 10752
  154.7650  135.3142  154.8307 H   0  0  0  0  0  0  0  0  0  0  0  0  # atno 10764 bound_to 10752
  153.8852  135.6890  153.4818 H   0  0  0  0  0  0  0  0  0  0  0  0  # atno 10765 bound_to 10752
  141.1581  133.7642  156.9623 H   0  0  0  0  0  0  0  0  0  0  0  0  # atno 11005 bound_to 11000
  144.7604  140.5408  143.6740 LP  0  0  0  0  0  0  0  0  0  0  0  0  # atno 17320 bound_to 7965
  145.5451  139.1476  143.3425 LP  0  0  0  0  0  0  0  0  0  0  0  0  # atno 17321 bound_to 7965
  139.8595  144.7124  150.9116 LP  0  0  0  0  0  0  0  0  0  0  0  0  # atno 17342 bound_to 10162
  140.7788  143.3829  151.1444 LP  0  0  0  0  0  0  0  0  0  0  0  0  # atno 17343 bound_to 10162
  157.4290  131.0847  151.1057 LP  0  0  0  0  0  0  0  0  0  0  0  0  # atno 17370 bound_to 10713
  157.1636  130.6236  149.5618 LP  0  0  0  0  0  0  0  0  0  0  0  0  # atno 17371 bound_to 10713
  140.1185  134.9432  157.2169 LP  0  0  0  0  0  0  0  0  0  0  0  0  # atno 17394 bound_to 11000
  140.3103  134.3032  155.7268 LP  0  0  0  0  0  0  0  0  0  0  0  0  # atno 17395 bound_to 11000

$$$$
