AV-unprocessed.smi:3209|AV-procd|sdf|12271|dock10
  -GOLD-   2272018103D 1   1.00000     0.00000
 Structure written by MMmdl.
 37 39  0  0  0  0  0  0  0  0  2 V2000
  145.3385  142.8908  154.8253 C   0  0  0  0  0  0  0  0  0  0  0  0
  146.6519  142.1947  154.7162 C   0  0  0  0  0  0  0  0  0  0  0  0
  147.4428  141.9382  155.7616 N   0  0  0  0  0  0  0  0  0  0  0  0
  148.6193  141.2759  155.3972 C   0  0  0  0  0  0  0  0  0  0  0  0
  149.6261  140.9116  156.4457 C   0  0  0  0  0  0  0  0  0  0  0  0
  149.2747  141.5002  157.8187 C   0  0  0  0  0  0  0  0  0  0  0  0
  149.8100  142.8691  157.9608 N   0  3  0  0  0  0  0  0  0  0  0  0
  151.2848  142.9474  158.0437 C   0  0  1  0  0  0  0  0  0  0  0  0
  151.8716  144.3023  157.5911 C   0  0  0  0  0  0  0  0  0  0  0  0
  152.7647  144.6987  158.7834 C   0  0  1  0  0  0  0  0  0  0  0  0
  151.8705  145.1784  159.9400 C   0  0  0  0  0  0  0  0  0  0  0  0
  151.2189  143.8707  160.4250 C   0  0  0  0  0  0  0  0  0  0  0  0
  151.8276  142.8090  159.4827 C   0  0  2  0  0  0  0  0  0  0  0  0
  153.2441  143.3460  159.3026 C   0  0  0  0  0  0  0  0  0  0  0  0
  148.7068  141.0302  154.0495 C   0  0  0  0  0  0  0  0  0  0  0  0
  147.3134  141.6247  153.1890 S   0  0  0  0  0  0  0  0  0  0  0  0
  145.2081  143.3127  155.8224 H   0  0  0  0  0  0  0  0  0  0  0  0
  144.5279  142.1881  154.6333 H   0  0  0  0  0  0  0  0  0  0  0  0
  145.2829  143.6984  154.0952 H   0  0  0  0  0  0  0  0  0  0  0  0
  149.7011  139.8261  156.5231 H   0  0  0  0  0  0  0  0  0  0  0  0
  150.6153  141.2589  156.1447 H   0  0  0  0  0  0  0  0  0  0  0  0
  148.1917  141.5234  157.9475 H   0  0  0  0  0  0  0  0  0  0  0  0
  149.6800  140.8679  158.6095 H   0  0  0  0  0  0  0  0  0  0  0  0
  149.5004  143.4287  157.1789 H   0  0  0  0  0  0  0  0  0  0  0  0
  151.7078  142.1445  157.4369 H   0  0  0  0  0  0  0  0  0  0  0  0
  152.4642  144.1758  156.6842 H   0  0  0  0  0  0  0  0  0  0  0  0
  151.1111  145.0575  157.3875 H   0  0  0  0  0  0  0  0  0  0  0  0
  153.5564  145.4021  158.5236 H   0  0  0  0  0  0  0  0  0  0  0  0
  152.4704  145.6245  160.7346 H   0  0  0  0  0  0  0  0  0  0  0  0
  151.1360  145.9189  159.6211 H   0  0  0  0  0  0  0  0  0  0  0  0
  151.5015  143.6700  161.4594 H   0  0  0  0  0  0  0  0  0  0  0  0
  150.1301  143.9066  160.3863 H   0  0  0  0  0  0  0  0  0  0  0  0
  151.7722  141.7930  159.8748 H   0  0  0  0  0  0  0  0  0  0  0  0
  153.8336  142.7868  158.5738 H   0  0  0  0  0  0  0  0  0  0  0  0
  153.8043  143.4149  160.2370 H   0  0  0  0  0  0  0  0  0  0  0  0
  149.5022  140.5365  153.5106 H   0  0  0  0  0  0  0  0  0  0  0  0
  149.4279  143.2625  158.8091 H   0  0  0  0  0  0  0  0  0  0  0  0
  1  2  1  0  0  0  0
  1 17  1  0  0  0  0
  1 18  1  0  0  0  0
  1 19  1  0  0  0  0
  2 16  1  0  0  0  0
  2  3  2  0  0  0  0
  3  4  1  0  0  0  0
  4  5  1  0  0  0  0
  4 15  2  0  0  0  0
  5  6  1  0  0  0  0
  5 20  1  0  0  0  0
  5 21  1  0  0  0  0
  6  7  1  0  0  0  0
  6 22  1  0  0  0  0
  6 23  1  0  0  0  0
  7  8  1  0  0  0  0
  7 24  1  0  0  0  0
  7 37  1  0  0  0  0
  8 13  1  0  0  0  0
  8  9  1  0  0  0  0
  8 25  1  0  0  0  0
  9 10  1  0  0  0  0
  9 26  1  0  0  0  0
  9 27  1  0  0  0  0
 10 14  1  0  0  0  0
 10 11  1  0  0  0  0
 10 28  1  0  0  0  0
 11 12  1  0  0  0  0
 11 29  1  0  0  0  0
 11 30  1  0  0  0  0
 12 13  1  0  0  0  0
 12 31  1  0  0  0  0
 12 32  1  0  0  0  0
 13 14  1  0  0  0  0
 13 33  1  0  0  0  0
 14 34  1  0  0  0  0
 14 35  1  0  0  0  0
 15 16  1  0  0  0  0
 15 36  1  0  0  0  0
M  CHG  1   7   1
M  END
> <s_m_source_file>
AV-unprocessed.smi

> <i_m_source_file_index>
3209

> <i_lp_mmshare_version>
43012

> <i_f3d_flags>
0

> <s_epik_input>
W0NIM11jMW5jKFtjSF1zMSlbQ0gyXVtDSDJdW05IXVtDQEhdKFtDSDJdW0NASF0yMylbQ0BIXShbQ0gyXTMpW0NIMl1bQ0gyXTI=

> <s_epik_cmdline>
J2VwaWtfcHl0aG9uJywgJy1waCcsICc3LjAnLCAnLXRuJywgJzgnLCAnLW1hJywgJzIwMCcsICctbWV0YWxfYmluZGluZycsICctaW1hZScsICc8aW5maWxlLm1hZT4nLCAnLW9tYWUnLCAnPG91dGZpbGUubWFlPic=

> <r_lp_tautomer_probability>
1

> <r_epik_Ionization_Penalty>
0.000342479

> <r_epik_Ionization_Penalty_Charging>
0.000317129

> <r_epik_Ionization_Penalty_Neutral>
2.535e-05

> <r_epik_State_Penalty>
-0

> <r_epik_Charging_Adjusted_Penalty>
0.000317129

> <i_epik_Tot_Q>
1

> <i_epik_Tot_abs_Q>
1

> <r_epik_Metal_State_Penalty>
-0

> <b_epik_Metal_Only>
0

> <s_lp_Force_Field>
OPLS_2005

> <r_lp_Energy>
49.0881

> <b_lp_Chiralities_Consistent>
1

> <s_lp_Variant>
AV-unprocessed.smi:3209-4

> <Gold.Version>
5.8.1

> <Gold.Id.Protein>
6NUR|6NUR_protein|mol2

> <Gold.PLP.Fitness>
47.4560

> <Gold.PLP.PLP>
-39.5100

> <Gold.PLP.part.hbond>
-1.0000

> <Gold.PLP.part.metal>
0.0000

> <Gold.PLP.part.buried>
-6.0178

> <Gold.PLP.part.nonpolar>
-32.6323

> <Gold.PLP.part.repulsive>
0.4982

> <Gold.PLP.ligand.clash>
0.0000

> <Gold.PLP.ligand.torsion>
0.5282

> <Gold.PLP.Chemscore.Hbond>
2.0000

> <Gold.PLP.Chemscore.CHOScore>
0.9985

> <Gold.PLP.Chemscore.Metal>
0.0000

> <Gold.Chemscore.Hbonds>
donor molecule, donor type, donor heavy atom, donor atom, acceptor molecule, acceptor atom, score
      L1  H     7    24       P1  8028  1.79
      L1  C    15    36       P1  7957  0.96

> <Gold.PLP.Chemscore.Internal.Correction>
0.0068

> <Gold.Rescore>
     Score         DG    S(hbond)    S(metal)    S(lipo)     H(rot)  DE(clash)    DE(int)     intcor
     18.85     -19.74       0.90        0.00     124.82       1.31       0.46       0.44       ----

> <Gold.Chemscore.Fitness>
18.8483

> <Gold.Chemscore.DG>
-19.7442

> <Gold.Chemscore.ZeroCoef>
-5.4800

> <Gold.Chemscore.Hbond>
0.9031

> <Gold.Chemscore.Metal>
0.0000

> <Gold.Chemscore.Lipo>
124.8170

> <Gold.Chemscore.Internal_Hbond>
0.0000

> <Gold.Chemscore.DEClash>
0.4551

> <Gold.Chemscore.DEInternal>
0.4407

> <Gold.Chemscore.Rot>
1.3108

> <Gold.Chemscore.Internal.Correction>
   9.000000E+99

> <Gold.Chemscore.Hbonds>
donor molecule, donor type, donor heavy atom, donor atom, acceptor molecule, acceptor atom, score
      L1  H     7    24       P1  8028  0.75

> <Gold.Chemscore.Hbond.Weighted>
-3.0163

> <Gold.Chemscore.Metal.Weighted>
-0.0000

> <Gold.Chemscore.Lipo.Weighted>
-14.6036

> <Gold.Chemscore.Internal_Hbond.Weighted>
0.0000

> <Gold.Chemscore.DEClash.Weighted>
0.4551

> <Gold.Chemscore.DEInternal.Weighted>
0.4407

> <Gold.Chemscore.Rot.Weighted>
3.3558

> <Gold.Chemscore.Internal.Correction.Weighted>
   9.000000E+99

> <Gold.Protein.RotatedTorsions>
[ 6907 6896 6895 6894 ] final   83.36 input  -60.11 | X-H torsion
[ 7974 7965 7964 7962 ] final  -50.90 input  175.53 | X-H torsion
[ 8008 7997 7996 7995 ] final -155.80 input   59.86 | X-H torsion
[ 10167 10162 10161 10158 ] final -177.10 input  -65.29 | X-H torsion
[ 10718 10713 10712 10709 ] final  159.58 input   66.30 | X-H torsion
[ 10763 10752 10751 10750 ] final   70.04 input  -60.55 | X-H torsion
[ 11005 11000 10999 10996 ] final  119.70 input  -57.11 | X-H torsion

> <Gold.Protein.ActiveResidues>
 VAL166  LYS551  ARG553  GLY616  TRP617  ASP618  TYR619  PRO620  LYS621  CYS622 
 ASP623  PHE694  ASN695  SER759  ASP760  ASP761  ALA762  ILE779  LEU786  VAL792 
 PHE793  MET794  SER795  GLU796  ALA797  LYS798  CYS799  TRP800  GLU811  SER814 

> <Gold.Protein.RotatedAtoms>
  152.5325  134.2908  159.9041 H   0  0  0  0  0  0  0  0  0  0  0  0  # atno 6907 bound_to 6896
  151.2860  133.4181  159.2637 H   0  0  0  0  0  0  0  0  0  0  0  0  # atno 6908 bound_to 6896
  151.0242  134.9507  159.8133 H   0  0  0  0  0  0  0  0  0  0  0  0  # atno 6909 bound_to 6896
  145.9248  140.7801  142.9629 H   0  0  0  0  0  0  0  0  0  0  0  0  # atno 7974 bound_to 7965
  155.7075  140.0774  157.2385 H   0  0  0  0  0  0  0  0  0  0  0  0  # atno 8008 bound_to 7997
  154.4063  140.1636  156.2312 H   0  0  0  0  0  0  0  0  0  0  0  0  # atno 8009 bound_to 7997
  155.9313  140.3391  155.6254 H   0  0  0  0  0  0  0  0  0  0  0  0  # atno 8010 bound_to 7997
  139.5497  144.2142  152.1054 H   0  0  0  0  0  0  0  0  0  0  0  0  # atno 10167 bound_to 10162
  157.1622  131.0590  151.2226 H   0  0  0  0  0  0  0  0  0  0  0  0  # atno 10718 bound_to 10713
  153.0320  135.5188  154.7380 H   0  0  0  0  0  0  0  0  0  0  0  0  # atno 10763 bound_to 10752
  154.6388  135.2909  155.0131 H   0  0  0  0  0  0  0  0  0  0  0  0  # atno 10764 bound_to 10752
  154.1056  135.6630  153.4928 H   0  0  0  0  0  0  0  0  0  0  0  0  # atno 10765 bound_to 10752
  139.9156  134.9630  156.7695 H   0  0  0  0  0  0  0  0  0  0  0  0  # atno 11005 bound_to 11000
  144.6757  140.2033  143.7385 LP  0  0  0  0  0  0  0  0  0  0  0  0  # atno 17320 bound_to 7965
  145.8503  139.2172  143.1776 LP  0  0  0  0  0  0  0  0  0  0  0  0  # atno 17321 bound_to 7965
  140.1635  144.5003  150.6619 LP  0  0  0  0  0  0  0  0  0  0  0  0  # atno 17342 bound_to 10162
  140.6756  143.2303  151.5516 LP  0  0  0  0  0  0  0  0  0  0  0  0  # atno 17343 bound_to 10162
  157.4122  130.7391  149.6848 LP  0  0  0  0  0  0  0  0  0  0  0  0  # atno 17370 bound_to 10713
  155.9752  130.4092  150.3867 LP  0  0  0  0  0  0  0  0  0  0  0  0  # atno 17371 bound_to 10713
  140.6632  133.9626  155.7816 LP  0  0  0  0  0  0  0  0  0  0  0  0  # atno 17394 bound_to 11000
  141.0629  134.0320  157.3634 LP  0  0  0  0  0  0  0  0  0  0  0  0  # atno 17395 bound_to 11000

$$$$
