AV-unprocessed.smi:3331|AV-procd|sdf|12822|dock6
  -GOLD-   2272019193D 1   1.00000     0.00000
 Structure written by MMmdl.
 47 48  0  0  0  0  0  0  0  0  2 V2000
  149.1534  137.4505  158.3795 C   0  0  0  0  0  0  0  0  0  0  0  0
  149.5996  138.6248  157.4975 C   0  0  1  0  0  0  0  0  0  0  0  0
  150.9176  139.2493  158.0110 C   0  0  0  0  0  0  0  0  0  0  0  0
  151.4733  140.3439  157.0715 C   0  0  2  0  0  0  0  0  0  0  0  0
  150.7106  141.6738  157.2127 C   0  0  0  0  0  0  0  0  0  0  0  0
  151.5037  139.8207  155.6186 C   0  0  0  0  0  0  0  0  0  0  0  0
  150.1606  139.3680  155.2287 N   0  0  0  0  0  0  0  0  0  0  0  0
  149.3333  139.9739  154.3398 C   0  0  0  0  0  0  0  0  0  0  0  0
  149.6546  141.0072  153.7493 O   0  0  0  0  0  0  0  0  0  0  0  0
  147.9426  139.3738  154.0391 C   0  0  1  0  0  0  0  0  0  0  0  0
  146.8614  140.4595  154.1626 C   0  0  0  0  0  0  0  0  0  0  0  0
  147.8861  138.7709  152.6866 N   0  3  0  0  0  0  0  0  0  0  0  0
  146.5295  138.6614  152.1079 C   0  0  0  0  0  0  0  0  0  0  0  0
  145.6891  137.6258  152.8674 C   0  0  0  0  0  0  0  0  0  0  0  0
  145.7679  136.3151  152.2523 N   0  0  0  0  0  0  0  0  0  0  0  0
  145.4090  135.9442  150.9733 C   0  0  0  0  0  0  0  0  0  0  0  0
  145.6593  134.6071  150.8532 C   0  0  0  0  0  0  0  0  0  0  0  0
  146.1734  134.2431  152.1293 C   0  0  0  0  0  0  0  0  0  0  0  0
  146.2357  135.2675  152.9651 N   0  0  0  0  0  0  0  0  0  0  0  0
  149.7465  138.2018  156.0205 C   0  0  0  0  0  0  0  0  0  0  0  0
  149.8855  136.6425  158.3656 H   0  0  0  0  0  0  0  0  0  0  0  0
  148.2014  137.0430  158.0382 H   0  0  0  0  0  0  0  0  0  0  0  0
  149.0237  137.7654  159.4153 H   0  0  0  0  0  0  0  0  0  0  0  0
  148.8193  139.3851  157.5528 H   0  0  0  0  0  0  0  0  0  0  0  0
  150.7835  139.6462  159.0180 H   0  0  0  0  0  0  0  0  0  0  0  0
  151.6660  138.4602  158.0989 H   0  0  0  0  0  0  0  0  0  0  0  0
  152.5028  140.5425  157.3726 H   0  0  0  0  0  0  0  0  0  0  0  0
  149.6593  141.5742  156.9432 H   0  0  0  0  0  0  0  0  0  0  0  0
  151.1447  142.4429  156.5736 H   0  0  0  0  0  0  0  0  0  0  0  0
  150.7530  142.0407  158.2385 H   0  0  0  0  0  0  0  0  0  0  0  0
  151.9367  140.5626  154.9510 H   0  0  0  0  0  0  0  0  0  0  0  0
  152.1854  138.9707  155.5564 H   0  0  0  0  0  0  0  0  0  0  0  0
  147.7112  138.5687  154.7345 H   0  0  0  0  0  0  0  0  0  0  0  0
  146.8539  140.9082  155.1565 H   0  0  0  0  0  0  0  0  0  0  0  0
  145.8686  140.0440  153.9870 H   0  0  0  0  0  0  0  0  0  0  0  0
  147.0162  141.2618  153.4400 H   0  0  0  0  0  0  0  0  0  0  0  0
  148.4374  139.3448  152.0649 H   0  0  0  0  0  0  0  0  0  0  0  0
  146.0333  139.6320  152.1423 H   0  0  0  0  0  0  0  0  0  0  0  0
  146.6108  138.3802  151.0569 H   0  0  0  0  0  0  0  0  0  0  0  0
  146.0226  137.5442  153.9031 H   0  0  0  0  0  0  0  0  0  0  0  0
  144.6427  137.9331  152.8933 H   0  0  0  0  0  0  0  0  0  0  0  0
  145.0105  136.6531  150.2623 H   0  0  0  0  0  0  0  0  0  0  0  0
  145.4981  133.9835  149.9866 H   0  0  0  0  0  0  0  0  0  0  0  0
  146.5001  133.2717  152.4700 H   0  0  0  0  0  0  0  0  0  0  0  0
  150.4955  137.4140  155.9247 H   0  0  0  0  0  0  0  0  0  0  0  0
  148.8133  137.7610  155.6666 H   0  0  0  0  0  0  0  0  0  0  0  0
  148.3017  137.8511  152.7307 H   0  0  0  0  0  0  0  0  0  0  0  0
  1  2  1  0  0  0  0
  1 21  1  0  0  0  0
  1 22  1  0  0  0  0
  1 23  1  0  0  0  0
  2 20  1  0  0  0  0
  2  3  1  0  0  0  0
  2 24  1  0  0  0  0
  3  4  1  0  0  0  0
  3 25  1  0  0  0  0
  3 26  1  0  0  0  0
  4  5  1  0  0  0  0
  4  6  1  0  0  0  0
  4 27  1  0  0  0  0
  5 28  1  0  0  0  0
  5 29  1  0  0  0  0
  5 30  1  0  0  0  0
  6  7  1  0  0  0  0
  6 31  1  0  0  0  0
  6 32  1  0  0  0  0
  7  8  1  0  0  0  0
  7 20  1  0  0  0  0
  8  9  2  0  0  0  0
  8 10  1  0  0  0  0
 10 11  1  0  0  0  0
 10 12  1  0  0  0  0
 10 33  1  0  0  0  0
 11 34  1  0  0  0  0
 11 35  1  0  0  0  0
 11 36  1  0  0  0  0
 12 13  1  0  0  0  0
 12 37  1  0  0  0  0
 12 47  1  0  0  0  0
 13 14  1  0  0  0  0
 13 38  1  0  0  0  0
 13 39  1  0  0  0  0
 14 15  1  0  0  0  0
 14 40  1  0  0  0  0
 14 41  1  0  0  0  0
 15 19  1  0  0  0  0
 15 16  1  0  0  0  0
 16 17  2  0  0  0  0
 16 42  1  0  0  0  0
 17 18  1  0  0  0  0
 17 43  1  0  0  0  0
 18 19  2  0  0  0  0
 18 44  1  0  0  0  0
 20 45  1  0  0  0  0
 20 46  1  0  0  0  0
M  CHG  1  12   1
M  END
> <s_m_source_file>
AV-unprocessed.smi

> <i_m_source_file_index>
3331

> <i_lp_mmshare_version>
43012

> <i_f3d_flags>
0

> <s_epik_input>
W0NIM11bQ0BASF0xW0NIMl1bQ0BASF0oW0NIM10pW0NIMl1OKFtDSDJdMSlDKD1PKVtDQEhdKFtDSDNdKVtOSF1bQ0gyXVtDSDJdbjJbY0hdW2NIXVtjSF1uMg==

> <s_epik_cmdline>
J2VwaWtfcHl0aG9uJywgJy1waCcsICc3LjAnLCAnLXRuJywgJzgnLCAnLW1hJywgJzIwMCcsICctbWV0YWxfYmluZGluZycsICctaW1hZScsICc8aW5maWxlLm1hZT4nLCAnLW9tYWUnLCAnPG91dGZpbGUubWFlPic=

> <r_lp_tautomer_probability>
1

> <r_epik_Ionization_Penalty>
0.189706

> <r_epik_Ionization_Penalty_Charging>
0.189703

> <r_epik_Ionization_Penalty_Neutral>
2.45875e-06

> <r_epik_State_Penalty>
0.179341

> <r_epik_Charging_Adjusted_Penalty>
0.369044

> <i_epik_Tot_Q>
1

> <i_epik_Tot_abs_Q>
1

> <r_epik_Metal_State_Penalty>
0.179578

> <b_epik_Metal_Only>
0

> <s_lp_Force_Field>
OPLS_2005

> <r_lp_Energy>
28.0969

> <b_lp_Chiralities_Consistent>
1

> <s_lp_Variant>
AV-unprocessed.smi:3331-6

> <Gold.Version>
5.8.1

> <Gold.Id.Protein>
6NUR|6NUR_protein|mol2

> <Gold.PLP.Fitness>
47.8983

> <Gold.PLP.PLP>
-33.3411

> <Gold.PLP.part.hbond>
-4.0000

> <Gold.PLP.part.metal>
0.0000

> <Gold.PLP.part.buried>
-3.2907

> <Gold.PLP.part.nonpolar>
-28.7823

> <Gold.PLP.part.repulsive>
2.9385

> <Gold.PLP.ligand.clash>
0.0000

> <Gold.PLP.ligand.torsion>
0.7184

> <Gold.PLP.Chemscore.Hbond>
4.3120

> <Gold.PLP.Chemscore.CHOScore>
1.0000

> <Gold.PLP.Chemscore.Metal>
0.0000

> <Gold.Chemscore.Hbonds>
donor molecule, donor type, donor heavy atom, donor atom, acceptor molecule, acceptor atom, score
      L1  H    12    37       P1  7957  1.00
      L1  H    12    47       P1  7948  2.00
      P1  H  7989  7998       L1     9  0.35
      P1  H  8011  8017       L1     9  0.96
      L1  C    16    42       P1 10171  1.00

> <Gold.PLP.Chemscore.Internal.Correction>
0.0579

> <Gold.Rescore>
     Score         DG    S(hbond)    S(metal)    S(lipo)     H(rot)  DE(clash)    DE(int)     intcor
     17.71     -19.73       3.13        0.00      70.25       1.73       1.39       0.62       ----

> <Gold.Chemscore.Fitness>
17.7135

> <Gold.Chemscore.DG>
-19.7251

> <Gold.Chemscore.ZeroCoef>
-5.4800

> <Gold.Chemscore.Hbond>
3.1265

> <Gold.Chemscore.Metal>
0.0000

> <Gold.Chemscore.Lipo>
70.2532

> <Gold.Chemscore.Internal_Hbond>
0.0000

> <Gold.Chemscore.DEClash>
1.3914

> <Gold.Chemscore.DEInternal>
0.6202

> <Gold.Chemscore.Rot>
1.7254

> <Gold.Chemscore.Internal.Correction>
   9.000000E+99

> <Gold.Chemscore.Hbonds>
donor molecule, donor type, donor heavy atom, donor atom, acceptor molecule, acceptor atom, score
      L1  H    12    37       P1  7957  0.99
      L1  H    12    47       P1  7948  0.94
      P1  H  7989  7998       L1     9  0.21
      P1  H  8011  8017       L1     9  0.89

> <Gold.Chemscore.Hbond.Weighted>
-10.4425

> <Gold.Chemscore.Metal.Weighted>
-0.0000

> <Gold.Chemscore.Lipo.Weighted>
-8.2196

> <Gold.Chemscore.Internal_Hbond.Weighted>
0.0000

> <Gold.Chemscore.DEClash.Weighted>
1.3914

> <Gold.Chemscore.DEInternal.Weighted>
0.6202

> <Gold.Chemscore.Rot.Weighted>
4.4170

> <Gold.Chemscore.Internal.Correction.Weighted>
   9.000000E+99

> <Gold.Protein.RotatedTorsions>
[ 6907 6896 6895 6894 ] final   37.24 input  -60.11 | X-H torsion
[ 7974 7965 7964 7962 ] final -138.04 input  175.53 | X-H torsion
[ 8008 7997 7996 7995 ] final  -45.84 input   59.86 | X-H torsion
[ 10167 10162 10161 10158 ] final  163.28 input  -65.29 | X-H torsion
[ 10718 10713 10712 10709 ] final -154.63 input   66.30 | X-H torsion
[ 10763 10752 10751 10750 ] final  121.08 input  -60.55 | X-H torsion
[ 11005 11000 10999 10996 ] final -137.12 input  -57.11 | X-H torsion

> <Gold.Protein.ActiveResidues>
 VAL166  LYS551  ARG553  GLY616  TRP617  ASP618  TYR619  PRO620  LYS621  CYS622 
 ASP623  PHE694  ASN695  SER759  ASP760  ASP761  ALA762  ILE779  LEU786  VAL792 
 PHE793  MET794  SER795  GLU796  ALA797  LYS798  CYS799  TRP800  GLU811  SER814 

> <Gold.Protein.RotatedAtoms>
  152.1406  134.9065  160.0553 H   0  0  0  0  0  0  0  0  0  0  0  0  # atno 6907 bound_to 6896
  152.0135  133.3865  159.4237 H   0  0  0  0  0  0  0  0  0  0  0  0  # atno 6908 bound_to 6896
  150.6865  134.3626  159.5001 H   0  0  0  0  0  0  0  0  0  0  0  0  # atno 6909 bound_to 6896
  144.8792  140.6482  143.5217 H   0  0  0  0  0  0  0  0  0  0  0  0  # atno 7974 bound_to 7965
  154.4003  140.1386  156.3913 H   0  0  0  0  0  0  0  0  0  0  0  0  # atno 8008 bound_to 7997
  155.7912  140.3479  155.5330 H   0  0  0  0  0  0  0  0  0  0  0  0  # atno 8009 bound_to 7997
  155.8577  140.0951  157.1624 H   0  0  0  0  0  0  0  0  0  0  0  0  # atno 8010 bound_to 7997
  139.4872  144.4352  151.9020 H   0  0  0  0  0  0  0  0  0  0  0  0  # atno 10167 bound_to 10162
  156.5018  130.8395  151.2612 H   0  0  0  0  0  0  0  0  0  0  0  0  # atno 10718 bound_to 10713
  153.6085  135.3435  155.2970 H   0  0  0  0  0  0  0  0  0  0  0  0  # atno 10763 bound_to 10752
  154.8623  135.4244  154.2335 H   0  0  0  0  0  0  0  0  0  0  0  0  # atno 10764 bound_to 10752
  153.3180  135.7036  153.7127 H   0  0  0  0  0  0  0  0  0  0  0  0  # atno 10765 bound_to 10752
  140.8741  134.2014  157.4632 H   0  0  0  0  0  0  0  0  0  0  0  0  # atno 11005 bound_to 11000
  145.3986  139.1602  143.4190 LP  0  0  0  0  0  0  0  0  0  0  0  0  # atno 17320 bound_to 7965
  146.2983  140.4081  142.8713 LP  0  0  0  0  0  0  0  0  0  0  0  0  # atno 17321 bound_to 7965
  140.3802  144.2746  150.5909 LP  0  0  0  0  0  0  0  0  0  0  0  0  # atno 17342 bound_to 10162
  140.5240  143.2259  151.8343 LP  0  0  0  0  0  0  0  0  0  0  0  0  # atno 17343 bound_to 10162
  157.7462  130.9979  150.2832 LP  0  0  0  0  0  0  0  0  0  0  0  0  # atno 17370 bound_to 10713
  156.3325  130.3802  149.7479 LP  0  0  0  0  0  0  0  0  0  0  0  0  # atno 17371 bound_to 10713
  139.8714  134.9788  156.5010 LP  0  0  0  0  0  0  0  0  0  0  0  0  # atno 17394 bound_to 11000
  140.8538  133.8111  155.9196 LP  0  0  0  0  0  0  0  0  0  0  0  0  # atno 17395 bound_to 11000

$$$$
