AV-unprocessed.smi:136|AV-procd|sdf|1174|dock8
  -GOLD-   2262018323D 1   1.00000     0.00000
 Structure written by MMmdl.
 54 58  0  0  0  0  0  0  0  0  1 V2000
  151.1266  138.7693  154.7802 O   0  0  0  0  0  0  0  0  0  0  0  0
  151.3606  138.9467  155.9772 C   0  0  0  0  0  0  0  0  0  0  0  0
  151.8203  137.7627  156.8542 C   0  0  0  0  0  0  0  0  0  0  0  0
  150.7200  136.8566  157.2503 N   0  0  0  0  0  0  0  0  0  0  0  0
  150.5652  135.6286  156.5603 C   0  0  0  0  0  0  0  0  0  0  0  0
  151.3307  135.3057  155.6508 O   0  0  0  0  0  0  0  0  0  0  0  0
  149.4466  134.7992  156.9944 C   0  0  0  0  0  0  0  0  0  0  0  0
  149.2199  133.6192  156.3926 F   0  0  0  0  0  0  0  0  0  0  0  0
  148.6305  135.1997  157.9909 C   0  0  0  0  0  0  0  0  0  0  0  0
  148.7951  136.4005  158.6566 N   0  0  0  0  0  0  0  0  0  0  0  0
  147.8494  136.8255  159.7576 C   0  0  1  0  0  0  0  0  0  0  0  0
  146.6785  135.8415  159.8586 C   0  0  0  0  0  0  0  0  0  0  0  0
  147.1593  134.8956  160.9376 C   0  0  0  0  0  0  0  0  0  0  0  0
  147.9331  135.8407  161.8497 C   0  0  0  0  0  0  0  0  0  0  0  0
  148.5296  136.7993  160.9798 O   0  0  0  0  0  0  0  0  0  0  0  0
  149.8444  137.2679  158.2836 C   0  0  0  0  0  0  0  0  0  0  0  0
  149.9859  138.3607  158.8372 O   0  0  0  0  0  0  0  0  0  0  0  0
  151.2374  140.1615  156.5576 N   0  0  0  0  0  0  0  0  0  0  0  0
  151.6301  140.4144  157.8314 N   0  0  0  0  0  0  0  0  0  0  0  0
  151.5585  141.6719  158.0668 C   0  0  0  0  0  0  0  0  0  0  0  0
  151.9197  142.3040  159.3551 C   0  0  0  0  0  0  0  0  0  0  0  0
  151.5472  143.6457  159.5985 C   0  0  0  0  0  0  0  0  0  0  0  0
  151.8901  144.2486  160.8244 C   0  0  0  0  0  0  0  0  0  0  0  0
  152.5986  143.5178  161.7992 C   0  0  0  0  0  0  0  0  0  0  0  0
  153.0166  144.2626  163.2983 Cl  0  0  0  0  0  0  0  0  0  0  0  0
  152.9663  142.1799  161.5520 C   0  0  0  0  0  0  0  0  0  0  0  0
  152.6295  141.5663  160.3295 C   0  0  0  0  0  0  0  0  0  0  0  0
  151.0711  142.4742  156.9078 C   0  0  0  0  0  0  0  0  0  0  0  0
  150.8108  141.3845  155.8644 C   0  0  2  0  0  0  0  0  0  0  0  0
  149.3833  141.3586  155.3959 C   0  0  0  0  0  0  0  0  0  0  0  0
  148.1732  141.1854  156.0137 C   0  0  0  0  0  0  0  0  0  0  0  0
  147.1830  141.2826  154.9980 C   0  0  0  0  0  0  0  0  0  0  0  0
  147.8597  141.5127  153.8346 C   0  0  0  0  0  0  0  0  0  0  0  0
  149.2003  141.5640  154.0606 O   0  0  0  0  0  0  0  0  0  0  0  0
  152.6028  137.2206  156.3212 H   0  0  0  0  0  0  0  0  0  0  0  0
  152.3227  138.1511  157.7416 H   0  0  0  0  0  0  0  0  0  0  0  0
  147.8147  134.5476  158.2656 H   0  0  0  0  0  0  0  0  0  0  0  0
  147.5505  137.8495  159.5275 H   0  0  0  0  0  0  0  0  0  0  0  0
  145.7947  136.3858  160.1936 H   0  0  0  0  0  0  0  0  0  0  0  0
  146.4561  135.3575  158.9066 H   0  0  0  0  0  0  0  0  0  0  0  0
  146.3468  134.3791  161.4491 H   0  0  0  0  0  0  0  0  0  0  0  0
  147.8277  134.1457  160.5127 H   0  0  0  0  0  0  0  0  0  0  0  0
  147.2506  136.3587  162.5248 H   0  0  0  0  0  0  0  0  0  0  0  0
  148.6817  135.3262  162.4522 H   0  0  0  0  0  0  0  0  0  0  0  0
  151.0038  144.2227  158.8641 H   0  0  0  0  0  0  0  0  0  0  0  0
  151.6083  145.2737  161.0156 H   0  0  0  0  0  0  0  0  0  0  0  0
  153.5082  141.6215  162.3012 H   0  0  0  0  0  0  0  0  0  0  0  0
  152.9228  140.5402  160.1644 H   0  0  0  0  0  0  0  0  0  0  0  0
  150.1654  143.0254  157.1652 H   0  0  0  0  0  0  0  0  0  0  0  0
  151.8287  143.1819  156.5690 H   0  0  0  0  0  0  0  0  0  0  0  0
  151.4669  141.5431  155.0066 H   0  0  0  0  0  0  0  0  0  0  0  0
  148.0199  141.0084  157.0682 H   0  0  0  0  0  0  0  0  0  0  0  0
  146.1118  141.1964  155.1049 H   0  0  0  0  0  0  0  0  0  0  0  0
  147.5586  141.6579  152.8076 H   0  0  0  0  0  0  0  0  0  0  0  0
  1  2  2  0  0  0  0
  2  3  1  0  0  0  0
  2 18  1  0  0  0  0
  3  4  1  0  0  0  0
  3 35  1  0  0  0  0
  3 36  1  0  0  0  0
  4 16  1  0  0  0  0
  4  5  1  0  0  0  0
  5  6  2  0  0  0  0
  5  7  1  0  0  0  0
  7  8  1  0  0  0  0
  7  9  2  0  0  0  0
  9 10  1  0  0  0  0
  9 37  1  0  0  0  0
 10 11  1  0  0  0  0
 10 16  1  0  0  0  0
 11 15  1  0  0  0  0
 11 12  1  0  0  0  0
 11 38  1  0  0  0  0
 12 13  1  0  0  0  0
 12 39  1  0  0  0  0
 12 40  1  0  0  0  0
 13 14  1  0  0  0  0
 13 41  1  0  0  0  0
 13 42  1  0  0  0  0
 14 15  1  0  0  0  0
 14 43  1  0  0  0  0
 14 44  1  0  0  0  0
 16 17  2  0  0  0  0
 18 29  1  0  0  0  0
 18 19  1  0  0  0  0
 19 20  2  0  0  0  0
 20 21  1  0  0  0  0
 20 28  1  0  0  0  0
 21 27  1  0  0  0  0
 21 22  2  0  0  0  0
 22 23  1  0  0  0  0
 22 45  1  0  0  0  0
 23 24  2  0  0  0  0
 23 46  1  0  0  0  0
 24 25  1  0  0  0  0
 24 26  1  0  0  0  0
 26 27  2  0  0  0  0
 26 47  1  0  0  0  0
 27 48  1  0  0  0  0
 28 29  1  0  0  0  0
 28 49  1  0  0  0  0
 28 50  1  0  0  0  0
 29 30  1  0  0  0  0
 29 51  1  0  0  0  0
 30 34  1  0  0  0  0
 30 31  2  0  0  0  0
 31 32  1  0  0  0  0
 31 52  1  0  0  0  0
 32 33  2  0  0  0  0
 32 53  1  0  0  0  0
 33 34  1  0  0  0  0
 33 54  1  0  0  0  0
M  END
> <s_m_source_file>
AV-unprocessed.smi

> <i_m_source_file_index>
136

> <i_lp_mmshare_version>
43012

> <i_f3d_flags>
0

> <s_epik_input>
bzFbY0hdW2NIXVtjSF1jMVtDQEBIXTJbQ0gyXUMoYzNbY0hdW2NIXWMoQ2wpW2NIXVtjSF0zKT1OTjJDKD1PKVtDSDJdbjRjKD1PKWMoRilbY0hdbihjND1PKVtDQEBIXTVbQ0gyXVtDSDJdW0NIMl1PNQ==

> <s_epik_cmdline>
J2VwaWtfcHl0aG9uJywgJy1waCcsICc3LjAnLCAnLXRuJywgJzgnLCAnLW1hJywgJzIwMCcsICctbWV0YWxfYmluZGluZycsICctaW1hZScsICc8aW5maWxlLm1hZT4nLCAnLW9tYWUnLCAnPG91dGZpbGUubWFlPic=

> <r_lp_tautomer_probability>
1

> <r_epik_Ionization_Penalty>
2.55467e-08

> <r_epik_Ionization_Penalty_Charging>
4.85705e-09

> <r_epik_Ionization_Penalty_Neutral>
2.06897e-08

> <r_epik_State_Penalty>
-0

> <r_epik_Charging_Adjusted_Penalty>
4.85705e-09

> <i_epik_Tot_Q>
0

> <i_epik_Tot_abs_Q>
0

> <r_epik_Metal_State_Penalty>
-0

> <b_epik_Metal_Only>
0

> <s_epik_Chemistry_Notes>
This compound has an imine and may undergo hydrolysis. This compound contains an acetal/aminal-like group ( X-CH(R)-Y where X, Y are N, S, or O) that may be acid/base labile, releasing an aldehyde.

> <s_lp_Force_Field>
OPLS_2005

> <r_lp_Energy>
39.5424

> <b_lp_Chiralities_Consistent>
1

> <s_lp_Variant>
AV-unprocessed.smi:136-4

> <Gold.Version>
5.8.1

> <Gold.Id.Protein>
6NUR|6NUR_protein|mol2

> <Gold.PLP.Fitness>
66.1946

> <Gold.PLP.PLP>
-59.7320

> <Gold.PLP.part.hbond>
-4.5800

> <Gold.PLP.part.metal>
0.0000

> <Gold.PLP.part.buried>
-10.3033

> <Gold.PLP.part.nonpolar>
-45.9257

> <Gold.PLP.part.repulsive>
0.3504

> <Gold.PLP.ligand.clash>
0.0000

> <Gold.PLP.ligand.torsion>
0.7123

> <Gold.PLP.Chemscore.Hbond>
2.6080

> <Gold.PLP.Chemscore.CHOScore>
0.0000

> <Gold.PLP.Chemscore.Metal>
0.0000

> <Gold.Chemscore.Hbonds>
donor molecule, donor type, donor heavy atom, donor atom, acceptor molecule, acceptor atom, score
      P1  H  6931  6943       L1    15  1.00
      P1  H  8011  8017       L1    34  0.64
      P1  H 10752 10763       L1     6  1.00

> <Gold.PLP.Chemscore.Internal.Correction>
0.0633

> <Gold.Rescore>
     Score         DG    S(hbond)    S(metal)    S(lipo)     H(rot)  DE(clash)    DE(int)     intcor
     21.61     -25.52       2.03        0.00     152.94       1.81       1.07       2.84       ----

> <Gold.Chemscore.Fitness>
21.6077

> <Gold.Chemscore.DG>
-25.5166

> <Gold.Chemscore.ZeroCoef>
-5.4800

> <Gold.Chemscore.Hbond>
2.0256

> <Gold.Chemscore.Metal>
0.0000

> <Gold.Chemscore.Lipo>
152.9365

> <Gold.Chemscore.Internal_Hbond>
0.0000

> <Gold.Chemscore.DEClash>
1.0701

> <Gold.Chemscore.DEInternal>
2.8387

> <Gold.Chemscore.Rot>
1.8056

> <Gold.Chemscore.Internal.Correction>
   9.000000E+99

> <Gold.Chemscore.Hbonds>
donor molecule, donor type, donor heavy atom, donor atom, acceptor molecule, acceptor atom, score
      P1  H  6931  6943       L1    15  0.77
      P1  H  7989  7998       L1     1  0.01
      P1  H  8011  8017       L1    34  0.16
      P1  H 10752 10763       L1     6  0.97

> <Gold.Chemscore.Hbond.Weighted>
-6.7653

> <Gold.Chemscore.Metal.Weighted>
-0.0000

> <Gold.Chemscore.Lipo.Weighted>
-17.8936

> <Gold.Chemscore.Internal_Hbond.Weighted>
0.0000

> <Gold.Chemscore.DEClash.Weighted>
1.0701

> <Gold.Chemscore.DEInternal.Weighted>
2.8387

> <Gold.Chemscore.Rot.Weighted>
4.6223

> <Gold.Chemscore.Internal.Correction.Weighted>
   9.000000E+99

> <Gold.Protein.RotatedTorsions>
[ 6907 6896 6895 6894 ] final   87.01 input  -60.11 | X-H torsion
[ 7974 7965 7964 7962 ] final  164.70 input  175.53 | X-H torsion
[ 8008 7997 7996 7995 ] final   87.82 input   59.86 | X-H torsion
[ 10167 10162 10161 10158 ] final   59.15 input  -65.29 | X-H torsion
[ 10718 10713 10712 10709 ] final  132.37 input   66.30 | X-H torsion
[ 10763 10752 10751 10750 ] final   81.97 input  -60.55 | X-H torsion
[ 11005 11000 10999 10996 ] final -165.52 input  -57.11 | X-H torsion

> <Gold.Protein.ActiveResidues>
 VAL166  LYS551  ARG553  GLY616  TRP617  ASP618  TYR619  PRO620  LYS621  CYS622 
 ASP623  PHE694  ASN695  SER759  ASP760  ASP761  ALA762  ILE779  LEU786  VAL792 
 PHE793  MET794  SER795  GLU796  ALA797  LYS798  CYS799  TRP800  GLU811  SER814 

> <Gold.Protein.RotatedAtoms>
  152.5404  134.2343  159.8836 H   0  0  0  0  0  0  0  0  0  0  0  0  # atno 6907 bound_to 6896
  151.2313  133.4442  159.2611 H   0  0  0  0  0  0  0  0  0  0  0  0  # atno 6908 bound_to 6896
  151.0713  134.9813  159.8366 H   0  0  0  0  0  0  0  0  0  0  0  0  # atno 6909 bound_to 6896
  144.7533  139.8364  143.6358 H   0  0  0  0  0  0  0  0  0  0  0  0  # atno 7974 bound_to 7965
  155.9801  140.3378  155.6655 H   0  0  0  0  0  0  0  0  0  0  0  0  # atno 8008 bound_to 7997
  155.6560  140.0711  157.2588 H   0  0  0  0  0  0  0  0  0  0  0  0  # atno 8009 bound_to 7997
  154.4189  140.1717  156.1713 H   0  0  0  0  0  0  0  0  0  0  0  0  # atno 8010 bound_to 7997
  140.1795  144.4196  150.6622 H   0  0  0  0  0  0  0  0  0  0  0  0  # atno 10167 bound_to 10162
  157.4877  131.1089  150.9598 H   0  0  0  0  0  0  0  0  0  0  0  0  # atno 10718 bound_to 10713
  153.1163  135.4745  154.9120 H   0  0  0  0  0  0  0  0  0  0  0  0  # atno 10763 bound_to 10752
  154.7531  135.3111  154.8523 H   0  0  0  0  0  0  0  0  0  0  0  0  # atno 10764 bound_to 10752
  153.9099  135.6866  153.4805 H   0  0  0  0  0  0  0  0  0  0  0  0  # atno 10765 bound_to 10752
  140.5748  134.5201  157.5168 H   0  0  0  0  0  0  0  0  0  0  0  0  # atno 11005 bound_to 11000
  146.1513  139.4597  143.0047 LP  0  0  0  0  0  0  0  0  0  0  0  0  # atno 17320 bound_to 7965
  145.6865  141.0176  143.1578 LP  0  0  0  0  0  0  0  0  0  0  0  0  # atno 17321 bound_to 7965
  140.6529  143.2230  151.6035 LP  0  0  0  0  0  0  0  0  0  0  0  0  # atno 17342 bound_to 10162
  139.5302  144.2938  152.1130 LP  0  0  0  0  0  0  0  0  0  0  0  0  # atno 17343 bound_to 10162
  157.0310  130.5711  149.5343 LP  0  0  0  0  0  0  0  0  0  0  0  0  # atno 17370 bound_to 10713
  156.0156  130.5250  150.8124 LP  0  0  0  0  0  0  0  0  0  0  0  0  # atno 17371 bound_to 10713
  139.9345  134.7902  156.0841 LP  0  0  0  0  0  0  0  0  0  0  0  0  # atno 17394 bound_to 11000
  141.1033  133.6669  156.2806 LP  0  0  0  0  0  0  0  0  0  0  0  0  # atno 17395 bound_to 11000

$$$$
