AV-unprocessed.smi:1702|AV-procd|sdf|6852|dock8
  -GOLD-   22720 8 33D 1   1.00000     0.00000
 Structure written by MMmdl.
 45 47  0  0  0  0  0  0  0  0  3 V2000
  148.9787  141.4707  154.7830 C   0  0  0  0  0  0  0  0  0  0  0  0
  147.5936  141.7764  154.1854 C   0  0  2  0  0  0  0  0  0  0  0  0
  146.4515  141.5887  155.2004 C   0  0  0  0  0  0  0  0  0  0  0  0
  146.1584  140.1035  155.4800 C   0  0  0  0  0  0  0  0  0  0  0  0
  145.8651  139.3670  154.2217 N   0  3  2  0  0  0  0  0  0  0  0  0
  145.4518  137.9574  154.4475 C   0  0  0  0  0  0  0  0  0  0  0  0
  144.7753  137.3327  153.2109 C   0  0  1  0  0  0  0  0  0  0  0  0
  144.2969  138.3716  152.3777 O   0  0  0  0  0  0  0  0  0  0  0  0
  145.7523  136.4507  152.4081 C   0  0  0  0  0  0  0  0  0  0  0  0
  145.0747  135.3899  151.6497 N   0  0  0  0  0  0  0  0  0  0  0  0
  144.0511  135.4688  150.7555 C   0  0  0  0  0  0  0  0  0  0  0  0
  143.7809  134.2047  150.3268 N   0  3  0  0  0  0  0  0  0  0  0  0
  144.6441  133.3043  150.9553 C   0  0  0  0  0  0  0  0  0  0  0  0
  144.7564  131.9218  150.8480 C   0  0  0  0  0  0  0  0  0  0  0  0
  145.7496  131.3022  151.6349 C   0  0  0  0  0  0  0  0  0  0  0  0
  145.9006  129.9583  151.5700 F   0  0  0  0  0  0  0  0  0  0  0  0
  146.5861  132.0545  152.4867 C   0  0  0  0  0  0  0  0  0  0  0  0
  147.5273  131.4205  153.2252 F   0  0  0  0  0  0  0  0  0  0  0  0
  146.4631  133.4563  152.5867 C   0  0  0  0  0  0  0  0  0  0  0  0
  145.4782  134.0595  151.8062 C   0  0  0  0  0  0  0  0  0  0  0  0
  146.9831  139.4780  153.2495 C   0  0  0  0  0  0  0  0  0  0  0  0
  147.2944  140.9495  152.9220 C   0  0  0  0  0  0  0  0  0  0  0  0
  149.0695  140.4339  155.1058 H   0  0  0  0  0  0  0  0  0  0  0  0
  149.1785  142.1032  155.6484 H   0  0  0  0  0  0  0  0  0  0  0  0
  149.7676  141.6580  154.0540 H   0  0  0  0  0  0  0  0  0  0  0  0
  147.6081  142.8280  153.8954 H   0  0  0  0  0  0  0  0  0  0  0  0
  146.6841  142.1075  156.1312 H   0  0  0  0  0  0  0  0  0  0  0  0
  145.5472  142.0592  154.8113 H   0  0  0  0  0  0  0  0  0  0  0  0
  147.0037  139.6388  155.9890 H   0  0  0  0  0  0  0  0  0  0  0  0
  145.3122  140.0377  156.1628 H   0  0  0  0  0  0  0  0  0  0  0  0
  146.3223  137.3519  154.7058 H   0  0  0  0  0  0  0  0  0  0  0  0
  144.7878  137.9127  155.3121 H   0  0  0  0  0  0  0  0  0  0  0  0
  143.9238  136.7237  153.5122 H   0  0  0  0  0  0  0  0  0  0  0  0
  144.2971  138.0674  151.4825 H   0  0  0  0  0  0  0  0  0  0  0  0
  146.3118  137.0564  151.6937 H   0  0  0  0  0  0  0  0  0  0  0  0
  146.4911  135.9881  153.0637 H   0  0  0  0  0  0  0  0  0  0  0  0
  143.5427  136.3701  150.4436 H   0  0  0  0  0  0  0  0  0  0  0  0
  144.1185  131.3419  150.1972 H   0  0  0  0  0  0  0  0  0  0  0  0
  147.1093  134.0214  153.2414 H   0  0  0  0  0  0  0  0  0  0  0  0
  147.8666  138.9767  153.6469 H   0  0  0  0  0  0  0  0  0  0  0  0
  146.7182  138.9615  152.3262 H   0  0  0  0  0  0  0  0  0  0  0  0
  146.4376  141.3847  152.4055 H   0  0  0  0  0  0  0  0  0  0  0  0
  148.1295  141.0102  152.2233 H   0  0  0  0  0  0  0  0  0  0  0  0
  145.0749  139.8250  153.7895 H   0  0  0  0  0  0  0  0  0  0  0  0
  143.0593  133.9764  149.6545 H   0  0  0  0  0  0  0  0  0  0  0  0
  1  2  1  0  0  0  0
  1 23  1  0  0  0  0
  1 24  1  0  0  0  0
  1 25  1  0  0  0  0
  2 22  1  0  0  0  0
  2  3  1  0  0  0  0
  2 26  1  0  0  0  0
  3  4  1  0  0  0  0
  3 27  1  0  0  0  0
  3 28  1  0  0  0  0
  4  5  1  0  0  0  0
  4 29  1  0  0  0  0
  4 30  1  0  0  0  0
  5  6  1  0  0  0  0
  5 21  1  0  0  0  0
  5 44  1  0  0  0  0
  6  7  1  0  0  0  0
  6 31  1  0  0  0  0
  6 32  1  0  0  0  0
  7  8  1  0  0  0  0
  7  9  1  0  0  0  0
  7 33  1  0  0  0  0
  8 34  1  0  0  0  0
  9 10  1  0  0  0  0
  9 35  1  0  0  0  0
  9 36  1  0  0  0  0
 10 20  1  0  0  0  0
 10 11  1  0  0  0  0
 11 12  2  0  0  0  0
 11 37  1  0  0  0  0
 12 13  1  0  0  0  0
 12 45  1  0  0  0  0
 13 20  2  0  0  0  0
 13 14  1  0  0  0  0
 14 15  2  0  0  0  0
 14 38  1  0  0  0  0
 15 16  1  0  0  0  0
 15 17  1  0  0  0  0
 17 18  1  0  0  0  0
 17 19  2  0  0  0  0
 19 20  1  0  0  0  0
 19 39  1  0  0  0  0
 21 22  1  0  0  0  0
 21 40  1  0  0  0  0
 21 41  1  0  0  0  0
 22 42  1  0  0  0  0
 22 43  1  0  0  0  0
M  CHG  1   5   1
M  CHG  1  12   1
M  END
> <s_m_source_file>
AV-unprocessed.smi

> <i_m_source_file_index>
1702

> <i_lp_mmshare_version>
43012

> <i_f3d_flags>
0

> <s_epik_input>
W0NIM11bQ0hdMVtDSDJdW0NIMl1OKFtDSDJdW0NIMl0xKVtDSDJdW0NASF0oW09IXSlbQ0gyXW4oW2NIXW4yKWMoYzIzKVtjSF1jKEYpYyhGKVtjSF0z

> <s_epik_cmdline>
J2VwaWtfcHl0aG9uJywgJy1waCcsICc3LjAnLCAnLXRuJywgJzgnLCAnLW1hJywgJzIwMCcsICctbWV0YWxfYmluZGluZycsICctaW1hZScsICc8aW5maWxlLm1hZT4nLCAnLW9tYWUnLCAnPG91dGZpbGUubWFlPic=

> <r_epik_Ionization_Penalty>
2.33291

> <r_epik_Ionization_Penalty_Charging>
2.33291

> <r_epik_Ionization_Penalty_Neutral>
6.90208e-07

> <r_epik_State_Penalty>
2.4838

> <r_epik_Charging_Adjusted_Penalty>
4.81672

> <i_epik_Tot_Q>
2

> <i_epik_Tot_abs_Q>
2

> <r_epik_Metal_State_Penalty>
6.56754

> <b_epik_Metal_Only>
0

> <s_lp_Force_Field>
OPLS_2005

> <r_lp_Energy>
31.9784

> <b_lp_Chiralities_Consistent>
1

> <s_lp_Variant>
AV-unprocessed.smi:1702-8

> <Gold.Version>
5.8.1

> <Gold.Id.Protein>
6NUR|6NUR_protein|mol2

> <Gold.PLP.Fitness>
52.6879

> <Gold.PLP.PLP>
-38.4302

> <Gold.PLP.part.hbond>
-2.4419

> <Gold.PLP.part.metal>
0.0000

> <Gold.PLP.part.buried>
-5.2005

> <Gold.PLP.part.nonpolar>
-31.0363

> <Gold.PLP.part.repulsive>
0.0098

> <Gold.PLP.ligand.clash>
0.0000

> <Gold.PLP.ligand.torsion>
0.9855

> <Gold.PLP.Chemscore.Hbond>
4.4000

> <Gold.PLP.Chemscore.CHOScore>
1.0000

> <Gold.PLP.Chemscore.Metal>
0.0000

> <Gold.Chemscore.Hbonds>
donor molecule, donor type, donor heavy atom, donor atom, acceptor molecule, acceptor atom, score
      L1  H     5    44       P1 10175  2.00
      L1  H     8    34       P1 10171  0.82
      L1  H    12    45       P1 10186  1.09
      L1  C    11    37       P1 10171  1.00

> <Gold.PLP.Chemscore.Internal.Correction>
0.0288

> <Gold.Rescore>
     Score         DG    S(hbond)    S(metal)    S(lipo)     H(rot)  DE(clash)    DE(int)     intcor
     16.41     -17.53       2.60        0.00      79.53       2.32       0.12       0.99       ----

> <Gold.Chemscore.Fitness>
16.4140

> <Gold.Chemscore.DG>
-17.5277

> <Gold.Chemscore.ZeroCoef>
-5.4800

> <Gold.Chemscore.Hbond>
2.6000

> <Gold.Chemscore.Metal>
0.0000

> <Gold.Chemscore.Lipo>
79.5318

> <Gold.Chemscore.Internal_Hbond>
0.0000

> <Gold.Chemscore.DEClash>
0.1232

> <Gold.Chemscore.DEInternal>
0.9905

> <Gold.Chemscore.Rot>
2.3210

> <Gold.Chemscore.Internal.Correction>
   9.000000E+99

> <Gold.Chemscore.Hbonds>
donor molecule, donor type, donor heavy atom, donor atom, acceptor molecule, acceptor atom, score
      L1  H     5    44       P1 10175  0.94
      L1  H     8    34       P1 10171  0.81
      L1  H    12    45       P1 10186  0.53

> <Gold.Chemscore.Hbond.Weighted>
-8.6841

> <Gold.Chemscore.Metal.Weighted>
-0.0000

> <Gold.Chemscore.Lipo.Weighted>
-9.3052

> <Gold.Chemscore.Internal_Hbond.Weighted>
0.0000

> <Gold.Chemscore.DEClash.Weighted>
0.1232

> <Gold.Chemscore.DEInternal.Weighted>
0.9905

> <Gold.Chemscore.Rot.Weighted>
5.9416

> <Gold.Chemscore.Internal.Correction.Weighted>
   9.000000E+99

> <Gold.Protein.RotatedTorsions>
[ 6907 6896 6895 6894 ] final  -57.70 input  -60.11 | X-H torsion
[ 7974 7965 7964 7962 ] final  110.78 input  175.53 | X-H torsion
[ 8008 7997 7996 7995 ] final   32.99 input   59.86 | X-H torsion
[ 10167 10162 10161 10158 ] final   79.43 input  -65.29 | X-H torsion
[ 10718 10713 10712 10709 ] final   -9.84 input   66.30 | X-H torsion
[ 10763 10752 10751 10750 ] final -177.05 input  -60.55 | X-H torsion
[ 11005 11000 10999 10996 ] final  -59.87 input  -57.11 | X-H torsion

> <Gold.Protein.ActiveResidues>
 VAL166  LYS551  ARG553  GLY616  TRP617  ASP618  TYR619  PRO620  LYS621  CYS622 
 ASP623  PHE694  ASN695  SER759  ASP760  ASP761  ALA762  ILE779  LEU786  VAL792 
 PHE793  MET794  SER795  GLU796  ALA797  LYS798  CYS799  TRP800  GLU811  SER814 

> <Gold.Protein.RotatedAtoms>
  150.8065  134.7193  159.6648 H   0  0  0  0  0  0  0  0  0  0  0  0  # atno 6907 bound_to 6896
  152.4184  134.5996  160.0006 H   0  0  0  0  0  0  0  0  0  0  0  0  # atno 6908 bound_to 6896
  151.6219  133.3301  159.3126 H   0  0  0  0  0  0  0  0  0  0  0  0  # atno 6909 bound_to 6896
  145.2505  139.2741  143.4070 H   0  0  0  0  0  0  0  0  0  0  0  0  # atno 7974 bound_to 7965
  155.1315  140.3257  155.4473 H   0  0  0  0  0  0  0  0  0  0  0  0  # atno 8008 bound_to 7997
  156.2633  140.2009  156.6382 H   0  0  0  0  0  0  0  0  0  0  0  0  # atno 8009 bound_to 7997
  154.6609  140.0547  157.0048 H   0  0  0  0  0  0  0  0  0  0  0  0  # atno 8010 bound_to 7997
  139.9604  144.5965  150.8077 H   0  0  0  0  0  0  0  0  0  0  0  0  # atno 10167 bound_to 10162
  156.6822  130.5040  149.5968 H   0  0  0  0  0  0  0  0  0  0  0  0  # atno 10718 bound_to 10713
  154.5649  135.2823  155.0884 H   0  0  0  0  0  0  0  0  0  0  0  0  # atno 10763 bound_to 10752
  154.2279  135.6379  153.5169 H   0  0  0  0  0  0  0  0  0  0  0  0  # atno 10764 bound_to 10752
  153.0040  135.5530  154.6254 H   0  0  0  0  0  0  0  0  0  0  0  0  # atno 10765 bound_to 10752
  141.1265  133.6618  156.5137 H   0  0  0  0  0  0  0  0  0  0  0  0  # atno 11005 bound_to 11000
  146.3304  140.2895  142.8614 LP  0  0  0  0  0  0  0  0  0  0  0  0  # atno 17320 bound_to 7965
  144.9507  140.8175  143.5574 LP  0  0  0  0  0  0  0  0  0  0  0  0  # atno 17321 bound_to 7965
  140.7555  143.3047  151.2991 LP  0  0  0  0  0  0  0  0  0  0  0  0  # atno 17342 bound_to 10162
  139.6558  144.0278  152.2659 LP  0  0  0  0  0  0  0  0  0  0  0  0  # atno 17343 bound_to 10162
  156.1859  130.6529  151.1006 LP  0  0  0  0  0  0  0  0  0  0  0  0  # atno 17370 bound_to 10713
  157.7039  131.0764  150.6730 LP  0  0  0  0  0  0  0  0  0  0  0  0  # atno 17371 bound_to 10713
  140.4348  134.7069  157.4961 LP  0  0  0  0  0  0  0  0  0  0  0  0  # atno 17394 bound_to 11000
  140.0269  134.6463  155.9160 LP  0  0  0  0  0  0  0  0  0  0  0  0  # atno 17395 bound_to 11000

$$$$
