AV-unprocessed.smi:685|AV-procd|sdf|3335|dock3
  -GOLD-   22720 0303D 1   1.00000     0.00000
 Structure written by MMmdl.
 51 52  0  0  0  0  0  0  0  0  2 V2000
  155.2323  134.7637  161.5201 C   0  0  0  0  0  0  0  0  0  0  0  0
  155.3859  135.4758  162.8223 C   0  0  0  0  0  0  0  0  0  0  0  0
  155.5036  134.8566  164.0272 N   0  3  0  0  0  0  0  0  0  0  0  0
  155.6240  135.7655  165.0058 N   0  0  0  0  0  0  0  0  0  0  0  0
  155.7631  135.3055  166.3878 C   0  0  0  0  0  0  0  0  0  0  0  0
  155.5956  137.0254  164.4848 C   0  0  0  0  0  0  0  0  0  0  0  0
  155.7052  138.2814  165.2868 C   0  0  0  0  0  0  0  0  0  0  0  0
  155.4455  136.8455  163.1036 C   0  0  0  0  0  0  0  0  0  0  0  0
  155.3587  137.9388  162.0759 C   0  0  0  0  0  0  0  0  0  0  0  0
  153.9067  138.2822  161.6785 C   0  0  2  0  0  0  0  0  0  0  0  0
  153.2959  137.2584  160.7090 C   0  0  0  0  0  0  0  0  0  0  0  0
  153.8476  139.6089  161.0717 N   0  0  0  0  0  0  0  0  0  0  0  0
  154.3531  139.9332  159.8710 C   0  0  0  0  0  0  0  0  0  0  0  0
  154.9126  139.1197  159.1345 O   0  0  0  0  0  0  0  0  0  0  0  0
  154.1908  141.3949  159.4424 C   0  0  0  0  0  0  0  0  0  0  0  0
  153.1930  142.1765  160.3188 C   0  0  0  0  0  0  0  0  0  0  0  0
  152.8544  143.5688  159.7569 C   0  0  0  0  0  0  0  0  0  0  0  0
  151.9853  144.4084  160.6961 C   0  0  0  0  0  0  0  0  0  0  0  0
  151.3735  145.4954  159.8067 C   0  0  0  0  0  0  0  0  0  0  0  0
  151.3890  144.9377  158.3753 C   0  0  0  0  0  0  0  0  0  0  0  0
  152.0395  143.5521  158.4595 C   0  0  0  0  0  0  0  0  0  0  0  0
  154.4435  135.2261  160.9266 H   0  0  0  0  0  0  0  0  0  0  0  0
  154.9737  133.7170  161.6826 H   0  0  0  0  0  0  0  0  0  0  0  0
  156.1635  134.8081  160.9553 H   0  0  0  0  0  0  0  0  0  0  0  0
  155.1695  135.9455  167.0412 H   0  0  0  0  0  0  0  0  0  0  0  0
  156.8130  135.3616  166.6763 H   0  0  0  0  0  0  0  0  0  0  0  0
  155.4123  134.2767  166.4781 H   0  0  0  0  0  0  0  0  0  0  0  0
  156.1988  139.0628  164.7100 H   0  0  0  0  0  0  0  0  0  0  0  0
  156.2870  138.1114  166.1929 H   0  0  0  0  0  0  0  0  0  0  0  0
  154.7129  138.6320  165.5697 H   0  0  0  0  0  0  0  0  0  0  0  0
  155.8490  138.8301  162.4693 H   0  0  0  0  0  0  0  0  0  0  0  0
  155.9276  137.6718  161.1847 H   0  0  0  0  0  0  0  0  0  0  0  0
  153.2866  138.2933  162.5766 H   0  0  0  0  0  0  0  0  0  0  0  0
  153.2509  136.2646  161.1547 H   0  0  0  0  0  0  0  0  0  0  0  0
  153.8773  137.1861  159.7893 H   0  0  0  0  0  0  0  0  0  0  0  0
  152.2772  137.5368  160.4366 H   0  0  0  0  0  0  0  0  0  0  0  0
  153.3997  140.3376  161.6089 H   0  0  0  0  0  0  0  0  0  0  0  0
  155.1705  141.8724  159.4775 H   0  0  0  0  0  0  0  0  0  0  0  0
  153.8658  141.4217  158.4016 H   0  0  0  0  0  0  0  0  0  0  0  0
  152.2762  141.5980  160.4428 H   0  0  0  0  0  0  0  0  0  0  0  0
  153.6118  142.3015  161.3185 H   0  0  0  0  0  0  0  0  0  0  0  0
  153.7814  144.1161  159.5765 H   0  0  0  0  0  0  0  0  0  0  0  0
  151.1879  143.7921  161.1140 H   0  0  0  0  0  0  0  0  0  0  0  0
  152.5514  144.8240  161.5304 H   0  0  0  0  0  0  0  0  0  0  0  0
  150.3665  145.7575  160.1331 H   0  0  0  0  0  0  0  0  0  0  0  0
  151.9781  146.4020  159.8547 H   0  0  0  0  0  0  0  0  0  0  0  0
  150.3863  144.8791  157.9507 H   0  0  0  0  0  0  0  0  0  0  0  0
  151.9776  145.5920  157.7309 H   0  0  0  0  0  0  0  0  0  0  0  0
  152.6499  143.3303  157.5836 H   0  0  0  0  0  0  0  0  0  0  0  0
  151.2610  142.7902  158.5196 H   0  0  0  0  0  0  0  0  0  0  0  0
  155.5059  133.8649  164.2306 H   0  0  0  0  0  0  0  0  0  0  0  0
  1  2  1  0  0  0  0
  1 22  1  0  0  0  0
  1 23  1  0  0  0  0
  1 24  1  0  0  0  0
  2  8  1  0  0  0  0
  2  3  2  0  0  0  0
  3  4  1  0  0  0  0
  3 51  1  0  0  0  0
  4  5  1  0  0  0  0
  4  6  1  0  0  0  0
  5 25  1  0  0  0  0
  5 26  1  0  0  0  0
  5 27  1  0  0  0  0
  6  7  1  0  0  0  0
  6  8  2  0  0  0  0
  7 28  1  0  0  0  0
  7 29  1  0  0  0  0
  7 30  1  0  0  0  0
  8  9  1  0  0  0  0
  9 10  1  0  0  0  0
  9 31  1  0  0  0  0
  9 32  1  0  0  0  0
 10 11  1  0  0  0  0
 10 12  1  0  0  0  0
 10 33  1  0  0  0  0
 11 34  1  0  0  0  0
 11 35  1  0  0  0  0
 11 36  1  0  0  0  0
 12 13  1  0  0  0  0
 12 37  1  0  0  0  0
 13 14  2  0  0  0  0
 13 15  1  0  0  0  0
 15 16  1  0  0  0  0
 15 38  1  0  0  0  0
 15 39  1  0  0  0  0
 16 17  1  0  0  0  0
 16 40  1  0  0  0  0
 16 41  1  0  0  0  0
 17 21  1  0  0  0  0
 17 18  1  0  0  0  0
 17 42  1  0  0  0  0
 18 19  1  0  0  0  0
 18 43  1  0  0  0  0
 18 44  1  0  0  0  0
 19 20  1  0  0  0  0
 19 45  1  0  0  0  0
 19 46  1  0  0  0  0
 20 21  1  0  0  0  0
 20 47  1  0  0  0  0
 20 48  1  0  0  0  0
 21 49  1  0  0  0  0
 21 50  1  0  0  0  0
M  CHG  1   3   1
M  END
> <s_m_source_file>
AV-unprocessed.smi

> <i_m_source_file_index>
685

> <i_lp_mmshare_version>
43012

> <i_f3d_flags>
0

> <s_epik_input>
W0NIM11jMW5uKFtDSDNdKWMoW0NIM10pYzFbQ0gyXVtDQEhdKFtDSDNdKVtOSF1DKD1PKVtDSDJdW0NIMl1bQ0hdMltDSDJdW0NIMl1bQ0gyXVtDSDJdMg==

> <s_epik_cmdline>
J2VwaWtfcHl0aG9uJywgJy1waCcsICc3LjAnLCAnLXRuJywgJzgnLCAnLW1hJywgJzIwMCcsICctbWV0YWxfYmluZGluZycsICctaW1hZScsICc8aW5maWxlLm1hZT4nLCAnLW9tYWUnLCAnPG91dGZpbGUubWFlPic=

> <r_lp_tautomer_probability>
1

> <r_epik_Ionization_Penalty>
2.26429

> <r_epik_Ionization_Penalty_Charging>
2.26429

> <r_epik_Ionization_Penalty_Neutral>
2.3289e-07

> <r_epik_State_Penalty>
2.41237

> <r_epik_Charging_Adjusted_Penalty>
4.67666

> <i_epik_Tot_Q>
1

> <i_epik_Tot_abs_Q>
1

> <r_epik_Metal_State_Penalty>
2.42525

> <b_epik_Metal_Only>
0

> <s_lp_Force_Field>
OPLS_2005

> <r_lp_Energy>
28.552

> <b_lp_Chiralities_Consistent>
1

> <s_lp_Variant>
AV-unprocessed.smi:685-3

> <Gold.Version>
5.8.1

> <Gold.Id.Protein>
6NUR|6NUR_protein|mol2

> <Gold.PLP.Fitness>
52.1854

> <Gold.PLP.PLP>
-50.6280

> <Gold.PLP.part.hbond>
-1.0000

> <Gold.PLP.part.metal>
0.0000

> <Gold.PLP.part.buried>
-4.6588

> <Gold.PLP.part.nonpolar>
-45.0131

> <Gold.PLP.part.repulsive>
0.0934

> <Gold.PLP.ligand.clash>
0.0000

> <Gold.PLP.ligand.torsion>
0.7479

> <Gold.PLP.Chemscore.Hbond>
1.0000

> <Gold.PLP.Chemscore.CHOScore>
0.0000

> <Gold.PLP.Chemscore.Metal>
0.0000

> <Gold.Chemscore.Hbonds>
donor molecule, donor type, donor heavy atom, donor atom, acceptor molecule, acceptor atom, score
      P1  H  7997  8008       L1    14  1.00

> <Gold.PLP.Chemscore.Internal.Correction>
0.0532

> <Gold.Rescore>
     Score         DG    S(hbond)    S(metal)    S(lipo)     H(rot)  DE(clash)    DE(int)     intcor
     19.17     -21.40       0.97        0.00     143.54       1.61       0.06       2.17       ----

> <Gold.Chemscore.Fitness>
19.1657

> <Gold.Chemscore.DG>
-21.4005

> <Gold.Chemscore.ZeroCoef>
-5.4800

> <Gold.Chemscore.Hbond>
0.9720

> <Gold.Chemscore.Metal>
0.0000

> <Gold.Chemscore.Lipo>
143.5420

> <Gold.Chemscore.Internal_Hbond>
0.0000

> <Gold.Chemscore.DEClash>
0.0618

> <Gold.Chemscore.DEInternal>
2.1731

> <Gold.Chemscore.Rot>
1.6095

> <Gold.Chemscore.Internal.Correction>
   9.000000E+99

> <Gold.Chemscore.Hbonds>
donor molecule, donor type, donor heavy atom, donor atom, acceptor molecule, acceptor atom, score
      P1  H  7997  8008       L1    14  0.57

> <Gold.Chemscore.Hbond.Weighted>
-3.2464

> <Gold.Chemscore.Metal.Weighted>
-0.0000

> <Gold.Chemscore.Lipo.Weighted>
-16.7944

> <Gold.Chemscore.Internal_Hbond.Weighted>
0.0000

> <Gold.Chemscore.DEClash.Weighted>
0.0618

> <Gold.Chemscore.DEInternal.Weighted>
2.1731

> <Gold.Chemscore.Rot.Weighted>
4.1202

> <Gold.Chemscore.Internal.Correction.Weighted>
   9.000000E+99

> <Gold.Protein.RotatedTorsions>
[ 6907 6896 6895 6894 ] final   55.99 input  -60.11 | X-H torsion
[ 7974 7965 7964 7962 ] final  173.65 input  175.53 | X-H torsion
[ 8008 7997 7996 7995 ] final -119.82 input   59.86 | X-H torsion
[ 10167 10162 10161 10158 ] final   87.67 input  -65.29 | X-H torsion
[ 10718 10713 10712 10709 ] final   32.32 input   66.30 | X-H torsion
[ 10763 10752 10751 10750 ] final -123.95 input  -60.55 | X-H torsion
[ 11005 11000 10999 10996 ] final   51.30 input  -57.11 | X-H torsion

> <Gold.Protein.ActiveResidues>
 VAL166  LYS551  ARG553  GLY616  TRP617  ASP618  TYR619  PRO620  LYS621  CYS622 
 ASP623  PHE694  ASN695  SER759  ASP760  ASP761  ALA762  ILE779  LEU786  VAL792 
 PHE793  MET794  SER795  GLU796  ALA797  LYS798  CYS799  TRP800  GLU811  SER814 

> <Gold.Protein.RotatedAtoms>
  152.3593  134.6895  160.0211 H   0  0  0  0  0  0  0  0  0  0  0  0  # atno 6907 bound_to 6896
  151.7223  133.3309  159.3326 H   0  0  0  0  0  0  0  0  0  0  0  0  # atno 6908 bound_to 6896
  150.7593  134.6371  159.6261 H   0  0  0  0  0  0  0  0  0  0  0  0  # atno 6909 bound_to 6896
  144.7239  139.9679  143.6436 H   0  0  0  0  0  0  0  0  0  0  0  0  # atno 7974 bound_to 7965
  155.1218  140.0398  157.2752 H   0  0  0  0  0  0  0  0  0  0  0  0  # atno 8008 bound_to 7997
  154.6608  140.2590  155.7085 H   0  0  0  0  0  0  0  0  0  0  0  0  # atno 8009 bound_to 7997
  156.2618  140.2817  156.1079 H   0  0  0  0  0  0  0  0  0  0  0  0  # atno 8010 bound_to 7997
  139.8750  144.6472  150.8907 H   0  0  0  0  0  0  0  0  0  0  0  0  # atno 10167 bound_to 10162
  157.2837  130.7268  149.6571 H   0  0  0  0  0  0  0  0  0  0  0  0  # atno 10718 bound_to 10713
  154.8716  135.4080  154.3027 H   0  0  0  0  0  0  0  0  0  0  0  0  # atno 10763 bound_to 10752
  153.3884  135.7014  153.6518 H   0  0  0  0  0  0  0  0  0  0  0  0  # atno 10764 bound_to 10752
  153.5311  135.3667  155.2647 H   0  0  0  0  0  0  0  0  0  0  0  0  # atno 10765 bound_to 10752
  140.0944  134.5165  155.8821 H   0  0  0  0  0  0  0  0  0  0  0  0  # atno 11005 bound_to 11000
  146.0586  139.3581  143.0595 LP  0  0  0  0  0  0  0  0  0  0  0  0  # atno 17320 bound_to 7965
  145.8122  140.9720  143.0942 LP  0  0  0  0  0  0  0  0  0  0  0  0  # atno 17321 bound_to 7965
  140.7754  143.3632  151.1787 LP  0  0  0  0  0  0  0  0  0  0  0  0  # atno 17342 bound_to 10162
  139.7249  143.9165  152.2999 LP  0  0  0  0  0  0  0  0  0  0  0  0  # atno 17343 bound_to 10162
  155.9665  130.4330  150.4988 LP  0  0  0  0  0  0  0  0  0  0  0  0  # atno 17370 bound_to 10713
  157.2937  131.0631  151.2116 LP  0  0  0  0  0  0  0  0  0  0  0  0  # atno 17371 bound_to 10713
  141.2087  133.6677  156.6393 LP  0  0  0  0  0  0  0  0  0  0  0  0  # atno 17394 bound_to 11000
  140.3307  134.7931  157.4324 LP  0  0  0  0  0  0  0  0  0  0  0  0  # atno 17395 bound_to 11000

$$$$
