#       Name:                AV-unprocessed.smi:560
#       Creating user name   scv26
#       Creation time:       Thu Mar 26 23:41:56 2020


#       File generated by GOLD software.
#

@<TRIPOS>MOLECULE
AV-unprocessed.smi:560
    47    48     1
SMALL
NO_CHARGES


@<TRIPOS>ATOM
      1 ****        -3.4345  -1.8711  -3.0435 C.3            1 S1                 0.0000
      2 ****        -2.9947  -1.1275  -1.7653 C.3            1 S1                 0.0000
      3 ****        -1.4666  -1.0411  -1.6382 C.2            1 S1                 0.0000
      4 ****        -0.7540  -1.9852  -1.9814 O.2            1 S1                 0.0000
      5 ****        -0.9779   0.1002  -1.1276 N.am           1 S1                 0.0000
      6 ****         0.4326   0.3756  -0.8744 C.3            1 S1                 0.0000
      7 ****         0.8509  -0.1707   0.5002 C.3            1 S1                 0.0000
      8 ****         2.2886   0.2458   0.8579 C.3            1 S1                 0.0000
      9 ****         2.4245   1.7098   0.8333 N.3            1 S1                 0.0000
     10 ****         3.7716   2.1640   1.2474 C.3            1 S1                 0.0000
     11 ****         4.1477   1.8022   2.6895 C.2            1 S1                 0.0000
     12 ****         5.2503   1.0706   2.8678 N.am           1 S1                 0.0000
     13 ****         3.4476   2.1745   3.6289 O.2            1 S1                 0.0000
     14 ****         2.1310   2.2220  -0.5091 C.3            1 S1                 0.0000
     15 ****         0.6829   1.8895  -0.9087 C.3            1 S1                 0.0000
     16 ****        -3.5632  -1.7044  -0.5514 N.pl3          1 S1                 0.0000
     17 ****        -3.9724  -1.0412   0.5884 C.2            1 S1                 0.0000
     18 ****        -4.3897  -1.9817   1.4857 C.2            1 S1                 0.0000
     19 ****        -4.1815  -3.2129   0.8050 C.2            1 S1                 0.0000
     20 ****        -3.6772  -3.0456  -0.4061 N.2            1 S1                 0.0000
     21 ****        -3.0453  -1.3790  -3.9354 H              1 S1                 0.0000
     22 ****        -4.5213  -1.8875  -3.1284 H              1 S1                 0.0000
     23 ****        -3.0867  -2.9048  -3.0610 H              1 S1                 0.0000
     24 ****        -3.3799  -0.1091  -1.8416 H              1 S1                 0.0000
     25 ****        -1.6344   0.8242  -0.8737 H              1 S1                 0.0000
     26 ****         1.0440  -0.0922  -1.6487 H              1 S1                 0.0000
     27 ****         0.1686   0.1952   1.2692 H              1 S1                 0.0000
     28 ****         0.7715  -1.2584   0.5111 H              1 S1                 0.0000
     29 ****         2.5160  -0.1510   1.8472 H              1 S1                 0.0000
     30 ****         2.9984  -0.2097   0.1650 H              1 S1                 0.0000
     31 ****         4.5206   1.7683   0.5583 H              1 S1                 0.0000
     32 ****         3.8257   3.2511   1.1712 H              1 S1                 0.0000
     33 ****         5.5382   0.8097   3.7994 H              1 S1                 0.0000
     34 ****         5.7936   0.7822   2.0671 H              1 S1                 0.0000
     35 ****         2.2600   3.3050  -0.5283 H              1 S1                 0.0000
     36 ****         2.8302   1.8068  -1.2375 H              1 S1                 0.0000
     37 ****         0.4769   2.2789  -1.9064 H              1 S1                 0.0000
     38 ****        -0.0038   2.3986  -0.2304 H              1 S1                 0.0000
     39 ****        -3.9317   0.0354   0.6653 H              1 S1                 0.0000
     40 ****        -4.7782  -1.8163   2.4795 H              1 S1                 0.0000
     41 ****        -4.3746  -4.2162   1.1544 H              1 S1                 0.0000
     42 ****        -1.1694  -2.8182  -2.3469 LP             1 S1                 0.0000
     43 ****         0.2400  -1.9188  -1.8946 LP             1 S1                 0.0000
     44 ****         1.7663   2.0719   1.4933 LP             1 S1                 0.0000
     45 ****         2.6259   2.7175   3.4556 LP             1 S1                 0.0000
     46 ****         3.6997   1.9343   4.5663 LP             1 S1                 0.0000
     47 ****        -3.4337  -3.7539  -1.0687 LP             1 S1                 0.0000
@<TRIPOS>BOND
    1    1    2 1     
    2    1   21 1     
    3    1   22 1     
    4    1   23 1     
    5    2    3 1     
    6    2   16 1     
    7    2   24 1     
    8    3    4 2     
    9    3    5 am    
   10    5    6 1     
   11    5   25 1     
   12    6   15 1     
   13    6    7 1     
   14    6   26 1     
   15    7    8 1     
   16    7   27 1     
   17    7   28 1     
   18    8    9 1     
   19    8   29 1     
   20    8   30 1     
   21    9   10 1     
   22    9   14 1     
   23   10   11 1     
   24   10   31 1     
   25   10   32 1     
   26   11   12 am    
   27   11   13 2     
   28   12   33 1     
   29   12   34 1     
   30   14   15 1     
   31   14   35 1     
   32   14   36 1     
   33   15   37 1     
   34   15   38 1     
   35   16   20 1     
   36   16   17 1     
   37   17   18 2     
   38   17   39 1     
   39   18   19 1     
   40   18   40 1     
   41   19   20 2     
   42   19   41 1     
   43    4   42 1     
   44    4   43 1     
   45    9   44 1     
   46   13   45 1     
   47   13   46 1     
   48   20   47 1     
@<TRIPOS>SUBSTRUCTURE
      1 S1             1
@<TRIPOS>SET
LONE_PAIRS      STATIC     ATOMS    <user>   **** ""
6 42 43 44 45 46 47
DONOR_HYDROGENS      STATIC     ATOMS    <user>   **** ""
3 25 33 34
ATOM$BLUE        STATIC     ATOMS    COLORGROUP SYSTEM
6 42 43 44 45 46 47
ATOM$RED        STATIC     ATOMS    COLORGROUP SYSTEM
3 25 33 34
