#       Name:                AV-unprocessed.smi:156
#       Creating user name   scv26
#       Creation time:       Thu Mar 26 18:57:10 2020


#       File generated by GOLD software.
#

@<TRIPOS>MOLECULE
AV-unprocessed.smi:156
    58    60     1
SMALL
NO_CHARGES


@<TRIPOS>ATOM
      1 ****        -2.4868  -2.1648  -0.3960 C.3            1 S1                 0.0000
      2 ****        -1.9419  -1.7950   0.9968 C.3            1 S1                 0.0000
      3 ****        -2.4405  -2.7024   2.1593 C.3            1 S1                 0.0000
      4 ****        -1.9546  -2.1700   3.5221 C.3            1 S1                 0.0000
      5 ****        -4.2966  -2.8530   2.1609 S.o2           1 S1                 0.0000
      6 ****        -4.6591  -3.7870   3.7070 C.3            1 S1                 0.0000
      7 ****        -4.8756  -1.5075   2.2947 O.2            1 S1                 0.0000
      8 ****        -4.6984  -3.7065   1.0323 O.2            1 S1                 0.0000
      9 ****        -0.4741  -1.7220   0.9486 N.pl3          1 S1                 0.0000
     10 ****         0.3153  -2.9003   0.6027 C.3            1 S1                 0.0000
     11 ****         0.1078  -0.4986   0.8361 C.ar           1 S1                 0.0000
     12 ****        -0.3053   0.4826   1.6809 N.ar           1 S1                 0.0000
     13 ****         0.2368   1.7017   1.6239 C.ar           1 S1                 0.0000
     14 ****         1.1905   2.1521   0.8083 N.ar           1 S1                 0.0000
     15 ****         1.6091   1.1772  -0.0485 C.ar           1 S1                 0.0000
     16 ****         1.1336  -0.1651  -0.0987 C.ar           1 S1                 0.0000
     17 ****         1.8048  -0.8575  -1.1010 N.2            1 S1                 0.0000
     18 ****         2.6280   0.0190  -1.6063 C.2            1 S1                 0.0000
     19 ****         2.5632   1.2750  -1.0475 N.pl3          1 S1                 0.0000
     20 ****         3.3547   2.4413  -1.4156 C.3            1 S1                 0.0000
     21 ****         2.7770   3.2865  -2.5754 C.3            1 S1                 0.0000
     22 ****         3.6612   4.5427  -2.6662 C.3            1 S1                 0.0000
     23 ****         3.2829   5.4078  -3.7183 O.3            1 S1                 0.0000
     24 ****         2.4930   2.5292  -3.8847 C.3            1 S1                 0.0000
     25 ****         1.0773   2.4712  -3.6032 O.3            1 S1                 0.0000
     26 ****         1.2512   3.4939  -2.5978 C.3            1 S1                 0.0000
     27 ****        -3.5590  -1.9892  -0.4722 H              1 S1                 0.0000
     28 ****        -2.2948  -3.2104  -0.6381 H              1 S1                 0.0000
     29 ****        -2.0202  -1.5537  -1.1696 H              1 S1                 0.0000
     30 ****        -2.3414  -0.8015   1.2003 H              1 S1                 0.0000
     31 ****        -2.0610  -3.7147   2.0254 H              1 S1                 0.0000
     32 ****        -0.8714  -2.0518   3.5454 H              1 S1                 0.0000
     33 ****        -2.2019  -2.8503   4.3352 H              1 S1                 0.0000
     34 ****        -2.3965  -1.1989   3.7466 H              1 S1                 0.0000
     35 ****        -5.7151  -4.0565   3.7209 H              1 S1                 0.0000
     36 ****        -4.4451  -3.1682   4.5774 H              1 S1                 0.0000
     37 ****        -4.0564  -4.6943   3.7384 H              1 S1                 0.0000
     38 ****         1.3509  -2.7840   0.9240 H              1 S1                 0.0000
     39 ****         0.3022  -3.0686  -0.4743 H              1 S1                 0.0000
     40 ****        -0.0749  -3.7947   1.0859 H              1 S1                 0.0000
     41 ****        -0.1510   2.4187   2.3322 H              1 S1                 0.0000
     42 ****         3.3059  -0.2304  -2.4091 H              1 S1                 0.0000
     43 ****         3.4743   3.0524  -0.5199 H              1 S1                 0.0000
     44 ****         4.3566   2.0917  -1.6683 H              1 S1                 0.0000
     45 ****         3.6204   5.1117  -1.7366 H              1 S1                 0.0000
     46 ****         4.7056   4.2694  -2.8205 H              1 S1                 0.0000
     47 ****         2.3951   5.6954  -3.5684 H              1 S1                 0.0000
     48 ****         2.6968   3.0982  -4.7927 H              1 S1                 0.0000
     49 ****         2.9540   1.5448  -3.9488 H              1 S1                 0.0000
     50 ****         0.7397   3.2621  -1.6654 H              1 S1                 0.0000
     51 ****         0.9339   4.4710  -2.9642 H              1 S1                 0.0000
     52 ****        -1.0218   0.2899   2.3514 LP             1 S1                 0.0000
     53 ****         1.5521   3.0843   0.8230 LP             1 S1                 0.0000
     54 ****         1.6836  -1.8121  -1.3729 LP             1 S1                 0.0000
     55 ****         3.3366   4.9212  -4.5902 LP             1 S1                 0.0000
     56 ****         3.8941   6.1990  -3.7400 LP             1 S1                 0.0000
     57 ****         0.7659   1.5914  -3.2441 LP             1 S1                 0.0000
     58 ****         0.4950   2.7435  -4.3692 LP             1 S1                 0.0000
@<TRIPOS>BOND
    1    1    2 1     
    2    1   27 1     
    3    1   28 1     
    4    1   29 1     
    5    2    3 1     
    6    2    9 1     
    7    2   30 1     
    8    3    4 1     
    9    3    5 1     
   10    3   31 1     
   11    4   32 1     
   12    4   33 1     
   13    4   34 1     
   14    5    6 1     
   15    5    7 2     
   16    5    8 2     
   17    6   35 1     
   18    6   36 1     
   19    6   37 1     
   20    9   10 1     
   21    9   11 1     
   22   10   38 1     
   23   10   39 1     
   24   10   40 1     
   25   11   16 ar    
   26   11   12 ar    
   27   12   13 ar    
   28   13   14 ar    
   29   13   41 1     
   30   14   15 ar    
   31   15   19 1     
   32   15   16 ar    
   33   16   17 1     
   34   17   18 2     
   35   18   19 1     
   36   18   42 1     
   37   19   20 1     
   38   20   21 1     
   39   20   43 1     
   40   20   44 1     
   41   21   26 1     
   42   21   22 1     
   43   21   24 1     
   44   22   23 1     
   45   22   45 1     
   46   22   46 1     
   47   23   47 1     
   48   24   25 1     
   49   24   48 1     
   50   24   49 1     
   51   25   26 1     
   52   26   50 1     
   53   26   51 1     
   54   12   52 1     
   55   14   53 1     
   56   17   54 1     
   57   23   55 1     
   58   23   56 1     
   59   25   57 1     
   60   25   58 1     
@<TRIPOS>SUBSTRUCTURE
      1 S1             1
@<TRIPOS>SET
LONE_PAIRS      STATIC     ATOMS    <user>   **** ""
9 7 8 52 53 54 55 56 57 58
DONOR_HYDROGENS      STATIC     ATOMS    <user>   **** ""
1 47
ATOM$BLUE        STATIC     ATOMS    COLORGROUP SYSTEM
9 7 8 52 53 54 55 56 57 58
ATOM$RED        STATIC     ATOMS    COLORGROUP SYSTEM
1 47
