AV-unprocessed.smi:2120|AV-procd|sdf|8638|dock8
  -GOLD-   2272011383D 1   1.00000     0.00000
 Structure written by MMmdl.
 45 48  0  0  0  0  0  0  0  0  1 V2000
  153.8780  141.9381  161.8546 O   0  0  0  0  0  0  0  0  0  0  0  0
  153.6055  141.8063  160.6605 C   0  0  0  0  0  0  0  0  0  0  0  0
  154.0967  140.7958  159.9233 N   0  0  0  0  0  0  0  0  0  0  0  0
  154.9932  139.7556  160.4136 C   0  0  0  0  0  0  0  0  0  0  0  0
  154.2280  138.4775  160.7962 C   0  0  0  0  0  0  0  0  0  0  0  0
  154.4429  138.0937  162.2470 C   0  0  0  0  0  0  0  0  0  0  0  0
  153.7638  136.9926  162.8083 C   0  0  0  0  0  0  0  0  0  0  0  0
  153.9910  136.6726  164.1605 C   0  0  0  0  0  0  0  0  0  0  0  0
  154.8925  137.4683  164.8953 C   0  0  0  0  0  0  0  0  0  0  0  0
  155.5492  138.5243  164.3683 N   0  0  0  0  0  0  0  0  0  0  0  0
  155.3244  138.8255  163.0712 C   0  0  0  0  0  0  0  0  0  0  0  0
  152.6642  142.8249  159.9750 C   0  0  0  0  0  0  0  0  0  0  0  0
  153.4739  143.6471  158.9353 C   0  0  0  0  0  0  0  0  0  0  0  0
  152.5485  144.6374  158.1953 C   0  0  1  0  0  0  0  0  0  0  0  0
  151.4418  143.8561  157.4565 C   0  0  0  0  0  0  0  0  0  0  0  0
  150.6158  143.0527  158.4828 C   0  0  2  0  0  0  0  0  0  0  0  0
  149.9700  144.0180  159.4979 C   0  0  0  0  0  0  0  0  0  0  0  0
  151.0791  144.8004  160.2313 C   0  0  2  0  0  0  0  0  0  0  0  0
  151.9079  145.6073  159.2103 C   0  0  0  0  0  0  0  0  0  0  0  0
  152.0010  143.8141  160.9796 C   0  0  0  0  0  0  0  0  0  0  0  0
  151.5378  142.0610  159.2243 C   0  0  0  0  0  0  0  0  0  0  0  0
  153.8321  140.7489  158.9501 H   0  0  0  0  0  0  0  0  0  0  0  0
  155.7148  139.5337  159.6270 H   0  0  0  0  0  0  0  0  0  0  0  0
  155.5654  140.1321  161.2632 H   0  0  0  0  0  0  0  0  0  0  0  0
  153.1579  138.6106  160.6328 H   0  0  0  0  0  0  0  0  0  0  0  0
  154.5367  137.6518  160.1534 H   0  0  0  0  0  0  0  0  0  0  0  0
  153.0789  136.4050  162.2143 H   0  0  0  0  0  0  0  0  0  0  0  0
  153.4868  135.8373  164.6239 H   0  0  0  0  0  0  0  0  0  0  0  0
  155.0906  137.2505  165.9344 H   0  0  0  0  0  0  0  0  0  0  0  0
  155.8645  139.6760  162.6817 H   0  0  0  0  0  0  0  0  0  0  0  0
  154.2788  144.1945  159.4286 H   0  0  0  0  0  0  0  0  0  0  0  0
  153.9545  142.9879  158.2105 H   0  0  0  0  0  0  0  0  0  0  0  0
  153.1331  145.2062  157.4718 H   0  0  0  0  0  0  0  0  0  0  0  0
  150.7972  144.5426  156.9060 H   0  0  0  0  0  0  0  0  0  0  0  0
  151.8814  143.1857  156.7170 H   0  0  0  0  0  0  0  0  0  0  0  0
  149.8338  142.4988  157.9628 H   0  0  0  0  0  0  0  0  0  0  0  0
  149.2956  144.7070  158.9878 H   0  0  0  0  0  0  0  0  0  0  0  0
  149.3616  143.4631  160.2131 H   0  0  0  0  0  0  0  0  0  0  0  0
  150.6237  145.4845  160.9482 H   0  0  0  0  0  0  0  0  0  0  0  0
  152.6794  146.1848  159.7211 H   0  0  0  0  0  0  0  0  0  0  0  0
  151.2729  146.3287  158.6944 H   0  0  0  0  0  0  0  0  0  0  0  0
  151.4204  143.2707  161.7270 H   0  0  0  0  0  0  0  0  0  0  0  0
  152.7595  144.3781  161.5253 H   0  0  0  0  0  0  0  0  0  0  0  0
  151.9582  141.3554  158.5057 H   0  0  0  0  0  0  0  0  0  0  0  0
  150.9510  141.4662  159.9261 H   0  0  0  0  0  0  0  0  0  0  0  0
  1  2  2  0  0  0  0
  2  3  1  0  0  0  0
  2 12  1  0  0  0  0
  3  4  1  0  0  0  0
  3 22  1  0  0  0  0
  4  5  1  0  0  0  0
  4 23  1  0  0  0  0
  4 24  1  0  0  0  0
  5  6  1  0  0  0  0
  5 25  1  0  0  0  0
  5 26  1  0  0  0  0
  6 11  1  0  0  0  0
  6  7  2  0  0  0  0
  7  8  1  0  0  0  0
  7 27  1  0  0  0  0
  8  9  2  0  0  0  0
  8 28  1  0  0  0  0
  9 10  1  0  0  0  0
  9 29  1  0  0  0  0
 10 11  2  0  0  0  0
 11 30  1  0  0  0  0
 12 20  1  0  0  0  0
 12 21  1  0  0  0  0
 12 13  1  0  0  0  0
 13 14  1  0  0  0  0
 13 31  1  0  0  0  0
 13 32  1  0  0  0  0
 14 19  1  0  0  0  0
 14 15  1  0  0  0  0
 14 33  1  0  0  0  0
 15 16  1  0  0  0  0
 15 34  1  0  0  0  0
 15 35  1  0  0  0  0
 16 17  1  0  0  0  0
 16 21  1  0  0  0  0
 16 36  1  0  0  0  0
 17 18  1  0  0  0  0
 17 37  1  0  0  0  0
 17 38  1  0  0  0  0
 18 19  1  0  0  0  0
 18 20  1  0  0  0  0
 18 39  1  0  0  0  0
 19 40  1  0  0  0  0
 19 41  1  0  0  0  0
 20 42  1  0  0  0  0
 20 43  1  0  0  0  0
 21 44  1  0  0  0  0
 21 45  1  0  0  0  0
M  END
> <s_m_source_file>
AV-unprocessed.smi

> <i_m_source_file_index>
2120

> <i_lp_mmshare_version>
43012

> <i_f3d_flags>
0

> <s_epik_input>
W0NIMl0xW0NASF0oW0NIMl0yKVtDSDJdW0NASF0oW0NIMl0zKVtDSDJdW0NAQEhdMVtDSDJdQzIzQyg9TylbTkhdW0NIMl1bQ0gyXWM0W2NIXVtjSF1bY0hdbltjSF00

> <s_epik_cmdline>
J2VwaWtfcHl0aG9uJywgJy1waCcsICc3LjAnLCAnLXRuJywgJzgnLCAnLW1hJywgJzIwMCcsICctbWV0YWxfYmluZGluZycsICctaW1hZScsICc8aW5maWxlLm1hZT4nLCAnLW9tYWUnLCAnPG91dGZpbGUubWFlPic=

> <r_epik_Ionization_Penalty>
0.0137322

> <r_epik_Ionization_Penalty_Charging>
0

> <r_epik_Ionization_Penalty_Neutral>
0.0137322

> <r_epik_State_Penalty>
0.0107033

> <r_epik_Charging_Adjusted_Penalty>
0.0107033

> <i_epik_Tot_Q>
0

> <i_epik_Tot_abs_Q>
0

> <r_epik_Metal_State_Penalty>
0.0104605

> <b_epik_Metal_Only>
0

> <s_lp_Force_Field>
OPLS_2005

> <r_lp_Energy>
34.8386

> <b_lp_Chiralities_Consistent>
1

> <s_lp_Variant>
AV-unprocessed.smi:2120-1

> <Gold.Version>
5.8.1

> <Gold.Id.Protein>
6NUR|6NUR_protein|mol2

> <Gold.PLP.Fitness>
51.6490

> <Gold.PLP.PLP>
-53.1553

> <Gold.PLP.part.hbond>
-0.6475

> <Gold.PLP.part.metal>
0.0000

> <Gold.PLP.part.buried>
-5.2443

> <Gold.PLP.part.nonpolar>
-47.4547

> <Gold.PLP.part.repulsive>
0.1042

> <Gold.PLP.ligand.clash>
0.0000

> <Gold.PLP.ligand.torsion>
0.7570

> <Gold.PLP.Chemscore.Hbond>
0.0000

> <Gold.PLP.Chemscore.CHOScore>
0.0000

> <Gold.PLP.Chemscore.Metal>
0.0000

> <Gold.PLP.Chemscore.Internal.Correction>
0.0076

> <Gold.Rescore>
     Score         DG    S(hbond)    S(metal)    S(lipo)     H(rot)  DE(clash)    DE(int)     intcor
     20.24     -21.04       0.00        0.00     162.02       1.32       0.13       0.68       ----

> <Gold.Chemscore.Fitness>
20.2401

> <Gold.Chemscore.DG>
-21.0447

> <Gold.Chemscore.ZeroCoef>
-5.4800

> <Gold.Chemscore.Hbond>
0.0000

> <Gold.Chemscore.Metal>
0.0000

> <Gold.Chemscore.Lipo>
162.0227

> <Gold.Chemscore.Internal_Hbond>
0.0000

> <Gold.Chemscore.DEClash>
0.1284

> <Gold.Chemscore.DEInternal>
0.6762

> <Gold.Chemscore.Rot>
1.3250

> <Gold.Chemscore.Internal.Correction>
   9.000000E+99

> <Gold.Chemscore.Hbond.Weighted>
-0.0000

> <Gold.Chemscore.Metal.Weighted>
-0.0000

> <Gold.Chemscore.Lipo.Weighted>
-18.9567

> <Gold.Chemscore.Internal_Hbond.Weighted>
0.0000

> <Gold.Chemscore.DEClash.Weighted>
0.1284

> <Gold.Chemscore.DEInternal.Weighted>
0.6762

> <Gold.Chemscore.Rot.Weighted>
3.3920

> <Gold.Chemscore.Internal.Correction.Weighted>
   9.000000E+99

> <Gold.Protein.RotatedTorsions>
[ 6907 6896 6895 6894 ] final  120.80 input  -60.11 | X-H torsion
[ 7974 7965 7964 7962 ] final   16.92 input  175.53 | X-H torsion
[ 8008 7997 7996 7995 ] final   31.10 input   59.86 | X-H torsion
[ 10167 10162 10161 10158 ] final  174.19 input  -65.29 | X-H torsion
[ 10718 10713 10712 10709 ] final   68.42 input   66.30 | X-H torsion
[ 10763 10752 10751 10750 ] final  -32.39 input  -60.55 | X-H torsion
[ 11005 11000 10999 10996 ] final   96.73 input  -57.11 | X-H torsion

> <Gold.Protein.ActiveResidues>
 VAL166  LYS551  ARG553  GLY616  TRP617  ASP618  TYR619  PRO620  LYS621  CYS622 
 ASP623  PHE694  ASN695  SER759  ASP760  ASP761  ALA762  ILE779  LEU786  VAL792 
 PHE793  MET794  SER795  GLU796  ALA797  LYS798  CYS799  TRP800  GLU811  SER814 

> <Gold.Protein.RotatedAtoms>
  152.4371  133.7380  159.6624 H   0  0  0  0  0  0  0  0  0  0  0  0  # atno 6907 bound_to 6896
  150.8256  133.8167  159.3126 H   0  0  0  0  0  0  0  0  0  0  0  0  # atno 6908 bound_to 6896
  151.5837  135.1059  160.0075 H   0  0  0  0  0  0  0  0  0  0  0  0  # atno 6909 bound_to 6896
  146.2234  139.8677  142.8593 H   0  0  0  0  0  0  0  0  0  0  0  0  # atno 7974 bound_to 7965
  155.1011  140.3229  155.4547 H   0  0  0  0  0  0  0  0  0  0  0  0  # atno 8008 bound_to 7997
  156.2717  140.2061  156.6084 H   0  0  0  0  0  0  0  0  0  0  0  0  # atno 8009 bound_to 7997
  154.6829  140.0524  157.0271 H   0  0  0  0  0  0  0  0  0  0  0  0  # atno 8010 bound_to 7997
  139.5133  144.3175  152.0234 H   0  0  0  0  0  0  0  0  0  0  0  0  # atno 10167 bound_to 10162
  157.6288  130.9372  150.0375 H   0  0  0  0  0  0  0  0  0  0  0  0  # atno 10718 bound_to 10713
  153.8129  135.6881  153.4838 H   0  0  0  0  0  0  0  0  0  0  0  0  # atno 10763 bound_to 10752
  153.1617  135.4577  154.9779 H   0  0  0  0  0  0  0  0  0  0  0  0  # atno 10764 bound_to 10752
  154.7960  135.3319  154.7608 H   0  0  0  0  0  0  0  0  0  0  0  0  # atno 10765 bound_to 10752
  139.8780  134.8965  156.4202 H   0  0  0  0  0  0  0  0  0  0  0  0  # atno 11005 bound_to 11000
  145.2640  141.0086  143.3810 LP  0  0  0  0  0  0  0  0  0  0  0  0  # atno 17320 bound_to 7965
  144.9276  139.4337  143.6511 LP  0  0  0  0  0  0  0  0  0  0  0  0  # atno 17321 bound_to 7965
  140.2618  144.4059  150.6183 LP  0  0  0  0  0  0  0  0  0  0  0  0  # atno 17342 bound_to 10162
  140.6152  143.2172  151.6806 LP  0  0  0  0  0  0  0  0  0  0  0  0  # atno 17343 bound_to 10162
  156.1477  130.3642  149.9485 LP  0  0  0  0  0  0  0  0  0  0  0  0  # atno 17370 bound_to 10713
  156.7512  130.9116  151.3637 LP  0  0  0  0  0  0  0  0  0  0  0  0  # atno 17371 bound_to 10713
  140.9139  133.7692  155.9824 LP  0  0  0  0  0  0  0  0  0  0  0  0  # atno 17394 bound_to 11000
  140.8516  134.2948  157.5273 LP  0  0  0  0  0  0  0  0  0  0  0  0  # atno 17395 bound_to 11000

$$$$
