#       Name:                AV-unprocessed.smi:2556
#       Creating user name   scv26
#       Creation time:       Fri Mar 27 14:07:05 2020


#       File generated by GOLD software.
#

@<TRIPOS>MOLECULE
AV-unprocessed.smi:2556
    42    44     1
SMALL
NO_CHARGES


@<TRIPOS>ATOM
      1 ****        -2.4742   5.0069  -0.3717 C.3            1 S1                 0.0000
      2 ****        -2.1276   3.6836  -0.8978 N.am           1 S1                 0.0000
      3 ****        -2.2835   3.3911  -2.2279 C.2            1 S1                 0.0000
      4 ****        -2.7251   4.2684  -2.9714 O.2            1 S1                 0.0000
      5 ****        -1.9483   2.1395  -2.6991 N.pl3          1 S1                -1.0000
      6 ****        -1.4507   1.1034  -1.9521 C.2            1 S1                 0.0000
      7 ****        -1.1425  -0.0157  -2.3571 O.2            1 S1                 0.0000
      8 ****        -1.3060   1.4670  -0.5262 C.2            1 S1                 0.0000
      9 ****        -1.6227   2.6896  -0.0151 C.2            1 S1                 0.0000
     10 ****        -1.3799   2.7474   1.3533 N.2            1 S1                 0.0000
     11 ****        -0.9156   1.5240   1.6044 C.2            1 S1                 0.0000
     12 ****        -0.8380   0.6983   0.5416 N.pl3          1 S1                 0.0000
     13 ****        -0.3602  -0.6769   0.5675 C.3            1 S1                 0.0000
     14 ****         1.1769  -0.7771   0.4840 C.3            1 S1                 0.0000
     15 ****         1.6590  -0.0982  -0.6595 O.3            1 S1                 0.0000
     16 ****         1.6372  -2.2257   0.5226 C.ar           1 S1                 0.0000
     17 ****         2.1807  -2.7656   1.7082 C.ar           1 S1                 0.0000
     18 ****         2.6038  -4.1087   1.7472 C.ar           1 S1                 0.0000
     19 ****         2.4839  -4.9196   0.6022 C.ar           1 S1                 0.0000
     20 ****         1.9388  -4.3875  -0.5820 C.ar           1 S1                 0.0000
     21 ****         1.5153  -3.0449  -0.6215 C.ar           1 S1                 0.0000
     22 ****        -1.8798   5.7800  -0.8605 H              1 S1                 0.0000
     23 ****        -2.3011   5.0922   0.7005 H              1 S1                 0.0000
     24 ****        -3.5282   5.2241  -0.5493 H              1 S1                 0.0000
     25 ****        -0.6192   1.2173   2.5966 H              1 S1                 0.0000
     26 ****        -0.7050  -1.1340   1.4961 H              1 S1                 0.0000
     27 ****        -0.8357  -1.2437  -0.2312 H              1 S1                 0.0000
     28 ****         1.6026  -0.2611   1.3457 H              1 S1                 0.0000
     29 ****         2.6033  -0.0999  -0.6346 H              1 S1                 0.0000
     30 ****         2.2748  -2.1527   2.5927 H              1 S1                 0.0000
     31 ****         3.0195  -4.5174   2.6563 H              1 S1                 0.0000
     32 ****         2.8081  -5.9493   0.6328 H              1 S1                 0.0000
     33 ****         1.8439  -5.0086  -1.4605 H              1 S1                 0.0000
     34 ****         1.0939  -2.6449  -1.5326 H              1 S1                 0.0000
     35 ****        -2.9597   5.1668  -2.6003 LP             1 S1                 0.0000
     36 ****        -2.8489   4.0821  -3.9461 LP             1 S1                 0.0000
     37 ****        -2.0803   1.9720  -3.6761 LP             1 S1                 0.0000
     38 ****        -1.2473  -0.2435  -3.3252 LP             1 S1                 0.0000
     39 ****        -0.7870  -0.6982  -1.7185 LP             1 S1                 0.0000
     40 ****        -1.5180   3.5100   1.9852 LP             1 S1                 0.0000
     41 ****         1.3236   0.8438  -0.6586 LP             1 S1                 0.0000
     42 ****         1.3429  -0.5638  -1.4862 LP             1 S1                 0.0000
@<TRIPOS>BOND
    1    1    2 1     
    2    1   22 1     
    3    1   23 1     
    4    1   24 1     
    5    2    9 1     
    6    2    3 am    
    7    3    4 2     
    8    3    5 1     
    9    5    6 1     
   10    6    7 2     
   11    6    8 1     
   12    8   12 1     
   13    8    9 2     
   14    9   10 1     
   15   10   11 2     
   16   11   12 1     
   17   11   25 1     
   18   12   13 1     
   19   13   14 1     
   20   13   26 1     
   21   13   27 1     
   22   14   15 1     
   23   14   16 1     
   24   14   28 1     
   25   15   29 1     
   26   16   21 ar    
   27   16   17 ar    
   28   17   18 ar    
   29   17   30 1     
   30   18   19 ar    
   31   18   31 1     
   32   19   20 ar    
   33   19   32 1     
   34   20   21 ar    
   35   20   33 1     
   36   21   34 1     
   37    4   35 1     
   38    4   36 1     
   39    5   37 1     
   40    7   38 1     
   41    7   39 1     
   42   10   40 1     
   43   15   41 1     
   44   15   42 1     
@<TRIPOS>SUBSTRUCTURE
      1 S1             1
@<TRIPOS>SET
LONE_PAIRS      STATIC     ATOMS    <user>   **** ""
8 35 36 37 38 39 40 41 42
DONOR_HYDROGENS      STATIC     ATOMS    <user>   **** ""
1 29
ATOM$BLUE        STATIC     ATOMS    COLORGROUP SYSTEM
8 35 36 37 38 39 40 41 42
ATOM$RED        STATIC     ATOMS    COLORGROUP SYSTEM
1 29
