AV-unprocessed.smi:1965|AV-procd|sdf|7945|dock4
  -GOLD-   2272010113D 1   1.00000     0.00000
 Structure written by MMmdl.
 36 38  0  0  0  0  0  0  0  0  3 V2000
  147.8694  133.5921  155.7557 O   0  0  0  0  0  0  0  0  0  0  0  0
  148.2966  134.5536  155.1179 C   0  0  0  0  0  0  0  0  0  0  0  0
  148.3752  135.8124  155.6228 N   0  5  0  0  0  0  0  0  0  0  0  0
  149.2441  136.7275  155.1546 C   0  0  0  0  0  0  0  0  0  0  0  0
  148.8636  137.8495  154.5327 N   0  0  0  0  0  0  0  0  0  0  0  0
  149.9338  138.6501  154.1286 C   0  0  0  0  0  0  0  0  0  0  0  0
  151.1573  138.1264  154.4525 C   0  0  0  0  0  0  0  0  0  0  0  0
  151.0009  136.6055  155.2839 S   0  0  0  0  0  0  0  0  0  0  0  0
  148.7098  134.3610  153.8517 N   0  0  0  0  0  0  0  0  0  0  0  0
  148.7355  133.0883  153.1425 C   0  0  1  0  0  0  0  0  0  0  0  0
  149.1460  131.8844  154.0123 C   0  0  0  0  0  0  0  0  0  0  0  0
  148.2582  130.7176  153.5362 C   0  0  0  0  0  0  0  0  0  0  0  0
  147.4759  131.2573  152.4071 N   0  3  1  0  0  0  0  0  0  0  0  0
  146.1834  130.6037  152.1060 C   0  0  0  0  0  0  0  0  0  0  0  0
  145.5578  131.2615  150.8589 C   0  0  0  0  0  0  0  0  0  0  0  0
  145.4542  132.7935  151.0087 C   0  0  0  0  0  0  0  0  0  0  0  0
  146.8109  133.4051  151.4085 C   0  0  0  0  0  0  0  0  0  0  0  0
  147.3393  132.6975  152.6662 C   0  0  2  0  0  0  0  0  0  0  0  0
  149.7326  139.5790  153.6160 H   0  0  0  0  0  0  0  0  0  0  0  0
  152.1351  138.5408  154.2583 H   0  0  0  0  0  0  0  0  0  0  0  0
  149.0464  135.1699  153.3498 H   0  0  0  0  0  0  0  0  0  0  0  0
  149.4032  133.1592  152.2812 H   0  0  0  0  0  0  0  0  0  0  0  0
  150.2077  131.6621  153.8988 H   0  0  0  0  0  0  0  0  0  0  0  0
  148.9637  132.0788  155.0705 H   0  0  0  0  0  0  0  0  0  0  0  0
  148.8420  129.8521  153.2219 H   0  0  0  0  0  0  0  0  0  0  0  0
  147.5915  130.4033  154.3408 H   0  0  0  0  0  0  0  0  0  0  0  0
  146.3432  129.5395  151.9311 H   0  0  0  0  0  0  0  0  0  0  0  0
  145.5132  130.6940  152.9622 H   0  0  0  0  0  0  0  0  0  0  0  0
  146.1673  131.0279  149.9849 H   0  0  0  0  0  0  0  0  0  0  0  0
  144.5716  130.8374  150.6677 H   0  0  0  0  0  0  0  0  0  0  0  0
  145.1004  133.2396  150.0787 H   0  0  0  0  0  0  0  0  0  0  0  0
  144.7099  133.0340  151.7691 H   0  0  0  0  0  0  0  0  0  0  0  0
  147.5228  133.2982  150.5889 H   0  0  0  0  0  0  0  0  0  0  0  0
  146.7023  134.4744  151.5934 H   0  0  0  0  0  0  0  0  0  0  0  0
  146.6294  132.8369  153.4855 H   0  0  0  0  0  0  0  0  0  0  0  0
  148.0589  131.1708  151.5869 H   0  0  0  0  0  0  0  0  0  0  0  0
  1  2  2  0  0  0  0
  2  3  1  0  0  0  0
  2  9  1  0  0  0  0
  3  4  1  0  0  0  0
  4  8  1  0  0  0  0
  4  5  2  0  0  0  0
  5  6  1  0  0  0  0
  6  7  2  0  0  0  0
  6 19  1  0  0  0  0
  7  8  1  0  0  0  0
  7 20  1  0  0  0  0
  9 10  1  0  0  0  0
  9 21  1  0  0  0  0
 10 18  1  0  0  0  0
 10 11  1  0  0  0  0
 10 22  1  0  0  0  0
 11 12  1  0  0  0  0
 11 23  1  0  0  0  0
 11 24  1  0  0  0  0
 12 13  1  0  0  0  0
 12 25  1  0  0  0  0
 12 26  1  0  0  0  0
 13 18  1  0  0  0  0
 13 14  1  0  0  0  0
 13 36  1  0  0  0  0
 14 15  1  0  0  0  0
 14 27  1  0  0  0  0
 14 28  1  0  0  0  0
 15 16  1  0  0  0  0
 15 29  1  0  0  0  0
 15 30  1  0  0  0  0
 16 17  1  0  0  0  0
 16 31  1  0  0  0  0
 16 32  1  0  0  0  0
 17 18  1  0  0  0  0
 17 33  1  0  0  0  0
 17 34  1  0  0  0  0
 18 35  1  0  0  0  0
M  CHG  1   3  -1
M  CHG  1  13   1
M  END
> <s_m_source_file>
AV-unprocessed.smi

> <i_m_source_file_index>
1965

> <i_lp_mmshare_version>
43012

> <i_f3d_flags>
0

> <s_epik_input>
czFbY0hdW2NIXW5jMVtOSF1DKD1PKVtOSF1bQ0BIXShbQ0gyXVtDSDJdMilbQ0BASF0oTjIzKVtDSDJdW0NIMl1bQ0gyXVtDSDJdMw==

> <s_epik_cmdline>
J2VwaWtfcHl0aG9uJywgJy1waCcsICc3LjAnLCAnLXRuJywgJzgnLCAnLW1hJywgJzIwMCcsICctbWV0YWxfYmluZGluZycsICctaW1hZScsICc8aW5maWxlLm1hZT4nLCAnLW9tYWUnLCAnPG91dGZpbGUubWFlPic=

> <r_lp_tautomer_probability>
1

> <r_epik_Ionization_Penalty>
7.4116

> <r_epik_Ionization_Penalty_Charging>
6.13869

> <r_epik_Ionization_Penalty_Neutral>
1.27291

> <r_epik_State_Penalty>
6.13761

> <r_epik_Charging_Adjusted_Penalty>
12.2763

> <i_epik_Tot_Q>
0

> <i_epik_Tot_abs_Q>
2

> <r_epik_Metal_State_Penalty>
2.08142

> <b_epik_Metal_Only>
1

> <s_lp_Force_Field>
OPLS_2005

> <r_lp_Energy>
26.2693

> <b_lp_Chiralities_Consistent>
1

> <s_lp_Variant>
AV-unprocessed.smi:1965-14

> <Gold.Version>
5.8.1

> <Gold.Id.Protein>
6NUR|6NUR_protein|mol2

> <Gold.PLP.Fitness>
37.4933

> <Gold.PLP.PLP>
-30.6646

> <Gold.PLP.part.hbond>
-2.0000

> <Gold.PLP.part.metal>
0.0000

> <Gold.PLP.part.buried>
-3.8129

> <Gold.PLP.part.nonpolar>
-25.8125

> <Gold.PLP.part.repulsive>
0.3930

> <Gold.PLP.ligand.clash>
0.0000

> <Gold.PLP.ligand.torsion>
1.0296

> <Gold.PLP.Chemscore.Hbond>
1.9760

> <Gold.PLP.Chemscore.CHOScore>
0.9799

> <Gold.PLP.Chemscore.Metal>
0.0000

> <Gold.Chemscore.Hbonds>
donor molecule, donor type, donor heavy atom, donor atom, acceptor molecule, acceptor atom, score
      L1  H     9    21       P1  7948  0.98
      L1  H    13    36       P1 10747  1.00
      L1  C     6    19       P1  7957  0.98

> <Gold.PLP.Chemscore.Internal.Correction>
0.0203

> <Gold.Rescore>
     Score         DG    S(hbond)    S(metal)    S(lipo)     H(rot)  DE(clash)    DE(int)     intcor
     15.53     -18.10       1.84        0.00      77.16       1.00       0.08       2.50       ----

> <Gold.Chemscore.Fitness>
15.5289

> <Gold.Chemscore.DG>
-18.1012

> <Gold.Chemscore.ZeroCoef>
-5.4800

> <Gold.Chemscore.Hbond>
1.8424

> <Gold.Chemscore.Metal>
0.0000

> <Gold.Chemscore.Lipo>
77.1590

> <Gold.Chemscore.Internal_Hbond>
0.0000

> <Gold.Chemscore.DEClash>
0.0768

> <Gold.Chemscore.DEInternal>
2.4955

> <Gold.Chemscore.Rot>
1.0000

> <Gold.Chemscore.Internal.Correction>
   9.000000E+99

> <Gold.Chemscore.Hbonds>
donor molecule, donor type, donor heavy atom, donor atom, acceptor molecule, acceptor atom, score
      L1  H     9    21       P1  7948  0.32
      L1  H    13    36       P1 10747  0.99

> <Gold.Chemscore.Hbond.Weighted>
-6.1536

> <Gold.Chemscore.Metal.Weighted>
-0.0000

> <Gold.Chemscore.Lipo.Weighted>
-9.0276

> <Gold.Chemscore.Internal_Hbond.Weighted>
0.0000

> <Gold.Chemscore.DEClash.Weighted>
0.0768

> <Gold.Chemscore.DEInternal.Weighted>
2.4955

> <Gold.Chemscore.Rot.Weighted>
2.5600

> <Gold.Chemscore.Internal.Correction.Weighted>
   9.000000E+99

> <Gold.Protein.RotatedTorsions>
[ 6907 6896 6895 6894 ] final -129.89 input  -60.11 | X-H torsion
[ 7974 7965 7964 7962 ] final  -97.65 input  175.53 | X-H torsion
[ 8008 7997 7996 7995 ] final -151.71 input   59.86 | X-H torsion
[ 10167 10162 10161 10158 ] final  117.76 input  -65.29 | X-H torsion
[ 10718 10713 10712 10709 ] final   55.22 input   66.30 | X-H torsion
[ 10763 10752 10751 10750 ] final  168.39 input  -60.55 | X-H torsion
[ 11005 11000 10999 10996 ] final  128.25 input  -57.11 | X-H torsion

> <Gold.Protein.ActiveResidues>
 VAL166  LYS551  ARG553  GLY616  TRP617  ASP618  TYR619  PRO620  LYS621  CYS622 
 ASP623  PHE694  ASN695  SER759  ASP760  ASP761  ALA762  ILE779  LEU786  VAL792 
 PHE793  MET794  SER795  GLU796  ALA797  LYS798  CYS799  TRP800  GLU811  SER814 

> <Gold.Protein.RotatedAtoms>
  150.9337  133.6737  159.2805 H   0  0  0  0  0  0  0  0  0  0  0  0  # atno 6907 bound_to 6896
  151.4150  135.0989  159.9606 H   0  0  0  0  0  0  0  0  0  0  0  0  # atno 6908 bound_to 6896
  152.5038  133.8802  159.7397 H   0  0  0  0  0  0  0  0  0  0  0  0  # atno 6909 bound_to 6896
  145.3310  140.9441  143.2662 H   0  0  0  0  0  0  0  0  0  0  0  0  # atno 7974 bound_to 7965
  155.6438  140.0704  157.2610 H   0  0  0  0  0  0  0  0  0  0  0  0  # atno 8008 bound_to 7997
  154.4178  140.1745  156.1650 H   0  0  0  0  0  0  0  0  0  0  0  0  # atno 8009 bound_to 7997
  155.9834  140.3351  155.6687 H   0  0  0  0  0  0  0  0  0  0  0  0  # atno 8010 bound_to 7997
  139.6157  144.7091  151.2745 H   0  0  0  0  0  0  0  0  0  0  0  0  # atno 10167 bound_to 10162
  157.5325  130.8640  149.8708 H   0  0  0  0  0  0  0  0  0  0  0  0  # atno 10718 bound_to 10713
  154.3679  135.2753  155.2283 H   0  0  0  0  0  0  0  0  0  0  0  0  # atno 10763 bound_to 10752
  154.4443  135.5946  153.6153 H   0  0  0  0  0  0  0  0  0  0  0  0  # atno 10764 bound_to 10752
  152.9840  135.6026  154.3907 H   0  0  0  0  0  0  0  0  0  0  0  0  # atno 10765 bound_to 10752
  139.9551  134.9614  156.8975 H   0  0  0  0  0  0  0  0  0  0  0  0  # atno 11005 bound_to 11000
  144.8864  139.4833  143.6698 LP  0  0  0  0  0  0  0  0  0  0  0  0  # atno 17320 bound_to 7965
  146.3045  139.7536  142.9066 LP  0  0  0  0  0  0  0  0  0  0  0  0  # atno 17321 bound_to 7965
  140.7349  143.6752  150.8047 LP  0  0  0  0  0  0  0  0  0  0  0  0  # atno 17342 bound_to 10162
  140.0355  143.5400  152.2741 LP  0  0  0  0  0  0  0  0  0  0  0  0  # atno 17343 bound_to 10162
  156.0434  130.3733  150.1379 LP  0  0  0  0  0  0  0  0  0  0  0  0  # atno 17370 bound_to 10713
  156.9563  130.9791  151.3488 LP  0  0  0  0  0  0  0  0  0  0  0  0  # atno 17371 bound_to 10713
  140.5629  134.0518  155.7404 LP  0  0  0  0  0  0  0  0  0  0  0  0  # atno 17394 bound_to 11000
  141.1221  133.9444  157.2709 LP  0  0  0  0  0  0  0  0  0  0  0  0  # atno 17395 bound_to 11000

$$$$
