AV-unprocessed.smi:2154|AV-procd|sdf|8771|dock1
  -GOLD-   2272011553D 1   1.00000     0.00000
 Structure written by MMmdl.
 32 33  0  0  0  0  0  0  0  0  1 V2000
  151.6721  144.4003  158.9122 C   0  0  0  0  0  0  0  0  0  0  0  0
  152.8608  143.6165  159.4322 C   0  0  1  0  0  0  0  0  0  0  0  0
  152.7773  142.8697  160.7424 C   0  0  0  0  0  0  0  0  0  0  0  0
  152.8909  142.1006  159.4457 C   0  0  1  0  0  0  0  0  0  0  0  0
  151.7315  141.2684  158.9244 C   0  0  0  0  0  0  0  0  0  0  0  0
  151.2012  141.6966  157.6371 N   0  0  0  0  0  0  0  0  0  0  0  0
  150.2762  141.0323  156.9282 C   0  0  0  0  0  0  0  0  0  0  0  0
  149.7546  139.9854  157.3149 O   0  0  0  0  0  0  0  0  0  0  0  0
  149.8682  141.6648  155.5898 C   0  0  0  0  0  0  0  0  0  0  0  0
  149.0295  140.7803  154.7676 N   0  0  0  0  0  0  0  0  0  0  0  0
  147.6838  141.0642  154.5816 C   0  0  0  0  0  0  0  0  0  0  0  0
  146.8533  140.2898  153.8438 C   0  0  0  0  0  0  0  0  0  0  0  0
  147.3527  139.0839  153.1918 C   0  0  0  0  0  0  0  0  0  0  0  0
  146.6806  138.3202  152.5023 O   0  0  0  0  0  0  0  0  0  0  0  0
  148.7103  138.8304  153.4053 N   0  0  0  0  0  0  0  0  0  0  0  0
  149.5712  139.6236  154.1657 C   0  0  0  0  0  0  0  0  0  0  0  0
  150.7534  139.3065  154.2928 O   0  0  0  0  0  0  0  0  0  0  0  0
  149.1003  138.0042  152.9756 H   0  0  0  0  0  0  0  0  0  0  0  0
  150.7316  143.9617  159.2453 H   0  0  0  0  0  0  0  0  0  0  0  0
  151.6836  144.4184  157.8224 H   0  0  0  0  0  0  0  0  0  0  0  0
  151.7165  145.4268  159.2766 H   0  0  0  0  0  0  0  0  0  0  0  0
  153.8142  144.0951  159.2166 H   0  0  0  0  0  0  0  0  0  0  0  0
  153.6510  142.8900  161.3901 H   0  0  0  0  0  0  0  0  0  0  0  0
  151.8188  142.8523  161.2575 H   0  0  0  0  0  0  0  0  0  0  0  0
  153.8641  141.6646  159.2276 H   0  0  0  0  0  0  0  0  0  0  0  0
  152.0194  140.2176  158.8683 H   0  0  0  0  0  0  0  0  0  0  0  0
  150.9195  141.3265  159.6494 H   0  0  0  0  0  0  0  0  0  0  0  0
  151.5730  142.5524  157.2511 H   0  0  0  0  0  0  0  0  0  0  0  0
  149.3411  142.5958  155.8030 H   0  0  0  0  0  0  0  0  0  0  0  0
  150.7596  141.9600  155.0321 H   0  0  0  0  0  0  0  0  0  0  0  0
  147.2689  141.9455  155.0498 H   0  0  0  0  0  0  0  0  0  0  0  0
  145.8136  140.5633  153.7360 H   0  0  0  0  0  0  0  0  0  0  0  0
  1  2  1  0  0  0  0
  1 19  1  0  0  0  0
  1 20  1  0  0  0  0
  1 21  1  0  0  0  0
  2  4  1  0  0  0  0
  2  3  1  0  0  0  0
  2 22  1  0  0  0  0
  3  4  1  0  0  0  0
  3 23  1  0  0  0  0
  3 24  1  0  0  0  0
  4  5  1  0  0  0  0
  4 25  1  0  0  0  0
  5  6  1  0  0  0  0
  5 26  1  0  0  0  0
  5 27  1  0  0  0  0
  6  7  1  0  0  0  0
  6 28  1  0  0  0  0
  7  8  2  0  0  0  0
  7  9  1  0  0  0  0
  9 10  1  0  0  0  0
  9 29  1  0  0  0  0
  9 30  1  0  0  0  0
 10 16  1  0  0  0  0
 10 11  1  0  0  0  0
 11 12  2  0  0  0  0
 11 31  1  0  0  0  0
 12 13  1  0  0  0  0
 12 32  1  0  0  0  0
 13 14  2  0  0  0  0
 13 15  1  0  0  0  0
 15 18  1  0  0  0  0
 15 16  1  0  0  0  0
 16 17  2  0  0  0  0
M  END
> <s_m_source_file>
AV-unprocessed.smi

> <i_m_source_file_index>
2154

> <i_lp_mmshare_version>
43012

> <i_f3d_flags>
0

> <s_epik_input>
W0NIM11bQ0BASF0xW0NIMl1bQ0BIXTFbQ0gyXVtOSF1DKD1PKVtDSDJdbjJbY0hdW2NIXWMoPU8pW25IXWMyPU8=

> <s_epik_cmdline>
J2VwaWtfcHl0aG9uJywgJy1waCcsICc3LjAnLCAnLXRuJywgJzgnLCAnLW1hJywgJzIwMCcsICctbWV0YWxfYmluZGluZycsICctaW1hZScsICc8aW5maWxlLm1hZT4nLCAnLW9tYWUnLCAnPG91dGZpbGUubWFlPic=

> <r_lp_tautomer_probability>
0.999537

> <r_epik_Ionization_Penalty>
0.00305319

> <r_epik_Ionization_Penalty_Charging>
0.00305317

> <r_epik_Ionization_Penalty_Neutral>
2.06703e-08

> <r_epik_State_Penalty>
0.00214626

> <r_epik_Charging_Adjusted_Penalty>
0.00519944

> <i_epik_Tot_Q>
0

> <i_epik_Tot_abs_Q>
0

> <r_epik_Metal_State_Penalty>
0.361976

> <b_epik_Metal_Only>
0

> <s_lp_Force_Field>
OPLS_2005

> <r_lp_Energy>
15.5744

> <b_lp_Chiralities_Consistent>
1

> <s_lp_Variant>
AV-unprocessed.smi:2154-2

> <Gold.Version>
5.8.1

> <Gold.Id.Protein>
6NUR|6NUR_protein|mol2

> <Gold.PLP.Fitness>
41.2692

> <Gold.PLP.PLP>
-36.2355

> <Gold.PLP.part.hbond>
-3.0000

> <Gold.PLP.part.metal>
0.0000

> <Gold.PLP.part.buried>
-2.7559

> <Gold.PLP.part.nonpolar>
-31.4464

> <Gold.PLP.part.repulsive>
0.5990

> <Gold.PLP.ligand.clash>
0.0000

> <Gold.PLP.ligand.torsion>
0.6449

> <Gold.PLP.Chemscore.Hbond>
1.9250

> <Gold.PLP.Chemscore.CHOScore>
0.0000

> <Gold.PLP.Chemscore.Metal>
0.0000

> <Gold.Chemscore.Hbonds>
donor molecule, donor type, donor heavy atom, donor atom, acceptor molecule, acceptor atom, score
      L1  H    15    18       P1  7948  0.91
      P1  H  7989  7998       L1    17  1.00

> <Gold.PLP.Chemscore.Internal.Correction>
0.5484

> <Gold.Rescore>
     Score         DG    S(hbond)    S(metal)    S(lipo)     H(rot)  DE(clash)    DE(int)     intcor
     13.78     -14.57       1.66        0.00      74.28       2.01       0.12       0.67       ----

> <Gold.Chemscore.Fitness>
13.7753

> <Gold.Chemscore.DG>
-14.5661

> <Gold.Chemscore.ZeroCoef>
-5.4800

> <Gold.Chemscore.Hbond>
1.6562

> <Gold.Chemscore.Metal>
0.0000

> <Gold.Chemscore.Lipo>
74.2815

> <Gold.Chemscore.Internal_Hbond>
0.0000

> <Gold.Chemscore.DEClash>
0.1214

> <Gold.Chemscore.DEInternal>
0.6694

> <Gold.Chemscore.Rot>
2.0065

> <Gold.Chemscore.Internal.Correction>
   9.000000E+99

> <Gold.Chemscore.Hbonds>
donor molecule, donor type, donor heavy atom, donor atom, acceptor molecule, acceptor atom, score
      L1  H    15    18       P1  7948  0.84
      P1  H  7989  7998       L1    17  0.30

> <Gold.Chemscore.Hbond.Weighted>
-5.5318

> <Gold.Chemscore.Metal.Weighted>
-0.0000

> <Gold.Chemscore.Lipo.Weighted>
-8.6909

> <Gold.Chemscore.Internal_Hbond.Weighted>
0.0000

> <Gold.Chemscore.DEClash.Weighted>
0.1214

> <Gold.Chemscore.DEInternal.Weighted>
0.6694

> <Gold.Chemscore.Rot.Weighted>
5.1366

> <Gold.Chemscore.Internal.Correction.Weighted>
   9.000000E+99

> <Gold.Protein.RotatedTorsions>
[ 6907 6896 6895 6894 ] final -130.85 input  -60.11 | X-H torsion
[ 7974 7965 7964 7962 ] final  129.60 input  175.53 | X-H torsion
[ 8008 7997 7996 7995 ] final   79.50 input   59.86 | X-H torsion
[ 10167 10162 10161 10158 ] final   36.50 input  -65.29 | X-H torsion
[ 10718 10713 10712 10709 ] final  -23.23 input   66.30 | X-H torsion
[ 10763 10752 10751 10750 ] final   91.06 input  -60.55 | X-H torsion
[ 11005 11000 10999 10996 ] final  -41.10 input  -57.11 | X-H torsion

> <Gold.Protein.ActiveResidues>
 VAL166  LYS551  ARG553  GLY616  TRP617  ASP618  TYR619  PRO620  LYS621  CYS622 
 ASP623  PHE694  ASN695  SER759  ASP760  ASP761  ALA762  ILE779  LEU786  VAL792 
 PHE793  MET794  SER795  GLU796  ALA797  LYS798  CYS799  TRP800  GLU811  SER814 

> <Gold.Protein.RotatedAtoms>
  150.9444  133.6620  159.2784 H   0  0  0  0  0  0  0  0  0  0  0  0  # atno 6907 bound_to 6896
  151.3998  135.0968  159.9562 H   0  0  0  0  0  0  0  0  0  0  0  0  # atno 6908 bound_to 6896
  152.5083  133.8940  159.7463 H   0  0  0  0  0  0  0  0  0  0  0  0  # atno 6909 bound_to 6896
  145.0269  139.4081  143.5169 H   0  0  0  0  0  0  0  0  0  0  0  0  # atno 7974 bound_to 7965
  155.8706  140.3449  155.5818 H   0  0  0  0  0  0  0  0  0  0  0  0  # atno 8008 bound_to 7997
  155.7832  140.0861  157.2067 H   0  0  0  0  0  0  0  0  0  0  0  0  # atno 8009 bound_to 7997
  154.4017  140.1497  156.3063 H   0  0  0  0  0  0  0  0  0  0  0  0  # atno 8010 bound_to 7997
  140.4122  144.1577  150.6140 H   0  0  0  0  0  0  0  0  0  0  0  0  # atno 10167 bound_to 10162
  156.4938  130.4572  149.6740 H   0  0  0  0  0  0  0  0  0  0  0  0  # atno 10718 bound_to 10713
  153.2041  135.4411  155.0302 H   0  0  0  0  0  0  0  0  0  0  0  0  # atno 10763 bound_to 10752
  154.8164  135.3317  154.7167 H   0  0  0  0  0  0  0  0  0  0  0  0  # atno 10764 bound_to 10752
  153.7610  135.6991  153.4981 H   0  0  0  0  0  0  0  0  0  0  0  0  # atno 10765 bound_to 10752
  141.0222  133.6858  156.2411 H   0  0  0  0  0  0  0  0  0  0  0  0  # atno 11005 bound_to 11000
  146.3493  139.9798  142.8697 LP  0  0  0  0  0  0  0  0  0  0  0  0  # atno 17320 bound_to 7965
  145.1821  140.9772  143.4260 LP  0  0  0  0  0  0  0  0  0  0  0  0  # atno 17321 bound_to 7965
  140.4625  143.2443  151.9200 LP  0  0  0  0  0  0  0  0  0  0  0  0  # atno 17342 bound_to 10162
  139.4782  144.5453  151.8468 LP  0  0  0  0  0  0  0  0  0  0  0  0  # atno 17343 bound_to 10162
  156.3400  130.7377  151.2320 LP  0  0  0  0  0  0  0  0  0  0  0  0  # atno 17370 bound_to 10713
  157.7471  131.0406  150.4607 LP  0  0  0  0  0  0  0  0  0  0  0  0  # atno 17371 bound_to 10713
  140.6554  134.5023  157.5580 LP  0  0  0  0  0  0  0  0  0  0  0  0  # atno 17394 bound_to 11000
  139.9153  134.8259  156.1388 LP  0  0  0  0  0  0  0  0  0  0  0  0  # atno 17395 bound_to 11000

$$$$
