#       Name:                AV-unprocessed.smi:122
#       Creating user name   scv26
#       Creation time:       Thu Mar 26 18:27:28 2020


#       File generated by GOLD software.
#

@<TRIPOS>MOLECULE
AV-unprocessed.smi:122
    57    59     1
SMALL
NO_CHARGES


@<TRIPOS>ATOM
      1 ****        -4.2230  -5.0660  -1.1515 C.3            1 S1                 0.0000
      2 ****        -2.5606  -4.3917  -1.5618 S.o2           1 S1                 0.0000
      3 ****        -1.6268  -5.5253  -1.6437 O.2            1 S1                 0.0000
      4 ****        -2.6841  -3.4592  -2.6924 O.2            1 S1                 0.0000
      5 ****        -2.1475  -3.4665  -0.1544 N.3            1 S1                 0.0000
      6 ****        -0.7122  -3.3682   0.1966 C.3            1 S1                 0.0000
      7 ****        -0.5051  -2.7430   1.5878 C.3            1 S1                 0.0000
      8 ****        -1.2084  -1.4610   1.6405 N.am           1 S1                 0.0000
      9 ****        -0.6383  -0.2330   1.6668 C.2            1 S1                 0.0000
     10 ****        -1.3118   0.7994   1.6618 O.2            1 S1                 0.0000
     11 ****         0.9008  -0.1274   1.6992 C.3            1 S1                 0.0000
     12 ****         1.4022   1.2650   1.6624 N.am           1 S1                 0.0000
     13 ****         1.6106   1.9449   2.8882 C.2            1 S1                 0.0000
     14 ****         1.3994   1.3929   3.9690 O.2            1 S1                 0.0000
     15 ****         2.0706   3.3238   2.7728 C.2            1 S1                 0.0000
     16 ****         2.2814   4.0505   3.8833 F              1 S1                 0.0000
     17 ****         2.2828   3.8863   1.5653 C.2            1 S1                 0.0000
     18 ****         2.0940   3.2074   0.3777 N.am           1 S1                 0.0000
     19 ****         2.3007   3.9364  -0.9301 C.3            1 S1                 0.0000
     20 ****         3.3224   3.2576  -1.8621 C.3            1 S1                 0.0000
     21 ****         2.5096   2.9842  -3.1170 C.3            1 S1                 0.0000
     22 ****         1.3562   3.9740  -2.9968 C.3            1 S1                 0.0000
     23 ****         1.0819   3.9914  -1.6048 O.3            1 S1                 0.0000
     24 ****         1.6148   1.8771   0.4035 C.2            1 S1                 0.0000
     25 ****         1.3777   1.2668  -0.6402 O.2            1 S1                 0.0000
     26 ****        -2.6498  -1.6772   1.5210 C.3            1 S1                 0.0000
     27 ****        -2.9503  -2.2538   0.1255 C.3            1 S1                 0.0000
     28 ****        -4.5382  -5.7483  -1.9405 H              1 S1                 0.0000
     29 ****        -4.9466  -4.2557  -1.0741 H              1 S1                 0.0000
     30 ****        -4.1742  -5.6055  -0.2060 H              1 S1                 0.0000
     31 ****        -0.2603  -4.3598   0.1778 H              1 S1                 0.0000
     32 ****        -0.2045  -2.7725  -0.5633 H              1 S1                 0.0000
     33 ****        -0.9074  -3.4062   2.3552 H              1 S1                 0.0000
     34 ****         0.5591  -2.6686   1.8047 H              1 S1                 0.0000
     35 ****         1.2685  -0.6432   2.5875 H              1 S1                 0.0000
     36 ****         1.3115  -0.6969   0.8639 H              1 S1                 0.0000
     37 ****         2.6165   4.9133   1.5355 H              1 S1                 0.0000
     38 ****         2.6092   4.9487  -0.6647 H              1 S1                 0.0000
     39 ****         4.1291   3.9630  -2.0639 H              1 S1                 0.0000
     40 ****         3.7533   2.3554  -1.4271 H              1 S1                 0.0000
     41 ****         3.0852   3.1135  -4.0338 H              1 S1                 0.0000
     42 ****         2.1261   1.9639  -3.1026 H              1 S1                 0.0000
     43 ****         1.6618   4.9698  -3.3216 H              1 S1                 0.0000
     44 ****         0.4820   3.6753  -3.5754 H              1 S1                 0.0000
     45 ****        -2.9823  -2.3711   2.2946 H              1 S1                 0.0000
     46 ****        -3.2275  -0.7650   1.6758 H              1 S1                 0.0000
     47 ****        -2.7353  -1.5066  -0.6395 H              1 S1                 0.0000
     48 ****        -4.0111  -2.4870   0.0495 H              1 S1                 0.0000
     49 ****        -2.4880  -4.1002   0.5403 LP             1 S1                 0.0000
     50 ****        -2.3101   0.7450   1.6378 LP             1 S1                 0.0000
     51 ****        -0.8600   1.6912   1.6818 LP             1 S1                 0.0000
     52 ****         1.0746   0.4474   3.9925 LP             1 S1                 0.0000
     53 ****         1.5527   1.8903   4.8229 LP             1 S1                 0.0000
     54 ****         0.5972   4.8323  -1.3639 LP             1 S1                 0.0000
     55 ****         0.5207   3.2011  -1.3586 LP             1 S1                 0.0000
     56 ****         1.0314   0.3293  -0.6036 LP             1 S1                 0.0000
     57 ****         1.5315   1.7088  -1.5239 LP             1 S1                 0.0000
@<TRIPOS>BOND
    1    1    2 1     
    2    1   28 1     
    3    1   29 1     
    4    1   30 1     
    5    2    3 2     
    6    2    4 2     
    7    2    5 1     
    8    5   27 1     
    9    5    6 1     
   10    6    7 1     
   11    6   31 1     
   12    6   32 1     
   13    7    8 1     
   14    7   33 1     
   15    7   34 1     
   16    8    9 am    
   17    8   26 1     
   18    9   10 2     
   19    9   11 1     
   20   11   12 1     
   21   11   35 1     
   22   11   36 1     
   23   12   24 am    
   24   12   13 am    
   25   13   14 2     
   26   13   15 1     
   27   15   16 1     
   28   15   17 2     
   29   17   18 1     
   30   17   37 1     
   31   18   19 1     
   32   18   24 am    
   33   19   23 1     
   34   19   20 1     
   35   19   38 1     
   36   20   21 1     
   37   20   39 1     
   38   20   40 1     
   39   21   22 1     
   40   21   41 1     
   41   21   42 1     
   42   22   23 1     
   43   22   43 1     
   44   22   44 1     
   45   24   25 2     
   46   26   27 1     
   47   26   45 1     
   48   26   46 1     
   49   27   47 1     
   50   27   48 1     
   51    5   49 1     
   52   10   50 1     
   53   10   51 1     
   54   14   52 1     
   55   14   53 1     
   56   23   54 1     
   57   23   55 1     
   58   25   56 1     
   59   25   57 1     
@<TRIPOS>SUBSTRUCTURE
      1 S1             1
@<TRIPOS>SET
LONE_PAIRS      STATIC     ATOMS    <user>   **** ""
11 3 4 49 50 51 52 53 54 55 56 57
ATOM$BLUE        STATIC     ATOMS    COLORGROUP SYSTEM
11 3 4 49 50 51 52 53 54 55 56 57
