AV-unprocessed.smi:3158|AV-procd|sdf|12047|dock3
  -GOLD-   2272017473D 1   1.00000     0.00000
 Structure written by MMmdl.
 39 39  0  0  0  0  0  0  0  0  1 V2000
  151.8801  139.2001  155.0974 C   0  0  0  0  0  0  0  0  0  0  0  0
  150.6840  138.9288  154.1730 C   0  0  0  0  0  0  0  0  0  0  0  0
  149.6068  138.0256  154.8030 C   0  0  2  0  0  0  0  0  0  0  0  0
  150.1786  136.6565  155.2036 C   0  0  0  0  0  0  0  0  0  0  0  0
  148.4932  137.8546  153.8740 N   0  0  0  0  0  0  0  0  0  0  0  0
  147.2239  138.2366  154.0882 C   0  0  0  0  0  0  0  0  0  0  0  0
  146.8458  138.7603  155.1369 O   0  0  0  0  0  0  0  0  0  0  0  0
  146.2513  137.9952  152.9248 C   0  0  1  0  0  0  0  0  0  0  0  0
  146.6589  138.7669  151.6527 C   0  0  0  0  0  0  0  0  0  0  0  0
  146.1453  136.5511  152.6697 N   0  0  0  0  0  0  0  0  0  0  0  0
  145.1653  136.2155  151.6447 C   0  0  0  0  0  0  0  0  0  0  0  0
  144.3140  135.0196  152.1048 C   0  0  0  0  0  0  0  0  0  0  0  0
  144.6909  133.7828  151.4419 N   0  0  0  0  0  0  0  0  0  0  0  0
  143.8949  132.9237  150.7138 C   0  0  0  0  0  0  0  0  0  0  0  0
  144.6902  131.9019  150.2800 C   0  0  0  0  0  0  0  0  0  0  0  0
  145.9731  132.2278  150.8021 C   0  0  0  0  0  0  0  0  0  0  0  0
  145.9699  133.3525  151.4994 N   0  0  0  0  0  0  0  0  0  0  0  0
  152.6281  139.8125  154.5938 H   0  0  0  0  0  0  0  0  0  0  0  0
  152.3607  138.2699  155.4011 H   0  0  0  0  0  0  0  0  0  0  0  0
  151.5762  139.7299  156.0002 H   0  0  0  0  0  0  0  0  0  0  0  0
  150.2399  139.8791  153.8732 H   0  0  0  0  0  0  0  0  0  0  0  0
  151.0507  138.4636  153.2571 H   0  0  0  0  0  0  0  0  0  0  0  0
  149.2430  138.5213  155.7051 H   0  0  0  0  0  0  0  0  0  0  0  0
  151.0050  136.7680  155.9059 H   0  0  0  0  0  0  0  0  0  0  0  0
  150.5509  136.1116  154.3354 H   0  0  0  0  0  0  0  0  0  0  0  0
  149.4214  136.0374  155.6860 H   0  0  0  0  0  0  0  0  0  0  0  0
  148.7094  137.4368  152.9802 H   0  0  0  0  0  0  0  0  0  0  0  0
  145.2826  138.3708  153.2594 H   0  0  0  0  0  0  0  0  0  0  0  0
  146.8035  139.8276  151.8629 H   0  0  0  0  0  0  0  0  0  0  0  0
  145.8917  138.7019  150.8815 H   0  0  0  0  0  0  0  0  0  0  0  0
  147.5875  138.3818  151.2292 H   0  0  0  0  0  0  0  0  0  0  0  0
  147.0411  136.1438  152.4423 H   0  0  0  0  0  0  0  0  0  0  0  0
  144.5218  137.0717  151.4367 H   0  0  0  0  0  0  0  0  0  0  0  0
  145.6753  135.9606  150.7158 H   0  0  0  0  0  0  0  0  0  0  0  0
  144.4245  134.8774  153.1807 H   0  0  0  0  0  0  0  0  0  0  0  0
  143.2550  135.2088  151.9237 H   0  0  0  0  0  0  0  0  0  0  0  0
  142.8422  133.1115  150.5619 H   0  0  0  0  0  0  0  0  0  0  0  0
  144.4004  131.0527  149.6792 H   0  0  0  0  0  0  0  0  0  0  0  0
  146.9001  131.6837  150.6964 H   0  0  0  0  0  0  0  0  0  0  0  0
  1  2  1  0  0  0  0
  1 18  1  0  0  0  0
  1 19  1  0  0  0  0
  1 20  1  0  0  0  0
  2  3  1  0  0  0  0
  2 21  1  0  0  0  0
  2 22  1  0  0  0  0
  3  4  1  0  0  0  0
  3  5  1  0  0  0  0
  3 23  1  0  0  0  0
  4 24  1  0  0  0  0
  4 25  1  0  0  0  0
  4 26  1  0  0  0  0
  5  6  1  0  0  0  0
  5 27  1  0  0  0  0
  6  7  2  0  0  0  0
  6  8  1  0  0  0  0
  8  9  1  0  0  0  0
  8 10  1  0  0  0  0
  8 28  1  0  0  0  0
  9 29  1  0  0  0  0
  9 30  1  0  0  0  0
  9 31  1  0  0  0  0
 10 11  1  0  0  0  0
 10 32  1  0  0  0  0
 11 12  1  0  0  0  0
 11 33  1  0  0  0  0
 11 34  1  0  0  0  0
 12 13  1  0  0  0  0
 12 35  1  0  0  0  0
 12 36  1  0  0  0  0
 13 17  1  0  0  0  0
 13 14  1  0  0  0  0
 14 15  2  0  0  0  0
 14 37  1  0  0  0  0
 15 16  1  0  0  0  0
 15 38  1  0  0  0  0
 16 17  2  0  0  0  0
 16 39  1  0  0  0  0
M  END
> <s_m_source_file>
AV-unprocessed.smi

> <i_m_source_file_index>
3158

> <i_lp_mmshare_version>
43012

> <i_f3d_flags>
0

> <s_epik_input>
W0NIM11bQ0gyXVtDQEhdKFtDSDNdKVtOSF1DKD1PKVtDQEhdKFtDSDNdKVtOSF1bQ0gyXVtDSDJdbjFbY0hdW2NIXVtjSF1uMQ==

> <s_epik_cmdline>
J2VwaWtfcHl0aG9uJywgJy1waCcsICc3LjAnLCAnLXRuJywgJzgnLCAnLW1hJywgJzIwMCcsICctbWV0YWxfYmluZGluZycsICctaW1hZScsICc8aW5maWxlLm1hZT4nLCAnLW9tYWUnLCAnPG91dGZpbGUubWFlPic=

> <r_lp_tautomer_probability>
1

> <r_epik_Ionization_Penalty>
0.724013

> <r_epik_Ionization_Penalty_Charging>
0

> <r_epik_Ionization_Penalty_Neutral>
0.724013

> <r_epik_State_Penalty>
0.74758

> <r_epik_Charging_Adjusted_Penalty>
0.74758

> <i_epik_Tot_Q>
0

> <i_epik_Tot_abs_Q>
0

> <r_epik_Metal_State_Penalty>
0.746846

> <b_epik_Metal_Only>
0

> <s_lp_Force_Field>
OPLS_2005

> <r_lp_Energy>
5.95419

> <b_lp_Chiralities_Consistent>
1

> <s_lp_Variant>
AV-unprocessed.smi:3158-7

> <Gold.Version>
5.8.1

> <Gold.Id.Protein>
6NUR|6NUR_protein|mol2

> <Gold.PLP.Fitness>
43.5980

> <Gold.PLP.PLP>
-32.6715

> <Gold.PLP.part.hbond>
-1.9523

> <Gold.PLP.part.metal>
0.0000

> <Gold.PLP.part.buried>
-4.3681

> <Gold.PLP.part.nonpolar>
-27.4543

> <Gold.PLP.part.repulsive>
0.1859

> <Gold.PLP.ligand.clash>
0.0000

> <Gold.PLP.ligand.torsion>
0.6700

> <Gold.PLP.Chemscore.Hbond>
2.0000

> <Gold.PLP.Chemscore.CHOScore>
2.0000

> <Gold.PLP.Chemscore.Metal>
0.0000

> <Gold.Chemscore.Hbonds>
donor molecule, donor type, donor heavy atom, donor atom, acceptor molecule, acceptor atom, score
      L1  H     5    27       P1  7948  1.00
      L1  H    10    32       P1  7948  1.00
      L1  C    14    37       P1 10186  1.00
      L1  C    16    39       P1 10747  1.00

> <Gold.PLP.Chemscore.Internal.Correction>
0.2666

> <Gold.Rescore>
     Score         DG    S(hbond)    S(metal)    S(lipo)     H(rot)  DE(clash)    DE(int)     intcor
     15.53     -16.30       1.92        0.00      84.07       2.12       0.02       0.74       ----

> <Gold.Chemscore.Fitness>
15.5321

> <Gold.Chemscore.DG>
-16.2975

> <Gold.Chemscore.ZeroCoef>
-5.4800

> <Gold.Chemscore.Hbond>
1.9214

> <Gold.Chemscore.Metal>
0.0000

> <Gold.Chemscore.Lipo>
84.0689

> <Gold.Chemscore.Internal_Hbond>
0.0000

> <Gold.Chemscore.DEClash>
0.0237

> <Gold.Chemscore.DEInternal>
0.7418

> <Gold.Chemscore.Rot>
2.1234

> <Gold.Chemscore.Internal.Correction>
   9.000000E+99

> <Gold.Chemscore.Hbonds>
donor molecule, donor type, donor heavy atom, donor atom, acceptor molecule, acceptor atom, score
      L1  H     5    27       P1  7948  0.99
      L1  H    10    32       P1  7948  0.95

> <Gold.Chemscore.Hbond.Weighted>
-6.4173

> <Gold.Chemscore.Metal.Weighted>
-0.0000

> <Gold.Chemscore.Lipo.Weighted>
-9.8361

> <Gold.Chemscore.Internal_Hbond.Weighted>
0.0000

> <Gold.Chemscore.DEClash.Weighted>
0.0237

> <Gold.Chemscore.DEInternal.Weighted>
0.7418

> <Gold.Chemscore.Rot.Weighted>
5.4359

> <Gold.Chemscore.Internal.Correction.Weighted>
   9.000000E+99

> <Gold.Protein.RotatedTorsions>
[ 6907 6896 6895 6894 ] final  148.51 input  -60.11 | X-H torsion
[ 7974 7965 7964 7962 ] final   46.19 input  175.53 | X-H torsion
[ 8008 7997 7996 7995 ] final  -46.56 input   59.86 | X-H torsion
[ 10167 10162 10161 10158 ] final -174.43 input  -65.29 | X-H torsion
[ 10718 10713 10712 10709 ] final   51.37 input   66.30 | X-H torsion
[ 10763 10752 10751 10750 ] final   51.42 input  -60.55 | X-H torsion
[ 11005 11000 10999 10996 ] final -115.49 input  -57.11 | X-H torsion

> <Gold.Protein.ActiveResidues>
 VAL166  LYS551  ARG553  GLY616  TRP617  ASP618  TYR619  PRO620  LYS621  CYS622 
 ASP623  PHE694  ASN695  SER759  ASP760  ASP761  ALA762  ILE779  LEU786  VAL792 
 PHE793  MET794  SER795  GLU796  ALA797  LYS798  CYS799  TRP800  GLU811  SER814 

> <Gold.Protein.RotatedAtoms>
  152.1404  133.4461  159.4763 H   0  0  0  0  0  0  0  0  0  0  0  0  # atno 6907 bound_to 6896
  150.6885  134.2312  159.4444 H   0  0  0  0  0  0  0  0  0  0  0  0  # atno 6908 bound_to 6896
  152.0202  134.9826  160.0621 H   0  0  0  0  0  0  0  0  0  0  0  0  # atno 6909 bound_to 6896
  146.0412  139.4882  142.9777 H   0  0  0  0  0  0  0  0  0  0  0  0  # atno 7974 bound_to 7965
  154.4008  140.1368  156.4032 H   0  0  0  0  0  0  0  0  0  0  0  0  # atno 8008 bound_to 7997
  155.7805  140.3481  155.5274 H   0  0  0  0  0  0  0  0  0  0  0  0  # atno 8009 bound_to 7997
  155.8679  140.0967  157.1560 H   0  0  0  0  0  0  0  0  0  0  0  0  # atno 8010 bound_to 7997
  139.5634  144.1814  152.1275 H   0  0  0  0  0  0  0  0  0  0  0  0  # atno 10167 bound_to 10162
  157.4974  130.8415  149.8275 H   0  0  0  0  0  0  0  0  0  0  0  0  # atno 10718 bound_to 10713
  152.9785  135.5846  154.4412 H   0  0  0  0  0  0  0  0  0  0  0  0  # atno 10763 bound_to 10752
  154.4013  135.2769  155.2096 H   0  0  0  0  0  0  0  0  0  0  0  0  # atno 10764 bound_to 10752
  154.3926  135.6122  153.5906 H   0  0  0  0  0  0  0  0  0  0  0  0  # atno 10765 bound_to 10752
  141.0484  133.9726  157.2878 H   0  0  0  0  0  0  0  0  0  0  0  0  # atno 11005 bound_to 11000
  145.6881  141.0172  143.1570 LP  0  0  0  0  0  0  0  0  0  0  0  0  # atno 17320 bound_to 7965
  144.7075  139.8500  143.7425 LP  0  0  0  0  0  0  0  0  0  0  0  0  # atno 17321 bound_to 7965
  140.1332  144.5269  150.6789 LP  0  0  0  0  0  0  0  0  0  0  0  0  # atno 17342 bound_to 10162
  140.6916  143.2379  151.5116 LP  0  0  0  0  0  0  0  0  0  0  0  0  # atno 17343 bound_to 10162
  156.0208  130.3796  150.1967 LP  0  0  0  0  0  0  0  0  0  0  0  0  # atno 17370 bound_to 10713
  157.0156  130.9964  151.3354 LP  0  0  0  0  0  0  0  0  0  0  0  0  # atno 17371 bound_to 10713
  139.9330  135.0198  156.8464 LP  0  0  0  0  0  0  0  0  0  0  0  0  # atno 17394 bound_to 11000
  140.6102  134.0089  155.7574 LP  0  0  0  0  0  0  0  0  0  0  0  0  # atno 17395 bound_to 11000

$$$$
