AV-unprocessed.smi:1901|AV-procd|sdf|7717|dock5
  -GOLD-   22720 9453D 1   1.00000     0.00000
 Structure written by MMmdl.
 28 29  0  0  0  0  0  0  0  0  1 V2000
  150.5341  140.5355  156.3460 O   0  0  0  0  0  0  0  0  0  0  0  0
  150.2306  141.6972  156.0732 C   0  0  0  0  0  0  0  0  0  0  0  0
  149.4182  142.0323  155.0604 N   0  0  0  0  0  0  0  0  0  0  0  0
  148.7759  141.0956  154.1433 C   0  0  0  0  0  0  0  0  0  0  0  0
  147.2418  141.2307  154.1646 C   0  0  1  0  0  0  0  0  0  0  0  0
  146.6382  141.1246  155.5498 C   0  0  0  0  0  0  0  0  0  0  0  0
  145.2547  141.7334  155.3417 C   0  0  0  0  0  0  0  0  0  0  0  0
  145.4054  142.7004  154.3063 O   0  0  0  0  0  0  0  0  0  0  0  0
  146.6988  142.5902  153.7200 C   0  0  0  0  0  0  0  0  0  0  0  0
  150.6555  142.7875  156.7354 N   0  0  0  0  0  0  0  0  0  0  0  0
  151.5034  142.8494  157.8722 C   0  0  0  0  0  0  0  0  0  0  0  0
  151.9212  141.7813  158.5619 N   0  0  0  0  0  0  0  0  0  0  0  0
  152.7455  142.1377  159.6322 C   0  0  0  0  0  0  0  0  0  0  0  0
  152.9454  143.4912  159.7444 C   0  0  0  0  0  0  0  0  0  0  0  0
  152.1016  144.3773  158.5023 S   0  0  0  0  0  0  0  0  0  0  0  0
  149.2269  143.0123  154.9114 H   0  0  0  0  0  0  0  0  0  0  0  0
  149.1448  141.3135  153.1409 H   0  0  0  0  0  0  0  0  0  0  0  0
  149.0765  140.0691  154.3608 H   0  0  0  0  0  0  0  0  0  0  0  0
  146.8004  140.4543  153.5372 H   0  0  0  0  0  0  0  0  0  0  0  0
  146.5986  140.1011  155.9240 H   0  0  0  0  0  0  0  0  0  0  0  0
  147.2073  141.7262  156.2601 H   0  0  0  0  0  0  0  0  0  0  0  0
  144.5506  140.9722  155.0035 H   0  0  0  0  0  0  0  0  0  0  0  0
  144.8571  142.1814  156.2525 H   0  0  0  0  0  0  0  0  0  0  0  0
  147.3198  143.3993  154.1068 H   0  0  0  0  0  0  0  0  0  0  0  0
  146.6524  142.6893  152.6354 H   0  0  0  0  0  0  0  0  0  0  0  0
  150.3286  143.6779  156.3906 H   0  0  0  0  0  0  0  0  0  0  0  0
  153.1484  141.3615  160.2658 H   0  0  0  0  0  0  0  0  0  0  0  0
  153.5358  144.0181  160.4790 H   0  0  0  0  0  0  0  0  0  0  0  0
  1  2  2  0  0  0  0
  2  3  1  0  0  0  0
  2 10  1  0  0  0  0
  3  4  1  0  0  0  0
  3 16  1  0  0  0  0
  4  5  1  0  0  0  0
  4 17  1  0  0  0  0
  4 18  1  0  0  0  0
  5  9  1  0  0  0  0
  5  6  1  0  0  0  0
  5 19  1  0  0  0  0
  6  7  1  0  0  0  0
  6 20  1  0  0  0  0
  6 21  1  0  0  0  0
  7  8  1  0  0  0  0
  7 22  1  0  0  0  0
  7 23  1  0  0  0  0
  8  9  1  0  0  0  0
  9 24  1  0  0  0  0
  9 25  1  0  0  0  0
 10 11  1  0  0  0  0
 10 26  1  0  0  0  0
 11 15  1  0  0  0  0
 11 12  2  0  0  0  0
 12 13  1  0  0  0  0
 13 14  2  0  0  0  0
 13 27  1  0  0  0  0
 14 15  1  0  0  0  0
 14 28  1  0  0  0  0
M  END
> <s_m_source_file>
AV-unprocessed.smi

> <i_m_source_file_index>
1901

> <i_lp_mmshare_version>
43012

> <i_f3d_flags>
0

> <s_epik_input>
czFbY0hdW2NIXW5jMVtOSF1DKD1PKVtOSF1bQ0gyXVtDQEBIXTJbQ0gyXVtDSDJdT1tDSDJdMg==

> <s_epik_cmdline>
J2VwaWtfcHl0aG9uJywgJy1waCcsICc3LjAnLCAnLXRuJywgJzgnLCAnLW1hJywgJzIwMCcsICctbWV0YWxfYmluZGluZycsICctaW1hZScsICc8aW5maWxlLm1hZT4nLCAnLW9tYWUnLCAnPG91dGZpbGUubWFlPic=

> <r_lp_tautomer_probability>
0.999

> <r_epik_Ionization_Penalty>
0.000365592

> <r_epik_Ionization_Penalty_Charging>
0

> <r_epik_Ionization_Penalty_Neutral>
0.000365592

> <r_epik_State_Penalty>
0.000177984

> <r_epik_Charging_Adjusted_Penalty>
0.000177984

> <i_epik_Tot_Q>
0

> <i_epik_Tot_abs_Q>
0

> <r_epik_Metal_State_Penalty>
0.00682492

> <b_epik_Metal_Only>
0

> <s_lp_Force_Field>
OPLS_2005

> <r_lp_Energy>
17.1136

> <b_lp_Chiralities_Consistent>
1

> <s_lp_Variant>
AV-unprocessed.smi:1901-2

> <Gold.Version>
5.8.1

> <Gold.Id.Protein>
6NUR|6NUR_protein|mol2

> <Gold.PLP.Fitness>
38.0115

> <Gold.PLP.PLP>
-32.0787

> <Gold.PLP.part.hbond>
-2.0000

> <Gold.PLP.part.metal>
0.0000

> <Gold.PLP.part.buried>
-4.9797

> <Gold.PLP.part.nonpolar>
-25.1702

> <Gold.PLP.part.repulsive>
0.5044

> <Gold.PLP.ligand.clash>
0.0000

> <Gold.PLP.ligand.torsion>
0.0249

> <Gold.PLP.Chemscore.Hbond>
1.9920

> <Gold.PLP.Chemscore.CHOScore>
0.0000

> <Gold.PLP.Chemscore.Metal>
0.0000

> <Gold.Chemscore.Hbonds>
donor molecule, donor type, donor heavy atom, donor atom, acceptor molecule, acceptor atom, score
      L1  H     3    16       P1  8028  0.99
      L1  H    10    26       P1  8028  0.99

> <Gold.PLP.Chemscore.Internal.Correction>
0.0067

> <Gold.Rescore>
     Score         DG    S(hbond)    S(metal)    S(lipo)     H(rot)  DE(clash)    DE(int)     intcor
     14.85     -16.28       1.96        0.00      65.09       1.32       0.13       1.30       ----

> <Gold.Chemscore.Fitness>
14.8459

> <Gold.Chemscore.DG>
-16.2767

> <Gold.Chemscore.ZeroCoef>
-5.4800

> <Gold.Chemscore.Hbond>
1.9613

> <Gold.Chemscore.Metal>
0.0000

> <Gold.Chemscore.Lipo>
65.0922

> <Gold.Chemscore.Internal_Hbond>
0.0000

> <Gold.Chemscore.DEClash>
0.1279

> <Gold.Chemscore.DEInternal>
1.3028

> <Gold.Chemscore.Rot>
1.3163

> <Gold.Chemscore.Internal.Correction>
   9.000000E+99

> <Gold.Chemscore.Hbonds>
donor molecule, donor type, donor heavy atom, donor atom, acceptor molecule, acceptor atom, score
      L1  H     3    16       P1  8028  0.93
      L1  H    10    26       P1  8028  0.93

> <Gold.Chemscore.Hbond.Weighted>
-6.5507

> <Gold.Chemscore.Metal.Weighted>
-0.0000

> <Gold.Chemscore.Lipo.Weighted>
-7.6158

> <Gold.Chemscore.Internal_Hbond.Weighted>
0.0000

> <Gold.Chemscore.DEClash.Weighted>
0.1279

> <Gold.Chemscore.DEInternal.Weighted>
1.3028

> <Gold.Chemscore.Rot.Weighted>
3.3698

> <Gold.Chemscore.Internal.Correction.Weighted>
   9.000000E+99

> <Gold.Protein.RotatedTorsions>
[ 6907 6896 6895 6894 ] final   -6.51 input  -60.11 | X-H torsion
[ 7974 7965 7964 7962 ] final   25.67 input  175.53 | X-H torsion
[ 8008 7997 7996 7995 ] final   69.11 input   59.86 | X-H torsion
[ 10167 10162 10161 10158 ] final   -4.16 input  -65.29 | X-H torsion
[ 10718 10713 10712 10709 ] final  -87.06 input   66.30 | X-H torsion
[ 10763 10752 10751 10750 ] final  -51.90 input  -60.55 | X-H torsion
[ 11005 11000 10999 10996 ] final  121.08 input  -57.11 | X-H torsion

> <Gold.Protein.ActiveResidues>
 VAL166  LYS551  ARG553  GLY616  TRP617  ASP618  TYR619  PRO620  LYS621  CYS622 
 ASP623  PHE694  ASN695  SER759  ASP760  ASP761  ALA762  ILE779  LEU786  VAL792 
 PHE793  MET794  SER795  GLU796  ALA797  LYS798  CYS799  TRP800  GLU811  SER814 

> <Gold.Protein.RotatedAtoms>
  151.4644  135.1041  159.9733 H   0  0  0  0  0  0  0  0  0  0  0  0  # atno 6907 bound_to 6896
  152.4841  133.8323  159.7120 H   0  0  0  0  0  0  0  0  0  0  0  0  # atno 6908 bound_to 6896
  150.8935  133.7151  159.2925 H   0  0  0  0  0  0  0  0  0  0  0  0  # atno 6909 bound_to 6896
  146.1877  139.7434  142.8855 H   0  0  0  0  0  0  0  0  0  0  0  0  # atno 7974 bound_to 7965
  155.7186  140.3493  155.5006 H   0  0  0  0  0  0  0  0  0  0  0  0  # atno 8008 bound_to 7997
  155.9290  140.1081  157.1169 H   0  0  0  0  0  0  0  0  0  0  0  0  # atno 8009 bound_to 7997
  154.4082  140.1235  156.4765 H   0  0  0  0  0  0  0  0  0  0  0  0  # atno 8010 bound_to 7997
  140.6917  143.6456  150.8396 H   0  0  0  0  0  0  0  0  0  0  0  0  # atno 10167 bound_to 10162
  155.9987  130.4787  150.4810 H   0  0  0  0  0  0  0  0  0  0  0  0  # atno 10718 bound_to 10713
  154.1341  135.6515  153.4928 H   0  0  0  0  0  0  0  0  0  0  0  0  # atno 10763 bound_to 10752
  153.0186  135.5300  154.6971 H   0  0  0  0  0  0  0  0  0  0  0  0  # atno 10764 bound_to 10752
  154.6214  135.2965  155.0292 H   0  0  0  0  0  0  0  0  0  0  0  0  # atno 10765 bound_to 10752
  139.9211  134.9637  156.7904 H   0  0  0  0  0  0  0  0  0  0  0  0  # atno 11005 bound_to 11000
  145.3889  141.0369  143.3135 LP  0  0  0  0  0  0  0  0  0  0  0  0  # atno 17320 bound_to 7965
  144.8427  139.5445  143.6892 LP  0  0  0  0  0  0  0  0  0  0  0  0  # atno 17321 bound_to 7965
  140.0170  143.5583  152.2816 LP  0  0  0  0  0  0  0  0  0  0  0  0  # atno 17342 bound_to 10162
  139.6327  144.7646  151.2502 LP  0  0  0  0  0  0  0  0  0  0  0  0  # atno 17343 bound_to 10162
  157.2815  131.0608  151.2194 LP  0  0  0  0  0  0  0  0  0  0  0  0  # atno 17370 bound_to 10713
  157.3239  130.6951  149.6285 LP  0  0  0  0  0  0  0  0  0  0  0  0  # atno 17371 bound_to 10713
  140.6472  133.9764  155.7737 LP  0  0  0  0  0  0  0  0  0  0  0  0  # atno 17394 bound_to 11000
  141.0732  134.0174  157.3496 LP  0  0  0  0  0  0  0  0  0  0  0  0  # atno 17395 bound_to 11000

$$$$
