AV-unprocessed.smi:35|AV-procd|sdf|268|dock1
  -GOLD-   2262016 33D 1   1.00000     0.00000
 Structure written by MMmdl.
 28 29  0  0  0  0  0  0  0  0  2 V2000
  153.4492  143.1255  159.9342 O   0  0  0  0  0  0  0  0  0  0  0  0
  152.6560  142.4793  159.2519 C   0  0  0  0  0  0  0  0  0  0  0  0
  152.7227  141.1223  159.1244 N   0  5  0  0  0  0  0  0  0  0  0  0
  151.8378  140.4084  158.3676 C   0  0  0  0  0  0  0  0  0  0  0  0
  151.9092  139.1883  158.2202 O   0  0  0  0  0  0  0  0  0  0  0  0
  150.7908  141.1008  157.7008 N   0  0  0  0  0  0  0  0  0  0  0  0
  149.8018  140.3281  156.8549 C   0  0  1  0  0  0  0  0  0  0  0  0
  148.7381  141.1682  156.5318 O   0  0  0  0  0  0  0  0  0  0  0  0
  148.2235  140.7809  155.2674 C   0  0  1  0  0  0  0  0  0  0  0  0
  147.4100  141.9322  154.6559 C   0  0  0  0  0  0  0  0  0  0  0  0
  148.2742  142.8864  154.0761 O   0  0  0  0  0  0  0  0  0  0  0  0
  149.4955  140.4463  154.4816 C   0  0  2  0  0  0  0  0  0  0  0  0
  149.2093  139.5299  153.4440 O   0  0  0  0  0  0  0  0  0  0  0  0
  150.4020  139.8070  155.5290 C   0  0  1  0  0  0  0  0  0  0  0  0
  151.7514  140.1764  155.3062 O   0  0  0  0  0  0  0  0  0  0  0  0
  150.7087  142.4796  157.7944 C   0  0  0  0  0  0  0  0  0  0  0  0
  151.5915  143.1785  158.5361 C   0  0  0  0  0  0  0  0  0  0  0  0
  151.3587  145.1460  158.5773 Br  0  0  0  0  0  0  0  0  0  0  0  0
  149.4081  139.5279  157.4838 H   0  0  0  0  0  0  0  0  0  0  0  0
  147.6136  139.8829  155.3893 H   0  0  0  0  0  0  0  0  0  0  0  0
  146.6963  141.5653  153.9174 H   0  0  0  0  0  0  0  0  0  0  0  0
  146.8388  142.4405  155.4331 H   0  0  0  0  0  0  0  0  0  0  0  0
  148.9837  142.4301  153.6502 H   0  0  0  0  0  0  0  0  0  0  0  0
  149.9425  141.3578  154.0808 H   0  0  0  0  0  0  0  0  0  0  0  0
  149.2824  139.9849  152.6188 H   0  0  0  0  0  0  0  0  0  0  0  0
  150.3159  138.7192  155.5323 H   0  0  0  0  0  0  0  0  0  0  0  0
  151.9289  140.9611  155.8031 H   0  0  0  0  0  0  0  0  0  0  0  0
  149.9338  143.0105  157.2617 H   0  0  0  0  0  0  0  0  0  0  0  0
  1  2  2  0  0  0  0
  2 17  1  0  0  0  0
  2  3  1  0  0  0  0
  3  4  1  0  0  0  0
  4  5  2  0  0  0  0
  4  6  1  0  0  0  0
  6  7  1  0  0  0  0
  6 16  1  0  0  0  0
  7 14  1  0  0  0  0
  7  8  1  0  0  0  0
  7 19  1  0  0  0  0
  8  9  1  0  0  0  0
  9 10  1  0  0  0  0
  9 12  1  0  0  0  0
  9 20  1  0  0  0  0
 10 11  1  0  0  0  0
 10 21  1  0  0  0  0
 10 22  1  0  0  0  0
 11 23  1  0  0  0  0
 12 13  1  0  0  0  0
 12 14  1  0  0  0  0
 12 24  1  0  0  0  0
 13 25  1  0  0  0  0
 14 15  1  0  0  0  0
 14 26  1  0  0  0  0
 15 27  1  0  0  0  0
 16 17  2  0  0  0  0
 16 28  1  0  0  0  0
 17 18  1  0  0  0  0
M  CHG  1   3  -1
M  END
> <s_m_source_file>
AV-unprocessed.smi

> <i_m_source_file_index>
35

> <i_lp_mmshare_version>
43012

> <i_f3d_flags>
0

> <s_epik_input>
Tz1jMVtuSF1jKD1PKW4oW2NIXWMxQnIpW0NAQEhdMk9bQ0BASF0oW0NIMl1bT0hdKVtDQEBIXShbT0hdKVtDQEhdMltPSF0=

> <s_epik_cmdline>
J2VwaWtfcHl0aG9uJywgJy1waCcsICc3LjAnLCAnLXRuJywgJzgnLCAnLW1hJywgJzIwMCcsICctbWV0YWxfYmluZGluZycsICctaW1hZScsICc8aW5maWxlLm1hZT4nLCAnLW9tYWUnLCAnPG91dGZpbGUubWFlPic=

> <r_epik_Ionization_Penalty>
1.06112

> <r_epik_Ionization_Penalty_Charging>
2.1796e-09

> <r_epik_Ionization_Penalty_Neutral>
1.06112

> <r_epik_State_Penalty>
1.11484

> <r_epik_Charging_Adjusted_Penalty>
1.11484

> <i_epik_Tot_Q>
-1

> <i_epik_Tot_abs_Q>
1

> <r_epik_Metal_State_Penalty>
0.0032876

> <b_epik_Metal_Only>
0

> <s_epik_Chemistry_Notes>
This compound contains an acetal/aminal-like group ( X-CH(R)-Y where X, Y are N, S, or O) that may be acid/base labile, releasing an aldehyde.

> <s_lp_Force_Field>
OPLS_2005

> <r_lp_Energy>
42.419

> <b_lp_Chiralities_Consistent>
1

> <s_lp_Variant>
AV-unprocessed.smi:35-22

> <Gold.Version>
5.8.1

> <Gold.Id.Protein>
6NUR|6NUR_protein|mol2

> <Gold.PLP.Fitness>
42.5670

> <Gold.PLP.PLP>
-32.0322

> <Gold.PLP.part.hbond>
-4.1980

> <Gold.PLP.part.metal>
0.0000

> <Gold.PLP.part.buried>
-4.5913

> <Gold.PLP.part.nonpolar>
-22.4407

> <Gold.PLP.part.repulsive>
0.0745

> <Gold.PLP.ligand.clash>
0.0000

> <Gold.PLP.ligand.torsion>
0.5242

> <Gold.PLP.Chemscore.Hbond>
2.8548

> <Gold.PLP.Chemscore.CHOScore>
0.8984

> <Gold.PLP.Chemscore.Metal>
0.0000

> <Gold.Chemscore.Hbonds>
donor molecule, donor type, donor heavy atom, donor atom, acceptor molecule, acceptor atom, score
      L1  H    13    25       P1  7957  0.91
      P1  H  7989  7998       L1    15  0.88
      P1  H  8022  8030       L1    11  1.00
      L1  C    16    28       P1  8028  0.93

> <Gold.PLP.Chemscore.Internal.Correction>
0.3237

> <Gold.Rescore>
     Score         DG    S(hbond)    S(metal)    S(lipo)     H(rot)  DE(clash)    DE(int)     intcor
      8.42      -9.16       1.96        0.00      54.90       3.63       0.03       0.71       ----

> <Gold.Chemscore.Fitness>
8.4236

> <Gold.Chemscore.DG>
-9.1608

> <Gold.Chemscore.ZeroCoef>
-5.4800

> <Gold.Chemscore.Hbond>
1.9581

> <Gold.Chemscore.Metal>
0.0000

> <Gold.Chemscore.Lipo>
54.9018

> <Gold.Chemscore.Internal_Hbond>
0.0000

> <Gold.Chemscore.DEClash>
0.0303

> <Gold.Chemscore.DEInternal>
0.7068

> <Gold.Chemscore.Rot>
3.6261

> <Gold.Chemscore.Internal.Correction>
   9.000000E+99

> <Gold.Chemscore.Hbonds>
donor molecule, donor type, donor heavy atom, donor atom, acceptor molecule, acceptor atom, score
      L1  H    13    25       P1  7957  0.85
      P1  H  7989  7998       L1    15  0.09
      P1  H  8022  8030       L1    11  0.42

> <Gold.Chemscore.Hbond.Weighted>
-6.5400

> <Gold.Chemscore.Metal.Weighted>
-0.0000

> <Gold.Chemscore.Lipo.Weighted>
-6.4235

> <Gold.Chemscore.Internal_Hbond.Weighted>
0.0000

> <Gold.Chemscore.DEClash.Weighted>
0.0303

> <Gold.Chemscore.DEInternal.Weighted>
0.7068

> <Gold.Chemscore.Rot.Weighted>
9.2828

> <Gold.Chemscore.Internal.Correction.Weighted>
   9.000000E+99

> <Gold.Protein.RotatedTorsions>
[ 6907 6896 6895 6894 ] final -114.12 input  -60.11 | X-H torsion
[ 7974 7965 7964 7962 ] final  176.58 input  175.53 | X-H torsion
[ 8008 7997 7996 7995 ] final  -26.79 input   59.86 | X-H torsion
[ 10167 10162 10161 10158 ] final   -5.78 input  -65.29 | X-H torsion
[ 10718 10713 10712 10709 ] final -113.31 input   66.30 | X-H torsion
[ 10763 10752 10751 10750 ] final   80.24 input  -60.55 | X-H torsion
[ 11005 11000 10999 10996 ] final  -29.79 input  -57.11 | X-H torsion

> <Gold.Protein.ActiveResidues>
 VAL166  LYS551  ARG553  GLY616  TRP617  ASP618  TYR619  PRO620  LYS621  CYS622 
 ASP623  PHE694  ASN695  SER759  ASP760  ASP761  ALA762  ILE779  LEU786  VAL792 
 PHE793  MET794  SER795  GLU796  ALA797  LYS798  CYS799  TRP800  GLU811  SER814 

> <Gold.Protein.RotatedAtoms>
  150.7879  133.8847  159.3295 H   0  0  0  0  0  0  0  0  0  0  0  0  # atno 6907 bound_to 6896
  151.6692  135.0976  160.0204 H   0  0  0  0  0  0  0  0  0  0  0  0  # atno 6908 bound_to 6896
  152.3947  133.6690  159.6301 H   0  0  0  0  0  0  0  0  0  0  0  0  # atno 6909 bound_to 6896
  144.7182  140.0118  143.6440 H   0  0  0  0  0  0  0  0  0  0  0  0  # atno 7974 bound_to 7965
  154.4408  140.1890  156.0831 H   0  0  0  0  0  0  0  0  0  0  0  0  # atno 8008 bound_to 7997
  156.0424  140.3318  155.7232 H   0  0  0  0  0  0  0  0  0  0  0  0  # atno 8009 bound_to 7997
  155.5680  140.0610  157.2804 H   0  0  0  0  0  0  0  0  0  0  0  0  # atno 8010 bound_to 7997
  140.6975  143.6269  150.8559 H   0  0  0  0  0  0  0  0  0  0  0  0  # atno 10167 bound_to 10162
  156.0759  130.5966  150.8625 H   0  0  0  0  0  0  0  0  0  0  0  0  # atno 10718 bound_to 10713
  153.1018  135.4810  154.8879 H   0  0  0  0  0  0  0  0  0  0  0  0  # atno 10763 bound_to 10752
  154.7386  135.3077  154.8769 H   0  0  0  0  0  0  0  0  0  0  0  0  # atno 10764 bound_to 10752
  153.9384  135.6837  153.4798 H   0  0  0  0  0  0  0  0  0  0  0  0  # atno 10765 bound_to 10752
  140.9327  133.7328  156.0959 H   0  0  0  0  0  0  0  0  0  0  0  0  # atno 11005 bound_to 11000
  146.0252  139.3286  143.0789 LP  0  0  0  0  0  0  0  0  0  0  0  0  # atno 17320 bound_to 7965
  145.8520  140.9523  143.0744 LP  0  0  0  0  0  0  0  0  0  0  0  0  # atno 17321 bound_to 7965
  139.9989  143.5766  152.2883 LP  0  0  0  0  0  0  0  0  0  0  0  0  # atno 17342 bound_to 10162
  139.6448  144.7657  151.2266 LP  0  0  0  0  0  0  0  0  0  0  0  0  # atno 17343 bound_to 10162
  157.5853  131.0945  150.9206 LP  0  0  0  0  0  0  0  0  0  0  0  0  # atno 17370 bound_to 10713
  156.9393  130.5378  149.5280 LP  0  0  0  0  0  0  0  0  0  0  0  0  # atno 17371 bound_to 10713
  140.7841  134.3692  157.5480 LP  0  0  0  0  0  0  0  0  0  0  0  0  # atno 17394 bound_to 11000
  139.8800  134.9100  156.3003 LP  0  0  0  0  0  0  0  0  0  0  0  0  # atno 17395 bound_to 11000

$$$$
