AV-unprocessed.smi:697|AV-procd|sdf|3389|dock10
  -GOLD-   22720 0373D 1   1.00000     0.00000
 Structure written by MMmdl.
 44 45  0  0  0  0  0  0  0  0  1 V2000
  150.3924  141.6563  155.5534 C   0  0  0  0  0  0  0  0  0  0  0  0
  150.9175  140.3656  155.2719 O   0  0  0  0  0  0  0  0  0  0  0  0
  150.4036  139.2881  156.0566 C   0  0  1  0  0  0  0  0  0  0  0  0
  150.4259  139.6665  157.5460 C   0  0  0  0  0  0  0  0  0  0  0  0
  149.0962  138.7156  155.4786 C   0  0  0  0  0  0  0  0  0  0  0  0
  149.6814  137.3336  155.7610 C   0  0  1  0  0  0  0  0  0  0  0  0
  149.3265  136.3525  154.7415 N   0  0  0  0  0  0  0  0  0  0  0  0
  148.7498  135.1709  154.9978 C   0  0  0  0  0  0  0  0  0  0  0  0
  148.4551  134.7980  156.1331 O   0  0  0  0  0  0  0  0  0  0  0  0
  148.5346  134.4854  153.8602 N   0  0  0  0  0  0  0  0  0  0  0  0
  147.9712  133.2105  153.6809 C   0  0  0  0  0  0  0  0  0  0  0  0
  148.5930  132.0370  153.9686 C   0  0  0  0  0  0  0  0  0  0  0  0
  147.9534  130.7504  153.7481 C   0  0  0  0  0  0  0  0  0  0  0  0
  148.6279  129.4462  154.1442 C   0  0  0  0  0  0  0  0  0  0  0  0
  149.8714  129.6570  154.5776 F   0  0  0  0  0  0  0  0  0  0  0  0
  147.9408  128.8615  155.1244 F   0  0  0  0  0  0  0  0  0  0  0  0
  148.6812  128.6021  153.1139 F   0  0  0  0  0  0  0  0  0  0  0  0
  146.7023  130.7791  153.2533 C   0  0  0  0  0  0  0  0  0  0  0  0
  146.0641  131.9798  152.9354 N   0  0  0  0  0  0  0  0  0  0  0  0
  146.6140  133.2023  153.1099 C   0  0  0  0  0  0  0  0  0  0  0  0
  145.9874  134.2150  152.7997 O   0  0  0  0  0  0  0  0  0  0  0  0
  151.0911  137.9588  155.6033 C   0  0  0  0  0  0  0  0  0  0  0  0
  151.6976  137.9560  154.1852 C   0  0  0  0  0  0  0  0  0  0  0  0
  152.1779  137.3939  156.5232 C   0  0  0  0  0  0  0  0  0  0  0  0
  145.1323  131.9163  152.5512 H   0  0  0  0  0  0  0  0  0  0  0  0
  150.7960  142.3685  154.8338 H   0  0  0  0  0  0  0  0  0  0  0  0
  150.6765  142.0039  156.5461 H   0  0  0  0  0  0  0  0  0  0  0  0
  149.3059  141.6830  155.4689 H   0  0  0  0  0  0  0  0  0  0  0  0
  150.1707  138.8204  158.1837 H   0  0  0  0  0  0  0  0  0  0  0  0
  149.7061  140.4509  157.7777 H   0  0  0  0  0  0  0  0  0  0  0  0
  151.4113  140.0193  157.8509 H   0  0  0  0  0  0  0  0  0  0  0  0
  148.2001  138.9524  156.0529 H   0  0  0  0  0  0  0  0  0  0  0  0
  148.9561  138.9248  154.4163 H   0  0  0  0  0  0  0  0  0  0  0  0
  149.4703  137.0058  156.7815 H   0  0  0  0  0  0  0  0  0  0  0  0
  149.5336  136.5898  153.7823 H   0  0  0  0  0  0  0  0  0  0  0  0
  148.7753  134.9591  153.0015 H   0  0  0  0  0  0  0  0  0  0  0  0
  149.5988  132.0214  154.3547 H   0  0  0  0  0  0  0  0  0  0  0  0
  146.1012  129.9010  153.0684 H   0  0  0  0  0  0  0  0  0  0  0  0
  151.9843  136.9518  153.8712 H   0  0  0  0  0  0  0  0  0  0  0  0
  152.5929  138.5765  154.1337 H   0  0  0  0  0  0  0  0  0  0  0  0
  151.0031  138.3373  153.4367 H   0  0  0  0  0  0  0  0  0  0  0  0
  152.5370  136.4262  156.1717 H   0  0  0  0  0  0  0  0  0  0  0  0
  151.8146  137.2402  157.5390 H   0  0  0  0  0  0  0  0  0  0  0  0
  153.0373  138.0625  156.5819 H   0  0  0  0  0  0  0  0  0  0  0  0
  1  2  1  0  0  0  0
  1 26  1  0  0  0  0
  1 27  1  0  0  0  0
  1 28  1  0  0  0  0
  2  3  1  0  0  0  0
  3 22  1  0  0  0  0
  3  4  1  0  0  0  0
  3  5  1  0  0  0  0
  4 29  1  0  0  0  0
  4 30  1  0  0  0  0
  4 31  1  0  0  0  0
  5  6  1  0  0  0  0
  5 32  1  0  0  0  0
  5 33  1  0  0  0  0
  6  7  1  0  0  0  0
  6 22  1  0  0  0  0
  6 34  1  0  0  0  0
  7  8  1  0  0  0  0
  7 35  1  0  0  0  0
  8  9  2  0  0  0  0
  8 10  1  0  0  0  0
 10 11  1  0  0  0  0
 10 36  1  0  0  0  0
 11 20  1  0  0  0  0
 11 12  2  0  0  0  0
 12 13  1  0  0  0  0
 12 37  1  0  0  0  0
 13 14  1  0  0  0  0
 13 18  2  0  0  0  0
 14 15  1  0  0  0  0
 14 16  1  0  0  0  0
 14 17  1  0  0  0  0
 18 19  1  0  0  0  0
 18 38  1  0  0  0  0
 19 25  1  0  0  0  0
 19 20  1  0  0  0  0
 20 21  2  0  0  0  0
 22 23  1  0  0  0  0
 22 24  1  0  0  0  0
 23 39  1  0  0  0  0
 23 40  1  0  0  0  0
 23 41  1  0  0  0  0
 24 42  1  0  0  0  0
 24 43  1  0  0  0  0
 24 44  1  0  0  0  0
M  END
> <s_m_source_file>
AV-unprocessed.smi

> <i_m_source_file_index>
697

> <i_lp_mmshare_version>
43012

> <i_f3d_flags>
0

> <s_epik_input>
W0NIM11PW0NAQF0xKFtDSDNdKVtDSDJdW0NASF0oQzEoW0NIM10pW0NIM10pW05IXUMoPU8pW05IXWMyW2NIXWMoQyhGKShGKUYpW2NIXVtuSF1jMj1P

> <s_epik_cmdline>
J2VwaWtfcHl0aG9uJywgJy1waCcsICc3LjAnLCAnLXRuJywgJzgnLCAnLW1hJywgJzIwMCcsICctbWV0YWxfYmluZGluZycsICctaW1hZScsICc8aW5maWxlLm1hZT4nLCAnLW9tYWUnLCAnPG91dGZpbGUubWFlPic=

> <r_lp_tautomer_probability>
1

> <r_epik_Ionization_Penalty>
0.0036482

> <r_epik_Ionization_Penalty_Charging>
0.00362828

> <r_epik_Ionization_Penalty_Neutral>
1.99208e-05

> <r_epik_State_Penalty>
-0

> <r_epik_Charging_Adjusted_Penalty>
0.00362828

> <i_epik_Tot_Q>
0

> <i_epik_Tot_abs_Q>
0

> <r_epik_Metal_State_Penalty>
0.369362

> <b_epik_Metal_Only>
0

> <s_lp_Force_Field>
OPLS_2005

> <r_lp_Energy>
34.4926

> <b_lp_Chiralities_Consistent>
1

> <s_lp_Variant>
AV-unprocessed.smi:697-1

> <Gold.Version>
5.8.1

> <Gold.Id.Protein>
6NUR|6NUR_protein|mol2

> <Gold.PLP.Fitness>
37.3915

> <Gold.PLP.PLP>
-30.3261

> <Gold.PLP.part.hbond>
-3.0000

> <Gold.PLP.part.metal>
0.0000

> <Gold.PLP.part.buried>
-5.5810

> <Gold.PLP.part.nonpolar>
-22.4872

> <Gold.PLP.part.repulsive>
0.1789

> <Gold.PLP.ligand.clash>
0.0000

> <Gold.PLP.ligand.torsion>
1.0366

> <Gold.PLP.Chemscore.Hbond>
2.9120

> <Gold.PLP.Chemscore.CHOScore>
0.0000

> <Gold.PLP.Chemscore.Metal>
0.0000

> <Gold.Chemscore.Hbonds>
donor molecule, donor type, donor heavy atom, donor atom, acceptor molecule, acceptor atom, score
      L1  H     7    35       P1  7948  0.88
      L1  H    10    36       P1  7948  1.00
      P1  H  7989  7998       L1     2  0.70

> <Gold.PLP.Chemscore.Internal.Correction>
0.4025

> <Gold.Rescore>
     Score         DG    S(hbond)    S(metal)    S(lipo)     H(rot)  DE(clash)    DE(int)     intcor
     16.00     -18.20       2.51        0.00      65.57       1.31       1.18       1.02       ----

> <Gold.Chemscore.Fitness>
16.0045

> <Gold.Chemscore.DG>
-18.2038

> <Gold.Chemscore.ZeroCoef>
-5.4800

> <Gold.Chemscore.Hbond>
2.5139

> <Gold.Chemscore.Metal>
0.0000

> <Gold.Chemscore.Lipo>
65.5658

> <Gold.Chemscore.Internal_Hbond>
0.0000

> <Gold.Chemscore.DEClash>
1.1839

> <Gold.Chemscore.DEInternal>
1.0153

> <Gold.Chemscore.Rot>
1.3062

> <Gold.Chemscore.Internal.Correction>
   9.000000E+99

> <Gold.Chemscore.Hbonds>
donor molecule, donor type, donor heavy atom, donor atom, acceptor molecule, acceptor atom, score
      L1  H     7    35       P1  7948  0.65
      L1  H    10    36       P1  7948  0.30
      P1  H  7989  7998       L1     2  0.07

> <Gold.Chemscore.Hbond.Weighted>
-8.3965

> <Gold.Chemscore.Metal.Weighted>
-0.0000

> <Gold.Chemscore.Lipo.Weighted>
-7.6712

> <Gold.Chemscore.Internal_Hbond.Weighted>
0.0000

> <Gold.Chemscore.DEClash.Weighted>
1.1839

> <Gold.Chemscore.DEInternal.Weighted>
1.0153

> <Gold.Chemscore.Rot.Weighted>
3.3440

> <Gold.Chemscore.Internal.Correction.Weighted>
   9.000000E+99

> <Gold.Protein.RotatedTorsions>
[ 6907 6896 6895 6894 ] final   85.68 input  -60.11 | X-H torsion
[ 7974 7965 7964 7962 ] final   27.62 input  175.53 | X-H torsion
[ 8008 7997 7996 7995 ] final  -81.25 input   59.86 | X-H torsion
[ 10167 10162 10161 10158 ] final  179.42 input  -65.29 | X-H torsion
[ 10718 10713 10712 10709 ] final    5.19 input   66.30 | X-H torsion
[ 10763 10752 10751 10750 ] final -113.49 input  -60.55 | X-H torsion
[ 11005 11000 10999 10996 ] final   49.33 input  -57.11 | X-H torsion

> <Gold.Protein.ActiveResidues>
 VAL166  LYS551  ARG553  GLY616  TRP617  ASP618  TYR619  PRO620  LYS621  CYS622 
 ASP623  PHE694  ASN695  SER759  ASP760  ASP761  ALA762  ILE779  LEU786  VAL792 
 PHE793  MET794  SER795  GLU796  ALA797  LYS798  CYS799  TRP800  GLU811  SER814 

> <Gold.Protein.RotatedAtoms>
  152.5379  134.2548  159.8912 H   0  0  0  0  0  0  0  0  0  0  0  0  # atno 6907 bound_to 6896
  151.2510  133.4343  159.2619 H   0  0  0  0  0  0  0  0  0  0  0  0  # atno 6908 bound_to 6896
  151.0539  134.9705  159.8282 H   0  0  0  0  0  0  0  0  0  0  0  0  # atno 6909 bound_to 6896
  146.1774  139.7167  142.8924 H   0  0  0  0  0  0  0  0  0  0  0  0  # atno 7974 bound_to 7965
  154.5964  140.0651  156.9309 H   0  0  0  0  0  0  0  0  0  0  0  0  # atno 8008 bound_to 7997
  155.2207  140.3330  155.4298 H   0  0  0  0  0  0  0  0  0  0  0  0  # atno 8009 bound_to 7997
  156.2290  140.1832  156.7275 H   0  0  0  0  0  0  0  0  0  0  0  0  # atno 8010 bound_to 7997
  139.5336  144.2563  152.0744 H   0  0  0  0  0  0  0  0  0  0  0  0  # atno 10167 bound_to 10162
  156.9038  130.5731  149.5647 H   0  0  0  0  0  0  0  0  0  0  0  0  # atno 10718 bound_to 10713
  154.8398  135.4452  154.1357 H   0  0  0  0  0  0  0  0  0  0  0  0  # atno 10763 bound_to 10752
  153.2556  135.6931  153.7639 H   0  0  0  0  0  0  0  0  0  0  0  0  # atno 10764 bound_to 10752
  153.6935  135.3383  155.3183 H   0  0  0  0  0  0  0  0  0  0  0  0  # atno 10765 bound_to 10752
  140.1113  134.4951  155.8675 H   0  0  0  0  0  0  0  0  0  0  0  0  # atno 11005 bound_to 11000
  145.4172  141.0403  143.2984 LP  0  0  0  0  0  0  0  0  0  0  0  0  # atno 17320 bound_to 7965
  144.8259  139.5711  143.6966 LP  0  0  0  0  0  0  0  0  0  0  0  0  # atno 17321 bound_to 7965
  140.2030  144.4639  150.6422 LP  0  0  0  0  0  0  0  0  0  0  0  0  # atno 17342 bound_to 10162
  140.6529  143.2229  151.6036 LP  0  0  0  0  0  0  0  0  0  0  0  0  # atno 17343 bound_to 10162
  156.0569  130.5629  150.9110 LP  0  0  0  0  0  0  0  0  0  0  0  0  # atno 17370 bound_to 10713
  157.6010  131.0941  150.8960 LP  0  0  0  0  0  0  0  0  0  0  0  0  # atno 17371 bound_to 10713
  141.2131  133.6728  156.6710 LP  0  0  0  0  0  0  0  0  0  0  0  0  # atno 17394 bound_to 11000
  140.3087  134.8104  157.4158 LP  0  0  0  0  0  0  0  0  0  0  0  0  # atno 17395 bound_to 11000

$$$$
