AV-unprocessed.smi:3089|AV-procd|sdf|11770|dock7
  -GOLD-   2272017153D 1   1.00000     0.00000
 Structure written by MMmdl.
 25 25  0  0  0  0  0  0  0  0  2 V2000
  151.9444  143.2962  157.7736 C   0  0  0  0  0  0  0  0  0  0  0  0
  151.3022  142.2226  157.0456 N   0  0  0  0  0  0  0  0  0  0  0  0
  150.4375  142.3039  155.9762 C   0  0  0  0  0  0  0  0  0  0  0  0
  150.0904  141.0279  155.6240 C   0  0  0  0  0  0  0  0  0  0  0  0
  149.1613  140.5739  154.5175 C   0  0  1  0  0  0  0  0  0  0  0  0
  147.7740  141.2131  154.7004 C   0  0  0  0  0  0  0  0  0  0  0  0
  149.6143  140.9912  153.2428 O   0  0  0  0  0  0  0  0  0  0  0  0
  149.0460  139.0337  154.4826 C   0  0  0  0  0  0  0  0  0  0  0  0
  148.3084  138.5554  153.2982 N   0  3  0  0  0  0  0  0  0  0  0  0
  150.8166  140.2283  156.5558 C   0  0  0  0  0  0  0  0  0  0  0  0
  151.5338  140.9446  157.4054 N   0  0  0  0  0  0  0  0  0  0  0  0
  151.6501  144.2599  157.3572 H   0  0  0  0  0  0  0  0  0  0  0  0
  153.0276  143.1955  157.7012 H   0  0  0  0  0  0  0  0  0  0  0  0
  151.6503  143.2593  158.8230 H   0  0  0  0  0  0  0  0  0  0  0  0
  150.1414  143.2544  155.5572 H   0  0  0  0  0  0  0  0  0  0  0  0
  147.3220  140.9193  155.6486 H   0  0  0  0  0  0  0  0  0  0  0  0
  147.0876  140.9147  153.9070 H   0  0  0  0  0  0  0  0  0  0  0  0
  147.8346  142.3023  154.6901 H   0  0  0  0  0  0  0  0  0  0  0  0
  149.5625  140.2592  152.6469 H   0  0  0  0  0  0  0  0  0  0  0  0
  150.0384  138.5813  154.4651 H   0  0  0  0  0  0  0  0  0  0  0  0
  148.5484  138.6620  155.3793 H   0  0  0  0  0  0  0  0  0  0  0  0
  148.6074  139.0664  152.4801 H   0  0  0  0  0  0  0  0  0  0  0  0
  147.3185  138.6953  153.4424 H   0  0  0  0  0  0  0  0  0  0  0  0
  150.8400  139.1518  156.6423 H   0  0  0  0  0  0  0  0  0  0  0  0
  148.4902  137.5702  153.1684 H   0  0  0  0  0  0  0  0  0  0  0  0
  1  2  1  0  0  0  0
  1 12  1  0  0  0  0
  1 13  1  0  0  0  0
  1 14  1  0  0  0  0
  2 11  1  0  0  0  0
  2  3  1  0  0  0  0
  3  4  2  0  0  0  0
  3 15  1  0  0  0  0
  4  5  1  0  0  0  0
  4 10  1  0  0  0  0
  5  6  1  0  0  0  0
  5  7  1  0  0  0  0
  5  8  1  0  0  0  0
  6 16  1  0  0  0  0
  6 17  1  0  0  0  0
  6 18  1  0  0  0  0
  7 19  1  0  0  0  0
  8  9  1  0  0  0  0
  8 20  1  0  0  0  0
  8 21  1  0  0  0  0
  9 22  1  0  0  0  0
  9 23  1  0  0  0  0
  9 25  1  0  0  0  0
 10 11  2  0  0  0  0
 10 24  1  0  0  0  0
M  CHG  1   9   1
M  END
> <s_m_source_file>
AV-unprocessed.smi

> <i_m_source_file_index>
3089

> <i_lp_mmshare_version>
43012

> <i_f3d_flags>
0

> <s_epik_input>
W0NIM11uMVtjSF1jKFtjSF1uMSlbQ0BAXShbQ0gzXSkoW09IXSlbQ0gyXVtOSDJd

> <s_epik_cmdline>
J2VwaWtfcHl0aG9uJywgJy1waCcsICc3LjAnLCAnLXRuJywgJzgnLCAnLW1hJywgJzIwMCcsICctbWV0YWxfYmluZGluZycsICctaW1hZScsICc8aW5maWxlLm1hZT4nLCAnLW9tYWUnLCAnPG91dGZpbGUubWFlPic=

> <r_lp_tautomer_probability>
1

> <r_epik_Ionization_Penalty>
0.0140512

> <r_epik_Ionization_Penalty_Charging>
0.0140431

> <r_epik_Ionization_Penalty_Neutral>
8.10489e-06

> <r_epik_State_Penalty>
0.0109628

> <r_epik_Charging_Adjusted_Penalty>
0.0250059

> <i_epik_Tot_Q>
1

> <i_epik_Tot_abs_Q>
1

> <r_epik_Metal_State_Penalty>
0.0109638

> <b_epik_Metal_Only>
0

> <s_lp_Force_Field>
OPLS_2005

> <r_lp_Energy>
3.27267

> <b_lp_Chiralities_Consistent>
1

> <s_lp_Variant>
AV-unprocessed.smi:3089-1

> <Gold.Version>
5.8.1

> <Gold.Id.Protein>
6NUR|6NUR_protein|mol2

> <Gold.PLP.Fitness>
38.9947

> <Gold.PLP.PLP>
-20.9725

> <Gold.PLP.part.hbond>
-4.3104

> <Gold.PLP.part.metal>
0.0000

> <Gold.PLP.part.buried>
-1.9163

> <Gold.PLP.part.nonpolar>
-14.8808

> <Gold.PLP.part.repulsive>
0.0538

> <Gold.PLP.ligand.clash>
0.0000

> <Gold.PLP.ligand.torsion>
0.0668

> <Gold.PLP.Chemscore.Hbond>
5.0464

> <Gold.PLP.Chemscore.CHOScore>
1.0000

> <Gold.PLP.Chemscore.Metal>
0.0000

> <Gold.Chemscore.Hbonds>
donor molecule, donor type, donor heavy atom, donor atom, acceptor molecule, acceptor atom, score
      L1  H     7    19       P1  7957  0.68
      L1  H     9    22       P1  7957  1.00
      L1  H     9    25       P1  7948  1.73
      P1  H  7989  7998       L1     7  0.12
      P1  H  8011  8017       L1     7  1.00
      L1  C     3    15       P1  8028  0.74

> <Gold.PLP.Chemscore.Internal.Correction>
0.0166

> <Gold.Rescore>
     Score         DG    S(hbond)    S(metal)    S(lipo)     H(rot)  DE(clash)    DE(int)     intcor
     15.96     -16.06       2.89        0.00      49.12       1.89       0.08       0.02       ----

> <Gold.Chemscore.Fitness>
15.9578

> <Gold.Chemscore.DG>
-16.0609

> <Gold.Chemscore.ZeroCoef>
-5.4800

> <Gold.Chemscore.Hbond>
2.8945

> <Gold.Chemscore.Metal>
0.0000

> <Gold.Chemscore.Lipo>
49.1238

> <Gold.Chemscore.Internal_Hbond>
0.0000

> <Gold.Chemscore.DEClash>
0.0825

> <Gold.Chemscore.DEInternal>
0.0206

> <Gold.Chemscore.Rot>
1.8883

> <Gold.Chemscore.Internal.Correction>
   9.000000E+99

> <Gold.Chemscore.Hbonds>
donor molecule, donor type, donor heavy atom, donor atom, acceptor molecule, acceptor atom, score
      L1  H     7    19       P1  7957  0.65
      L1  H     9    22       P1  7957  1.00
      L1  H     9    25       P1  7948  0.85
      P1  H  7989  7998       L1     7  0.01
      P1  H  8011  8017       L1     7  0.65

> <Gold.Chemscore.Hbond.Weighted>
-9.6675

> <Gold.Chemscore.Metal.Weighted>
-0.0000

> <Gold.Chemscore.Lipo.Weighted>
-5.7475

> <Gold.Chemscore.Internal_Hbond.Weighted>
0.0000

> <Gold.Chemscore.DEClash.Weighted>
0.0825

> <Gold.Chemscore.DEInternal.Weighted>
0.0206

> <Gold.Chemscore.Rot.Weighted>
4.8341

> <Gold.Chemscore.Internal.Correction.Weighted>
   9.000000E+99

> <Gold.Protein.RotatedTorsions>
[ 6907 6896 6895 6894 ] final   35.49 input  -60.11 | X-H torsion
[ 7974 7965 7964 7962 ] final  -97.63 input  175.53 | X-H torsion
[ 8008 7997 7996 7995 ] final  100.17 input   59.86 | X-H torsion
[ 10167 10162 10161 10158 ] final   99.37 input  -65.29 | X-H torsion
[ 10718 10713 10712 10709 ] final  121.96 input   66.30 | X-H torsion
[ 10763 10752 10751 10750 ] final  140.01 input  -60.55 | X-H torsion
[ 11005 11000 10999 10996 ] final   85.53 input  -57.11 | X-H torsion

> <Gold.Protein.ActiveResidues>
 VAL166  LYS551  ARG553  GLY616  TRP617  ASP618  TYR619  PRO620  LYS621  CYS622 
 ASP623  PHE694  ASN695  SER759  ASP760  ASP761  ALA762  ILE779  LEU786  VAL792 
 PHE793  MET794  SER795  GLU796  ALA797  LYS798  CYS799  TRP800  GLU811  SER814 

> <Gold.Protein.RotatedAtoms>
  152.1168  134.9234  160.0564 H   0  0  0  0  0  0  0  0  0  0  0  0  # atno 6907 bound_to 6896
  152.0391  133.3964  159.4337 H   0  0  0  0  0  0  0  0  0  0  0  0  # atno 6908 bound_to 6896
  150.6846  134.3356  159.4889 H   0  0  0  0  0  0  0  0  0  0  0  0  # atno 6909 bound_to 6896
  145.3312  140.9442  143.2660 H   0  0  0  0  0  0  0  0  0  0  0  0  # atno 7974 bound_to 7965
  156.1177  140.3217  155.8162 H   0  0  0  0  0  0  0  0  0  0  0  0  # atno 8008 bound_to 7997
  155.4561  140.0536  157.3013 H   0  0  0  0  0  0  0  0  0  0  0  0  # atno 8009 bound_to 7997
  154.4804  140.2050  155.9790 H   0  0  0  0  0  0  0  0  0  0  0  0  # atno 8010 bound_to 7997
  139.7624  144.6950  151.0273 H   0  0  0  0  0  0  0  0  0  0  0  0  # atno 10167 bound_to 10162
  157.5778  131.1077  150.8245 H   0  0  0  0  0  0  0  0  0  0  0  0  # atno 10718 bound_to 10713
  153.9156  135.3006  155.3448 H   0  0  0  0  0  0  0  0  0  0  0  0  # atno 10763 bound_to 10752
  154.7601  135.4938  153.9452 H   0  0  0  0  0  0  0  0  0  0  0  0  # atno 10764 bound_to 10752
  153.1169  135.6773  153.9504 H   0  0  0  0  0  0  0  0  0  0  0  0  # atno 10765 bound_to 10752
  139.8969  134.8293  156.2595 H   0  0  0  0  0  0  0  0  0  0  0  0  # atno 11005 bound_to 11000
  144.8862  139.4836  143.6699 LP  0  0  0  0  0  0  0  0  0  0  0  0  # atno 17320 bound_to 7965
  146.3044  139.7533  142.9067 LP  0  0  0  0  0  0  0  0  0  0  0  0  # atno 17321 bound_to 7965
  140.7808  143.4682  151.0183 LP  0  0  0  0  0  0  0  0  0  0  0  0  # atno 17342 bound_to 10162
  139.8367  143.7618  152.3180 LP  0  0  0  0  0  0  0  0  0  0  0  0  # atno 17343 bound_to 10162
  156.8699  130.5142  149.5297 LP  0  0  0  0  0  0  0  0  0  0  0  0  # atno 17370 bound_to 10713
  156.0823  130.5830  150.9586 LP  0  0  0  0  0  0  0  0  0  0  0  0  # atno 17371 bound_to 10713
  141.0171  133.7062  156.1207 LP  0  0  0  0  0  0  0  0  0  0  0  0  # atno 17394 bound_to 11000
  140.7285  134.4280  157.5568 LP  0  0  0  0  0  0  0  0  0  0  0  0  # atno 17395 bound_to 11000

$$$$
