AV-unprocessed.smi:2512|AV-procd|sdf|9890|dock1
  -GOLD-   2272013523D 1   1.00000     0.00000
 Structure written by MMmdl.
 27 28  0  0  0  0  0  0  0  0  1 V2000
  150.0864  138.7060  156.1675 C   0  0  0  0  0  0  0  0  0  0  0  0
  151.0260  139.5961  155.3324 C   0  0  0  0  0  0  0  0  0  0  0  0
  152.3419  138.8588  155.0342 C   0  0  0  0  0  0  0  0  0  0  0  0
  150.3869  139.8180  154.0898 O   0  0  0  0  0  0  0  0  0  0  0  0
  151.3158  140.9642  156.0002 C   0  0  0  0  0  0  0  0  0  0  0  0
  151.9275  140.8699  157.3178 N   0  0  0  0  0  0  0  0  0  0  0  0
  152.6407  139.7553  157.6485 N   0  0  0  0  0  0  0  0  0  0  0  0
  153.0910  139.8918  158.8596 N   0  0  0  0  0  0  0  0  0  0  0  0
  152.6768  141.1250  159.3337 C   0  0  0  0  0  0  0  0  0  0  0  0
  152.8848  141.7768  160.5696 C   0  0  0  0  0  0  0  0  0  0  0  0
  152.3448  143.0612  160.7995 C   0  0  0  0  0  0  0  0  0  0  0  0
  152.6225  143.8260  162.3237 Cl  0  0  0  0  0  0  0  0  0  0  0  0
  151.5892  143.7091  159.7925 C   0  0  0  0  0  0  0  0  0  0  0  0
  150.9233  145.2815  160.0554 Cl  0  0  0  0  0  0  0  0  0  0  0  0
  151.3729  143.0700  158.5555 C   0  0  0  0  0  0  0  0  0  0  0  0
  151.9176  141.7914  158.3475 C   0  0  0  0  0  0  0  0  0  0  0  0
  150.4960  138.5264  157.1621 H   0  0  0  0  0  0  0  0  0  0  0  0
  149.9366  137.7352  155.6939 H   0  0  0  0  0  0  0  0  0  0  0  0
  149.1012  139.1569  156.2909 H   0  0  0  0  0  0  0  0  0  0  0  0
  152.8866  138.6400  155.9533 H   0  0  0  0  0  0  0  0  0  0  0  0
  152.9970  139.4546  154.3975 H   0  0  0  0  0  0  0  0  0  0  0  0
  152.1621  137.9108  154.5256 H   0  0  0  0  0  0  0  0  0  0  0  0
  149.4540  139.8624  154.2338 H   0  0  0  0  0  0  0  0  0  0  0  0
  151.9730  141.5551  155.3598 H   0  0  0  0  0  0  0  0  0  0  0  0
  150.3949  141.5408  156.0962 H   0  0  0  0  0  0  0  0  0  0  0  0
  153.4622  141.2884  161.3408 H   0  0  0  0  0  0  0  0  0  0  0  0
  150.7972  143.5529  157.7798 H   0  0  0  0  0  0  0  0  0  0  0  0
  1  2  1  0  0  0  0
  1 17  1  0  0  0  0
  1 18  1  0  0  0  0
  1 19  1  0  0  0  0
  2  3  1  0  0  0  0
  2  4  1  0  0  0  0
  2  5  1  0  0  0  0
  3 20  1  0  0  0  0
  3 21  1  0  0  0  0
  3 22  1  0  0  0  0
  4 23  1  0  0  0  0
  5  6  1  0  0  0  0
  5 24  1  0  0  0  0
  5 25  1  0  0  0  0
  6 16  1  0  0  0  0
  6  7  1  0  0  0  0
  7  8  2  0  0  0  0
  8  9  1  0  0  0  0
  9 16  2  0  0  0  0
  9 10  1  0  0  0  0
 10 11  2  0  0  0  0
 10 26  1  0  0  0  0
 11 12  1  0  0  0  0
 11 13  1  0  0  0  0
 13 14  1  0  0  0  0
 13 15  2  0  0  0  0
 15 16  1  0  0  0  0
 15 27  1  0  0  0  0
M  END
> <s_m_source_file>
AV-unprocessed.smi

> <i_m_source_file_index>
2512

> <i_lp_mmshare_version>
43012

> <i_f3d_flags>
0

> <s_epik_input>
W0NIM11DKFtDSDNdKShbT0hdKVtDSDJdbihubjEpYyhjMTIpW2NIXWMoQ2wpYyhDbClbY0hdMg==

> <s_epik_cmdline>
J2VwaWtfcHl0aG9uJywgJy1waCcsICc3LjAnLCAnLXRuJywgJzgnLCAnLW1hJywgJzIwMCcsICctbWV0YWxfYmluZGluZycsICctaW1hZScsICc8aW5maWxlLm1hZT4nLCAnLW9tYWUnLCAnPG91dGZpbGUubWFlPic=

> <r_lp_tautomer_probability>
1

> <r_epik_Ionization_Penalty>
2.14984e-07

> <r_epik_Ionization_Penalty_Charging>
0

> <r_epik_Ionization_Penalty_Neutral>
2.14984e-07

> <r_epik_State_Penalty>
-0

> <r_epik_Charging_Adjusted_Penalty>
0

> <i_epik_Tot_Q>
0

> <i_epik_Tot_abs_Q>
0

> <r_epik_Metal_State_Penalty>
-0

> <b_epik_Metal_Only>
0

> <s_lp_Force_Field>
OPLS_2005

> <r_lp_Energy>
5.86035

> <b_lp_Chiralities_Consistent>
1

> <s_lp_Variant>
AV-unprocessed.smi:2512-1

> <Gold.Version>
5.8.1

> <Gold.Id.Protein>
6NUR|6NUR_protein|mol2

> <Gold.PLP.Fitness>
42.1578

> <Gold.PLP.PLP>
-37.5981

> <Gold.PLP.part.hbond>
-3.0741

> <Gold.PLP.part.metal>
0.0000

> <Gold.PLP.part.buried>
-4.9028

> <Gold.PLP.part.nonpolar>
-29.7566

> <Gold.PLP.part.repulsive>
0.0000

> <Gold.PLP.ligand.clash>
0.0000

> <Gold.PLP.ligand.torsion>
0.3480

> <Gold.PLP.Chemscore.Hbond>
1.7500

> <Gold.PLP.Chemscore.CHOScore>
0.0000

> <Gold.PLP.Chemscore.Metal>
0.0000

> <Gold.Chemscore.Hbonds>
donor molecule, donor type, donor heavy atom, donor atom, acceptor molecule, acceptor atom, score
      P1  H  7989  7998       L1     4  0.75
      P1  H  7997  8010       L1     7  0.89

> <Gold.PLP.Chemscore.Internal.Correction>
0.0058

> <Gold.Rescore>
     Score         DG    S(hbond)    S(metal)    S(lipo)     H(rot)  DE(clash)    DE(int)     intcor
     15.24     -17.52       0.99        0.00     110.13       1.62       0.52       1.76       ----

> <Gold.Chemscore.Fitness>
15.2403

> <Gold.Chemscore.DG>
-17.5247

> <Gold.Chemscore.ZeroCoef>
-5.4800

> <Gold.Chemscore.Hbond>
0.9908

> <Gold.Chemscore.Metal>
0.0000

> <Gold.Chemscore.Lipo>
110.1299

> <Gold.Chemscore.Internal_Hbond>
0.0000

> <Gold.Chemscore.DEClash>
0.5202

> <Gold.Chemscore.DEInternal>
1.7641

> <Gold.Chemscore.Rot>
1.6210

> <Gold.Chemscore.Internal.Correction>
   9.000000E+99

> <Gold.Chemscore.Hbonds>
donor molecule, donor type, donor heavy atom, donor atom, acceptor molecule, acceptor atom, score
      P1  H  7989  7998       L1     4  0.09
      P1  H  7997  8010       L1     7  0.05

> <Gold.Chemscore.Hbond.Weighted>
-3.3092

> <Gold.Chemscore.Metal.Weighted>
-0.0000

> <Gold.Chemscore.Lipo.Weighted>
-12.8852

> <Gold.Chemscore.Internal_Hbond.Weighted>
0.0000

> <Gold.Chemscore.DEClash.Weighted>
0.5202

> <Gold.Chemscore.DEInternal.Weighted>
1.7641

> <Gold.Chemscore.Rot.Weighted>
4.1497

> <Gold.Chemscore.Internal.Correction.Weighted>
   9.000000E+99

> <Gold.Protein.RotatedTorsions>
[ 6907 6896 6895 6894 ] final    9.00 input  -60.11 | X-H torsion
[ 7974 7965 7964 7962 ] final -128.50 input  175.53 | X-H torsion
[ 8008 7997 7996 7995 ] final   60.50 input   59.86 | X-H torsion
[ 10167 10162 10161 10158 ] final -105.89 input  -65.29 | X-H torsion
[ 10718 10713 10712 10709 ] final  136.62 input   66.30 | X-H torsion
[ 10763 10752 10751 10750 ] final  168.97 input  -60.55 | X-H torsion
[ 11005 11000 10999 10996 ] final  161.30 input  -57.11 | X-H torsion

> <Gold.Protein.ActiveResidues>
 VAL166  LYS551  ARG553  GLY616  TRP617  ASP618  TYR619  PRO620  LYS621  CYS622 
 ASP623  PHE694  ASN695  SER759  ASP760  ASP761  ALA762  ILE779  LEU786  VAL792 
 PHE793  MET794  SER795  GLU796  ALA797  LYS798  CYS799  TRP800  GLU811  SER814 

> <Gold.Protein.RotatedAtoms>
  151.7151  135.0905  160.0274 H   0  0  0  0  0  0  0  0  0  0  0  0  # atno 6907 bound_to 6896
  152.3637  133.6325  159.6043 H   0  0  0  0  0  0  0  0  0  0  0  0  # atno 6908 bound_to 6896
  150.7623  133.9298  159.3465 H   0  0  0  0  0  0  0  0  0  0  0  0  # atno 6909 bound_to 6896
  144.9665  140.7501  143.4697 H   0  0  0  0  0  0  0  0  0  0  0  0  # atno 7974 bound_to 7965
  155.5833  140.3492  155.4546 H   0  0  0  0  0  0  0  0  0  0  0  0  # atno 8008 bound_to 7997
  156.0357  140.1284  157.0235 H   0  0  0  0  0  0  0  0  0  0  0  0  # atno 8009 bound_to 7997
  154.4370  140.1034  156.6149 H   0  0  0  0  0  0  0  0  0  0  0  0  # atno 8010 bound_to 7997
  140.1937  143.3872  152.1186 H   0  0  0  0  0  0  0  0  0  0  0  0  # atno 10167 bound_to 10162
  157.4448  131.1061  151.0102 H   0  0  0  0  0  0  0  0  0  0  0  0  # atno 10718 bound_to 10713
  154.3764  135.2753  155.2237 H   0  0  0  0  0  0  0  0  0  0  0  0  # atno 10763 bound_to 10752
  154.4362  135.5965  153.6104 H   0  0  0  0  0  0  0  0  0  0  0  0  # atno 10764 bound_to 10752
  152.9836  135.6007  154.4001 H   0  0  0  0  0  0  0  0  0  0  0  0  # atno 10765 bound_to 10752
  140.2144  134.8243  157.3155 H   0  0  0  0  0  0  0  0  0  0  0  0  # atno 11005 bound_to 11000
  145.2622  139.1987  143.4886 LP  0  0  0  0  0  0  0  0  0  0  0  0  # atno 17320 bound_to 7965
  146.3369  140.2554  142.8600 LP  0  0  0  0  0  0  0  0  0  0  0  0  # atno 17321 bound_to 7965
  139.5245  144.7085  151.5280 LP  0  0  0  0  0  0  0  0  0  0  0  0  # atno 17342 bound_to 10162
  140.6438  143.8835  150.6717 LP  0  0  0  0  0  0  0  0  0  0  0  0  # atno 17343 bound_to 10162
  157.0953  130.5959  149.5448 LP  0  0  0  0  0  0  0  0  0  0  0  0  # atno 17370 bound_to 10713
  155.9963  130.5032  150.7491 LP  0  0  0  0  0  0  0  0  0  0  0  0  # atno 17371 bound_to 10713
  140.1916  134.4365  155.7713 LP  0  0  0  0  0  0  0  0  0  0  0  0  # atno 17394 bound_to 11000
  141.2225  133.7030  156.8036 LP  0  0  0  0  0  0  0  0  0  0  0  0  # atno 17395 bound_to 11000

$$$$
