#       Name:                AV-unprocessed.smi:1292
#       Creating user name   scv26
#       Creation time:       Fri Mar 27 04:55:19 2020


#       File generated by GOLD software.
#

@<TRIPOS>MOLECULE
AV-unprocessed.smi:1292
    43    44     1
SMALL
NO_CHARGES


@<TRIPOS>ATOM
      1 ****        -0.7384   2.2128   3.0711 C.3            1 S1                 0.0000
      2 ****        -1.3414   1.4655   1.8735 C.3            1 S1                 0.0000
      3 ****        -2.7960   1.8879   1.6221 C.3            1 S1                 0.0000
      4 ****        -3.3549   1.1237   0.4182 C.3            1 S1                 0.0000
      5 ****        -3.2337  -0.3956   0.6161 C.3            1 S1                 0.0000
      6 ****        -1.8429  -0.7848   0.9163 N.3            1 S1                 0.0000
      7 ****        -1.4208  -2.4547   0.7136 S.o2           1 S1                 0.0000
      8 ****        -1.6464  -3.1444   1.9928 O.2            1 S1                 0.0000
      9 ****        -2.0196  -2.9466  -0.5370 O.2            1 S1                 0.0000
     10 ****         0.2799  -2.2936   0.4683 N.3            1 S1                 0.0000
     11 ****         0.7745  -1.5805  -0.7096 C.3            1 S1                 0.0000
     12 ****         2.3037  -1.4688  -0.6647 C.3            1 S1                 0.0000
     13 ****         2.8567  -0.7288  -1.8681 C.ar           1 S1                 0.0000
     14 ****         3.1615   0.6470  -1.7885 C.ar           1 S1                 0.0000
     15 ****         3.6588   1.2915  -2.9378 C.ar           1 S1                 0.0000
     16 ****         3.8298   0.5401  -4.1165 C.ar           1 S1                 0.0000
     17 ****         3.4936  -0.8282  -4.0935 C.ar           1 S1                 0.0000
     18 ****         3.0156  -1.4558  -2.9971 N.ar           1 S1                 0.0000
     19 ****        -1.2513  -0.0614   2.0612 C.3            1 S1                 0.0000
     20 ****        -1.2811   1.9915   3.9906 H              1 S1                 0.0000
     21 ****        -0.7700   3.2916   2.9169 H              1 S1                 0.0000
     22 ****         0.3041   1.9326   3.2243 H              1 S1                 0.0000
     23 ****        -0.7540   1.7302   0.9928 H              1 S1                 0.0000
     24 ****        -3.4047   1.6852   2.5046 H              1 S1                 0.0000
     25 ****        -2.8538   2.9614   1.4395 H              1 S1                 0.0000
     26 ****        -4.3986   1.3947   0.2576 H              1 S1                 0.0000
     27 ****        -2.8175   1.4181  -0.4844 H              1 S1                 0.0000
     28 ****        -3.8792  -0.7287   1.4297 H              1 S1                 0.0000
     29 ****        -3.5732  -0.9041  -0.2862 H              1 S1                 0.0000
     30 ****         0.7852  -2.0793   1.3274 H              1 S1                 0.0000
     31 ****         0.4524  -2.1087  -1.6076 H              1 S1                 0.0000
     32 ****         0.3313  -0.5848  -0.7421 H              1 S1                 0.0000
     33 ****         2.6138  -0.9523   0.2449 H              1 S1                 0.0000
     34 ****         2.7519  -2.4628  -0.6215 H              1 S1                 0.0000
     35 ****         3.0147   1.1974  -0.8709 H              1 S1                 0.0000
     36 ****         3.9028   2.3433  -2.9159 H              1 S1                 0.0000
     37 ****         4.2082   1.0013  -5.0167 H              1 S1                 0.0000
     38 ****         3.6115  -1.4345  -4.9793 H              1 S1                 0.0000
     39 ****        -0.2076  -0.3503   2.1812 H              1 S1                 0.0000
     40 ****        -1.7660  -0.3663   2.9736 H              1 S1                 0.0000
     41 ****        -1.3297  -0.4254   0.1370 LP             1 S1                 0.0000
     42 ****         0.5139  -3.2255   0.1911 LP             1 S1                 0.0000
     43 ****         2.7862  -2.4289  -3.0196 LP             1 S1                 0.0000
@<TRIPOS>BOND
    1    1    2 1     
    2    1   20 1     
    3    1   21 1     
    4    1   22 1     
    5    2   19 1     
    6    2    3 1     
    7    2   23 1     
    8    3    4 1     
    9    3   24 1     
   10    3   25 1     
   11    4    5 1     
   12    4   26 1     
   13    4   27 1     
   14    5    6 1     
   15    5   28 1     
   16    5   29 1     
   17    6    7 1     
   18    6   19 1     
   19    7    8 2     
   20    7    9 2     
   21    7   10 1     
   22   10   11 1     
   23   10   30 1     
   24   11   12 1     
   25   11   31 1     
   26   11   32 1     
   27   12   13 1     
   28   12   33 1     
   29   12   34 1     
   30   13   18 ar    
   31   13   14 ar    
   32   14   15 ar    
   33   14   35 1     
   34   15   16 ar    
   35   15   36 1     
   36   16   17 ar    
   37   16   37 1     
   38   17   18 ar    
   39   17   38 1     
   40   19   39 1     
   41   19   40 1     
   42    6   41 1     
   43   10   42 1     
   44   18   43 1     
@<TRIPOS>SUBSTRUCTURE
      1 S1             1
@<TRIPOS>SET
LONE_PAIRS      STATIC     ATOMS    <user>   **** ""
5 41 8 9 42 43
DONOR_HYDROGENS      STATIC     ATOMS    <user>   **** ""
1 30
ATOM$BLUE        STATIC     ATOMS    COLORGROUP SYSTEM
5 41 8 9 42 43
ATOM$RED        STATIC     ATOMS    COLORGROUP SYSTEM
1 30
