AV-unprocessed.smi:824|AV-procd|sdf|3850|dock8
  -GOLD-   22720 1293D 1   1.00000     0.00000
 Structure written by MMmdl.
 51 52  0  0  0  0  0  0  0  0  2 V2000
  148.9796  140.1452  154.5939 C   0  0  0  0  0  0  0  0  0  0  0  0
  150.1884  140.0960  155.5115 C   0  0  0  0  0  0  0  0  0  0  0  0
  150.2710  141.1319  156.4530 N   0  0  0  0  0  0  0  0  0  0  0  0
  151.2737  141.1885  157.2760 C   0  0  0  0  0  0  0  0  0  0  0  0
  151.4134  142.2237  158.2019 N   0  0  0  0  0  0  0  0  0  0  0  0
  150.3302  143.1882  158.4031 C   0  0  0  0  0  0  0  0  0  0  0  0
  150.8523  144.4926  159.0271 C   0  0  0  0  0  0  0  0  0  0  0  0
  151.5361  144.2052  160.2397 O   0  0  0  0  0  0  0  0  0  0  0  0
  152.6597  143.3650  160.0130 C   0  0  0  0  0  0  0  0  0  0  0  0
  152.1930  142.0240  159.4231 C   0  0  0  0  0  0  0  0  0  0  0  0
  152.2748  140.2316  157.2963 N   0  5  0  0  0  0  0  0  0  0  0  0
  152.2532  139.1903  156.4180 C   0  0  0  0  0  0  0  0  0  0  0  0
  153.1180  138.3151  156.4258 O   0  0  0  0  0  0  0  0  0  0  0  0
  151.1517  139.1324  155.4405 C   0  0  0  0  0  0  0  0  0  0  0  0
  151.1418  137.9909  154.4176 C   0  0  0  0  0  0  0  0  0  0  0  0
  150.0169  136.9520  154.6373 C   0  0  0  0  0  0  0  0  0  0  0  0
  150.4078  135.8499  155.6399 C   0  0  0  0  0  0  0  0  0  0  0  0
  151.4540  136.0039  156.2716 O   0  0  0  0  0  0  0  0  0  0  0  0
  149.6076  134.7698  155.8253 N   0  0  0  0  0  0  0  0  0  0  0  0
  149.8278  133.7695  156.8743 C   0  0  0  0  0  0  0  0  0  0  0  0
  148.4305  134.5452  154.9700 C   0  0  0  0  0  0  0  0  0  0  0  0
  148.5972  133.3223  154.0370 C   0  0  0  0  0  0  0  0  0  0  0  0
  147.5219  133.3235  152.9409 C   0  0  0  0  0  0  0  0  0  0  0  0
  148.5835  131.9885  154.8035 C   0  0  0  0  0  0  0  0  0  0  0  0
  149.2860  140.2436  153.5539 H   0  0  0  0  0  0  0  0  0  0  0  0
  148.3391  140.9953  154.8314 H   0  0  0  0  0  0  0  0  0  0  0  0
  148.3820  139.2398  154.6988 H   0  0  0  0  0  0  0  0  0  0  0  0
  149.8246  143.4219  157.4659 H   0  0  0  0  0  0  0  0  0  0  0  0
  149.5817  142.7380  159.0563 H   0  0  0  0  0  0  0  0  0  0  0  0
  151.5149  145.0157  158.3356 H   0  0  0  0  0  0  0  0  0  0  0  0
  150.0210  145.1645  159.2405 H   0  0  0  0  0  0  0  0  0  0  0  0
  153.3692  143.8570  159.3456 H   0  0  0  0  0  0  0  0  0  0  0  0
  153.1752  143.1989  160.9588 H   0  0  0  0  0  0  0  0  0  0  0  0
  151.5811  141.4884  160.1502 H   0  0  0  0  0  0  0  0  0  0  0  0
  153.0647  141.4009  159.2179 H   0  0  0  0  0  0  0  0  0  0  0  0
  151.0466  138.4201  153.4197 H   0  0  0  0  0  0  0  0  0  0  0  0
  152.1021  137.4771  154.4085 H   0  0  0  0  0  0  0  0  0  0  0  0
  149.0923  137.4591  154.9037 H   0  0  0  0  0  0  0  0  0  0  0  0
  149.8025  136.4650  153.6856 H   0  0  0  0  0  0  0  0  0  0  0  0
  149.8078  134.2344  157.8606 H   0  0  0  0  0  0  0  0  0  0  0  0
  150.7892  133.2744  156.7428 H   0  0  0  0  0  0  0  0  0  0  0  0
  149.0735  132.9829  156.8733 H   0  0  0  0  0  0  0  0  0  0  0  0
  147.5287  134.4261  155.5716 H   0  0  0  0  0  0  0  0  0  0  0  0
  148.2430  135.4397  154.3730 H   0  0  0  0  0  0  0  0  0  0  0  0
  149.5631  133.4010  153.5366 H   0  0  0  0  0  0  0  0  0  0  0  0
  146.5224  133.2285  153.3659 H   0  0  0  0  0  0  0  0  0  0  0  0
  147.6684  132.4964  152.2458 H   0  0  0  0  0  0  0  0  0  0  0  0
  147.5516  134.2471  152.3622 H   0  0  0  0  0  0  0  0  0  0  0  0
  147.6406  131.8432  155.3312 H   0  0  0  0  0  0  0  0  0  0  0  0
  149.3849  131.9416  155.5397 H   0  0  0  0  0  0  0  0  0  0  0  0
  148.7214  131.1444  154.1271 H   0  0  0  0  0  0  0  0  0  0  0  0
  1  2  1  0  0  0  0
  1 25  1  0  0  0  0
  1 26  1  0  0  0  0
  1 27  1  0  0  0  0
  2 14  2  0  0  0  0
  2  3  1  0  0  0  0
  3  4  2  0  0  0  0
  4  5  1  0  0  0  0
  4 11  1  0  0  0  0
  5 10  1  0  0  0  0
  5  6  1  0  0  0  0
  6  7  1  0  0  0  0
  6 28  1  0  0  0  0
  6 29  1  0  0  0  0
  7  8  1  0  0  0  0
  7 30  1  0  0  0  0
  7 31  1  0  0  0  0
  8  9  1  0  0  0  0
  9 10  1  0  0  0  0
  9 32  1  0  0  0  0
  9 33  1  0  0  0  0
 10 34  1  0  0  0  0
 10 35  1  0  0  0  0
 11 12  1  0  0  0  0
 12 13  2  0  0  0  0
 12 14  1  0  0  0  0
 14 15  1  0  0  0  0
 15 16  1  0  0  0  0
 15 36  1  0  0  0  0
 15 37  1  0  0  0  0
 16 17  1  0  0  0  0
 16 38  1  0  0  0  0
 16 39  1  0  0  0  0
 17 18  2  0  0  0  0
 17 19  1  0  0  0  0
 19 20  1  0  0  0  0
 19 21  1  0  0  0  0
 20 40  1  0  0  0  0
 20 41  1  0  0  0  0
 20 42  1  0  0  0  0
 21 22  1  0  0  0  0
 21 43  1  0  0  0  0
 21 44  1  0  0  0  0
 22 23  1  0  0  0  0
 22 24  1  0  0  0  0
 22 45  1  0  0  0  0
 23 46  1  0  0  0  0
 23 47  1  0  0  0  0
 23 48  1  0  0  0  0
 24 49  1  0  0  0  0
 24 50  1  0  0  0  0
 24 51  1  0  0  0  0
M  CHG  1  11  -1
M  END
> <s_m_source_file>
AV-unprocessed.smi

> <i_m_source_file_index>
824

> <i_lp_mmshare_version>
43012

> <i_f3d_flags>
0

> <s_epik_input>
W0NIMl0xW0NIMl1PW0NIMl1bQ0gyXU4xYyhuYzJbQ0gzXSlbbkhdYyg9TyljMltDSDJdW0NIMl1DKD1PKU4oW0NIM10pW0NIMl1bQ0hdKFtDSDNdKVtDSDNd

> <s_epik_cmdline>
J2VwaWtfcHl0aG9uJywgJy1waCcsICc3LjAnLCAnLXRuJywgJzgnLCAnLW1hJywgJzIwMCcsICctbWV0YWxfYmluZGluZycsICctaW1hZScsICc8aW5maWxlLm1hZT4nLCAnLW9tYWUnLCAnPG91dGZpbGUubWFlPic=

> <r_lp_tautomer_probability>
1

> <r_epik_Ionization_Penalty>
5.09891

> <r_epik_Ionization_Penalty_Charging>
4.43024e-08

> <r_epik_Ionization_Penalty_Neutral>
5.09891

> <r_epik_State_Penalty>
2.55975

> <r_epik_Charging_Adjusted_Penalty>
2.55975

> <i_epik_Tot_Q>
-1

> <i_epik_Tot_abs_Q>
1

> <r_epik_Metal_State_Penalty>
0.115808

> <b_epik_Metal_Only>
0

> <s_lp_Force_Field>
OPLS_2005

> <r_lp_Energy>
31.6324

> <b_lp_Chiralities_Consistent>
1

> <s_lp_Variant>
AV-unprocessed.smi:824-3

> <Gold.Version>
5.8.1

> <Gold.Id.Protein>
6NUR|6NUR_protein|mol2

> <Gold.PLP.Fitness>
47.4700

> <Gold.PLP.PLP>
-44.6644

> <Gold.PLP.part.hbond>
-3.0000

> <Gold.PLP.part.metal>
0.0000

> <Gold.PLP.part.buried>
0.5524

> <Gold.PLP.part.nonpolar>
-41.2946

> <Gold.PLP.part.repulsive>
0.1672

> <Gold.PLP.ligand.clash>
0.0000

> <Gold.PLP.ligand.torsion>
0.6163

> <Gold.PLP.Chemscore.Hbond>
1.2160

> <Gold.PLP.Chemscore.CHOScore>
0.0000

> <Gold.PLP.Chemscore.Metal>
0.0000

> <Gold.Chemscore.Hbonds>
donor molecule, donor type, donor heavy atom, donor atom, acceptor molecule, acceptor atom, score
      P1  H 10752 10765       L1    18  0.71

> <Gold.PLP.Chemscore.Internal.Correction>
0.3903

> <Gold.Rescore>
     Score         DG    S(hbond)    S(metal)    S(lipo)     H(rot)  DE(clash)    DE(int)     intcor
     12.77     -15.67       0.97        0.00      95.83       1.66       1.30       1.60       ----

> <Gold.Chemscore.Fitness>
12.7741

> <Gold.Chemscore.DG>
-15.6704

> <Gold.Chemscore.ZeroCoef>
-5.4800

> <Gold.Chemscore.Hbond>
0.9689

> <Gold.Chemscore.Metal>
0.0000

> <Gold.Chemscore.Lipo>
95.8348

> <Gold.Chemscore.Internal_Hbond>
0.0000

> <Gold.Chemscore.DEClash>
1.2958

> <Gold.Chemscore.DEInternal>
1.6006

> <Gold.Chemscore.Rot>
1.6635

> <Gold.Chemscore.Internal.Correction>
   9.000000E+99

> <Gold.Chemscore.Hbonds>
donor molecule, donor type, donor heavy atom, donor atom, acceptor molecule, acceptor atom, score
      P1  H 10752 10765       L1    18  0.43

> <Gold.Chemscore.Hbond.Weighted>
-3.2363

> <Gold.Chemscore.Metal.Weighted>
-0.0000

> <Gold.Chemscore.Lipo.Weighted>
-11.2127

> <Gold.Chemscore.Internal_Hbond.Weighted>
0.0000

> <Gold.Chemscore.DEClash.Weighted>
1.2958

> <Gold.Chemscore.DEInternal.Weighted>
1.6006

> <Gold.Chemscore.Rot.Weighted>
4.2585

> <Gold.Chemscore.Internal.Correction.Weighted>
   9.000000E+99

> <Gold.Protein.RotatedTorsions>
[ 6907 6896 6895 6894 ] final  110.84 input  -60.11 | X-H torsion
[ 7974 7965 7964 7962 ] final -128.03 input  175.53 | X-H torsion
[ 8008 7997 7996 7995 ] final   90.58 input   59.86 | X-H torsion
[ 10167 10162 10161 10158 ] final   34.47 input  -65.29 | X-H torsion
[ 10718 10713 10712 10709 ] final   -7.19 input   66.30 | X-H torsion
[ 10763 10752 10751 10750 ] final -159.21 input  -60.55 | X-H torsion
[ 11005 11000 10999 10996 ] final   28.57 input  -57.11 | X-H torsion

> <Gold.Protein.ActiveResidues>
 VAL166  LYS551  ARG553  GLY616  TRP617  ASP618  TYR619  PRO620  LYS621  CYS622 
 ASP623  PHE694  ASN695  SER759  ASP760  ASP761  ALA762  ILE779  LEU786  VAL792 
 PHE793  MET794  SER795  GLU796  ALA797  LYS798  CYS799  TRP800  GLU811  SER814 

> <Gold.Protein.RotatedAtoms>
  152.5000  133.8743  159.7313 H   0  0  0  0  0  0  0  0  0  0  0  0  # atno 6907 bound_to 6896
  150.9222  133.6858  159.2836 H   0  0  0  0  0  0  0  0  0  0  0  0  # atno 6908 bound_to 6896
  151.4231  135.1005  159.9672 H   0  0  0  0  0  0  0  0  0  0  0  0  # atno 6909 bound_to 6896
  144.9711  140.7546  143.4670 H   0  0  0  0  0  0  0  0  0  0  0  0  # atno 7974 bound_to 7965
  156.0136  140.3348  155.6966 H   0  0  0  0  0  0  0  0  0  0  0  0  # atno 8008 bound_to 7997
  155.6122  140.0666  157.2720 H   0  0  0  0  0  0  0  0  0  0  0  0  # atno 8009 bound_to 7997
  154.4290  140.1791  156.1272 H   0  0  0  0  0  0  0  0  0  0  0  0  # atno 8010 bound_to 7997
  140.4312  144.1322  150.6160 H   0  0  0  0  0  0  0  0  0  0  0  0  # atno 10167 bound_to 10162
  156.7208  130.5150  149.5868 H   0  0  0  0  0  0  0  0  0  0  0  0  # atno 10718 bound_to 10713
  154.7493  135.3088  154.8586 H   0  0  0  0  0  0  0  0  0  0  0  0  # atno 10763 bound_to 10752
  153.9378  135.6778  153.4749 H   0  0  0  0  0  0  0  0  0  0  0  0  # atno 10764 bound_to 10752
  153.1090  135.4875  154.8929 H   0  0  0  0  0  0  0  0  0  0  0  0  # atno 10765 bound_to 10752
  140.3142  134.2616  155.7728 H   0  0  0  0  0  0  0  0  0  0  0  0  # atno 11005 bound_to 11000
  145.2557  139.2013  143.4918 LP  0  0  0  0  0  0  0  0  0  0  0  0  # atno 17320 bound_to 7965
  146.3382  140.2478  142.8597 LP  0  0  0  0  0  0  0  0  0  0  0  0  # atno 17321 bound_to 7965
  140.4425  143.2520  151.9454 LP  0  0  0  0  0  0  0  0  0  0  0  0  # atno 17342 bound_to 10162
  139.4785  144.5641  151.8193 LP  0  0  0  0  0  0  0  0  0  0  0  0  # atno 17343 bound_to 10162
  156.1596  130.6365  151.0701 LP  0  0  0  0  0  0  0  0  0  0  0  0  # atno 17370 bound_to 10713
  157.6899  131.0813  150.7138 LP  0  0  0  0  0  0  0  0  0  0  0  0  # atno 17371 bound_to 10713
  141.2101  133.7728  156.9952 LP  0  0  0  0  0  0  0  0  0  0  0  0  # atno 17394 bound_to 11000
  140.0998  134.9542  157.1906 LP  0  0  0  0  0  0  0  0  0  0  0  0  # atno 17395 bound_to 11000

$$$$
