AV-unprocessed.smi:2040|AV-procd|sdf|8288|dock3
  -GOLD-   2272010553D 1   1.00000     0.00000
 Structure written by MMmdl.
 38 39  0  0  0  0  0  0  0  0  1 V2000
  153.7123  142.0193  160.8253 C   0  0  0  0  0  0  0  0  0  0  0  0
  152.8326  142.5494  159.7318 C   0  0  0  0  0  0  0  0  0  0  0  0
  151.7294  141.9029  159.1022 C   0  0  0  0  0  0  0  0  0  0  0  0
  151.3108  142.8374  158.1946 C   0  0  0  0  0  0  0  0  0  0  0  0
  150.2788  142.7695  157.3119 N   0  0  0  0  0  0  0  0  0  0  0  0
  149.7033  141.6789  156.7761 C   0  0  0  0  0  0  0  0  0  0  0  0
  150.0348  140.5142  156.9989 O   0  0  0  0  0  0  0  0  0  0  0  0
  148.7075  142.0174  155.9445 N   0  0  0  0  0  0  0  0  0  0  0  0
  147.8686  141.0787  155.2033 C   0  0  2  0  0  0  0  0  0  0  0  0
  148.6259  140.5795  153.9603 C   0  0  0  0  0  0  0  0  0  0  0  0
  146.5403  141.7685  154.8378 C   0  0  1  0  0  0  0  0  0  0  0  0
  145.8172  142.4326  156.0135 C   0  0  0  0  0  0  0  0  0  0  0  0
  145.0567  143.5884  155.3784 C   0  0  0  0  0  0  0  0  0  0  0  0
  145.5740  143.6324  153.9396 C   0  0  0  0  0  0  0  0  0  0  0  0
  146.7683  142.8666  153.9670 O   0  0  0  0  0  0  0  0  0  0  0  0
  152.1156  143.9499  158.2982 N   0  0  0  0  0  0  0  0  0  0  0  0
  152.0665  145.1944  157.5557 C   0  0  0  0  0  0  0  0  0  0  0  0
  153.0576  143.7662  159.2486 N   0  0  0  0  0  0  0  0  0  0  0  0
  153.3573  141.0524  161.1824 H   0  0  0  0  0  0  0  0  0  0  0  0
  153.7345  142.6990  161.6776 H   0  0  0  0  0  0  0  0  0  0  0  0
  154.7365  141.8879  160.4755 H   0  0  0  0  0  0  0  0  0  0  0  0
  151.3287  140.9204  159.3002 H   0  0  0  0  0  0  0  0  0  0  0  0
  149.9082  143.6596  157.0136 H   0  0  0  0  0  0  0  0  0  0  0  0
  148.5005  142.9982  155.8251 H   0  0  0  0  0  0  0  0  0  0  0  0
  147.6427  140.2224  155.8418 H   0  0  0  0  0  0  0  0  0  0  0  0
  148.0398  139.8469  153.4055 H   0  0  0  0  0  0  0  0  0  0  0  0
  149.5646  140.0980  154.2361 H   0  0  0  0  0  0  0  0  0  0  0  0
  148.8601  141.4009  153.2824 H   0  0  0  0  0  0  0  0  0  0  0  0
  145.8685  141.0641  154.3425 H   0  0  0  0  0  0  0  0  0  0  0  0
  145.1628  141.7387  156.5418 H   0  0  0  0  0  0  0  0  0  0  0  0
  146.5377  142.8251  156.7325 H   0  0  0  0  0  0  0  0  0  0  0  0
  143.9775  143.4331  155.4033 H   0  0  0  0  0  0  0  0  0  0  0  0
  145.2740  144.5193  155.9035 H   0  0  0  0  0  0  0  0  0  0  0  0
  144.8620  143.1612  153.2602 H   0  0  0  0  0  0  0  0  0  0  0  0
  145.7589  144.6481  153.5893 H   0  0  0  0  0  0  0  0  0  0  0  0
  152.2129  144.9934  156.4943 H   0  0  0  0  0  0  0  0  0  0  0  0
  152.8458  145.8770  157.8972 H   0  0  0  0  0  0  0  0  0  0  0  0
  151.0950  145.6677  157.6990 H   0  0  0  0  0  0  0  0  0  0  0  0
  1  2  1  0  0  0  0
  1 19  1  0  0  0  0
  1 20  1  0  0  0  0
  1 21  1  0  0  0  0
  2 18  2  0  0  0  0
  2  3  1  0  0  0  0
  3  4  2  0  0  0  0
  3 22  1  0  0  0  0
  4  5  1  0  0  0  0
  4 16  1  0  0  0  0
  5  6  1  0  0  0  0
  5 23  1  0  0  0  0
  6  7  2  0  0  0  0
  6  8  1  0  0  0  0
  8  9  1  0  0  0  0
  8 24  1  0  0  0  0
  9 10  1  0  0  0  0
  9 11  1  0  0  0  0
  9 25  1  0  0  0  0
 10 26  1  0  0  0  0
 10 27  1  0  0  0  0
 10 28  1  0  0  0  0
 11 15  1  0  0  0  0
 11 12  1  0  0  0  0
 11 29  1  0  0  0  0
 12 13  1  0  0  0  0
 12 30  1  0  0  0  0
 12 31  1  0  0  0  0
 13 14  1  0  0  0  0
 13 32  1  0  0  0  0
 13 33  1  0  0  0  0
 14 15  1  0  0  0  0
 14 34  1  0  0  0  0
 14 35  1  0  0  0  0
 16 17  1  0  0  0  0
 16 18  1  0  0  0  0
 17 36  1  0  0  0  0
 17 37  1  0  0  0  0
 17 38  1  0  0  0  0
M  END
> <s_m_source_file>
AV-unprocessed.smi

> <i_m_source_file_index>
2040

> <i_lp_mmshare_version>
43012

> <i_f3d_flags>
0

> <s_epik_input>
W0NIM11jMVtjSF1jKG4objEpW0NIM10pW05IXUMoPU8pW05IXVtDQEhdKFtDSDNdKVtDQEBIXTJbQ0gyXVtDSDJdW0NIMl1PMg==

> <s_epik_cmdline>
J2VwaWtfcHl0aG9uJywgJy1waCcsICc3LjAnLCAnLXRuJywgJzgnLCAnLW1hJywgJzIwMCcsICctbWV0YWxfYmluZGluZycsICctaW1hZScsICc8aW5maWxlLm1hZT4nLCAnLW9tYWUnLCAnPG91dGZpbGUubWFlPic=

> <r_lp_tautomer_probability>
1

> <r_epik_Ionization_Penalty>
9.09088e-05

> <r_epik_Ionization_Penalty_Charging>
0

> <r_epik_Ionization_Penalty_Neutral>
9.09088e-05

> <r_epik_State_Penalty>
-0

> <r_epik_Charging_Adjusted_Penalty>
0

> <i_epik_Tot_Q>
0

> <i_epik_Tot_abs_Q>
0

> <r_epik_Metal_State_Penalty>
-0

> <b_epik_Metal_Only>
0

> <s_lp_Force_Field>
OPLS_2005

> <r_lp_Energy>
19.5885

> <b_lp_Chiralities_Consistent>
1

> <s_lp_Variant>
AV-unprocessed.smi:2040-3

> <Gold.Version>
5.8.1

> <Gold.Id.Protein>
6NUR|6NUR_protein|mol2

> <Gold.PLP.Fitness>
40.9282

> <Gold.PLP.PLP>
-35.8307

> <Gold.PLP.part.hbond>
-2.1435

> <Gold.PLP.part.metal>
0.0000

> <Gold.PLP.part.buried>
-5.6831

> <Gold.PLP.part.nonpolar>
-28.4990

> <Gold.PLP.part.repulsive>
0.2861

> <Gold.PLP.ligand.clash>
0.0000

> <Gold.PLP.ligand.torsion>
0.4611

> <Gold.PLP.Chemscore.Hbond>
2.0000

> <Gold.PLP.Chemscore.CHOScore>
0.0000

> <Gold.PLP.Chemscore.Metal>
0.0000

> <Gold.Chemscore.Hbonds>
donor molecule, donor type, donor heavy atom, donor atom, acceptor molecule, acceptor atom, score
      L1  H     5    23       P1  8028  0.99
      L1  H     8    24       P1  8028  1.00

> <Gold.PLP.Chemscore.Internal.Correction>
0.0198

> <Gold.Rescore>
     Score         DG    S(hbond)    S(metal)    S(lipo)     H(rot)  DE(clash)    DE(int)     intcor
     13.14     -14.97       1.16        0.00      75.02       1.23       0.42       1.42       ----

> <Gold.Chemscore.Fitness>
13.1371

> <Gold.Chemscore.DG>
-14.9737

> <Gold.Chemscore.ZeroCoef>
-5.4800

> <Gold.Chemscore.Hbond>
1.1602

> <Gold.Chemscore.Metal>
0.0000

> <Gold.Chemscore.Lipo>
75.0187

> <Gold.Chemscore.Internal_Hbond>
0.0000

> <Gold.Chemscore.DEClash>
0.4173

> <Gold.Chemscore.DEInternal>
1.4193

> <Gold.Chemscore.Rot>
1.2338

> <Gold.Chemscore.Internal.Correction>
   9.000000E+99

> <Gold.Chemscore.Hbonds>
donor molecule, donor type, donor heavy atom, donor atom, acceptor molecule, acceptor atom, score
      L1  H     5    23       P1  8028  0.90
      L1  H     8    24       P1  8028  0.98

> <Gold.Chemscore.Hbond.Weighted>
-3.8750

> <Gold.Chemscore.Metal.Weighted>
-0.0000

> <Gold.Chemscore.Lipo.Weighted>
-8.7772

> <Gold.Chemscore.Internal_Hbond.Weighted>
0.0000

> <Gold.Chemscore.DEClash.Weighted>
0.4173

> <Gold.Chemscore.DEInternal.Weighted>
1.4193

> <Gold.Chemscore.Rot.Weighted>
3.1584

> <Gold.Chemscore.Internal.Correction.Weighted>
   9.000000E+99

> <Gold.Protein.RotatedTorsions>
[ 6907 6896 6895 6894 ] final -110.99 input  -60.11 | X-H torsion
[ 7974 7965 7964 7962 ] final   48.31 input  175.53 | X-H torsion
[ 8008 7997 7996 7995 ] final  140.56 input   59.86 | X-H torsion
[ 10167 10162 10161 10158 ] final  -50.26 input  -65.29 | X-H torsion
[ 10718 10713 10712 10709 ] final  -39.33 input   66.30 | X-H torsion
[ 10763 10752 10751 10750 ] final  147.97 input  -60.55 | X-H torsion
[ 11005 11000 10999 10996 ] final   23.22 input  -57.11 | X-H torsion

> <Gold.Protein.ActiveResidues>
 VAL166  LYS551  ARG553  GLY616  TRP617  ASP618  TYR619  PRO620  LYS621  CYS622 
 ASP623  PHE694  ASN695  SER759  ASP760  ASP761  ALA762  ILE779  LEU786  VAL792 
 PHE793  MET794  SER795  GLU796  ALA797  LYS798  CYS799  TRP800  GLU811  SER814 

> <Gold.Protein.RotatedAtoms>
  150.7661  133.9301  159.3424 H   0  0  0  0  0  0  0  0  0  0  0  0  # atno 6907 bound_to 6896
  151.7198  135.0894  160.0291 H   0  0  0  0  0  0  0  0  0  0  0  0  # atno 6908 bound_to 6896
  152.3657  133.6315  159.6084 H   0  0  0  0  0  0  0  0  0  0  0  0  # atno 6909 bound_to 6896
  146.0216  139.4658  142.9893 H   0  0  0  0  0  0  0  0  0  0  0  0  # atno 7974 bound_to 7965
  156.2977  140.2338  156.4421 H   0  0  0  0  0  0  0  0  0  0  0  0  # atno 8008 bound_to 7997
  154.8176  140.0439  157.1408 H   0  0  0  0  0  0  0  0  0  0  0  0  # atno 8009 bound_to 7997
  154.9351  140.3022  155.5152 H   0  0  0  0  0  0  0  0  0  0  0  0  # atno 8010 bound_to 7997
  140.6646  143.2665  151.4334 H   0  0  0  0  0  0  0  0  0  0  0  0  # atno 10167 bound_to 10162
  156.2937  130.4231  149.8212 H   0  0  0  0  0  0  0  0  0  0  0  0  # atno 10718 bound_to 10713
  154.0470  135.2885  155.3346 H   0  0  0  0  0  0  0  0  0  0  0  0  # atno 10763 bound_to 10752
  154.6893  135.5233  153.8373 H   0  0  0  0  0  0  0  0  0  0  0  0  # atno 10764 bound_to 10752
  153.0576  135.6601  154.0670 H   0  0  0  0  0  0  0  0  0  0  0  0  # atno 10765 bound_to 10752
  140.3720  134.2012  155.7666 H   0  0  0  0  0  0  0  0  0  0  0  0  # atno 11005 bound_to 11000
  145.7184  141.0083  143.1416 LP  0  0  0  0  0  0  0  0  0  0  0  0  # atno 17320 bound_to 7965
  144.6992  139.8841  143.7449 LP  0  0  0  0  0  0  0  0  0  0  0  0  # atno 17321 bound_to 7965
  139.5890  144.1540  152.2065 LP  0  0  0  0  0  0  0  0  0  0  0  0  # atno 17342 bound_to 10162
  140.0889  144.5638  150.7069 LP  0  0  0  0  0  0  0  0  0  0  0  0  # atno 17343 bound_to 10162
  156.5616  130.8386  151.3330 LP  0  0  0  0  0  0  0  0  0  0  0  0  # atno 17370 bound_to 10713
  157.7349  130.9754  150.2055 LP  0  0  0  0  0  0  0  0  0  0  0  0  # atno 17371 bound_to 10713
  141.1951  133.8112  157.0727 LP  0  0  0  0  0  0  0  0  0  0  0  0  # atno 17394 bound_to 11000
  140.0544  134.9788  157.1195 LP  0  0  0  0  0  0  0  0  0  0  0  0  # atno 17395 bound_to 11000

$$$$
