AV-unprocessed.smi:249|AV-procd|sdf|1915|dock10
  -GOLD-   2262021 13D 1   1.00000     0.00000
 Structure written by MMmdl.
 64 67  0  0  0  0  0  0  0  0  2 V2000
  143.8025  132.5062  151.2304 C   0  0  0  0  0  0  0  0  0  0  0  0
  144.3148  133.6486  152.1225 C   0  0  0  0  0  0  0  0  0  0  0  0
  144.8698  133.1776  153.4246 N   0  3  1  0  0  0  0  0  0  0  0  0
  145.9221  132.1391  153.2259 C   0  0  0  0  0  0  0  0  0  0  0  0
  146.4518  131.5821  154.5567 C   0  0  0  0  0  0  0  0  0  0  0  0
  147.0319  132.6982  155.4414 C   0  0  1  0  0  0  0  0  0  0  0  0
  148.2586  133.2824  154.8742 N   0  0  0  0  0  0  0  0  0  0  0  0
  149.1102  132.4078  154.0741 C   0  0  0  0  0  0  0  0  0  0  0  0
  149.0072  134.0101  155.7326 C   0  0  0  0  0  0  0  0  0  0  0  0
  150.0634  133.3913  156.3145 N   0  0  0  0  0  0  0  0  0  0  0  0
  150.8443  134.0649  157.1647 C   0  0  0  0  0  0  0  0  0  0  0  0
  150.7455  135.3358  157.5617 N   0  0  0  0  0  0  0  0  0  0  0  0
  149.6775  135.9561  156.9822 C   0  0  0  0  0  0  0  0  0  0  0  0
  148.7624  135.3723  156.0627 C   0  0  0  0  0  0  0  0  0  0  0  0
  147.8055  136.3065  155.6850 N   0  0  0  0  0  0  0  0  0  0  0  0
  148.1380  137.3840  156.3428 C   0  0  0  0  0  0  0  0  0  0  0  0
  149.2533  137.2636  157.1406 N   0  0  0  0  0  0  0  0  0  0  0  0
  149.8363  138.3002  157.9753 C   0  0  0  0  0  0  0  0  0  0  0  0
  150.1574  139.6034  157.2008 C   0  0  2  0  0  0  0  0  0  0  0  0
  151.2641  139.3650  156.1415 C   0  0  0  0  0  0  0  0  0  0  0  0
  151.0397  140.1219  154.9708 O   0  0  0  0  0  0  0  0  0  0  0  0
  150.5252  140.7394  158.1949 C   0  0  2  0  0  0  0  0  0  0  0  0
  150.8431  142.0801  157.5376 C   0  0  0  0  0  0  0  0  0  0  0  0
  151.8475  142.7496  158.4803 C   0  0  0  0  0  0  0  0  0  0  0  0
  152.0916  141.8112  159.5188 O   0  0  0  0  0  0  0  0  0  0  0  0
  151.7905  140.5176  159.0252 C   0  0  0  0  0  0  0  0  0  0  0  0
  145.8952  133.7221  155.6500 C   0  0  0  0  0  0  0  0  0  0  0  0
  145.3391  134.2853  154.3205 C   0  0  2  0  0  0  0  0  0  0  0  0
  144.2319  135.3082  154.6506 C   0  0  0  0  0  0  0  0  0  0  0  0
  143.2803  132.9084  150.3619 H   0  0  0  0  0  0  0  0  0  0  0  0
  143.0997  131.8695  151.7689 H   0  0  0  0  0  0  0  0  0  0  0  0
  144.6083  131.8799  150.8495 H   0  0  0  0  0  0  0  0  0  0  0  0
  145.0612  134.2419  151.5924 H   0  0  0  0  0  0  0  0  0  0  0  0
  143.4615  134.3026  152.2827 H   0  0  0  0  0  0  0  0  0  0  0  0
  145.5263  131.3020  152.6536 H   0  0  0  0  0  0  0  0  0  0  0  0
  146.7418  132.5578  152.6398 H   0  0  0  0  0  0  0  0  0  0  0  0
  145.6351  131.0896  155.0864 H   0  0  0  0  0  0  0  0  0  0  0  0
  147.1896  130.8012  154.3727 H   0  0  0  0  0  0  0  0  0  0  0  0
  147.2899  132.2634  156.4077 H   0  0  0  0  0  0  0  0  0  0  0  0
  150.1052  132.8310  153.9240 H   0  0  0  0  0  0  0  0  0  0  0  0
  148.6728  132.2550  153.0877 H   0  0  0  0  0  0  0  0  0  0  0  0
  149.2247  131.4349  154.5533 H   0  0  0  0  0  0  0  0  0  0  0  0
  151.6664  133.5061  157.5874 H   0  0  0  0  0  0  0  0  0  0  0  0
  147.5773  138.3043  156.2621 H   0  0  0  0  0  0  0  0  0  0  0  0
  149.1309  138.4908  158.7837 H   0  0  0  0  0  0  0  0  0  0  0  0
  150.7405  137.9094  158.4437 H   0  0  0  0  0  0  0  0  0  0  0  0
  149.2479  139.8954  156.6730 H   0  0  0  0  0  0  0  0  0  0  0  0
  152.2479  139.6000  156.5489 H   0  0  0  0  0  0  0  0  0  0  0  0
  151.2988  138.3242  155.8230 H   0  0  0  0  0  0  0  0  0  0  0  0
  150.1329  140.3881  154.9538 H   0  0  0  0  0  0  0  0  0  0  0  0
  149.6953  140.8898  158.8877 H   0  0  0  0  0  0  0  0  0  0  0  0
  151.3035  141.9361  156.5592 H   0  0  0  0  0  0  0  0  0  0  0  0
  149.9477  142.6869  157.3981 H   0  0  0  0  0  0  0  0  0  0  0  0
  152.7791  142.9717  157.9581 H   0  0  0  0  0  0  0  0  0  0  0  0
  151.4629  143.6799  158.8989 H   0  0  0  0  0  0  0  0  0  0  0  0
  151.6425  139.8173  159.8475 H   0  0  0  0  0  0  0  0  0  0  0  0
  152.6156  140.1603  158.4065 H   0  0  0  0  0  0  0  0  0  0  0  0
  145.0838  133.2357  156.1939 H   0  0  0  0  0  0  0  0  0  0  0  0
  146.2211  134.5346  156.3000 H   0  0  0  0  0  0  0  0  0  0  0  0
  146.1414  134.8156  153.8054 H   0  0  0  0  0  0  0  0  0  0  0  0
  144.5599  135.9979  155.4290 H   0  0  0  0  0  0  0  0  0  0  0  0
  143.3281  134.8153  155.0104 H   0  0  0  0  0  0  0  0  0  0  0  0
  143.9670  135.9298  153.7962 H   0  0  0  0  0  0  0  0  0  0  0  0
  144.1093  132.7282  153.9140 H   0  0  0  0  0  0  0  0  0  0  0  0
  1  2  1  0  0  0  0
  1 30  1  0  0  0  0
  1 31  1  0  0  0  0
  1 32  1  0  0  0  0
  2  3  1  0  0  0  0
  2 33  1  0  0  0  0
  2 34  1  0  0  0  0
  3 28  1  0  0  0  0
  3  4  1  0  0  0  0
  3 64  1  0  0  0  0
  4  5  1  0  0  0  0
  4 35  1  0  0  0  0
  4 36  1  0  0  0  0
  5  6  1  0  0  0  0
  5 37  1  0  0  0  0
  5 38  1  0  0  0  0
  6  7  1  0  0  0  0
  6 27  1  0  0  0  0
  6 39  1  0  0  0  0
  7  8  1  0  0  0  0
  7  9  1  0  0  0  0
  8 40  1  0  0  0  0
  8 41  1  0  0  0  0
  8 42  1  0  0  0  0
  9 14  1  0  0  0  0
  9 10  2  0  0  0  0
 10 11  1  0  0  0  0
 11 12  2  0  0  0  0
 11 43  1  0  0  0  0
 12 13  1  0  0  0  0
 13 17  1  0  0  0  0
 13 14  2  0  0  0  0
 14 15  1  0  0  0  0
 15 16  2  0  0  0  0
 16 17  1  0  0  0  0
 16 44  1  0  0  0  0
 17 18  1  0  0  0  0
 18 19  1  0  0  0  0
 18 45  1  0  0  0  0
 18 46  1  0  0  0  0
 19 20  1  0  0  0  0
 19 22  1  0  0  0  0
 19 47  1  0  0  0  0
 20 21  1  0  0  0  0
 20 48  1  0  0  0  0
 20 49  1  0  0  0  0
 21 50  1  0  0  0  0
 22 26  1  0  0  0  0
 22 23  1  0  0  0  0
 22 51  1  0  0  0  0
 23 24  1  0  0  0  0
 23 52  1  0  0  0  0
 23 53  1  0  0  0  0
 24 25  1  0  0  0  0
 24 54  1  0  0  0  0
 24 55  1  0  0  0  0
 25 26  1  0  0  0  0
 26 56  1  0  0  0  0
 26 57  1  0  0  0  0
 27 28  1  0  0  0  0
 27 58  1  0  0  0  0
 27 59  1  0  0  0  0
 28 29  1  0  0  0  0
 28 60  1  0  0  0  0
 29 61  1  0  0  0  0
 29 62  1  0  0  0  0
 29 63  1  0  0  0  0
M  CHG  1   3   1
M  END
> <s_m_source_file>
AV-unprocessed.smi

> <i_m_source_file_index>
249

> <i_lp_mmshare_version>
43012

> <i_f3d_flags>
0

> <s_epik_input>
W0NIM11bQ0gyXU4xW0NIMl1bQ0gyXVtDQEhdKFtDSDJdW0NASF0xW0NIM10pTihbQ0gzXSljKG5bY0hdbjIpYyhjMjMpbltjSF1uM1tDSDJdW0NASF0oW0NIMl1bT0hdKVtDQEBIXTRbQ0gyXVtDSDJdT1tDSDJdNA==

> <s_epik_cmdline>
J2VwaWtfcHl0aG9uJywgJy1waCcsICc3LjAnLCAnLXRuJywgJzgnLCAnLW1hJywgJzIwMCcsICctbWV0YWxfYmluZGluZycsICctaW1hZScsICc8aW5maWxlLm1hZT4nLCAnLW9tYWUnLCAnPG91dGZpbGUubWFlPic=

> <r_lp_tautomer_probability>
1

> <r_epik_Ionization_Penalty>
0.00294688

> <r_epik_Ionization_Penalty_Charging>
0.00169971

> <r_epik_Ionization_Penalty_Neutral>
0.00124717

> <r_epik_State_Penalty>
-0

> <r_epik_Charging_Adjusted_Penalty>
0.00169971

> <i_epik_Tot_Q>
1

> <i_epik_Tot_abs_Q>
1

> <r_epik_Metal_State_Penalty>
-0

> <b_epik_Metal_Only>
0

> <s_lp_Force_Field>
OPLS_2005

> <r_lp_Energy>
57.0606

> <b_lp_Chiralities_Consistent>
1

> <s_lp_Variant>
AV-unprocessed.smi:249-18

> <Gold.Version>
5.8.1

> <Gold.Id.Protein>
6NUR|6NUR_protein|mol2

> <Gold.PLP.Fitness>
39.2650

> <Gold.PLP.PLP>
-32.9606

> <Gold.PLP.part.hbond>
-2.4792

> <Gold.PLP.part.metal>
0.0000

> <Gold.PLP.part.buried>
-8.0627

> <Gold.PLP.part.nonpolar>
-22.2452

> <Gold.PLP.part.repulsive>
0.1425

> <Gold.PLP.ligand.clash>
0.0000

> <Gold.PLP.ligand.torsion>
1.6458

> <Gold.PLP.Chemscore.Hbond>
3.0000

> <Gold.PLP.Chemscore.CHOScore>
0.0000

> <Gold.PLP.Chemscore.Metal>
0.0000

> <Gold.Chemscore.Hbonds>
donor molecule, donor type, donor heavy atom, donor atom, acceptor molecule, acceptor atom, score
      L1  H     3    64       P1 10957  2.00
      P1  H  6896  6907       L1    12  0.15
      P1  H  7989  7998       L1    21  1.00

> <Gold.PLP.Chemscore.Internal.Correction>
0.5960

> <Gold.Rescore>
     Score         DG    S(hbond)    S(metal)    S(lipo)     H(rot)  DE(clash)    DE(int)     intcor
     11.50     -13.04       1.97        0.00      71.94       2.90       0.01       1.53       ----

> <Gold.Chemscore.Fitness>
11.5032

> <Gold.Chemscore.DG>
-13.0409

> <Gold.Chemscore.ZeroCoef>
-5.4800

> <Gold.Chemscore.Hbond>
1.9670

> <Gold.Chemscore.Metal>
0.0000

> <Gold.Chemscore.Lipo>
71.9374

> <Gold.Chemscore.Internal_Hbond>
0.0000

> <Gold.Chemscore.DEClash>
0.0060

> <Gold.Chemscore.DEInternal>
1.5317

> <Gold.Chemscore.Rot>
2.9006

> <Gold.Chemscore.Internal.Correction>
   9.000000E+99

> <Gold.Chemscore.Hbonds>
donor molecule, donor type, donor heavy atom, donor atom, acceptor molecule, acceptor atom, score
      L1  H     3    64       P1 10957  0.82
      P1  H  6896  6907       L1    12  0.01
      P1  H  7989  7998       L1    21  0.30

> <Gold.Chemscore.Hbond.Weighted>
-6.5698

> <Gold.Chemscore.Metal.Weighted>
-0.0000

> <Gold.Chemscore.Lipo.Weighted>
-8.4167

> <Gold.Chemscore.Internal_Hbond.Weighted>
0.0000

> <Gold.Chemscore.DEClash.Weighted>
0.0060

> <Gold.Chemscore.DEInternal.Weighted>
1.5317

> <Gold.Chemscore.Rot.Weighted>
7.4256

> <Gold.Chemscore.Internal.Correction.Weighted>
   9.000000E+99

> <Gold.Protein.RotatedTorsions>
[ 6907 6896 6895 6894 ] final  -53.08 input  -60.11 | X-H torsion
[ 7974 7965 7964 7962 ] final  159.09 input  175.53 | X-H torsion
[ 8008 7997 7996 7995 ] final  169.84 input   59.86 | X-H torsion
[ 10167 10162 10161 10158 ] final -160.49 input  -65.29 | X-H torsion
[ 10718 10713 10712 10709 ] final  163.34 input   66.30 | X-H torsion
[ 10763 10752 10751 10750 ] final  -90.37 input  -60.55 | X-H torsion
[ 11005 11000 10999 10996 ] final  -53.06 input  -57.11 | X-H torsion

> <Gold.Protein.ActiveResidues>
 VAL166  LYS551  ARG553  GLY616  TRP617  ASP618  TYR619  PRO620  LYS621  CYS622 
 ASP623  PHE694  ASN695  SER759  ASP760  ASP761  ALA762  ILE779  LEU786  VAL792 
 PHE793  MET794  SER795  GLU796  ALA797  LYS798  CYS799  TRP800  GLU811  SER814 

> <Gold.Protein.RotatedAtoms>
  150.8459  134.7767  159.6969 H   0  0  0  0  0  0  0  0  0  0  0  0  # atno 6907 bound_to 6896
  152.4536  134.5338  159.9828 H   0  0  0  0  0  0  0  0  0  0  0  0  # atno 6908 bound_to 6896
  151.5468  133.3386  159.2981 H   0  0  0  0  0  0  0  0  0  0  0  0  # atno 6909 bound_to 6896
  144.7809  139.7569  143.6260 H   0  0  0  0  0  0  0  0  0  0  0  0  # atno 7974 bound_to 7965
  156.1420  140.1553  156.8905 H   0  0  0  0  0  0  0  0  0  0  0  0  # atno 8008 bound_to 7997
  154.4996  140.0829  156.7808 H   0  0  0  0  0  0  0  0  0  0  0  0  # atno 8009 bound_to 7997
  155.4059  140.3416  155.4262 H   0  0  0  0  0  0  0  0  0  0  0  0  # atno 8010 bound_to 7997
  139.6536  144.0040  152.2178 H   0  0  0  0  0  0  0  0  0  0  0  0  # atno 10167 bound_to 10162
  157.1099  131.0465  151.2462 H   0  0  0  0  0  0  0  0  0  0  0  0  # atno 10718 bound_to 10713
  154.6651  135.5307  153.8067 H   0  0  0  0  0  0  0  0  0  0  0  0  # atno 10763 bound_to 10752
  153.0466  135.6515  154.0812 H   0  0  0  0  0  0  0  0  0  0  0  0  # atno 10764 bound_to 10752
  154.0716  135.2954  155.3287 H   0  0  0  0  0  0  0  0  0  0  0  0  # atno 10765 bound_to 10752
  141.0956  133.6625  156.4116 H   0  0  0  0  0  0  0  0  0  0  0  0  # atno 11005 bound_to 11000
  146.2017  139.5315  142.9739 LP  0  0  0  0  0  0  0  0  0  0  0  0  # atno 17320 bound_to 7965
  145.6053  141.0349  143.1996 LP  0  0  0  0  0  0  0  0  0  0  0  0  # atno 17321 bound_to 7965
  139.9760  144.6461  150.7945 LP  0  0  0  0  0  0  0  0  0  0  0  0  # atno 17342 bound_to 10162
  140.7549  143.3035  151.3019 LP  0  0  0  0  0  0  0  0  0  0  0  0  # atno 17343 bound_to 10162
  157.4568  130.7630  149.7200 LP  0  0  0  0  0  0  0  0  0  0  0  0  # atno 17370 bound_to 10713
  155.9853  130.3984  150.3268 LP  0  0  0  0  0  0  0  0  0  0  0  0  # atno 17371 bound_to 10713
  140.5147  134.6361  157.5297 LP  0  0  0  0  0  0  0  0  0  0  0  0  # atno 17394 bound_to 11000
  139.9792  134.7164  155.9891 LP  0  0  0  0  0  0  0  0  0  0  0  0  # atno 17395 bound_to 11000

$$$$
