AV-unprocessed.smi:33|AV-procd|sdf|199|dock8
  -GOLD-   2262015473D 1   1.00000     0.00000
 Structure written by MMmdl.
 67 72  0  0  0  0  0  0  0  0  1 V2000
  154.9543  139.9474  159.3770 O   0  0  0  0  0  0  0  0  0  0  0  0
  153.7923  140.3583  159.3578 C   0  0  0  0  0  0  0  0  0  0  0  0
  152.8201  139.8090  158.6066 O   0  0  0  0  0  0  0  0  0  0  0  0
  153.1142  138.7282  157.7374 C   0  0  0  0  0  0  0  0  0  0  0  0
  151.7986  138.2093  157.1492 C   0  0  2  0  0  0  0  0  0  0  0  0
  151.8582  136.8074  156.9229 O   0  0  0  0  0  0  0  0  0  0  0  0
  150.8285  136.4464  156.0522 C   0  0  1  0  0  0  0  0  0  0  0  0
  149.6859  135.9141  156.8659 N   0  0  0  0  0  0  0  0  0  0  0  0
  149.0992  136.4321  158.0029 C   0  0  0  0  0  0  0  0  0  0  0  0
  148.1143  135.7285  158.4932 N   0  0  0  0  0  0  0  0  0  0  0  0
  148.0220  134.6389  157.6376 C   0  0  0  0  0  0  0  0  0  0  0  0
  147.1813  133.4954  157.5770 C   0  0  0  0  0  0  0  0  0  0  0  0
  146.1908  133.2649  158.4700 N   0  0  0  0  0  0  0  0  0  0  0  0
  145.4772  134.4393  158.9927 C   0  0  0  0  0  0  0  0  0  0  0  0
  145.4332  135.4726  158.3223 O   0  0  0  0  0  0  0  0  0  0  0  0
  144.7661  134.3722  160.3143 C   0  0  0  0  0  0  0  0  0  0  0  0
  143.4948  134.9683  160.4650 C   0  0  0  0  0  0  0  0  0  0  0  0
  142.8312  134.9211  161.7064 C   0  0  0  0  0  0  0  0  0  0  0  0
  143.4421  134.2939  162.8089 C   0  0  0  0  0  0  0  0  0  0  0  0
  144.7218  133.7233  162.6730 C   0  0  0  0  0  0  0  0  0  0  0  0
  145.3861  133.7700  161.4322 C   0  0  0  0  0  0  0  0  0  0  0  0
  145.9222  131.8665  158.8361 C   0  0  0  0  0  0  0  0  0  0  0  0
  146.8157  131.0256  158.7199 O   0  0  0  0  0  0  0  0  0  0  0  0
  144.5881  131.4693  159.4016 C   0  0  0  0  0  0  0  0  0  0  0  0
  144.5128  130.4761  160.4026 C   0  0  0  0  0  0  0  0  0  0  0  0
  143.2643  130.0912  160.9283 C   0  0  0  0  0  0  0  0  0  0  0  0
  142.0825  130.6822  160.4427 C   0  0  0  0  0  0  0  0  0  0  0  0
  142.1485  131.6524  159.4246 C   0  0  0  0  0  0  0  0  0  0  0  0
  143.3965  132.0395  158.8998 C   0  0  0  0  0  0  0  0  0  0  0  0
  147.3899  132.6034  156.5737 N   0  0  0  0  0  0  0  0  0  0  0  0
  148.3620  132.8213  155.6825 C   0  0  0  0  0  0  0  0  0  0  0  0
  149.2179  133.8444  155.6124 N   0  0  0  0  0  0  0  0  0  0  0  0
  149.0097  134.7392  156.6214 C   0  0  0  0  0  0  0  0  0  0  0  0
  150.4503  137.7191  155.2511 C   0  0  1  0  0  0  0  0  0  0  0  0
  149.1320  138.1918  155.4692 O   0  0  0  0  0  0  0  0  0  0  0  0
  151.4587  138.7409  155.7587 C   0  0  2  0  0  0  0  0  0  0  0  0
  152.5394  138.7271  154.9754 F   0  0  0  0  0  0  0  0  0  0  0  0
  153.3140  141.5173  160.1656 C   0  0  0  0  0  0  0  0  0  0  0  0
  152.4685  142.4790  159.5652 C   0  0  0  0  0  0  0  0  0  0  0  0
  152.0016  143.5842  160.3030 C   0  0  0  0  0  0  0  0  0  0  0  0
  152.3749  143.7414  161.6504 C   0  0  0  0  0  0  0  0  0  0  0  0
  153.2162  142.7921  162.2592 C   0  0  0  0  0  0  0  0  0  0  0  0
  153.6837  141.6858  161.5232 C   0  0  0  0  0  0  0  0  0  0  0  0
  153.7663  139.0815  156.9375 H   0  0  0  0  0  0  0  0  0  0  0  0
  153.6394  137.9346  158.2706 H   0  0  0  0  0  0  0  0  0  0  0  0
  150.9736  138.4399  157.8253 H   0  0  0  0  0  0  0  0  0  0  0  0
  151.1338  135.6059  155.4279 H   0  0  0  0  0  0  0  0  0  0  0  0
  149.4211  137.3525  158.4677 H   0  0  0  0  0  0  0  0  0  0  0  0
  143.0169  135.4527  159.6258 H   0  0  0  0  0  0  0  0  0  0  0  0
  141.8535  135.3674  161.8129 H   0  0  0  0  0  0  0  0  0  0  0  0
  142.9325  134.2571  163.7604 H   0  0  0  0  0  0  0  0  0  0  0  0
  145.1956  133.2514  163.5211 H   0  0  0  0  0  0  0  0  0  0  0  0
  146.3709  133.3343  161.3410 H   0  0  0  0  0  0  0  0  0  0  0  0
  145.4136  130.0164  160.7833 H   0  0  0  0  0  0  0  0  0  0  0  0
  143.2140  129.3418  161.7044 H   0  0  0  0  0  0  0  0  0  0  0  0
  141.1253  130.3870  160.8465 H   0  0  0  0  0  0  0  0  0  0  0  0
  141.2419  132.0996  159.0446 H   0  0  0  0  0  0  0  0  0  0  0  0
  143.4346  132.7821  158.1157 H   0  0  0  0  0  0  0  0  0  0  0  0
  148.4685  132.0692  154.9147 H   0  0  0  0  0  0  0  0  0  0  0  0
  150.5772  137.5279  154.1849 H   0  0  0  0  0  0  0  0  0  0  0  0
  148.5255  137.5442  155.1429 H   0  0  0  0  0  0  0  0  0  0  0  0
  151.0829  139.7649  155.7692 H   0  0  0  0  0  0  0  0  0  0  0  0
  152.1689  142.3799  158.5317 H   0  0  0  0  0  0  0  0  0  0  0  0
  151.3564  144.3119  159.8335 H   0  0  0  0  0  0  0  0  0  0  0  0
  152.0169  144.5890  162.2161 H   0  0  0  0  0  0  0  0  0  0  0  0
  153.5040  142.9119  163.2932 H   0  0  0  0  0  0  0  0  0  0  0  0
  154.3281  140.9763  162.0214 H   0  0  0  0  0  0  0  0  0  0  0  0
  1  2  2  0  0  0  0
  2  3  1  0  0  0  0
  2 38  1  0  0  0  0
  3  4  1  0  0  0  0
  4  5  1  0  0  0  0
  4 44  1  0  0  0  0
  4 45  1  0  0  0  0
  5 36  1  0  0  0  0
  5  6  1  0  0  0  0
  5 46  1  0  0  0  0
  6  7  1  0  0  0  0
  7  8  1  0  0  0  0
  7 34  1  0  0  0  0
  7 47  1  0  0  0  0
  8 33  1  0  0  0  0
  8  9  1  0  0  0  0
  9 10  2  0  0  0  0
  9 48  1  0  0  0  0
 10 11  1  0  0  0  0
 11 33  2  0  0  0  0
 11 12  1  0  0  0  0
 12 13  1  0  0  0  0
 12 30  2  0  0  0  0
 13 14  1  0  0  0  0
 13 22  1  0  0  0  0
 14 15  2  0  0  0  0
 14 16  1  0  0  0  0
 16 21  1  0  0  0  0
 16 17  2  0  0  0  0
 17 18  1  0  0  0  0
 17 49  1  0  0  0  0
 18 19  2  0  0  0  0
 18 50  1  0  0  0  0
 19 20  1  0  0  0  0
 19 51  1  0  0  0  0
 20 21  2  0  0  0  0
 20 52  1  0  0  0  0
 21 53  1  0  0  0  0
 22 23  2  0  0  0  0
 22 24  1  0  0  0  0
 24 29  1  0  0  0  0
 24 25  2  0  0  0  0
 25 26  1  0  0  0  0
 25 54  1  0  0  0  0
 26 27  2  0  0  0  0
 26 55  1  0  0  0  0
 27 28  1  0  0  0  0
 27 56  1  0  0  0  0
 28 29  2  0  0  0  0
 28 57  1  0  0  0  0
 29 58  1  0  0  0  0
 30 31  1  0  0  0  0
 31 32  2  0  0  0  0
 31 59  1  0  0  0  0
 32 33  1  0  0  0  0
 34 35  1  0  0  0  0
 34 36  1  0  0  0  0
 34 60  1  0  0  0  0
 35 61  1  0  0  0  0
 36 37  1  0  0  0  0
 36 62  1  0  0  0  0
 38 43  1  0  0  0  0
 38 39  2  0  0  0  0
 39 40  1  0  0  0  0
 39 63  1  0  0  0  0
 40 41  2  0  0  0  0
 40 64  1  0  0  0  0
 41 42  1  0  0  0  0
 41 65  1  0  0  0  0
 42 43  2  0  0  0  0
 42 66  1  0  0  0  0
 43 67  1  0  0  0  0
M  END
> <s_m_source_file>
AV-unprocessed.smi

> <i_m_source_file_index>
33

> <i_lp_mmshare_version>
43012

> <i_f3d_flags>
0

> <s_epik_input>
W2NIXTFbY0hdW2NIXVtjSF1bY0hdYzFDKD1PKU9bQ0gyXVtDQEBIXTJPW0NASF0oW0NAQEhdKFtPSF0pW0NAQEhdMkYpbihbY0hdbjMpYyhjMzQpbltjSF1uYzROKEMoPU8pYzVbY0hdW2NIXVtjSF1bY0hdW2NIXTUpQyg9TyljNltjSF1bY0hdW2NIXVtjSF1bY0hdNg==

> <s_epik_cmdline>
J2VwaWtfcHl0aG9uJywgJy1waCcsICc3LjAnLCAnLXRuJywgJzgnLCAnLW1hJywgJzIwMCcsICctbWV0YWxfYmluZGluZycsICctaW1hZScsICc8aW5maWxlLm1hZT4nLCAnLW9tYWUnLCAnPG91dGZpbGUubWFlPic=

> <r_lp_tautomer_probability>
1

> <r_epik_Ionization_Penalty>
0.00067664

> <r_epik_Ionization_Penalty_Charging>
0

> <r_epik_Ionization_Penalty_Neutral>
0.00067664

> <r_epik_State_Penalty>
0.000428095

> <r_epik_Charging_Adjusted_Penalty>
0.000428095

> <i_epik_Tot_Q>
0

> <i_epik_Tot_abs_Q>
0

> <r_epik_Metal_State_Penalty>
-0

> <b_epik_Metal_Only>
0

> <s_epik_Chemistry_Notes>
This compound has an ester and may undergo hydrolysis at high or low pH. This compound contains an acetal/aminal-like group ( X-CH(R)-Y where X, Y are N, S, or O) that may be acid/base labile, releasing an aldehyde.

> <s_lp_Force_Field>
OPLS_2005

> <r_lp_Energy>
71.8737

> <b_lp_Chiralities_Consistent>
1

> <s_lp_Variant>
AV-unprocessed.smi:33-1

> <Gold.Version>
5.8.1

> <Gold.Id.Protein>
6NUR|6NUR_protein|mol2

> <Gold.PLP.Fitness>
54.7814

> <Gold.PLP.PLP>
-53.8578

> <Gold.PLP.part.hbond>
-1.0000

> <Gold.PLP.part.metal>
0.0000

> <Gold.PLP.part.buried>
-6.9614

> <Gold.PLP.part.nonpolar>
-44.5114

> <Gold.PLP.part.repulsive>
0.0520

> <Gold.PLP.ligand.clash>
0.0000

> <Gold.PLP.ligand.torsion>
3.6072

> <Gold.PLP.Chemscore.Hbond>
1.0000

> <Gold.PLP.Chemscore.CHOScore>
0.0000

> <Gold.PLP.Chemscore.Metal>
0.0000

> <Gold.Chemscore.Hbonds>
donor molecule, donor type, donor heavy atom, donor atom, acceptor molecule, acceptor atom, score
      P1  H  7997  8008       L1     1  0.92

> <Gold.PLP.Chemscore.Internal.Correction>
5.1379

> <Gold.Rescore>
     Score         DG    S(hbond)    S(metal)    S(lipo)     H(rot)  DE(clash)    DE(int)     intcor
      7.88     -17.53       0.56        0.00     142.16       2.52       0.08       9.57       ----

> <Gold.Chemscore.Fitness>
7.8773

> <Gold.Chemscore.DG>
-17.5276

> <Gold.Chemscore.ZeroCoef>
-5.4800

> <Gold.Chemscore.Hbond>
0.5622

> <Gold.Chemscore.Metal>
0.0000

> <Gold.Chemscore.Lipo>
142.1633

> <Gold.Chemscore.Internal_Hbond>
0.0000

> <Gold.Chemscore.DEClash>
0.0770

> <Gold.Chemscore.DEInternal>
9.5733

> <Gold.Chemscore.Rot>
2.5247

> <Gold.Chemscore.Internal.Correction>
   9.000000E+99

> <Gold.Chemscore.Hbonds>
donor molecule, donor type, donor heavy atom, donor atom, acceptor molecule, acceptor atom, score
      P1  H  7997  8008       L1     1  0.21

> <Gold.Chemscore.Hbond.Weighted>
-1.8778

> <Gold.Chemscore.Metal.Weighted>
-0.0000

> <Gold.Chemscore.Lipo.Weighted>
-16.6331

> <Gold.Chemscore.Internal_Hbond.Weighted>
0.0000

> <Gold.Chemscore.DEClash.Weighted>
0.0770

> <Gold.Chemscore.DEInternal.Weighted>
9.5733

> <Gold.Chemscore.Rot.Weighted>
6.4633

> <Gold.Chemscore.Internal.Correction.Weighted>
   9.000000E+99

> <Gold.Protein.RotatedTorsions>
[ 6907 6896 6895 6894 ] final    4.85 input  -60.11 | X-H torsion
[ 7974 7965 7964 7962 ] final   27.65 input  175.53 | X-H torsion
[ 8008 7997 7996 7995 ] final -137.74 input   59.86 | X-H torsion
[ 10167 10162 10161 10158 ] final  -96.75 input  -65.29 | X-H torsion
[ 10718 10713 10712 10709 ] final   31.19 input   66.30 | X-H torsion
[ 10763 10752 10751 10750 ] final   99.42 input  -60.55 | X-H torsion
[ 11005 11000 10999 10996 ] final   80.56 input  -57.11 | X-H torsion

> <Gold.Protein.ActiveResidues>
 VAL166  LYS551  ARG553  GLY616  TRP617  ASP618  TYR619  PRO620  LYS621  CYS622 
 ASP623  PHE694  ASN695  SER759  ASP760  ASP761  ALA762  ILE779  LEU786  VAL792 
 PHE793  MET794  SER795  GLU796  ALA797  LYS798  CYS799  TRP800  GLU811  SER814 

> <Gold.Protein.RotatedAtoms>
  151.6480  135.1005  160.0154 H   0  0  0  0  0  0  0  0  0  0  0  0  # atno 6907 bound_to 6896
  152.4017  133.6823  159.6330 H   0  0  0  0  0  0  0  0  0  0  0  0  # atno 6908 bound_to 6896
  150.7916  133.8697  159.3296 H   0  0  0  0  0  0  0  0  0  0  0  0  # atno 6909 bound_to 6896
  146.1773  139.7163  142.8925 H   0  0  0  0  0  0  0  0  0  0  0  0  # atno 7974 bound_to 7965
  155.4168  140.0516  157.3028 H   0  0  0  0  0  0  0  0  0  0  0  0  # atno 8008 bound_to 7997
  154.4921  140.2124  155.9485 H   0  0  0  0  0  0  0  0  0  0  0  0  # atno 8009 bound_to 7997
  156.1356  140.3164  155.8421 H   0  0  0  0  0  0  0  0  0  0  0  0  # atno 8010 bound_to 7997
  140.2905  143.3224  152.0350 H   0  0  0  0  0  0  0  0  0  0  0  0  # atno 10167 bound_to 10162
  157.2693  130.7200  149.6496 H   0  0  0  0  0  0  0  0  0  0  0  0  # atno 10718 bound_to 10713
  153.3011  135.4114  155.1254 H   0  0  0  0  0  0  0  0  0  0  0  0  # atno 10763 bound_to 10752
  154.8549  135.3542  154.5850 H   0  0  0  0  0  0  0  0  0  0  0  0  # atno 10764 bound_to 10752
  153.6275  135.7062  153.5346 H   0  0  0  0  0  0  0  0  0  0  0  0  # atno 10765 bound_to 10752
  139.9130  134.7929  156.1925 H   0  0  0  0  0  0  0  0  0  0  0  0  # atno 11005 bound_to 11000
  145.4177  141.0403  143.2981 LP  0  0  0  0  0  0  0  0  0  0  0  0  # atno 17320 bound_to 7965
  144.8256  139.5715  143.6967 LP  0  0  0  0  0  0  0  0  0  0  0  0  # atno 17321 bound_to 7965
  139.4939  144.6528  151.6639 LP  0  0  0  0  0  0  0  0  0  0  0  0  # atno 17342 bound_to 10162
  140.5736  144.0067  150.6229 LP  0  0  0  0  0  0  0  0  0  0  0  0  # atno 17343 bound_to 10162
  155.9663  130.4372  150.5168 LP  0  0  0  0  0  0  0  0  0  0  0  0  # atno 17370 bound_to 10713
  157.3089  131.0660  151.2015 LP  0  0  0  0  0  0  0  0  0  0  0  0  # atno 17371 bound_to 10713
  141.0575  133.6858  156.1888 LP  0  0  0  0  0  0  0  0  0  0  0  0  # atno 17394 bound_to 11000
  140.6714  134.4864  157.5587 LP  0  0  0  0  0  0  0  0  0  0  0  0  # atno 17395 bound_to 11000

$$$$
