#       Name:                AV-unprocessed.smi:3179
#       Creating user name   scv26
#       Creation time:       Fri Mar 27 17:57:18 2020


#       File generated by GOLD software.
#

@<TRIPOS>MOLECULE
AV-unprocessed.smi:3179
    35    35     1
SMALL
NO_CHARGES


@<TRIPOS>ATOM
      1 ****        -3.6660   1.9720   0.0055 C.3            1 S1                 0.0000
      2 ****        -3.1903   0.5166   0.0222 C.3            1 S1                 0.0000
      3 ****        -1.7238   0.4366   0.0334 N.pl3          1 S1                 1.0000
      4 ****        -0.9996  -0.6996   0.0192 C.cat          1 S1                 0.0000
      5 ****        -1.6217  -1.8947  -0.0004 N.pl3          1 S1                 0.0000
      6 ****        -0.9587  -3.2054  -0.0151 C.3            1 S1                 0.0000
      7 ****        -1.9822  -4.3442  -0.0235 C.3            1 S1                 0.0000
      8 ****         0.3465  -0.6417   0.0244 N.pl3          1 S1                 0.0000
      9 ****         1.1528   0.5861   0.0573 C.3            1 S1                 0.0000
     10 ****         2.6402   0.2788  -0.1531 C.3            1 S1                 0.0000
     11 ****         3.4865   1.5070  -0.1186 C.2            1 S1                 0.0000
     12 ****         4.0090   2.0098   1.0034 N.2            1 S1                 0.0000
     13 ****         4.7434   3.1763   0.7752 C.2            1 S1                 0.0000
     14 ****         4.7564   3.5660  -0.5400 C.2            1 S1                 0.0000
     15 ****         3.8419   2.4754  -1.5455 S.3            1 S1                 0.0000
     16 ****        -4.7551   2.0222  -0.0114 H              1 S1                 0.0000
     17 ****        -3.2959   2.4984  -0.8748 H              1 S1                 0.0000
     18 ****        -3.3224   2.5097   0.8896 H              1 S1                 0.0000
     19 ****        -3.5822   0.0038   0.9008 H              1 S1                 0.0000
     20 ****        -3.5677  -0.0085  -0.8557 H              1 S1                 0.0000
     21 ****        -2.6316  -1.9038  -0.0039 H              1 S1                 0.0000
     22 ****        -0.3181  -3.2712  -0.8948 H              1 S1                 0.0000
     23 ****        -0.3159  -3.2878   0.8617 H              1 S1                 0.0000
     24 ****        -1.4821  -5.3130  -0.0237 H              1 S1                 0.0000
     25 ****        -2.6169  -4.2980  -0.9089 H              1 S1                 0.0000
     26 ****        -2.6260  -4.3033   0.8556 H              1 S1                 0.0000
     27 ****         0.8578  -1.5127   0.0315 H              1 S1                 0.0000
     28 ****         0.7998   1.2650  -0.7197 H              1 S1                 0.0000
     29 ****         0.9995   1.0817   1.0165 H              1 S1                 0.0000
     30 ****         2.9940  -0.4124   0.6131 H              1 S1                 0.0000
     31 ****         2.7891  -0.2170  -1.1129 H              1 S1                 0.0000
     32 ****         5.2242   3.6665   1.6091 H              1 S1                 0.0000
     33 ****         5.2444   4.4256  -0.9755 H              1 S1                 0.0000
     34 ****        -1.2280   1.3162   0.0589 H              1 S1                 0.0000
     35 ****         3.8879   1.5971   1.9062 LP             1 S1                 0.0000
@<TRIPOS>BOND
    1    1    2 1     
    2    1   16 1     
    3    1   17 1     
    4    1   18 1     
    5    2    3 1     
    6    2   19 1     
    7    2   20 1     
    8    3    4 ar    
    9    3   34 1     
   10    4    5 ar    
   11    4    8 ar    
   12    5    6 1     
   13    5   21 1     
   14    6    7 1     
   15    6   22 1     
   16    6   23 1     
   17    7   24 1     
   18    7   25 1     
   19    7   26 1     
   20    8    9 1     
   21    8   27 1     
   22    9   10 1     
   23    9   28 1     
   24    9   29 1     
   25   10   11 1     
   26   10   30 1     
   27   10   31 1     
   28   11   15 1     
   29   11   12 2     
   30   12   13 1     
   31   13   14 2     
   32   13   32 1     
   33   14   15 1     
   34   14   33 1     
   35   12   35 1     
@<TRIPOS>SUBSTRUCTURE
      1 S1             1
@<TRIPOS>SET
LONE_PAIRS      STATIC     ATOMS    <user>   **** ""
1 35
DONOR_HYDROGENS      STATIC     ATOMS    <user>   **** ""
3 34 21 27
ATOM$BLUE        STATIC     ATOMS    COLORGROUP SYSTEM
1 35
ATOM$RED        STATIC     ATOMS    COLORGROUP SYSTEM
3 34 21 27
