#       Name:                AV-unprocessed.smi:103
#       Creating user name   scv26
#       Creation time:       Thu Mar 26 17:55:16 2020


#       File generated by GOLD software.
#

@<TRIPOS>MOLECULE
AV-unprocessed.smi:103
    64    66     1
SMALL
NO_CHARGES


@<TRIPOS>ATOM
      1 ****        -6.2495   0.7595   1.2785 C.3            1 S1                 0.0000
      2 ****        -4.8964   0.2975   1.8025 C.2            1 S1                 0.0000
      3 ****        -4.8022  -0.5905   2.6501 O.2            1 S1                 0.0000
      4 ****        -3.8766   0.9585   1.2350 O.3            1 S1                 0.0000
      5 ****        -2.5417   0.6314   1.5882 C.3            1 S1                 0.0000
      6 ****        -1.5618   1.2701   0.5845 C.3            1 S1                 0.0000
      7 ****        -0.2572   1.2235   1.1433 O.3            1 S1                 0.0000
      8 ****         0.3246  -0.0070   0.8448 C.3            1 S1                 0.0000
      9 ****         1.8006   0.1989   0.6760 N.pl3          1 S1                 0.0000
     10 ****         2.8510  -0.6137   1.0530 C.2            1 S1                 0.0000
     11 ****         2.7347  -2.1643   1.9371 S.o2           1 S1                 0.0000
     12 ****         2.6203  -1.5938   3.6805 C.3            1 S1                 0.0000
     13 ****         1.4635  -2.7955   1.5512 O.2            1 S1                 0.0000
     14 ****         4.0104  -2.8690   1.7354 O.2            1 S1                 0.0000
     15 ****         4.0535  -0.1559   0.8323 N.2            1 S1                 0.0000
     16 ****         3.8174   1.0419   0.1725 C.ar           1 S1                 0.0000
     17 ****         4.6543   2.0414  -0.3846 C.ar           1 S1                 0.0000
     18 ****         5.9926   1.9776  -0.3508 N.pl3          1 S1                 0.0000
     19 ****         4.0765   3.1104  -0.9803 N.ar           1 S1                 0.0000
     20 ****         2.7434   3.1979  -1.0273 C.ar           1 S1                 0.0000
     21 ****         1.8326   2.3477  -0.5459 N.ar           1 S1                 0.0000
     22 ****         2.4160   1.2699   0.0570 C.ar           1 S1                 0.0000
     23 ****        -0.3595  -0.5519  -0.4288 C.3            1 S1                 0.0000
     24 ****         0.5392  -0.6878  -1.5265 O.3            1 S1                 0.0000
     25 ****         0.9526  -1.9002  -1.9295 C.2            1 S1                 0.0000
     26 ****         1.9349  -1.8163  -3.0890 C.3            1 S1                 0.0000
     27 ****         0.6157  -2.9816  -1.4486 O.2            1 S1                 0.0000
     28 ****        -1.3982   0.5183  -0.7431 C.3            1 S1                 0.0000
     29 ****        -2.6217  -0.0561  -1.1873 O.3            1 S1                 0.0000
     30 ****        -2.8092  -0.3481  -2.4847 C.2            1 S1                 0.0000
     31 ****        -4.1810  -0.9547  -2.7465 C.3            1 S1                 0.0000
     32 ****        -1.9998  -0.1695  -3.3947 O.2            1 S1                 0.0000
     33 ****        -6.3060   0.6125   0.1999 H              1 S1                 0.0000
     34 ****        -6.3981   1.8178   1.4933 H              1 S1                 0.0000
     35 ****        -7.0557   0.1947   1.7468 H              1 S1                 0.0000
     36 ****        -2.3498   1.0191   2.5895 H              1 S1                 0.0000
     37 ****        -2.3994  -0.4497   1.6264 H              1 S1                 0.0000
     38 ****        -1.8390   2.3111   0.4157 H              1 S1                 0.0000
     39 ****         0.2134  -0.6644   1.7051 H              1 S1                 0.0000
     40 ****         2.5519  -2.4575   4.3411 H              1 S1                 0.0000
     41 ****         1.7354  -0.9699   3.8034 H              1 S1                 0.0000
     42 ****         3.5095  -1.0155   3.9306 H              1 S1                 0.0000
     43 ****         6.4483   1.1897   0.0869 H              1 S1                 0.0000
     44 ****         6.5428   2.7175  -0.7623 H              1 S1                 0.0000
     45 ****         2.3499   4.0760  -1.5180 H              1 S1                 0.0000
     46 ****        -0.8542  -1.4887  -0.1670 H              1 S1                 0.0000
     47 ****         2.8324  -1.2779  -2.7841 H              1 S1                 0.0000
     48 ****         1.4832  -1.2901  -3.9298 H              1 S1                 0.0000
     49 ****         2.2248  -2.8136  -3.4199 H              1 S1                 0.0000
     50 ****        -0.9989   1.2189  -1.4788 H              1 S1                 0.0000
     51 ****        -4.9653  -0.2569  -2.4531 H              1 S1                 0.0000
     52 ****        -4.3039  -1.8745  -2.1748 H              1 S1                 0.0000
     53 ****        -4.3021  -1.1869  -3.8047 H              1 S1                 0.0000
     54 ****        -5.6265  -1.0267   3.0110 LP             1 S1                 0.0000
     55 ****        -3.9013  -0.8756   2.9776 LP             1 S1                 0.0000
     56 ****        -0.3140   1.3349   2.1354 LP             1 S1                 0.0000
     57 ****         0.2989   1.9592   0.7566 LP             1 S1                 0.0000
     58 ****         4.9308  -0.5679   1.0786 LP             1 S1                 0.0000
     59 ****         4.6428   3.8298  -1.3825 LP             1 S1                 0.0000
     60 ****         0.8446   2.4837  -0.6181 LP             1 S1                 0.0000
     61 ****        -0.0260  -3.0098  -0.6822 LP             1 S1                 0.0000
     62 ****         0.9837  -3.8322  -1.8242 LP             1 S1                 0.0000
     63 ****        -1.1041   0.2285  -3.1963 LP             1 S1                 0.0000
     64 ****        -2.2379  -0.4224  -4.3325 LP             1 S1                 0.0000
@<TRIPOS>BOND
    1    1    2 1     
    2    1   33 1     
    3    1   34 1     
    4    1   35 1     
    5    2    3 2     
    6    2    4 1     
    7    4    5 1     
    8    5    6 1     
    9    5   36 1     
   10    5   37 1     
   11    6   28 1     
   12    6    7 1     
   13    6   38 1     
   14    7    8 1     
   15    8    9 1     
   16    8   23 1     
   17    8   39 1     
   18    9   22 1     
   19    9   10 1     
   20   10   11 1     
   21   10   15 2     
   22   11   12 1     
   23   11   13 2     
   24   11   14 2     
   25   12   40 1     
   26   12   41 1     
   27   12   42 1     
   28   15   16 1     
   29   16   22 ar    
   30   16   17 ar    
   31   17   18 1     
   32   17   19 ar    
   33   18   43 1     
   34   18   44 1     
   35   19   20 ar    
   36   20   21 ar    
   37   20   45 1     
   38   21   22 ar    
   39   23   24 1     
   40   23   28 1     
   41   23   46 1     
   42   24   25 1     
   43   25   26 1     
   44   25   27 2     
   45   26   47 1     
   46   26   48 1     
   47   26   49 1     
   48   28   29 1     
   49   28   50 1     
   50   29   30 1     
   51   30   31 1     
   52   30   32 2     
   53   31   51 1     
   54   31   52 1     
   55   31   53 1     
   56    3   54 1     
   57    3   55 1     
   58    7   56 1     
   59    7   57 1     
   60   15   58 1     
   61   19   59 1     
   62   21   60 1     
   63   27   61 1     
   64   27   62 1     
   65   32   63 1     
   66   32   64 1     
@<TRIPOS>SUBSTRUCTURE
      1 S1             1
@<TRIPOS>SET
LONE_PAIRS      STATIC     ATOMS    <user>   **** ""
13 54 55 56 57 13 14 58 59 60 61 62 63 64
DONOR_HYDROGENS      STATIC     ATOMS    <user>   **** ""
2 43 44
ATOM$BLUE        STATIC     ATOMS    COLORGROUP SYSTEM
13 54 55 56 57 13 14 58 59 60 61 62 63 64
ATOM$RED        STATIC     ATOMS    COLORGROUP SYSTEM
2 43 44
