AV-unprocessed.smi:1261|AV-procd|sdf|5308|dock6
  -GOLD-   22720 4433D 1   1.00000     0.00000
 Structure written by MMmdl.
 50 51  0  0  0  0  0  0  0  0  2 V2000
  153.5592  141.5521  160.6010 C   0  0  0  0  0  0  0  0  0  0  0  0
  152.5792  142.4627  159.8477 C   0  0  1  0  0  0  0  0  0  0  0  0
  153.0950  143.9119  159.7881 C   0  0  0  0  0  0  0  0  0  0  0  0
  152.1511  144.8194  158.9778 C   0  0  2  0  0  0  0  0  0  0  0  0
  150.8536  145.1605  159.7324 C   0  0  0  0  0  0  0  0  0  0  0  0
  151.8747  144.2075  157.5901 C   0  0  0  0  0  0  0  0  0  0  0  0
  151.3536  142.8197  157.6960 N   0  3  1  0  0  0  0  0  0  0  0  0
  150.9388  142.2722  156.3794 C   0  0  0  0  0  0  0  0  0  0  0  0
  150.2793  140.8888  156.5041 C   0  0  0  0  0  0  0  0  0  0  0  0
  148.7581  140.9438  156.2890 C   0  0  0  0  0  0  0  0  0  0  0  0
  148.1659  142.0760  156.9895 N   0  0  0  0  0  0  0  0  0  0  0  0
  147.2695  141.9880  157.9873 C   0  0  0  0  0  0  0  0  0  0  0  0
  146.8375  140.9116  158.3985 O   0  0  0  0  0  0  0  0  0  0  0  0
  146.7799  143.2902  158.6451 C   0  0  0  0  0  0  0  0  0  0  0  0
  145.8629  143.1080  159.7825 N   0  0  0  0  0  0  0  0  0  0  0  0
  144.5683  142.7702  159.4179 N   0  0  0  0  0  0  0  0  0  0  0  0
  143.6713  142.5795  160.3256 C   0  0  0  0  0  0  0  0  0  0  0  0
  142.4012  142.2499  159.9204 O   0  0  0  0  0  0  0  0  0  0  0  0
  143.9895  142.7089  161.7309 C   0  0  0  0  0  0  0  0  0  0  0  0
  145.2527  143.0409  162.0763 C   0  0  0  0  0  0  0  0  0  0  0  0
  146.2926  143.2707  161.0718 C   0  0  0  0  0  0  0  0  0  0  0  0
  147.4460  143.5919  161.3570 O   0  0  0  0  0  0  0  0  0  0  0  0
  152.3003  141.9355  158.4268 C   0  0  0  0  0  0  0  0  0  0  0  0
  142.5060  141.5192  159.3307 H   0  0  0  0  0  0  0  0  0  0  0  0
  154.5277  141.5109  160.1017 H   0  0  0  0  0  0  0  0  0  0  0  0
  153.1764  140.5333  160.6685 H   0  0  0  0  0  0  0  0  0  0  0  0
  153.7242  141.9088  161.6182 H   0  0  0  0  0  0  0  0  0  0  0  0
  151.6401  142.4533  160.4023 H   0  0  0  0  0  0  0  0  0  0  0  0
  153.2290  144.3099  160.7948 H   0  0  0  0  0  0  0  0  0  0  0  0
  154.0823  143.9226  159.3237 H   0  0  0  0  0  0  0  0  0  0  0  0
  152.6699  145.7658  158.8199 H   0  0  0  0  0  0  0  0  0  0  0  0
  150.2375  144.2786  159.9062 H   0  0  0  0  0  0  0  0  0  0  0  0
  150.2519  145.8747  159.1698 H   0  0  0  0  0  0  0  0  0  0  0  0
  151.0702  145.6099  160.7020 H   0  0  0  0  0  0  0  0  0  0  0  0
  151.1628  144.8357  157.0529 H   0  0  0  0  0  0  0  0  0  0  0  0
  152.7913  144.1986  156.9977 H   0  0  0  0  0  0  0  0  0  0  0  0
  150.2137  142.9466  155.9214 H   0  0  0  0  0  0  0  0  0  0  0  0
  151.7946  142.2367  155.7035 H   0  0  0  0  0  0  0  0  0  0  0  0
  150.7148  140.1985  155.7823 H   0  0  0  0  0  0  0  0  0  0  0  0
  150.4888  140.4749  157.4915 H   0  0  0  0  0  0  0  0  0  0  0  0
  148.5346  141.0497  155.2272 H   0  0  0  0  0  0  0  0  0  0  0  0
  148.2896  140.0135  156.6146 H   0  0  0  0  0  0  0  0  0  0  0  0
  148.4668  142.9978  156.7068 H   0  0  0  0  0  0  0  0  0  0  0  0
  147.6592  143.8520  158.9654 H   0  0  0  0  0  0  0  0  0  0  0  0
  146.3078  143.9105  157.8811 H   0  0  0  0  0  0  0  0  0  0  0  0
  143.2294  142.5416  162.4800 H   0  0  0  0  0  0  0  0  0  0  0  0
  145.5040  143.1399  163.1222 H   0  0  0  0  0  0  0  0  0  0  0  0
  153.2313  141.8558  157.8628 H   0  0  0  0  0  0  0  0  0  0  0  0
  151.8920  140.9281  158.5000 H   0  0  0  0  0  0  0  0  0  0  0  0
  150.5149  142.8799  158.2556 H   0  0  0  0  0  0  0  0  0  0  0  0
  1  2  1  0  0  0  0
  1 25  1  0  0  0  0
  1 26  1  0  0  0  0
  1 27  1  0  0  0  0
  2 23  1  0  0  0  0
  2  3  1  0  0  0  0
  2 28  1  0  0  0  0
  3  4  1  0  0  0  0
  3 29  1  0  0  0  0
  3 30  1  0  0  0  0
  4  5  1  0  0  0  0
  4  6  1  0  0  0  0
  4 31  1  0  0  0  0
  5 32  1  0  0  0  0
  5 33  1  0  0  0  0
  5 34  1  0  0  0  0
  6  7  1  0  0  0  0
  6 35  1  0  0  0  0
  6 36  1  0  0  0  0
  7  8  1  0  0  0  0
  7 23  1  0  0  0  0
  7 50  1  0  0  0  0
  8  9  1  0  0  0  0
  8 37  1  0  0  0  0
  8 38  1  0  0  0  0
  9 10  1  0  0  0  0
  9 39  1  0  0  0  0
  9 40  1  0  0  0  0
 10 11  1  0  0  0  0
 10 41  1  0  0  0  0
 10 42  1  0  0  0  0
 11 12  1  0  0  0  0
 11 43  1  0  0  0  0
 12 13  2  0  0  0  0
 12 14  1  0  0  0  0
 14 44  1  0  0  0  0
 14 45  1  0  0  0  0
 14 15  1  0  0  0  0
 15 16  1  0  0  0  0
 15 21  1  0  0  0  0
 16 17  2  0  0  0  0
 17 18  1  0  0  0  0
 17 19  1  0  0  0  0
 18 24  1  0  0  0  0
 19 46  1  0  0  0  0
 19 20  2  0  0  0  0
 20 47  1  0  0  0  0
 20 21  1  0  0  0  0
 21 22  2  0  0  0  0
 23 48  1  0  0  0  0
 23 49  1  0  0  0  0
M  CHG  1   7   1
M  END
> <s_m_source_file>
AV-unprocessed.smi

> <i_m_source_file_index>
1261

> <i_lp_mmshare_version>
43012

> <i_f3d_flags>
0

> <s_epik_input>
W0NIM11bQ0BASF0xW0NIMl1bQ0BASF0oW0NIM10pW0NIMl1OKFtDSDJdMSlbQ0gyXVtDSDJdW0NIMl1bTkhdQyg9TylbQ0gyXW4yW25IXWMoPU8pW2NIXVtjSF1jMj1P

> <s_epik_cmdline>
J2VwaWtfcHl0aG9uJywgJy1waCcsICc3LjAnLCAnLXRuJywgJzgnLCAnLW1hJywgJzIwMCcsICctbWV0YWxfYmluZGluZycsICctaW1hZScsICc8aW5maWxlLm1hZT4nLCAnLW9tYWUnLCAnPG91dGZpbGUubWFlPic=

> <r_lp_tautomer_probability>
0.9996

> <r_epik_Ionization_Penalty>
2.1425

> <r_epik_Ionization_Penalty_Charging>
0.000312112

> <r_epik_Ionization_Penalty_Neutral>
2.14218

> <r_epik_State_Penalty>
1.71978

> <r_epik_Charging_Adjusted_Penalty>
1.72009

> <i_epik_Tot_Q>
1

> <i_epik_Tot_abs_Q>
1

> <r_epik_Metal_State_Penalty>
1.71978

> <b_epik_Metal_Only>
0

> <s_lp_Force_Field>
OPLS_2005

> <r_lp_Energy>
29.1446

> <b_lp_Chiralities_Consistent>
1

> <s_lp_Variant>
AV-unprocessed.smi:1261-8

> <Gold.Version>
5.8.1

> <Gold.Id.Protein>
6NUR|6NUR_protein|mol2

> <Gold.PLP.Fitness>
52.3608

> <Gold.PLP.PLP>
-46.2622

> <Gold.PLP.part.hbond>
-3.0000

> <Gold.PLP.part.metal>
0.0000

> <Gold.PLP.part.buried>
-5.8538

> <Gold.PLP.part.nonpolar>
-37.5414

> <Gold.PLP.part.repulsive>
0.1994

> <Gold.PLP.ligand.clash>
0.0000

> <Gold.PLP.ligand.torsion>
0.6339

> <Gold.PLP.Chemscore.Hbond>
2.4405

> <Gold.PLP.Chemscore.CHOScore>
0.0000

> <Gold.PLP.Chemscore.Metal>
0.0000

> <Gold.Chemscore.Hbonds>
donor molecule, donor type, donor heavy atom, donor atom, acceptor molecule, acceptor atom, score
      L1  H    11    43       P1  8028  0.96
      P1  H  6933  6944       L1    22  1.00
      P1  H  6934  6946       L1    13  0.09

> <Gold.PLP.Chemscore.Internal.Correction>
0.0449

> <Gold.Rescore>
     Score         DG    S(hbond)    S(metal)    S(lipo)     H(rot)  DE(clash)    DE(int)     intcor
     15.43     -17.85       2.11        0.00     114.07       3.14       1.57       0.86       ----

> <Gold.Chemscore.Fitness>
15.4294

> <Gold.Chemscore.DG>
-17.8537

> <Gold.Chemscore.ZeroCoef>
-5.4800

> <Gold.Chemscore.Hbond>
2.1119

> <Gold.Chemscore.Metal>
0.0000

> <Gold.Chemscore.Lipo>
114.0693

> <Gold.Chemscore.Internal_Hbond>
0.0000

> <Gold.Chemscore.DEClash>
1.5687

> <Gold.Chemscore.DEInternal>
0.8556

> <Gold.Chemscore.Rot>
3.1352

> <Gold.Chemscore.Internal.Correction>
   9.000000E+99

> <Gold.Chemscore.Hbonds>
donor molecule, donor type, donor heavy atom, donor atom, acceptor molecule, acceptor atom, score
      L1  H    11    43       P1  8028  0.60
      P1  H  6933  6944       L1    22  0.90
      P1  H  6934  6946       L1    13  0.07

> <Gold.Chemscore.Hbond.Weighted>
-7.0537

> <Gold.Chemscore.Metal.Weighted>
-0.0000

> <Gold.Chemscore.Lipo.Weighted>
-13.3461

> <Gold.Chemscore.Internal_Hbond.Weighted>
0.0000

> <Gold.Chemscore.DEClash.Weighted>
1.5687

> <Gold.Chemscore.DEInternal.Weighted>
0.8556

> <Gold.Chemscore.Rot.Weighted>
8.0260

> <Gold.Chemscore.Internal.Correction.Weighted>
   9.000000E+99

> <Gold.Protein.RotatedTorsions>
[ 6907 6896 6895 6894 ] final   95.80 input  -60.11 | X-H torsion
[ 7974 7965 7964 7962 ] final  101.60 input  175.53 | X-H torsion
[ 8008 7997 7996 7995 ] final   29.73 input   59.86 | X-H torsion
[ 10167 10162 10161 10158 ] final  134.91 input  -65.29 | X-H torsion
[ 10718 10713 10712 10709 ] final   -8.54 input   66.30 | X-H torsion
[ 10763 10752 10751 10750 ] final   -3.48 input  -60.55 | X-H torsion
[ 11005 11000 10999 10996 ] final -151.78 input  -57.11 | X-H torsion

> <Gold.Protein.ActiveResidues>
 VAL166  LYS551  ARG553  GLY616  TRP617  ASP618  TYR619  PRO620  LYS621  CYS622 
 ASP623  PHE694  ASN695  SER759  ASP760  ASP761  ALA762  ILE779  LEU786  VAL792 
 PHE793  MET794  SER795  GLU796  ALA797  LYS798  CYS799  TRP800  GLU811  SER814 

> <Gold.Protein.RotatedAtoms>
  152.5441  134.0984  159.8307 H   0  0  0  0  0  0  0  0  0  0  0  0  # atno 6907 bound_to 6896
  151.1065  133.5197  159.2615 H   0  0  0  0  0  0  0  0  0  0  0  0  # atno 6908 bound_to 6896
  151.1932  135.0420  159.8895 H   0  0  0  0  0  0  0  0  0  0  0  0  # atno 6909 bound_to 6896
  145.3701  139.2400  143.3460 H   0  0  0  0  0  0  0  0  0  0  0  0  # atno 7974 bound_to 7965
  155.0792  140.3208  155.4607 H   0  0  0  0  0  0  0  0  0  0  0  0  # atno 8008 bound_to 7997
  156.2771  140.2098  156.5865 H   0  0  0  0  0  0  0  0  0  0  0  0  # atno 8009 bound_to 7997
  154.6992  140.0508  157.0429 H   0  0  0  0  0  0  0  0  0  0  0  0  # atno 8010 bound_to 7997
  139.5237  144.6543  151.5208 H   0  0  0  0  0  0  0  0  0  0  0  0  # atno 10167 bound_to 10162
  156.7010  130.5093  149.5917 H   0  0  0  0  0  0  0  0  0  0  0  0  # atno 10718 bound_to 10713
  153.3720  135.6995  153.6631 H   0  0  0  0  0  0  0  0  0  0  0  0  # atno 10763 bound_to 10752
  153.5277  135.3599  155.2662 H   0  0  0  0  0  0  0  0  0  0  0  0  # atno 10764 bound_to 10752
  154.8682  135.4173  154.2999 H   0  0  0  0  0  0  0  0  0  0  0  0  # atno 10765 bound_to 10752
  140.7260  134.3675  157.5175 H   0  0  0  0  0  0  0  0  0  0  0  0  # atno 11005 bound_to 11000
  146.2889  140.4351  142.8747 LP  0  0  0  0  0  0  0  0  0  0  0  0  # atno 17320 bound_to 7965
  144.8582  140.7102  143.6124 LP  0  0  0  0  0  0  0  0  0  0  0  0  # atno 17321 bound_to 7965
  140.6362  143.8979  150.6650 LP  0  0  0  0  0  0  0  0  0  0  0  0  # atno 17342 bound_to 10162
  140.2299  143.3744  152.1574 LP  0  0  0  0  0  0  0  0  0  0  0  0  # atno 17343 bound_to 10162
  156.1728  130.6448  151.0858 LP  0  0  0  0  0  0  0  0  0  0  0  0  # atno 17370 bound_to 10713
  157.6973  131.0789  150.6930 LP  0  0  0  0  0  0  0  0  0  0  0  0  # atno 17371 bound_to 10713
  139.8837  134.8986  156.2749 LP  0  0  0  0  0  0  0  0  0  0  0  0  # atno 17394 bound_to 11000
  140.9963  133.7178  156.0890 LP  0  0  0  0  0  0  0  0  0  0  0  0  # atno 17395 bound_to 11000

$$$$
