AV-unprocessed.smi:999|AV-procd|sdf|4351|dock9
  -GOLD-   22720 2253D 1   1.00000     0.00000
 Structure written by MMmdl.
 37 38  0  0  0  0  0  0  0  0  2 V2000
  153.3945  143.3110  163.0155 C   0  0  0  0  0  0  0  0  0  0  0  0
  152.7849  142.5928  161.7939 C   0  0  2  0  0  0  0  0  0  0  0  0
  153.6149  141.3824  161.3364 C   0  0  0  0  0  0  0  0  0  0  0  0
  154.6674  141.0885  161.9047 O   0  0  0  0  0  0  0  0  0  0  0  0
  153.1203  140.6850  160.3013 N   0  0  0  0  0  0  0  0  0  0  0  0
  153.7444  139.5166  159.6894 C   0  0  2  0  0  0  0  0  0  0  0  0
  153.0414  139.1996  158.3579 C   0  0  0  0  0  0  0  0  0  0  0  0
  153.6293  137.9445  157.6938 C   0  0  0  0  0  0  0  0  0  0  0  0
  153.5739  136.7207  158.6394 C   0  0  1  0  0  0  0  0  0  0  0  0
  154.1813  135.4581  157.9927 C   0  0  0  0  0  0  0  0  0  0  0  0
  154.1335  134.3828  158.6311 O   0  0  0  0  0  0  0  0  0  0  0  0
  154.7139  135.5902  156.8684 O   0  5  0  0  0  0  0  0  0  0  0  0
  154.2668  137.0429  159.9837 C   0  0  0  0  0  0  0  0  0  0  0  0
  153.6790  138.3036  160.6379 C   0  0  0  0  0  0  0  0  0  0  0  0
  152.5545  143.5018  160.6765 N   0  0  0  0  0  0  0  0  0  0  0  0
  151.9173  144.7261  160.6977 C   0  0  0  0  0  0  0  0  0  0  0  0
  151.8987  145.2028  159.4183 C   0  0  0  0  0  0  0  0  0  0  0  0
  152.5450  144.1818  158.6685 C   0  0  0  0  0  0  0  0  0  0  0  0
  152.9278  143.1629  159.4202 N   0  0  0  0  0  0  0  0  0  0  0  0
  153.4999  142.6288  163.8597 H   0  0  0  0  0  0  0  0  0  0  0  0
  152.7567  144.1336  163.3395 H   0  0  0  0  0  0  0  0  0  0  0  0
  154.3812  143.7233  162.8003 H   0  0  0  0  0  0  0  0  0  0  0  0
  151.8093  142.2132  162.1024 H   0  0  0  0  0  0  0  0  0  0  0  0
  152.2489  140.9951  159.8969 H   0  0  0  0  0  0  0  0  0  0  0  0
  154.7910  139.7431  159.4756 H   0  0  0  0  0  0  0  0  0  0  0  0
  151.9742  139.0503  158.5286 H   0  0  0  0  0  0  0  0  0  0  0  0
  153.1299  140.0477  157.6777 H   0  0  0  0  0  0  0  0  0  0  0  0
  153.0793  137.7408  156.7738 H   0  0  0  0  0  0  0  0  0  0  0  0
  154.6617  138.1435  157.4015 H   0  0  0  0  0  0  0  0  0  0  0  0
  152.5262  136.4926  158.8403 H   0  0  0  0  0  0  0  0  0  0  0  0
  154.1675  136.2078  160.6784 H   0  0  0  0  0  0  0  0  0  0  0  0
  155.3366  137.1857  159.8234 H   0  0  0  0  0  0  0  0  0  0  0  0
  154.2186  138.5170  161.5614 H   0  0  0  0  0  0  0  0  0  0  0  0
  152.6434  138.1125  160.9228 H   0  0  0  0  0  0  0  0  0  0  0  0
  151.5340  145.1524  161.6130 H   0  0  0  0  0  0  0  0  0  0  0  0
  151.4824  146.1365  159.0703 H   0  0  0  0  0  0  0  0  0  0  0  0
  152.7429  144.1487  157.6073 H   0  0  0  0  0  0  0  0  0  0  0  0
  1  2  1  0  0  0  0
  1 20  1  0  0  0  0
  1 21  1  0  0  0  0
  1 22  1  0  0  0  0
  2  3  1  0  0  0  0
  2 15  1  0  0  0  0
  2 23  1  0  0  0  0
  3  4  2  0  0  0  0
  3  5  1  0  0  0  0
  5  6  1  0  0  0  0
  5 24  1  0  0  0  0
  6 14  1  0  0  0  0
  6  7  1  0  0  0  0
  6 25  1  0  0  0  0
  7  8  1  0  0  0  0
  7 26  1  0  0  0  0
  7 27  1  0  0  0  0
  8  9  1  0  0  0  0
  8 28  1  0  0  0  0
  8 29  1  0  0  0  0
  9 10  1  0  0  0  0
  9 13  1  0  0  0  0
  9 30  1  0  0  0  0
 10 11  2  0  0  0  0
 10 12  1  0  0  0  0
 13 14  1  0  0  0  0
 13 31  1  0  0  0  0
 13 32  1  0  0  0  0
 14 33  1  0  0  0  0
 14 34  1  0  0  0  0
 15 19  1  0  0  0  0
 15 16  1  0  0  0  0
 16 17  2  0  0  0  0
 16 35  1  0  0  0  0
 17 18  1  0  0  0  0
 17 36  1  0  0  0  0
 18 19  2  0  0  0  0
 18 37  1  0  0  0  0
M  CHG  1  12  -1
M  END
> <s_m_source_file>
AV-unprocessed.smi

> <i_m_source_file_index>
999

> <i_lp_mmshare_version>
43012

> <i_f3d_flags>
0

> <s_epik_input>
bjFbY0hdW2NIXVtjSF1uMVtDQEhdKFtDSDNdKUMoPU8pW05IXVtDQEBIXTJbQ0gyXVtDSDJdW0NAQEhdKEMoPU8pW09IXSlbQ0gyXVtDSDJdMg==

> <s_epik_cmdline>
J2VwaWtfcHl0aG9uJywgJy1waCcsICc3LjAnLCAnLXRuJywgJzgnLCAnLW1hJywgJzIwMCcsICctbWV0YWxfYmluZGluZycsICctaW1hZScsICc8aW5maWxlLm1hZT4nLCAnLW9tYWUnLCAnPG91dGZpbGUubWFlPic=

> <r_lp_tautomer_probability>
1

> <r_epik_Ionization_Penalty>
0.00221712

> <r_epik_Ionization_Penalty_Charging>
0.00217268

> <r_epik_Ionization_Penalty_Neutral>
4.44343e-05

> <r_epik_State_Penalty>
0.0014925

> <r_epik_Charging_Adjusted_Penalty>
0.00366518

> <i_epik_Tot_Q>
-1

> <i_epik_Tot_abs_Q>
1

> <r_epik_Metal_State_Penalty>
-0

> <b_epik_Metal_Only>
0

> <s_lp_Force_Field>
OPLS_2005

> <r_lp_Energy>
14.6475

> <b_lp_Chiralities_Consistent>
1

> <s_lp_Variant>
AV-unprocessed.smi:999-1

> <Gold.Version>
5.8.1

> <Gold.Id.Protein>
6NUR|6NUR_protein|mol2

> <Gold.PLP.Fitness>
52.3243

> <Gold.PLP.PLP>
-40.8509

> <Gold.PLP.part.hbond>
-3.0000

> <Gold.PLP.part.metal>
0.0000

> <Gold.PLP.part.buried>
-5.4320

> <Gold.PLP.part.nonpolar>
-31.3654

> <Gold.PLP.part.repulsive>
0.1007

> <Gold.PLP.ligand.clash>
0.0000

> <Gold.PLP.ligand.torsion>
0.3253

> <Gold.PLP.Chemscore.Hbond>
4.0000

> <Gold.PLP.Chemscore.CHOScore>
0.0000

> <Gold.PLP.Chemscore.Metal>
0.0000

> <Gold.Chemscore.Hbonds>
donor molecule, donor type, donor heavy atom, donor atom, acceptor molecule, acceptor atom, score
      P1  H  6896  6908       L1    11  1.98
      P1  H 10752 10765       L1    12  2.00

> <Gold.PLP.Chemscore.Internal.Correction>
0.1241

> <Gold.Rescore>
     Score         DG    S(hbond)    S(metal)    S(lipo)     H(rot)  DE(clash)    DE(int)     intcor
     15.92     -17.89       1.94        0.00      94.10       1.98       0.05       1.92       ----

> <Gold.Chemscore.Fitness>
15.9245

> <Gold.Chemscore.DG>
-17.8945

> <Gold.Chemscore.ZeroCoef>
-5.4800

> <Gold.Chemscore.Hbond>
1.9360

> <Gold.Chemscore.Metal>
0.0000

> <Gold.Chemscore.Lipo>
94.1047

> <Gold.Chemscore.Internal_Hbond>
0.0000

> <Gold.Chemscore.DEClash>
0.0510

> <Gold.Chemscore.DEInternal>
1.9190

> <Gold.Chemscore.Rot>
1.9774

> <Gold.Chemscore.Internal.Correction>
   9.000000E+99

> <Gold.Chemscore.Hbonds>
donor molecule, donor type, donor heavy atom, donor atom, acceptor molecule, acceptor atom, score
      P1  H  6896  6908       L1    11  0.88
      P1  H 10752 10765       L1    12  0.99

> <Gold.Chemscore.Hbond.Weighted>
-6.4663

> <Gold.Chemscore.Metal.Weighted>
-0.0000

> <Gold.Chemscore.Lipo.Weighted>
-11.0102

> <Gold.Chemscore.Internal_Hbond.Weighted>
0.0000

> <Gold.Chemscore.DEClash.Weighted>
0.0510

> <Gold.Chemscore.DEInternal.Weighted>
1.9190

> <Gold.Chemscore.Rot.Weighted>
5.0620

> <Gold.Chemscore.Internal.Correction.Weighted>
   9.000000E+99

> <Gold.Protein.RotatedTorsions>
[ 6907 6896 6895 6894 ] final  -23.51 input  -60.11 | X-H torsion
[ 7974 7965 7964 7962 ] final   64.58 input  175.53 | X-H torsion
[ 8008 7997 7996 7995 ] final  105.05 input   59.86 | X-H torsion
[ 10167 10162 10161 10158 ] final  166.47 input  -65.29 | X-H torsion
[ 10718 10713 10712 10709 ] final  171.52 input   66.30 | X-H torsion
[ 10763 10752 10751 10750 ] final  -83.74 input  -60.55 | X-H torsion
[ 11005 11000 10999 10996 ] final -129.22 input  -57.11 | X-H torsion

> <Gold.Protein.ActiveResidues>
 VAL166  LYS551  ARG553  GLY616  TRP617  ASP618  TYR619  PRO620  LYS621  CYS622 
 ASP623  PHE694  ASN695  SER759  ASP760  ASP761  ALA762  ILE779  LEU786  VAL792 
 PHE793  MET794  SER795  GLU796  ALA797  LYS798  CYS799  TRP800  GLU811  SER814 

> <Gold.Protein.RotatedAtoms>
  151.2029  135.0450  159.8879 H   0  0  0  0  0  0  0  0  0  0  0  0  # atno 6907 bound_to 6896
  152.5431  134.0830  159.8254 H   0  0  0  0  0  0  0  0  0  0  0  0  # atno 6908 bound_to 6896
  151.0973  133.5223  159.2643 H   0  0  0  0  0  0  0  0  0  0  0  0  # atno 6909 bound_to 6896
  145.8485  139.3239  143.0889 H   0  0  0  0  0  0  0  0  0  0  0  0  # atno 7974 bound_to 7965
  156.1626  140.3137  155.8833 H   0  0  0  0  0  0  0  0  0  0  0  0  # atno 8008 bound_to 7997
  155.3752  140.0484  157.3062 H   0  0  0  0  0  0  0  0  0  0  0  0  # atno 8009 bound_to 7997
  154.5161  140.2182  155.9074 H   0  0  0  0  0  0  0  0  0  0  0  0  # atno 8010 bound_to 7997
  139.4925  144.4024  151.9394 H   0  0  0  0  0  0  0  0  0  0  0  0  # atno 10167 bound_to 10162
  156.9923  131.0151  151.2853 H   0  0  0  0  0  0  0  0  0  0  0  0  # atno 10718 bound_to 10713
  154.5913  135.5545  153.7282 H   0  0  0  0  0  0  0  0  0  0  0  0  # atno 10763 bound_to 10752
  153.0118  135.6344  154.1844 H   0  0  0  0  0  0  0  0  0  0  0  0  # atno 10764 bound_to 10752
  154.1785  135.2888  155.3039 H   0  0  0  0  0  0  0  0  0  0  0  0  # atno 10765 bound_to 10752
  140.9450  134.1142  157.4115 H   0  0  0  0  0  0  0  0  0  0  0  0  # atno 11005 bound_to 11000
  145.9384  140.8997  143.0320 LP  0  0  0  0  0  0  0  0  0  0  0  0  # atno 17320 bound_to 7965
  144.6730  140.1515  143.7429 LP  0  0  0  0  0  0  0  0  0  0  0  0  # atno 17321 bound_to 7965
  140.3464  144.3142  150.5957 LP  0  0  0  0  0  0  0  0  0  0  0  0  # atno 17342 bound_to 10162
  140.5522  143.2204  151.7907 LP  0  0  0  0  0  0  0  0  0  0  0  0  # atno 17343 bound_to 10162
  157.5449  130.8144  149.8074 LP  0  0  0  0  0  0  0  0  0  0  0  0  # atno 17370 bound_to 10713
  156.0202  130.3798  150.1985 LP  0  0  0  0  0  0  0  0  0  0  0  0  # atno 17371 bound_to 10713
  139.8831  135.0048  156.6276 LP  0  0  0  0  0  0  0  0  0  0  0  0  # atno 17394 bound_to 11000
  140.7681  133.8761  155.8470 LP  0  0  0  0  0  0  0  0  0  0  0  0  # atno 17395 bound_to 11000

$$$$
