AV-unprocessed.smi:2749|AV-procd|sdf|10586|dock5
  -GOLD-   2272015 33D 1   1.00000     0.00000
 Structure written by MMmdl.
 32 34  0  0  0  0  0  0  0  0  1 V2000
  149.9466  135.4995  157.9001 O   0  0  0  0  0  0  0  0  0  0  0  0
  150.0294  136.6824  158.2256 C   0  0  0  0  0  0  0  0  0  0  0  0
  149.3807  137.1565  159.3105 N   0  0  0  0  0  0  0  0  0  0  0  0
  148.5405  136.5047  160.2605 C   0  0  0  0  0  0  0  0  0  0  0  0
  147.9822  135.2856  159.8126 C   0  0  0  0  0  0  0  0  0  0  0  0
  147.1464  134.5452  160.6714 C   0  0  0  0  0  0  0  0  0  0  0  0
  146.8948  135.0418  161.9623 C   0  0  0  0  0  0  0  0  0  0  0  0
  146.0989  134.3655  162.8238 F   0  0  0  0  0  0  0  0  0  0  0  0
  147.4927  136.2593  162.3356 C   0  0  0  0  0  0  0  0  0  0  0  0
  148.2925  136.9698  161.5122 N   0  0  0  0  0  0  0  0  0  0  0  0
  150.7500  137.5772  157.5315 N   0  0  0  0  0  0  0  0  0  0  0  0
  151.5580  137.2792  156.3536 C   0  0  1  0  0  0  0  0  0  0  0  0
  150.6906  136.9138  155.1455 C   0  0  0  0  0  0  0  0  0  0  0  0
  151.1108  137.9734  154.1182 C   0  0  1  0  0  0  0  0  0  0  0  0
  150.5670  139.3649  154.4722 C   0  0  0  0  0  0  0  0  0  0  0  0
  151.4592  139.7595  155.6478 C   0  0  0  0  0  0  0  0  0  0  0  0
  152.3296  138.5023  155.8154 C   0  0  2  0  0  0  0  0  0  0  0  0
  152.4785  138.1299  154.4556 O   0  0  0  0  0  0  0  0  0  0  0  0
  149.4597  138.1546  159.4405 H   0  0  0  0  0  0  0  0  0  0  0  0
  148.1884  134.9170  158.8180 H   0  0  0  0  0  0  0  0  0  0  0  0
  146.7084  133.6137  160.3449 H   0  0  0  0  0  0  0  0  0  0  0  0
  147.3263  136.6744  163.3185 H   0  0  0  0  0  0  0  0  0  0  0  0
  150.7651  138.5303  157.8662 H   0  0  0  0  0  0  0  0  0  0  0  0
  152.2484  136.4600  156.5629 H   0  0  0  0  0  0  0  0  0  0  0  0
  150.9414  135.9139  154.7896 H   0  0  0  0  0  0  0  0  0  0  0  0
  149.6187  136.9400  155.3477 H   0  0  0  0  0  0  0  0  0  0  0  0
  150.9332  137.6795  153.0835 H   0  0  0  0  0  0  0  0  0  0  0  0
  150.6991  140.0593  153.6418 H   0  0  0  0  0  0  0  0  0  0  0  0
  149.5087  139.3405  154.7341 H   0  0  0  0  0  0  0  0  0  0  0  0
  152.0785  140.6159  155.3791 H   0  0  0  0  0  0  0  0  0  0  0  0
  150.8963  140.0246  156.5431 H   0  0  0  0  0  0  0  0  0  0  0  0
  153.2726  138.6878  156.3305 H   0  0  0  0  0  0  0  0  0  0  0  0
  1  2  2  0  0  0  0
  2  3  1  0  0  0  0
  2 11  1  0  0  0  0
  3  4  1  0  0  0  0
  3 19  1  0  0  0  0
  4 10  1  0  0  0  0
  4  5  2  0  0  0  0
  5  6  1  0  0  0  0
  5 20  1  0  0  0  0
  6  7  2  0  0  0  0
  6 21  1  0  0  0  0
  7  8  1  0  0  0  0
  7  9  1  0  0  0  0
  9 10  2  0  0  0  0
  9 22  1  0  0  0  0
 11 12  1  0  0  0  0
 11 23  1  0  0  0  0
 12 17  1  0  0  0  0
 12 13  1  0  0  0  0
 12 24  1  0  0  0  0
 13 14  1  0  0  0  0
 13 25  1  0  0  0  0
 13 26  1  0  0  0  0
 14 18  1  0  0  0  0
 14 15  1  0  0  0  0
 14 27  1  0  0  0  0
 15 16  1  0  0  0  0
 15 28  1  0  0  0  0
 15 29  1  0  0  0  0
 16 17  1  0  0  0  0
 16 30  1  0  0  0  0
 16 31  1  0  0  0  0
 17 18  1  0  0  0  0
 17 32  1  0  0  0  0
M  END
> <s_m_source_file>
AV-unprocessed.smi

> <i_m_source_file_index>
2749

> <i_lp_mmshare_version>
43012

> <i_f3d_flags>
0

> <s_epik_input>
W0NIMl0xW0NIMl1bQ0BIXShPMilbQ0BASF0oW0NIMl1bQ0BASF0xMilbTkhdQyg9TylbTkhdYzNbY0hdW2NIXWMoRilbY0hdbjM=

> <s_epik_cmdline>
J2VwaWtfcHl0aG9uJywgJy1waCcsICc3LjAnLCAnLXRuJywgJzgnLCAnLW1hJywgJzIwMCcsICctbWV0YWxfYmluZGluZycsICctaW1hZScsICc8aW5maWxlLm1hZT4nLCAnLW9tYWUnLCAnPG91dGZpbGUubWFlPic=

> <r_lp_tautomer_probability>
1

> <r_epik_Ionization_Penalty>
3.37159e-05

> <r_epik_Ionization_Penalty_Charging>
0

> <r_epik_Ionization_Penalty_Neutral>
3.37159e-05

> <r_epik_State_Penalty>
-0

> <r_epik_Charging_Adjusted_Penalty>
0

> <i_epik_Tot_Q>
0

> <i_epik_Tot_abs_Q>
0

> <r_epik_Metal_State_Penalty>
-0

> <b_epik_Metal_Only>
0

> <s_lp_Force_Field>
OPLS_2005

> <r_lp_Energy>
40.3406

> <b_lp_Chiralities_Consistent>
1

> <s_lp_Variant>
AV-unprocessed.smi:2749-2

> <Gold.Version>
5.8.1

> <Gold.Id.Protein>
6NUR|6NUR_protein|mol2

> <Gold.PLP.Fitness>
38.9272

> <Gold.PLP.PLP>
-32.5738

> <Gold.PLP.part.hbond>
-3.4569

> <Gold.PLP.part.metal>
0.0000

> <Gold.PLP.part.buried>
-2.5035

> <Gold.PLP.part.nonpolar>
-27.2350

> <Gold.PLP.part.repulsive>
0.3339

> <Gold.PLP.ligand.clash>
0.0030

> <Gold.PLP.ligand.torsion>
0.1407

> <Gold.PLP.Chemscore.Hbond>
2.2061

> <Gold.PLP.Chemscore.CHOScore>
0.0000

> <Gold.PLP.Chemscore.Metal>
0.0000

> <Gold.Chemscore.Hbonds>
donor molecule, donor type, donor heavy atom, donor atom, acceptor molecule, acceptor atom, score
      P1  H  6896  6909       L1     1  0.90
      P1  H  6931  6943       L1    10  0.99
      P1  H  6934  6947       L1    10  0.05

> <Gold.PLP.Chemscore.Internal.Correction>
0.0196

> <Gold.Rescore>
     Score         DG    S(hbond)    S(metal)    S(lipo)     H(rot)  DE(clash)    DE(int)     intcor
     14.75     -16.37       1.59        0.00      69.59       1.00       0.03       1.59       ----

> <Gold.Chemscore.Fitness>
14.7476

> <Gold.Chemscore.DG>
-16.3671

> <Gold.Chemscore.ZeroCoef>
-5.4800

> <Gold.Chemscore.Hbond>
1.5882

> <Gold.Chemscore.Metal>
0.0000

> <Gold.Chemscore.Lipo>
69.5935

> <Gold.Chemscore.Internal_Hbond>
0.0000

> <Gold.Chemscore.DEClash>
0.0300

> <Gold.Chemscore.DEInternal>
1.5895

> <Gold.Chemscore.Rot>
1.0000

> <Gold.Chemscore.Internal.Correction>
   9.000000E+99

> <Gold.Chemscore.Hbonds>
donor molecule, donor type, donor heavy atom, donor atom, acceptor molecule, acceptor atom, score
      P1  H  6896  6909       L1     1  0.33
      P1  H  6931  6943       L1    10  0.85
      P1  H  6934  6947       L1    10  0.01

> <Gold.Chemscore.Hbond.Weighted>
-5.3046

> <Gold.Chemscore.Metal.Weighted>
-0.0000

> <Gold.Chemscore.Lipo.Weighted>
-8.1424

> <Gold.Chemscore.Internal_Hbond.Weighted>
0.0000

> <Gold.Chemscore.DEClash.Weighted>
0.0300

> <Gold.Chemscore.DEInternal.Weighted>
1.5895

> <Gold.Chemscore.Rot.Weighted>
2.5600

> <Gold.Chemscore.Internal.Correction.Weighted>
   9.000000E+99

> <Gold.Protein.RotatedTorsions>
[ 6907 6896 6895 6894 ] final   45.63 input  -60.11 | X-H torsion
[ 7974 7965 7964 7962 ] final -135.69 input  175.53 | X-H torsion
[ 8008 7997 7996 7995 ] final  -75.75 input   59.86 | X-H torsion
[ 10167 10162 10161 10158 ] final  101.66 input  -65.29 | X-H torsion
[ 10718 10713 10712 10709 ] final  160.05 input   66.30 | X-H torsion
[ 10763 10752 10751 10750 ] final -111.90 input  -60.55 | X-H torsion
[ 11005 11000 10999 10996 ] final   71.32 input  -57.11 | X-H torsion

> <Gold.Protein.ActiveResidues>
 VAL166  LYS551  ARG553  GLY616  TRP617  ASP618  TYR619  PRO620  LYS621  CYS622 
 ASP623  PHE694  ASN695  SER759  ASP760  ASP761  ALA762  ILE779  LEU786  VAL792 
 PHE793  MET794  SER795  GLU796  ALA797  LYS798  CYS799  TRP800  GLU811  SER814 

> <Gold.Protein.RotatedAtoms>
  152.2468  134.8173  160.0451 H   0  0  0  0  0  0  0  0  0  0  0  0  # atno 6907 bound_to 6896
  151.8868  133.3502  159.3793 H   0  0  0  0  0  0  0  0  0  0  0  0  # atno 6908 bound_to 6896
  150.7071  134.4890  159.5551 H   0  0  0  0  0  0  0  0  0  0  0  0  # atno 6909 bound_to 6896
  144.8992  140.6748  143.5096 H   0  0  0  0  0  0  0  0  0  0  0  0  # atno 7974 bound_to 7965
  154.5444  140.0738  156.8565 H   0  0  0  0  0  0  0  0  0  0  0  0  # atno 8008 bound_to 7997
  155.3116  140.3390  155.4225 H   0  0  0  0  0  0  0  0  0  0  0  0  # atno 8009 bound_to 7997
  156.1905  140.1684  156.8088 H   0  0  0  0  0  0  0  0  0  0  0  0  # atno 8010 bound_to 7997
  139.7418  144.7009  151.0563 H   0  0  0  0  0  0  0  0  0  0  0  0  # atno 10167 bound_to 10162
  157.1558  131.0575  151.2257 H   0  0  0  0  0  0  0  0  0  0  0  0  # atno 10718 bound_to 10713
  154.8323  135.4510  154.1110 H   0  0  0  0  0  0  0  0  0  0  0  0  # atno 10763 bound_to 10752
  153.2372  135.6912  153.7829 H   0  0  0  0  0  0  0  0  0  0  0  0  # atno 10764 bound_to 10752
  153.7190  135.3344  155.3238 H   0  0  0  0  0  0  0  0  0  0  0  0  # atno 10765 bound_to 10752
  139.9550  134.7160  156.0774 H   0  0  0  0  0  0  0  0  0  0  0  0  # atno 11005 bound_to 11000
  145.3647  139.1673  143.4364 LP  0  0  0  0  0  0  0  0  0  0  0  0  # atno 17320 bound_to 7965
  146.3098  140.3712  142.8674 LP  0  0  0  0  0  0  0  0  0  0  0  0  # atno 17321 bound_to 7965
  140.7787  143.4914  150.9888 LP  0  0  0  0  0  0  0  0  0  0  0  0  # atno 17342 bound_to 10162
  139.8603  143.7323  152.3174 LP  0  0  0  0  0  0  0  0  0  0  0  0  # atno 17343 bound_to 10162
  157.4178  130.7421  149.6889 LP  0  0  0  0  0  0  0  0  0  0  0  0  # atno 17370 bound_to 10713
  155.9762  130.4078  150.3794 LP  0  0  0  0  0  0  0  0  0  0  0  0  # atno 17371 bound_to 10713
  141.1220  133.6610  156.3238 LP  0  0  0  0  0  0  0  0  0  0  0  0  # atno 17394 bound_to 11000
  140.5631  134.5915  157.5438 LP  0  0  0  0  0  0  0  0  0  0  0  0  # atno 17395 bound_to 11000

$$$$
