#       Name:                AV-unprocessed.smi:2988
#       Creating user name   scv26
#       Creation time:       Fri Mar 27 16:31:14 2020


#       File generated by GOLD software.
#

@<TRIPOS>MOLECULE
AV-unprocessed.smi:2988
    42    43     1
SMALL
NO_CHARGES


@<TRIPOS>ATOM
      1 ****        -0.5649  -0.6749  -2.7771 C.3            1 S1                 0.0000
      2 ****        -1.5632  -0.5067  -1.6184 C.3            1 S1                 0.0000
      3 ****        -1.4074  -1.6324  -0.5730 C.3            1 S1                 0.0000
      4 ****        -2.4331  -1.4963   0.5639 C.3            1 S1                 0.0000
      5 ****        -2.3551  -0.1137   1.2286 C.3            1 S1                 0.0000
      6 ****        -2.5092   1.0124   0.1910 C.3            1 S1                 0.0000
      7 ****        -1.4803   0.8901  -0.9540 C.3            1 S1                 0.0000
      8 ****        -0.1301   1.1378  -0.4573 N.am           1 S1                 0.0000
      9 ****         0.4415   2.3327  -0.2366 C.2            1 S1                 0.0000
     10 ****        -0.1212   3.3996  -0.4784 O.2            1 S1                 0.0000
     11 ****         1.8610   2.3432   0.3594 C.3            1 S1                 0.0000
     12 ****         2.3723   1.0144   0.7400 N.am           1 S1                 0.0000
     13 ****         3.1893   0.4314  -0.2130 N.2            1 S1                 0.0000
     14 ****         3.6451  -0.7576  -0.0163 C.2            1 S1                 0.0000
     15 ****         3.3348  -1.5138   1.1768 C.2            1 S1                 0.0000
     16 ****         3.9678  -3.1090   1.3811 Cl             1 S1                 0.0000
     17 ****         2.5433  -0.9286   2.1105 C.2            1 S1                 0.0000
     18 ****         2.1227  -1.7727   3.5611 Cl             1 S1                 0.0000
     19 ****         2.0097   0.4272   1.9226 C.2            1 S1                 0.0000
     20 ****         1.2812   0.9890   2.7413 O.2            1 S1                 0.0000
     21 ****         0.4684  -0.6455  -2.4295 H              1 S1                 0.0000
     22 ****        -0.6899   0.1138  -3.5194 H              1 S1                 0.0000
     23 ****        -0.7132  -1.6289  -3.2837 H              1 S1                 0.0000
     24 ****        -2.5618  -0.5995  -2.0480 H              1 S1                 0.0000
     25 ****        -1.5262  -2.6044  -1.0527 H              1 S1                 0.0000
     26 ****        -0.3990  -1.6200  -0.1566 H              1 S1                 0.0000
     27 ****        -3.4376  -1.6541   0.1689 H              1 S1                 0.0000
     28 ****        -2.2681  -2.2758   1.3082 H              1 S1                 0.0000
     29 ****        -3.1302  -0.0244   1.9902 H              1 S1                 0.0000
     30 ****        -1.4022  -0.0106   1.7493 H              1 S1                 0.0000
     31 ****        -3.5157   0.9767  -0.2274 H              1 S1                 0.0000
     32 ****        -2.4221   1.9830   0.6807 H              1 S1                 0.0000
     33 ****        -1.7115   1.6427  -1.7103 H              1 S1                 0.0000
     34 ****         0.4151   0.3186  -0.2314 H              1 S1                 0.0000
     35 ****         2.5278   2.8037  -0.3718 H              1 S1                 0.0000
     36 ****         1.8741   3.0117   1.2220 H              1 S1                 0.0000
     37 ****         4.2880  -1.2586  -0.7404 H              1 S1                 0.0000
     38 ****        -1.0468   3.4022  -0.8570 LP             1 S1                 0.0000
     39 ****         0.3470   4.2643  -0.2964 LP             1 S1                 0.0000
     40 ****         3.4241   0.9292  -1.0479 LP             1 S1                 0.0000
     41 ****         0.9323   1.9070   2.5530 LP             1 S1                 0.0000
     42 ****         1.0385   0.5271   3.5944 LP             1 S1                 0.0000
@<TRIPOS>BOND
    1    1    2 1     
    2    1   21 1     
    3    1   22 1     
    4    1   23 1     
    5    2    7 1     
    6    2    3 1     
    7    2   24 1     
    8    3    4 1     
    9    3   25 1     
   10    3   26 1     
   11    4    5 1     
   12    4   27 1     
   13    4   28 1     
   14    5    6 1     
   15    5   29 1     
   16    5   30 1     
   17    6    7 1     
   18    6   31 1     
   19    6   32 1     
   20    7    8 1     
   21    7   33 1     
   22    8    9 am    
   23    8   34 1     
   24    9   10 2     
   25    9   11 1     
   26   11   12 1     
   27   11   35 1     
   28   11   36 1     
   29   12   19 am    
   30   12   13 1     
   31   13   14 2     
   32   14   15 1     
   33   14   37 1     
   34   15   16 1     
   35   15   17 2     
   36   17   18 1     
   37   17   19 1     
   38   19   20 2     
   39   10   38 1     
   40   10   39 1     
   41   13   40 1     
   42   20   41 1     
   43   20   42 1     
@<TRIPOS>SUBSTRUCTURE
      1 S1             1
@<TRIPOS>SET
LONE_PAIRS      STATIC     ATOMS    <user>   **** ""
5 38 39 40 41 42
DONOR_HYDROGENS      STATIC     ATOMS    <user>   **** ""
1 34
ATOM$BLUE        STATIC     ATOMS    COLORGROUP SYSTEM
5 38 39 40 41 42
ATOM$RED        STATIC     ATOMS    COLORGROUP SYSTEM
1 34
