#       Name:                AV-unprocessed.smi:1641
#       Creating user name   scv26
#       Creation time:       Fri Mar 27 07:24:44 2020


#       File generated by GOLD software.
#

@<TRIPOS>MOLECULE
AV-unprocessed.smi:1641
    48    49     1
SMALL
NO_CHARGES


@<TRIPOS>ATOM
      1 ****        -3.7391   7.4152   2.4471 C.3            1 S1                 0.0000
      2 ****        -3.2843   6.0708   1.9921 C.2            1 S1                 0.0000
      3 ****        -2.9585   5.0888   2.8416 N.2            1 S1                 0.0000
      4 ****        -2.5587   3.9347   2.1828 N.2            1 S1                 0.0000
      5 ****        -2.5952   4.0813   0.8512 C.2            1 S1                 0.0000
      6 ****        -2.2285   3.0599  -0.0646 N.am           1 S1                 0.0000
      7 ****        -1.7808   1.8215   0.2070 C.2            1 S1                 0.0000
      8 ****        -1.6347   1.3463   1.3336 O.2            1 S1                 0.0000
      9 ****        -1.5001   1.1459  -0.9167 N.am           1 S1                 0.0000
     10 ****        -0.9913  -0.2201  -0.9576 C.3            1 S1                 0.0000
     11 ****         0.5056  -0.2785  -0.5950 C.3            1 S1                 0.0000
     12 ****         1.0494  -1.6572  -0.6607 N.4            1 S1                 1.0000
     13 ****         2.5226  -1.6766  -0.8104 C.3            1 S1                 0.0000
     14 ****         3.0272  -3.1202  -0.9835 C.3            1 S1                 0.0000
     15 ****         4.5566  -3.1888  -1.0522 C.3            1 S1                 0.0000
     16 ****         2.6026  -3.9077   0.1260 O.3            1 S1                 0.0000
     17 ****         1.1907  -3.9411   0.3345 C.3            1 S1                 0.0000
     18 ****         0.4617  -4.7714  -0.7370 C.3            1 S1                 0.0000
     19 ****         0.6398  -2.5094   0.4830 C.3            1 S1                 0.0000
     20 ****        -3.1319   5.6553   0.2893 S.3            1 S1                 0.0000
     21 ****        -3.7580   7.4678   3.5362 H              1 S1                 0.0000
     22 ****        -4.7418   7.6165   2.0700 H              1 S1                 0.0000
     23 ****        -3.0619   8.1829   2.0724 H              1 S1                 0.0000
     24 ****        -2.3022   3.3081  -1.0401 H              1 S1                 0.0000
     25 ****        -1.6532   1.6055  -1.8029 H              1 S1                 0.0000
     26 ****        -1.5907  -0.8411  -0.2913 H              1 S1                 0.0000
     27 ****        -1.1442  -0.6088  -1.9647 H              1 S1                 0.0000
     28 ****         1.0478   0.3540  -1.2997 H              1 S1                 0.0000
     29 ****         0.6906   0.1377   0.3966 H              1 S1                 0.0000
     30 ****         2.8132  -1.0829  -1.6782 H              1 S1                 0.0000
     31 ****         2.9839  -1.2136   0.0638 H              1 S1                 0.0000
     32 ****         2.6285  -3.5392  -1.9075 H              1 S1                 0.0000
     33 ****         4.9389  -2.6121  -1.8949 H              1 S1                 0.0000
     34 ****         4.8952  -4.2181  -1.1734 H              1 S1                 0.0000
     35 ****         5.0112  -2.7942  -0.1430 H              1 S1                 0.0000
     36 ****         1.0398  -4.4537   1.2850 H              1 S1                 0.0000
     37 ****        -0.5909  -4.8934  -0.4806 H              1 S1                 0.0000
     38 ****         0.8969  -5.7677  -0.8193 H              1 S1                 0.0000
     39 ****         0.5018  -4.3062  -1.7216 H              1 S1                 0.0000
     40 ****         1.0166  -2.0680   1.4072 H              1 S1                 0.0000
     41 ****        -0.4452  -2.5454   0.5748 H              1 S1                 0.0000
     42 ****         0.6724  -2.0786  -1.4976 H              1 S1                 0.0000
     43 ****        -2.9987   5.1769   3.8369 LP             1 S1                 0.0000
     44 ****        -2.2772   3.0945   2.6461 LP             1 S1                 0.0000
     45 ****        -1.8562   1.8946   2.1400 LP             1 S1                 0.0000
     46 ****        -1.2946   0.4122   1.4420 LP             1 S1                 0.0000
     47 ****         3.0297  -3.5377   0.9510 LP             1 S1                 0.0000
     48 ****         2.9172  -4.8455  -0.0203 LP             1 S1                 0.0000
@<TRIPOS>BOND
    1    1    2 1     
    2    1   21 1     
    3    1   22 1     
    4    1   23 1     
    5    2   20 1     
    6    2    3 2     
    7    3    4 1     
    8    4    5 2     
    9    5    6 1     
   10    5   20 1     
   11    6    7 am    
   12    6   24 1     
   13    7    8 2     
   14    7    9 am    
   15    9   10 1     
   16    9   25 1     
   17   10   11 1     
   18   10   26 1     
   19   10   27 1     
   20   11   12 1     
   21   11   28 1     
   22   11   29 1     
   23   12   19 1     
   24   12   13 1     
   25   12   42 1     
   26   13   14 1     
   27   13   30 1     
   28   13   31 1     
   29   14   15 1     
   30   14   16 1     
   31   14   32 1     
   32   15   33 1     
   33   15   34 1     
   34   15   35 1     
   35   16   17 1     
   36   17   18 1     
   37   17   19 1     
   38   17   36 1     
   39   18   37 1     
   40   18   38 1     
   41   18   39 1     
   42   19   40 1     
   43   19   41 1     
   44    3   43 1     
   45    4   44 1     
   46    8   45 1     
   47    8   46 1     
   48   16   47 1     
   49   16   48 1     
@<TRIPOS>SUBSTRUCTURE
      1 S1             1
@<TRIPOS>SET
LONE_PAIRS      STATIC     ATOMS    <user>   **** ""
6 43 44 45 46 47 48
DONOR_HYDROGENS      STATIC     ATOMS    <user>   **** ""
3 24 25 42
ATOM$BLUE        STATIC     ATOMS    COLORGROUP SYSTEM
6 43 44 45 46 47 48
ATOM$RED        STATIC     ATOMS    COLORGROUP SYSTEM
3 24 25 42
