AV-unprocessed.smi:1787|AV-procd|sdf|7206|dock4
  -GOLD-   22720 8443D 1   1.00000     0.00000
 Structure written by MMmdl.
 44 46  0  0  0  0  0  0  0  0  1 V2000
  146.1735  133.7429  153.0632 O   0  0  0  0  0  0  0  0  0  0  0  0
  147.1086  134.3160  152.5054 C   0  0  0  0  0  0  0  0  0  0  0  0
  148.1022  134.9200  153.1685 N   0  0  0  0  0  0  0  0  0  0  0  0
  148.2216  134.9779  154.6225 C   0  0  0  0  0  0  0  0  0  0  0  0
  148.0034  136.4252  155.1699 C   0  0  1  0  0  0  0  0  0  0  0  0
  149.0690  137.3412  154.6578 N   0  0  0  0  0  0  0  0  0  0  0  0
  148.7367  138.7735  154.6388 C   0  0  0  0  0  0  0  0  0  0  0  0
  149.8581  139.6281  154.0234 C   0  0  0  0  0  0  0  0  0  0  0  0
  151.0718  139.4104  154.7296 O   0  0  0  0  0  0  0  0  0  0  0  0
  151.4696  138.0467  154.7023 C   0  0  0  0  0  0  0  0  0  0  0  0
  150.3677  137.1730  155.3247 C   0  0  0  0  0  0  0  0  0  0  0  0
  146.5650  136.8651  154.7693 C   0  0  0  0  0  0  0  0  0  0  0  0
  145.5436  136.0810  155.6010 C   0  0  0  0  0  0  0  0  0  0  0  0
  146.2969  135.7496  157.2111 S   0  0  0  0  0  0  0  0  0  0  0  0
  147.9342  136.3545  156.7167 C   0  0  0  0  0  0  0  0  0  0  0  0
  147.2723  134.4378  151.1768 N   0  0  0  0  0  0  0  0  0  0  0  0
  146.4500  133.9500  150.1242 C   0  0  0  0  0  0  0  0  0  0  0  0
  145.6718  132.8021  150.3806 C   0  0  0  0  0  0  0  0  0  0  0  0
  144.8345  132.2979  149.3674 C   0  0  0  0  0  0  0  0  0  0  0  0
  144.8028  132.9691  148.1303 C   0  0  0  0  0  0  0  0  0  0  0  0
  145.5311  134.0748  147.8701 N   0  0  0  0  0  0  0  0  0  0  0  0
  146.3325  134.5532  148.8465 C   0  0  0  0  0  0  0  0  0  0  0  0
  148.8331  135.3694  152.6361 H   0  0  0  0  0  0  0  0  0  0  0  0
  147.5128  134.2770  155.0629 H   0  0  0  0  0  0  0  0  0  0  0  0
  149.1967  134.5845  154.9083 H   0  0  0  0  0  0  0  0  0  0  0  0
  147.8458  138.9619  154.0448 H   0  0  0  0  0  0  0  0  0  0  0  0
  148.5352  139.1356  155.6463 H   0  0  0  0  0  0  0  0  0  0  0  0
  149.9932  139.3861  152.9680 H   0  0  0  0  0  0  0  0  0  0  0  0
  149.6002  140.6858  154.0780 H   0  0  0  0  0  0  0  0  0  0  0  0
  151.6735  137.7386  153.6756 H   0  0  0  0  0  0  0  0  0  0  0  0
  152.3995  137.9363  155.2605 H   0  0  0  0  0  0  0  0  0  0  0  0
  150.2775  137.4178  156.3838 H   0  0  0  0  0  0  0  0  0  0  0  0
  150.7071  136.1410  155.2689 H   0  0  0  0  0  0  0  0  0  0  0  0
  146.3877  137.9093  155.0160 H   0  0  0  0  0  0  0  0  0  0  0  0
  146.3737  136.7649  153.7005 H   0  0  0  0  0  0  0  0  0  0  0  0
  144.6104  136.6320  155.7193 H   0  0  0  0  0  0  0  0  0  0  0  0
  145.2999  135.1320  155.1235 H   0  0  0  0  0  0  0  0  0  0  0  0
  148.7140  135.7219  157.1421 H   0  0  0  0  0  0  0  0  0  0  0  0
  148.0443  137.3389  157.1680 H   0  0  0  0  0  0  0  0  0  0  0  0
  148.0653  134.9883  150.8811 H   0  0  0  0  0  0  0  0  0  0  0  0
  145.7152  132.3100  151.3414 H   0  0  0  0  0  0  0  0  0  0  0  0
  144.2302  131.4187  149.5349 H   0  0  0  0  0  0  0  0  0  0  0  0
  144.1716  132.6115  147.3303 H   0  0  0  0  0  0  0  0  0  0  0  0
  146.8682  135.4505  148.5808 H   0  0  0  0  0  0  0  0  0  0  0  0
  1  2  2  0  0  0  0
  2  3  1  0  0  0  0
  2 16  1  0  0  0  0
  3  4  1  0  0  0  0
  3 23  1  0  0  0  0
  4  5  1  0  0  0  0
  4 24  1  0  0  0  0
  4 25  1  0  0  0  0
  5 15  1  0  0  0  0
  5  6  1  0  0  0  0
  5 12  1  0  0  0  0
  6 11  1  0  0  0  0
  6  7  1  0  0  0  0
  7  8  1  0  0  0  0
  7 26  1  0  0  0  0
  7 27  1  0  0  0  0
  8  9  1  0  0  0  0
  8 28  1  0  0  0  0
  8 29  1  0  0  0  0
  9 10  1  0  0  0  0
 10 11  1  0  0  0  0
 10 30  1  0  0  0  0
 10 31  1  0  0  0  0
 11 32  1  0  0  0  0
 11 33  1  0  0  0  0
 12 13  1  0  0  0  0
 12 34  1  0  0  0  0
 12 35  1  0  0  0  0
 13 14  1  0  0  0  0
 13 36  1  0  0  0  0
 13 37  1  0  0  0  0
 14 15  1  0  0  0  0
 15 38  1  0  0  0  0
 15 39  1  0  0  0  0
 16 17  1  0  0  0  0
 16 40  1  0  0  0  0
 17 22  1  0  0  0  0
 17 18  2  0  0  0  0
 18 19  1  0  0  0  0
 18 41  1  0  0  0  0
 19 20  2  0  0  0  0
 19 42  1  0  0  0  0
 20 21  1  0  0  0  0
 20 43  1  0  0  0  0
 21 22  2  0  0  0  0
 22 44  1  0  0  0  0
M  END
> <s_m_source_file>
AV-unprocessed.smi

> <i_m_source_file_index>
1787

> <i_lp_mmshare_version>
43012

> <i_f3d_flags>
0

> <s_epik_input>
W2NIXTFuW2NIXVtjSF1bY0hdYzFbTkhdQyg9TylbTkhdW0NIMl1bQ0BdMihbQ0gyXVtDSDJdU1tDSDJdMilOM1tDSDJdW0NIMl1PW0NIMl1bQ0gyXTM=

> <s_epik_cmdline>
J2VwaWtfcHl0aG9uJywgJy1waCcsICc3LjAnLCAnLXRuJywgJzgnLCAnLW1hJywgJzIwMCcsICctbWV0YWxfYmluZGluZycsICctaW1hZScsICc8aW5maWxlLm1hZT4nLCAnLW9tYWUnLCAnPG91dGZpbGUubWFlPic=

> <r_epik_Ionization_Penalty>
0.024212

> <r_epik_Ionization_Penalty_Charging>
0

> <r_epik_Ionization_Penalty_Neutral>
0.024212

> <r_epik_State_Penalty>
0.0155843

> <r_epik_Charging_Adjusted_Penalty>
0.0155843

> <i_epik_Tot_Q>
0

> <i_epik_Tot_abs_Q>
0

> <r_epik_Metal_State_Penalty>
0.01557

> <b_epik_Metal_Only>
0

> <s_lp_Force_Field>
OPLS_2005

> <r_lp_Energy>
57.3635

> <b_lp_Chiralities_Consistent>
1

> <s_lp_Variant>
AV-unprocessed.smi:1787-1

> <Gold.Version>
5.8.1

> <Gold.Id.Protein>
6NUR|6NUR_protein|mol2

> <Gold.PLP.Fitness>
40.5615

> <Gold.PLP.PLP>
-29.3458

> <Gold.PLP.part.hbond>
-3.0000

> <Gold.PLP.part.metal>
0.0000

> <Gold.PLP.part.buried>
-4.8955

> <Gold.PLP.part.nonpolar>
-22.0983

> <Gold.PLP.part.repulsive>
0.5021

> <Gold.PLP.ligand.clash>
0.0000

> <Gold.PLP.ligand.torsion>
0.7436

> <Gold.PLP.Chemscore.Hbond>
2.9440

> <Gold.PLP.Chemscore.CHOScore>
1.2690

> <Gold.PLP.Chemscore.Metal>
0.0000

> <Gold.Chemscore.Hbonds>
donor molecule, donor type, donor heavy atom, donor atom, acceptor molecule, acceptor atom, score
      L1  H    16    40       P1  7948  0.09

> <Gold.PLP.Chemscore.Internal.Correction>
0.0640

> <Gold.Rescore>
     Score         DG    S(hbond)    S(metal)    S(lipo)     H(rot)  DE(clash)    DE(int)     intcor
     16.69     -17.19       2.00        0.00      74.53       1.44       0.02       0.48       ----

> <Gold.Chemscore.Fitness>
16.6889

> <Gold.Chemscore.DG>
-17.1861

> <Gold.Chemscore.ZeroCoef>
-5.4800

> <Gold.Chemscore.Hbond>
2.0011

> <Gold.Chemscore.Metal>
0.0000

> <Gold.Chemscore.Lipo>
74.5329

> <Gold.Chemscore.Internal_Hbond>
0.0000

> <Gold.Chemscore.DEClash>
0.0199

> <Gold.Chemscore.DEInternal>
0.4772

> <Gold.Chemscore.Rot>
1.4445

> <Gold.Chemscore.Internal.Correction>
   9.000000E+99

> <Gold.Chemscore.Hbonds>
donor molecule, donor type, donor heavy atom, donor atom, acceptor molecule, acceptor atom, score
      L1  H     3    23       P1  7948  0.02

> <Gold.Chemscore.Hbond.Weighted>
-6.6837

> <Gold.Chemscore.Metal.Weighted>
-0.0000

> <Gold.Chemscore.Lipo.Weighted>
-8.7203

> <Gold.Chemscore.Internal_Hbond.Weighted>
0.0000

> <Gold.Chemscore.DEClash.Weighted>
0.0199

> <Gold.Chemscore.DEInternal.Weighted>
0.4772

> <Gold.Chemscore.Rot.Weighted>
3.6980

> <Gold.Chemscore.Internal.Correction.Weighted>
   9.000000E+99

> <Gold.Protein.RotatedTorsions>
[ 6907 6896 6895 6894 ] final -108.30 input  -60.11 | X-H torsion
[ 7974 7965 7964 7962 ] final  111.56 input  175.53 | X-H torsion
[ 8008 7997 7996 7995 ] final   25.70 input   59.86 | X-H torsion
[ 10167 10162 10161 10158 ] final   -7.16 input  -65.29 | X-H torsion
[ 10718 10713 10712 10709 ] final  -84.32 input   66.30 | X-H torsion
[ 10763 10752 10751 10750 ] final -159.15 input  -60.55 | X-H torsion
[ 11005 11000 10999 10996 ] final -122.61 input  -57.11 | X-H torsion

> <Gold.Protein.ActiveResidues>
 VAL166  LYS551  ARG553  GLY616  TRP617  ASP618  TYR619  PRO620  LYS621  CYS622 
 ASP623  PHE694  ASN695  SER759  ASP760  ASP761  ALA762  ILE779  LEU786  VAL792 
 PHE793  MET794  SER795  GLU796  ALA797  LYS798  CYS799  TRP800  GLU811  SER814 

> <Gold.Protein.RotatedAtoms>
  150.7493  133.9698  159.3541 H   0  0  0  0  0  0  0  0  0  0  0  0  # atno 6907 bound_to 6896
  151.7631  135.0803  160.0358 H   0  0  0  0  0  0  0  0  0  0  0  0  # atno 6908 bound_to 6896
  152.3390  133.6007  159.5899 H   0  0  0  0  0  0  0  0  0  0  0  0  # atno 6909 bound_to 6896
  145.2406  139.2780  143.4119 H   0  0  0  0  0  0  0  0  0  0  0  0  # atno 7974 bound_to 7965
  155.0158  140.3142  155.4812 H   0  0  0  0  0  0  0  0  0  0  0  0  # atno 8008 bound_to 7997
  156.2901  140.2206  156.5216 H   0  0  0  0  0  0  0  0  0  0  0  0  # atno 8009 bound_to 7997
  154.7494  140.0467  157.0868 H   0  0  0  0  0  0  0  0  0  0  0  0  # atno 8010 bound_to 7997
  140.7020  143.6112  150.8702 H   0  0  0  0  0  0  0  0  0  0  0  0  # atno 10167 bound_to 10162
  156.0007  130.4694  150.4391 H   0  0  0  0  0  0  0  0  0  0  0  0  # atno 10718 bound_to 10713
  154.7498  135.3089  154.8578 H   0  0  0  0  0  0  0  0  0  0  0  0  # atno 10763 bound_to 10752
  153.9368  135.6779  153.4749 H   0  0  0  0  0  0  0  0  0  0  0  0  # atno 10764 bound_to 10752
  153.1094  135.4873  154.8936 H   0  0  0  0  0  0  0  0  0  0  0  0  # atno 10765 bound_to 10752
  140.9982  134.0441  157.3571 H   0  0  0  0  0  0  0  0  0  0  0  0  # atno 11005 bound_to 11000
  146.3329  140.2769  142.8608 LP  0  0  0  0  0  0  0  0  0  0  0  0  # atno 17320 bound_to 7965
  144.9592  140.8258  143.5524 LP  0  0  0  0  0  0  0  0  0  0  0  0  # atno 17321 bound_to 7965
  139.9834  143.5926  152.2935 LP  0  0  0  0  0  0  0  0  0  0  0  0  # atno 17342 bound_to 10162
  139.6555  144.7662  151.2064 LP  0  0  0  0  0  0  0  0  0  0  0  0  # atno 17343 bound_to 10162
  157.2434  131.0530  151.2423 LP  0  0  0  0  0  0  0  0  0  0  0  0  # atno 17370 bound_to 10713
  157.3598  130.7125  149.6494 LP  0  0  0  0  0  0  0  0  0  0  0  0  # atno 17371 bound_to 10713
  139.9025  135.0169  156.7336 LP  0  0  0  0  0  0  0  0  0  0  0  0  # atno 17394 bound_to 11000
  140.6931  133.9372  155.7978 LP  0  0  0  0  0  0  0  0  0  0  0  0  # atno 17395 bound_to 11000

$$$$
