AV-unprocessed.smi:2115|AV-procd|sdf|8624|dock8
  -GOLD-   2272011373D 1   1.00000     0.00000
 Structure written by MMmdl.
 37 38  0  0  0  0  0  0  0  0  1 V2000
  146.0389  137.9348  151.1371 C   0  0  0  0  0  0  0  0  0  0  0  0
  146.7829  138.9686  151.7576 O   0  0  0  0  0  0  0  0  0  0  0  0
  146.8207  138.8384  153.1691 C   0  0  0  0  0  0  0  0  0  0  0  0
  147.5608  140.0392  153.7660 C   0  0  0  0  0  0  0  0  0  0  0  0
  148.9484  139.7284  153.8523 O   0  0  0  0  0  0  0  0  0  0  0  0
  149.6814  140.2680  154.8894 C   0  0  0  0  0  0  0  0  0  0  0  0
  149.0294  141.1199  155.8026 C   0  0  0  0  0  0  0  0  0  0  0  0
  149.7706  141.6685  156.8660 C   0  0  0  0  0  0  0  0  0  0  0  0
  151.1359  141.3429  156.9930 C   0  0  0  0  0  0  0  0  0  0  0  0
  151.8642  141.9219  158.0667 N   0  0  0  0  0  0  0  0  0  0  0  0
  152.8757  141.3882  158.7760 C   0  0  0  0  0  0  0  0  0  0  0  0
  153.3382  140.2616  158.5949 O   0  0  0  0  0  0  0  0  0  0  0  0
  153.4537  142.2789  159.8820 C   0  0  1  0  0  0  0  0  0  0  0  0
  152.8114  143.6769  159.9584 C   0  0  0  0  0  0  0  0  0  0  0  0
  152.0292  143.6445  161.2569 C   0  0  0  0  0  0  0  0  0  0  0  0
  152.8376  142.6561  162.0845 C   0  0  0  0  0  0  0  0  0  0  0  0
  153.1848  141.6582  161.1378 O   0  0  0  0  0  0  0  0  0  0  0  0
  151.7037  140.4905  156.0148 C   0  0  0  0  0  0  0  0  0  0  0  0
  150.9985  139.9626  154.9916 N   0  0  0  0  0  0  0  0  0  0  0  0
  146.0396  138.0801  150.0569 H   0  0  0  0  0  0  0  0  0  0  0  0
  145.0023  137.9371  151.4765 H   0  0  0  0  0  0  0  0  0  0  0  0
  146.4737  136.9562  151.3451 H   0  0  0  0  0  0  0  0  0  0  0  0
  145.8140  138.7656  153.5839 H   0  0  0  0  0  0  0  0  0  0  0  0
  147.3499  137.9205  153.4294 H   0  0  0  0  0  0  0  0  0  0  0  0
  147.4226  140.9027  153.1132 H   0  0  0  0  0  0  0  0  0  0  0  0
  147.1476  140.2884  154.7448 H   0  0  0  0  0  0  0  0  0  0  0  0
  147.9798  141.3482  155.6891 H   0  0  0  0  0  0  0  0  0  0  0  0
  149.2919  142.3259  157.5773 H   0  0  0  0  0  0  0  0  0  0  0  0
  151.5366  142.8251  158.3772 H   0  0  0  0  0  0  0  0  0  0  0  0
  154.5341  142.3794  159.7620 H   0  0  0  0  0  0  0  0  0  0  0  0
  153.5927  144.4365  160.0124 H   0  0  0  0  0  0  0  0  0  0  0  0
  152.1770  143.9249  159.1061 H   0  0  0  0  0  0  0  0  0  0  0  0
  151.9379  144.6235  161.7280 H   0  0  0  0  0  0  0  0  0  0  0  0
  151.0269  143.2516  161.0811 H   0  0  0  0  0  0  0  0  0  0  0  0
  153.7433  143.1221  162.4754 H   0  0  0  0  0  0  0  0  0  0  0  0
  152.2725  142.2405  162.9190 H   0  0  0  0  0  0  0  0  0  0  0  0
  152.7506  140.2303  156.0222 H   0  0  0  0  0  0  0  0  0  0  0  0
  1  2  1  0  0  0  0
  1 20  1  0  0  0  0
  1 21  1  0  0  0  0
  1 22  1  0  0  0  0
  2  3  1  0  0  0  0
  3  4  1  0  0  0  0
  3 23  1  0  0  0  0
  3 24  1  0  0  0  0
  4  5  1  0  0  0  0
  4 25  1  0  0  0  0
  4 26  1  0  0  0  0
  5  6  1  0  0  0  0
  6 19  1  0  0  0  0
  6  7  2  0  0  0  0
  7  8  1  0  0  0  0
  7 27  1  0  0  0  0
  8  9  2  0  0  0  0
  8 28  1  0  0  0  0
  9 10  1  0  0  0  0
  9 18  1  0  0  0  0
 10 11  1  0  0  0  0
 10 29  1  0  0  0  0
 11 12  2  0  0  0  0
 11 13  1  0  0  0  0
 13 17  1  0  0  0  0
 13 14  1  0  0  0  0
 13 30  1  0  0  0  0
 14 15  1  0  0  0  0
 14 31  1  0  0  0  0
 14 32  1  0  0  0  0
 15 16  1  0  0  0  0
 15 33  1  0  0  0  0
 15 34  1  0  0  0  0
 16 17  1  0  0  0  0
 16 35  1  0  0  0  0
 16 36  1  0  0  0  0
 18 19  2  0  0  0  0
 18 37  1  0  0  0  0
M  END
> <s_m_source_file>
AV-unprocessed.smi

> <i_m_source_file_index>
2115

> <i_lp_mmshare_version>
43012

> <i_f3d_flags>
0

> <s_epik_input>
W0NIM11PW0NIMl1bQ0gyXU9jMVtjSF1bY0hdYyhbY0hdbjEpW05IXUMoPU8pW0NAQEhdMltDSDJdW0NIMl1bQ0gyXU8y

> <s_epik_cmdline>
J2VwaWtfcHl0aG9uJywgJy1waCcsICc3LjAnLCAnLXRuJywgJzgnLCAnLW1hJywgJzIwMCcsICctbWV0YWxfYmluZGluZycsICctaW1hZScsICc8aW5maWxlLm1hZT4nLCAnLW9tYWUnLCAnPG91dGZpbGUubWFlPic=

> <r_lp_tautomer_probability>
1

> <r_epik_Ionization_Penalty>
1.60185e-05

> <r_epik_Ionization_Penalty_Charging>
0

> <r_epik_Ionization_Penalty_Neutral>
1.60185e-05

> <r_epik_State_Penalty>
-0

> <r_epik_Charging_Adjusted_Penalty>
0

> <i_epik_Tot_Q>
0

> <i_epik_Tot_abs_Q>
0

> <r_epik_Metal_State_Penalty>
-0

> <b_epik_Metal_Only>
0

> <s_lp_Force_Field>
OPLS_2005

> <r_lp_Energy>
23.9239

> <b_lp_Chiralities_Consistent>
1

> <s_lp_Variant>
AV-unprocessed.smi:2115-2

> <Gold.Version>
5.8.1

> <Gold.Id.Protein>
6NUR|6NUR_protein|mol2

> <Gold.PLP.Fitness>
39.5109

> <Gold.PLP.PLP>
-35.7055

> <Gold.PLP.part.hbond>
-2.0000

> <Gold.PLP.part.metal>
0.0000

> <Gold.PLP.part.buried>
-3.5490

> <Gold.PLP.part.nonpolar>
-32.2368

> <Gold.PLP.part.repulsive>
3.2636

> <Gold.PLP.ligand.clash>
0.6374

> <Gold.PLP.ligand.torsion>
0.6778

> <Gold.PLP.Chemscore.Hbond>
1.8960

> <Gold.PLP.Chemscore.CHOScore>
0.0000

> <Gold.PLP.Chemscore.Metal>
0.0000

> <Gold.Chemscore.Hbonds>
donor molecule, donor type, donor heavy atom, donor atom, acceptor molecule, acceptor atom, score
      P1  H  7989  7998       L1    19  0.95
      P1  H  7997  8009       L1    12  0.90

> <Gold.PLP.Chemscore.Internal.Correction>
0.1104

> <Gold.Rescore>
     Score         DG    S(hbond)    S(metal)    S(lipo)     H(rot)  DE(clash)    DE(int)     intcor
     10.58     -13.89       0.67        0.00      93.03       1.84       1.61       1.70       ----

> <Gold.Chemscore.Fitness>
10.5763

> <Gold.Chemscore.DG>
-13.8926

> <Gold.Chemscore.ZeroCoef>
-5.4800

> <Gold.Chemscore.Hbond>
0.6701

> <Gold.Chemscore.Metal>
0.0000

> <Gold.Chemscore.Lipo>
93.0297

> <Gold.Chemscore.Internal_Hbond>
0.0000

> <Gold.Chemscore.DEClash>
1.6128

> <Gold.Chemscore.DEInternal>
1.7035

> <Gold.Chemscore.Rot>
1.8398

> <Gold.Chemscore.Internal.Correction>
   9.000000E+99

> <Gold.Chemscore.Hbonds>
donor molecule, donor type, donor heavy atom, donor atom, acceptor molecule, acceptor atom, score
      P1  H  7989  7998       L1    19  0.10
      P1  H  7997  8009       L1    12  0.80

> <Gold.Chemscore.Hbond.Weighted>
-2.2380

> <Gold.Chemscore.Metal.Weighted>
-0.0000

> <Gold.Chemscore.Lipo.Weighted>
-10.8845

> <Gold.Chemscore.Internal_Hbond.Weighted>
0.0000

> <Gold.Chemscore.DEClash.Weighted>
1.6128

> <Gold.Chemscore.DEInternal.Weighted>
1.7035

> <Gold.Chemscore.Rot.Weighted>
4.7099

> <Gold.Chemscore.Internal.Correction.Weighted>
   9.000000E+99

> <Gold.Protein.RotatedTorsions>
[ 6907 6896 6895 6894 ] final  -90.34 input  -60.11 | X-H torsion
[ 7974 7965 7964 7962 ] final   -7.45 input  175.53 | X-H torsion
[ 8008 7997 7996 7995 ] final  141.84 input   59.86 | X-H torsion
[ 10167 10162 10161 10158 ] final -164.19 input  -65.29 | X-H torsion
[ 10718 10713 10712 10709 ] final -152.46 input   66.30 | X-H torsion
[ 10763 10752 10751 10750 ] final  -45.05 input  -60.55 | X-H torsion
[ 11005 11000 10999 10996 ] final -175.04 input  -57.11 | X-H torsion

> <Gold.Protein.ActiveResidues>
 VAL166  LYS551  ARG553  GLY616  TRP617  ASP618  TYR619  PRO620  LYS621  CYS622 
 ASP623  PHE694  ASN695  SER759  ASP760  ASP761  ALA762  ILE779  LEU786  VAL792 
 PHE793  MET794  SER795  GLU796  ALA797  LYS798  CYS799  TRP800  GLU811  SER814 

> <Gold.Protein.RotatedAtoms>
  150.6881  134.2447  159.4486 H   0  0  0  0  0  0  0  0  0  0  0  0  # atno 6907 bound_to 6896
  152.0389  134.9721  160.0583 H   0  0  0  0  0  0  0  0  0  0  0  0  # atno 6908 bound_to 6896
  152.1230  133.4329  159.4721 H   0  0  0  0  0  0  0  0  0  0  0  0  # atno 6909 bound_to 6896
  146.2306  140.2321  142.8340 H   0  0  0  0  0  0  0  0  0  0  0  0  # atno 7974 bound_to 7965
  156.2959  140.2304  156.4631 H   0  0  0  0  0  0  0  0  0  0  0  0  # atno 8008 bound_to 7997
  154.8001  140.0449  157.1287 H   0  0  0  0  0  0  0  0  0  0  0  0  # atno 8009 bound_to 7997
  154.9544  140.3046  155.5063 H   0  0  0  0  0  0  0  0  0  0  0  0  # atno 8010 bound_to 7997
  139.6268  144.0518  152.1981 H   0  0  0  0  0  0  0  0  0  0  0  0  # atno 10167 bound_to 10162
  156.4728  130.8266  151.2495 H   0  0  0  0  0  0  0  0  0  0  0  0  # atno 10718 bound_to 10713
  154.0222  135.6667  153.4773 H   0  0  0  0  0  0  0  0  0  0  0  0  # atno 10763 bound_to 10752
  153.0575  135.5047  154.8012 H   0  0  0  0  0  0  0  0  0  0  0  0  # atno 10764 bound_to 10752
  154.6930  135.3065  154.9416 H   0  0  0  0  0  0  0  0  0  0  0  0  # atno 10765 bound_to 10752
  140.4678  134.6194  157.4869 H   0  0  0  0  0  0  0  0  0  0  0  0  # atno 11005 bound_to 11000
  144.9550  140.8217  143.5549 LP  0  0  0  0  0  0  0  0  0  0  0  0  # atno 17320 bound_to 7965
  145.2286  139.2125  143.5055 LP  0  0  0  0  0  0  0  0  0  0  0  0  # atno 17321 bound_to 7965
  140.0173  144.6179  150.7596 LP  0  0  0  0  0  0  0  0  0  0  0  0  # atno 17342 bound_to 10162
  140.7415  143.2819  151.3573 LP  0  0  0  0  0  0  0  0  0  0  0  0  # atno 17343 bound_to 10162
  157.7490  131.0071  150.3176 LP  0  0  0  0  0  0  0  0  0  0  0  0  # atno 17370 bound_to 10713
  156.3601  130.3845  149.7258 LP  0  0  0  0  0  0  0  0  0  0  0  0  # atno 17371 bound_to 10713
  139.9904  134.6994  155.9699 LP  0  0  0  0  0  0  0  0  0  0  0  0  # atno 17394 bound_to 11000
  141.1591  133.6540  156.4260 LP  0  0  0  0  0  0  0  0  0  0  0  0  # atno 17395 bound_to 11000

$$$$
