AV-unprocessed.smi:2212|AV-procd|sdf|8951|dock2
  -GOLD-   2272012163D 1   1.00000     0.00000
 Structure written by MMmdl.
 31 32  0  0  0  0  0  0  0  0  1 V2000
  150.0679  144.9126  160.0505 C   0  0  0  0  0  0  0  0  0  0  0  0
  150.3313  143.5292  159.8552 O   0  0  0  0  0  0  0  0  0  0  0  0
  151.6317  143.2033  159.3631 C   0  0  0  0  0  0  0  0  0  0  0  0
  151.9150  143.8691  158.0094 C   0  0  0  0  0  0  0  0  0  0  0  0
  150.9547  143.4290  157.0062 N   0  0  0  0  0  0  0  0  0  0  0  0
  150.9156  142.1954  156.4870 C   0  0  0  0  0  0  0  0  0  0  0  0
  151.7000  141.2998  156.8019 O   0  0  0  0  0  0  0  0  0  0  0  0
  149.9225  142.0698  155.5936 N   0  0  0  0  0  0  0  0  0  0  0  0
  149.5975  140.9049  154.8610 C   0  0  0  0  0  0  0  0  0  0  0  0
  150.5189  140.0552  154.4155 N   0  0  0  0  0  0  0  0  0  0  0  0
  149.7915  139.0704  153.7616 C   0  0  0  0  0  0  0  0  0  0  0  0
  148.4599  139.3872  153.8524 C   0  0  0  0  0  0  0  0  0  0  0  0
  148.3190  140.5558  154.5516 O   0  0  0  0  0  0  0  0  0  0  0  0
  152.6434  143.4359  160.5013 C   0  0  0  0  0  0  0  0  0  0  0  0
  153.2692  142.0796  160.1710 C   0  0  0  0  0  0  0  0  0  0  0  0
  151.9339  141.7003  159.5287 C   0  0  0  0  0  0  0  0  0  0  0  0
  149.0201  145.0416  160.3210 H   0  0  0  0  0  0  0  0  0  0  0  0
  150.2499  145.4946  159.1469 H   0  0  0  0  0  0  0  0  0  0  0  0
  150.6648  145.3279  160.8622 H   0  0  0  0  0  0  0  0  0  0  0  0
  151.8497  144.9543  158.1015 H   0  0  0  0  0  0  0  0  0  0  0  0
  152.9290  143.6577  157.6683 H   0  0  0  0  0  0  0  0  0  0  0  0
  150.2727  144.1069  156.6986 H   0  0  0  0  0  0  0  0  0  0  0  0
  149.3449  142.8792  155.4216 H   0  0  0  0  0  0  0  0  0  0  0  0
  150.2731  138.2283  153.2867 H   0  0  0  0  0  0  0  0  0  0  0  0
  147.5520  138.9207  153.4997 H   0  0  0  0  0  0  0  0  0  0  0  0
  153.3107  144.2864  160.3585 H   0  0  0  0  0  0  0  0  0  0  0  0
  152.1830  143.4527  161.4910 H   0  0  0  0  0  0  0  0  0  0  0  0
  154.0836  142.1518  159.4485 H   0  0  0  0  0  0  0  0  0  0  0  0
  153.5463  141.4801  161.0385 H   0  0  0  0  0  0  0  0  0  0  0  0
  151.2652  141.1983  160.2303 H   0  0  0  0  0  0  0  0  0  0  0  0
  152.0233  141.1457  158.5942 H   0  0  0  0  0  0  0  0  0  0  0  0
  1  2  1  0  0  0  0
  1 17  1  0  0  0  0
  1 18  1  0  0  0  0
  1 19  1  0  0  0  0
  2  3  1  0  0  0  0
  3 16  1  0  0  0  0
  3  4  1  0  0  0  0
  3 14  1  0  0  0  0
  4  5  1  0  0  0  0
  4 20  1  0  0  0  0
  4 21  1  0  0  0  0
  5  6  1  0  0  0  0
  5 22  1  0  0  0  0
  6  7  2  0  0  0  0
  6  8  1  0  0  0  0
  8  9  1  0  0  0  0
  8 23  1  0  0  0  0
  9 13  1  0  0  0  0
  9 10  2  0  0  0  0
 10 11  1  0  0  0  0
 11 12  2  0  0  0  0
 11 24  1  0  0  0  0
 12 13  1  0  0  0  0
 12 25  1  0  0  0  0
 14 15  1  0  0  0  0
 14 26  1  0  0  0  0
 14 27  1  0  0  0  0
 15 16  1  0  0  0  0
 15 28  1  0  0  0  0
 15 29  1  0  0  0  0
 16 30  1  0  0  0  0
 16 31  1  0  0  0  0
M  END
> <s_m_source_file>
AV-unprocessed.smi

> <i_m_source_file_index>
2212

> <i_lp_mmshare_version>
43012

> <i_f3d_flags>
0

> <s_epik_input>
W0NIMl0xW0NIMl1bQ0gyXUMxKE9bQ0gzXSlbQ0gyXVtOSF1DKD1PKVtOSF1jMm5bY0hdW2NIXW8y

> <s_epik_cmdline>
J2VwaWtfcHl0aG9uJywgJy1waCcsICc3LjAnLCAnLXRuJywgJzgnLCAnLW1hJywgJzIwMCcsICctbWV0YWxfYmluZGluZycsICctaW1hZScsICc8aW5maWxlLm1hZT4nLCAnLW9tYWUnLCAnPG91dGZpbGUubWFlPic=

> <r_lp_tautomer_probability>
0.785861

> <r_epik_Ionization_Penalty>
4.58897e-05

> <r_epik_Ionization_Penalty_Charging>
0

> <r_epik_Ionization_Penalty_Neutral>
4.58897e-05

> <r_epik_State_Penalty>
0.0380021

> <r_epik_Charging_Adjusted_Penalty>
0.0380021

> <i_epik_Tot_Q>
0

> <i_epik_Tot_abs_Q>
0

> <r_epik_Metal_State_Penalty>
0.0585611

> <b_epik_Metal_Only>
0

> <s_lp_Force_Field>
OPLS_2005

> <r_lp_Energy>
14.4029

> <b_lp_Chiralities_Consistent>
1

> <s_lp_Variant>
AV-unprocessed.smi:2212-1

> <Gold.Version>
5.8.1

> <Gold.Id.Protein>
6NUR|6NUR_protein|mol2

> <Gold.PLP.Fitness>
43.6219

> <Gold.PLP.PLP>
-32.2217

> <Gold.PLP.part.hbond>
-3.7448

> <Gold.PLP.part.metal>
0.0000

> <Gold.PLP.part.buried>
-3.3996

> <Gold.PLP.part.nonpolar>
-25.6657

> <Gold.PLP.part.repulsive>
0.4893

> <Gold.PLP.ligand.clash>
0.0000

> <Gold.PLP.ligand.torsion>
0.4366

> <Gold.PLP.Chemscore.Hbond>
3.0000

> <Gold.PLP.Chemscore.CHOScore>
0.9970

> <Gold.PLP.Chemscore.Metal>
0.0000

> <Gold.Chemscore.Hbonds>
donor molecule, donor type, donor heavy atom, donor atom, acceptor molecule, acceptor atom, score
      L1  H     5    22       P1  8028  1.00
      L1  H     8    23       P1  8028  1.00
      P1  H  7989  7998       L1    10  1.00
      L1  C    11    24       P1  7948  0.45

> <Gold.PLP.Chemscore.Internal.Correction>
0.2824

> <Gold.Rescore>
     Score         DG    S(hbond)    S(metal)    S(lipo)     H(rot)  DE(clash)    DE(int)     intcor
     17.06     -19.78       2.87        0.00      76.32       1.64       0.77       1.95       ----

> <Gold.Chemscore.Fitness>
17.0636

> <Gold.Chemscore.DG>
-19.7820

> <Gold.Chemscore.ZeroCoef>
-5.4800

> <Gold.Chemscore.Hbond>
2.8663

> <Gold.Chemscore.Metal>
0.0000

> <Gold.Chemscore.Lipo>
76.3215

> <Gold.Chemscore.Internal_Hbond>
0.0000

> <Gold.Chemscore.DEClash>
0.7657

> <Gold.Chemscore.DEInternal>
1.9527

> <Gold.Chemscore.Rot>
1.6411

> <Gold.Chemscore.Internal.Correction>
   9.000000E+99

> <Gold.Chemscore.Hbonds>
donor molecule, donor type, donor heavy atom, donor atom, acceptor molecule, acceptor atom, score
      L1  H     5    22       P1  8028  0.98
      L1  H     8    23       P1  8028  0.97
      P1  H  7989  7998       L1    10  0.69

> <Gold.Chemscore.Hbond.Weighted>
-9.5735

> <Gold.Chemscore.Metal.Weighted>
-0.0000

> <Gold.Chemscore.Lipo.Weighted>
-8.9296

> <Gold.Chemscore.Internal_Hbond.Weighted>
0.0000

> <Gold.Chemscore.DEClash.Weighted>
0.7657

> <Gold.Chemscore.DEInternal.Weighted>
1.9527

> <Gold.Chemscore.Rot.Weighted>
4.2011

> <Gold.Chemscore.Internal.Correction.Weighted>
   9.000000E+99

> <Gold.Protein.RotatedTorsions>
[ 6907 6896 6895 6894 ] final  -80.00 input  -60.11 | X-H torsion
[ 7974 7965 7964 7962 ] final   80.51 input  175.53 | X-H torsion
[ 8008 7997 7996 7995 ] final -151.59 input   59.86 | X-H torsion
[ 10167 10162 10161 10158 ] final   54.01 input  -65.29 | X-H torsion
[ 10718 10713 10712 10709 ] final -143.16 input   66.30 | X-H torsion
[ 10763 10752 10751 10750 ] final  -87.70 input  -60.55 | X-H torsion
[ 11005 11000 10999 10996 ] final   74.05 input  -57.11 | X-H torsion

> <Gold.Protein.ActiveResidues>
 VAL166  LYS551  ARG553  GLY616  TRP617  ASP618  TYR619  PRO620  LYS621  CYS622 
 ASP623  PHE694  ASN695  SER759  ASP760  ASP761  ALA762  ILE779  LEU786  VAL792 
 PHE793  MET794  SER795  GLU796  ALA797  LYS798  CYS799  TRP800  GLU811  SER814 

> <Gold.Protein.RotatedAtoms>
  150.6938  134.4035  159.5129 H   0  0  0  0  0  0  0  0  0  0  0  0  # atno 6907 bound_to 6896
  152.1805  134.8755  160.0536 H   0  0  0  0  0  0  0  0  0  0  0  0  # atno 6908 bound_to 6896
  151.9748  133.3703  159.4121 H   0  0  0  0  0  0  0  0  0  0  0  0  # atno 6909 bound_to 6896
  145.6502  139.2446  143.1981 H   0  0  0  0  0  0  0  0  0  0  0  0  # atno 7974 bound_to 7965
  155.6419  140.0702  157.2616 H   0  0  0  0  0  0  0  0  0  0  0  0  # atno 8008 bound_to 7997
  154.4182  140.1749  156.1631 H   0  0  0  0  0  0  0  0  0  0  0  0  # atno 8009 bound_to 7997
  155.9849  140.3350  155.6701 H   0  0  0  0  0  0  0  0  0  0  0  0  # atno 8010 bound_to 7997
  140.2346  144.3649  150.6402 H   0  0  0  0  0  0  0  0  0  0  0  0  # atno 10167 bound_to 10162
  156.3546  130.7706  151.1864 H   0  0  0  0  0  0  0  0  0  0  0  0  # atno 10718 bound_to 10713
  154.6365  135.5404  153.7740 H   0  0  0  0  0  0  0  0  0  0  0  0  # atno 10763 bound_to 10752
  153.0311  135.6448  154.1224 H   0  0  0  0  0  0  0  0  0  0  0  0  # atno 10764 bound_to 10752
  154.1151  135.2924  155.3201 H   0  0  0  0  0  0  0  0  0  0  0  0  # atno 10765 bound_to 10752
  139.9410  134.7400  156.1101 H   0  0  0  0  0  0  0  0  0  0  0  0  # atno 11005 bound_to 11000
  146.1210  140.7309  142.9458 LP  0  0  0  0  0  0  0  0  0  0  0  0  # atno 17320 bound_to 7965
  144.7125  140.4091  143.7069 LP  0  0  0  0  0  0  0  0  0  0  0  0  # atno 17321 bound_to 7965
  140.6159  143.2172  151.6792 LP  0  0  0  0  0  0  0  0  0  0  0  0  # atno 17342 bound_to 10162
  139.5098  144.3565  152.0603 LP  0  0  0  0  0  0  0  0  0  0  0  0  # atno 17343 bound_to 10162
  157.7466  131.0418  150.4662 LP  0  0  0  0  0  0  0  0  0  0  0  0  # atno 17370 bound_to 10713
  156.4863  130.4085  149.6432 LP  0  0  0  0  0  0  0  0  0  0  0  0  # atno 17371 bound_to 10713
  141.1044  133.6665  156.2828 LP  0  0  0  0  0  0  0  0  0  0  0  0  # atno 17394 bound_to 11000
  140.5953  134.5609  157.5507 LP  0  0  0  0  0  0  0  0  0  0  0  0  # atno 17395 bound_to 11000

$$$$
