AV-unprocessed.smi:26|AV-procd|sdf|183|dock3
  -GOLD-   2262015443D 1   1.00000     0.00000
 Structure written by MMmdl.
 58 61  0  0  0  0  0  0  0  0  1 V2000
  152.5482  140.2232  155.2495 C   0  0  0  0  0  0  0  0  0  0  0  0
  151.7478  139.1668  155.9423 C   0  0  0  0  0  0  0  0  0  0  0  0
  151.9901  137.8282  156.0163 C   0  0  0  0  0  0  0  0  0  0  0  0
  150.9611  137.2227  156.7859 C   0  0  0  0  0  0  0  0  0  0  0  0
  150.7968  135.7850  157.1246 C   0  0  0  0  0  0  0  0  0  0  0  0
  149.8334  135.3432  157.7527 O   0  0  0  0  0  0  0  0  0  0  0  0
  151.9161  134.8505  156.6281 C   0  0  0  0  0  0  0  0  0  0  0  0
  151.4167  133.6965  155.8898 N   0  0  0  0  0  0  0  0  0  0  0  0
  151.6164  132.4127  156.4562 C   0  0  0  0  0  0  0  0  0  0  0  0
  152.1867  132.2541  157.5371 O   0  0  0  0  0  0  0  0  0  0  0  0
  151.0799  131.3123  155.6642 C   0  0  0  0  0  0  0  0  0  0  0  0
  151.2047  130.0503  156.1087 F   0  0  0  0  0  0  0  0  0  0  0  0
  150.4544  131.5392  154.4893 C   0  0  0  0  0  0  0  0  0  0  0  0
  150.2822  132.8019  153.9512 N   0  0  0  0  0  0  0  0  0  0  0  0
  149.5149  132.9439  152.6544 C   0  0  2  0  0  0  0  0  0  0  0  0
  148.2131  133.7488  152.7866 C   0  0  0  0  0  0  0  0  0  0  0  0
  147.3232  133.0315  151.7946 C   0  0  0  0  0  0  0  0  0  0  0  0
  147.7882  131.5863  151.9380 C   0  0  0  0  0  0  0  0  0  0  0  0
  149.1916  131.6720  152.1712 O   0  0  0  0  0  0  0  0  0  0  0  0
  150.7404  133.9329  154.6679 C   0  0  0  0  0  0  0  0  0  0  0  0
  150.5472  135.0763  154.2515 O   0  0  0  0  0  0  0  0  0  0  0  0
  150.1024  138.2225  157.1839 C   0  0  0  0  0  0  0  0  0  0  0  0
  148.8598  138.1340  158.0275 C   0  0  0  0  0  0  0  0  0  0  0  0
  150.5714  139.4285  156.6418 N   0  0  0  0  0  0  0  0  0  0  0  0
  149.9713  140.7649  156.7785 C   0  0  2  0  0  0  0  0  0  0  0  0
  149.5889  141.3509  155.4045 C   0  0  0  0  0  0  0  0  0  0  0  0
  150.7817  141.6761  157.7055 C   0  0  0  0  0  0  0  0  0  0  0  0
  151.2809  141.1475  158.9175 C   0  0  0  0  0  0  0  0  0  0  0  0
  152.0224  141.9542  159.8018 C   0  0  0  0  0  0  0  0  0  0  0  0
  152.2678  143.3031  159.4856 C   0  0  0  0  0  0  0  0  0  0  0  0
  151.7696  143.8428  158.2851 C   0  0  0  0  0  0  0  0  0  0  0  0
  151.0278  143.0360  157.4004 C   0  0  0  0  0  0  0  0  0  0  0  0
  153.4697  139.8064  154.8425 H   0  0  0  0  0  0  0  0  0  0  0  0
  152.8234  141.0223  155.9378 H   0  0  0  0  0  0  0  0  0  0  0  0
  151.9875  140.6566  154.4212 H   0  0  0  0  0  0  0  0  0  0  0  0
  152.8318  137.3325  155.5555 H   0  0  0  0  0  0  0  0  0  0  0  0
  152.6136  135.3872  155.9832 H   0  0  0  0  0  0  0  0  0  0  0  0
  152.5183  134.4842  157.4609 H   0  0  0  0  0  0  0  0  0  0  0  0
  150.0736  130.6848  153.9489 H   0  0  0  0  0  0  0  0  0  0  0  0
  150.2033  133.4063  151.9458 H   0  0  0  0  0  0  0  0  0  0  0  0
  147.7979  133.6826  153.7912 H   0  0  0  0  0  0  0  0  0  0  0  0
  148.3768  134.7990  152.5451 H   0  0  0  0  0  0  0  0  0  0  0  0
  146.2603  133.1609  152.0000 H   0  0  0  0  0  0  0  0  0  0  0  0
  147.5237  133.3906  150.7845 H   0  0  0  0  0  0  0  0  0  0  0  0
  147.3065  131.1122  152.7934 H   0  0  0  0  0  0  0  0  0  0  0  0
  147.5687  130.9866  151.0546 H   0  0  0  0  0  0  0  0  0  0  0  0
  148.0501  137.6665  157.4673 H   0  0  0  0  0  0  0  0  0  0  0  0
  148.5039  139.0971  158.3781 H   0  0  0  0  0  0  0  0  0  0  0  0
  149.0402  137.5360  158.9204 H   0  0  0  0  0  0  0  0  0  0  0  0
  149.0290  140.6571  157.3125 H   0  0  0  0  0  0  0  0  0  0  0  0
  149.0146  142.2710  155.5161 H   0  0  0  0  0  0  0  0  0  0  0  0
  148.9644  140.6500  154.8496 H   0  0  0  0  0  0  0  0  0  0  0  0
  150.4551  141.5721  154.7827 H   0  0  0  0  0  0  0  0  0  0  0  0
  151.0963  140.1139  159.1723 H   0  0  0  0  0  0  0  0  0  0  0  0
  152.4015  141.5374  160.7233 H   0  0  0  0  0  0  0  0  0  0  0  0
  152.8361  143.9231  160.1633 H   0  0  0  0  0  0  0  0  0  0  0  0
  151.9555  144.8786  158.0421 H   0  0  0  0  0  0  0  0  0  0  0  0
  150.6596  143.4788  156.4878 H   0  0  0  0  0  0  0  0  0  0  0  0
  1  2  1  0  0  0  0
  1 33  1  0  0  0  0
  1 34  1  0  0  0  0
  1 35  1  0  0  0  0
  2 24  1  0  0  0  0
  2  3  2  0  0  0  0
  3  4  1  0  0  0  0
  3 36  1  0  0  0  0
  4  5  1  0  0  0  0
  4 22  2  0  0  0  0
  5  6  2  0  0  0  0
  5  7  1  0  0  0  0
  7  8  1  0  0  0  0
  7 37  1  0  0  0  0
  7 38  1  0  0  0  0
  8 20  1  0  0  0  0
  8  9  1  0  0  0  0
  9 10  2  0  0  0  0
  9 11  1  0  0  0  0
 11 12  1  0  0  0  0
 11 13  2  0  0  0  0
 13 14  1  0  0  0  0
 13 39  1  0  0  0  0
 14 15  1  0  0  0  0
 14 20  1  0  0  0  0
 15 19  1  0  0  0  0
 15 16  1  0  0  0  0
 15 40  1  0  0  0  0
 16 17  1  0  0  0  0
 16 41  1  0  0  0  0
 16 42  1  0  0  0  0
 17 18  1  0  0  0  0
 17 43  1  0  0  0  0
 17 44  1  0  0  0  0
 18 19  1  0  0  0  0
 18 45  1  0  0  0  0
 18 46  1  0  0  0  0
 20 21  2  0  0  0  0
 22 23  1  0  0  0  0
 22 24  1  0  0  0  0
 23 47  1  0  0  0  0
 23 48  1  0  0  0  0
 23 49  1  0  0  0  0
 24 25  1  0  0  0  0
 25 26  1  0  0  0  0
 25 27  1  0  0  0  0
 25 50  1  0  0  0  0
 26 51  1  0  0  0  0
 26 52  1  0  0  0  0
 26 53  1  0  0  0  0
 27 32  1  0  0  0  0
 27 28  2  0  0  0  0
 28 29  1  0  0  0  0
 28 54  1  0  0  0  0
 29 30  2  0  0  0  0
 29 55  1  0  0  0  0
 30 31  1  0  0  0  0
 30 56  1  0  0  0  0
 31 32  2  0  0  0  0
 31 57  1  0  0  0  0
 32 58  1  0  0  0  0
M  END
> <s_m_source_file>
AV-unprocessed.smi

> <i_m_source_file_index>
26

> <i_lp_mmshare_version>
43012

> <i_f3d_flags>
0

> <s_epik_input>
W2NIXTFbY0hdW2NIXVtjSF1bY0hdYzFbQ0BASF0oW0NIM10pbjJjKFtDSDNdKWMoW2NIXWMyW0NIM10pQyg9TylbQ0gyXW4zYyg9TyljKEYpW2NIXW4oYzM9TylbQ0BASF00W0NIMl1bQ0gyXVtDSDJdTzQ=

> <s_epik_cmdline>
J2VwaWtfcHl0aG9uJywgJy1waCcsICc3LjAnLCAnLXRuJywgJzgnLCAnLW1hJywgJzIwMCcsICctbWV0YWxfYmluZGluZycsICctaW1hZScsICc8aW5maWxlLm1hZT4nLCAnLW9tYWUnLCAnPG91dGZpbGUubWFlPic=

> <r_lp_tautomer_probability>
1

> <r_epik_Ionization_Penalty>
5.02402e-09

> <r_epik_Ionization_Penalty_Charging>
5.01743e-09

> <r_epik_Ionization_Penalty_Neutral>
6.58831e-12

> <r_epik_State_Penalty>
-0

> <r_epik_Charging_Adjusted_Penalty>
5.01743e-09

> <i_epik_Tot_Q>
0

> <i_epik_Tot_abs_Q>
0

> <r_epik_Metal_State_Penalty>
-0

> <b_epik_Metal_Only>
0

> <s_epik_Chemistry_Notes>
This compound contains an acetal/aminal-like group ( X-CH(R)-Y where X, Y are N, S, or O) that may be acid/base labile, releasing an aldehyde.

> <s_lp_Force_Field>
OPLS_2005

> <r_lp_Energy>
45.9461

> <b_lp_Chiralities_Consistent>
1

> <s_lp_Variant>
AV-unprocessed.smi:26-1

> <Gold.Version>
5.8.1

> <Gold.Id.Protein>
6NUR|6NUR_protein|mol2

> <Gold.PLP.Fitness>
51.1640

> <Gold.PLP.PLP>
-45.9112

> <Gold.PLP.part.hbond>
-2.0000

> <Gold.PLP.part.metal>
0.0000

> <Gold.PLP.part.buried>
-2.2521

> <Gold.PLP.part.nonpolar>
-44.4265

> <Gold.PLP.part.repulsive>
2.0021

> <Gold.PLP.ligand.clash>
0.0000

> <Gold.PLP.ligand.torsion>
0.5280

> <Gold.PLP.Chemscore.Hbond>
1.9920

> <Gold.PLP.Chemscore.CHOScore>
0.0000

> <Gold.PLP.Chemscore.Metal>
0.0000

> <Gold.Chemscore.Hbonds>
donor molecule, donor type, donor heavy atom, donor atom, acceptor molecule, acceptor atom, score
      P1  H  6896  6908       L1    10  0.89
      P1  H  6896  6909       L1     6  0.62

> <Gold.PLP.Chemscore.Internal.Correction>
0.3328

> <Gold.Rescore>
     Score         DG    S(hbond)    S(metal)    S(lipo)     H(rot)  DE(clash)    DE(int)     intcor
     15.91     -20.17       1.67        0.00     118.17       1.84       1.69       2.57       ----

> <Gold.Chemscore.Fitness>
15.9129

> <Gold.Chemscore.DG>
-20.1688

> <Gold.Chemscore.ZeroCoef>
-5.4800

> <Gold.Chemscore.Hbond>
1.6654

> <Gold.Chemscore.Metal>
0.0000

> <Gold.Chemscore.Lipo>
118.1729

> <Gold.Chemscore.Internal_Hbond>
0.0000

> <Gold.Chemscore.DEClash>
1.6889

> <Gold.Chemscore.DEInternal>
2.5670

> <Gold.Chemscore.Rot>
1.8359

> <Gold.Chemscore.Internal.Correction>
   9.000000E+99

> <Gold.Chemscore.Hbonds>
donor molecule, donor type, donor heavy atom, donor atom, acceptor molecule, acceptor atom, score
      P1  H  6896  6908       L1    10  0.85
      P1  H  6896  6909       L1     6  0.25

> <Gold.Chemscore.Hbond.Weighted>
-5.5626

> <Gold.Chemscore.Metal.Weighted>
-0.0000

> <Gold.Chemscore.Lipo.Weighted>
-13.8262

> <Gold.Chemscore.Internal_Hbond.Weighted>
0.0000

> <Gold.Chemscore.DEClash.Weighted>
1.6889

> <Gold.Chemscore.DEInternal.Weighted>
2.5670

> <Gold.Chemscore.Rot.Weighted>
4.7000

> <Gold.Chemscore.Internal.Correction.Weighted>
   9.000000E+99

> <Gold.Protein.RotatedTorsions>
[ 6907 6896 6895 6894 ] final   55.21 input  -60.11 | X-H torsion
[ 7974 7965 7964 7962 ] final  102.17 input  175.53 | X-H torsion
[ 8008 7997 7996 7995 ] final   62.63 input   59.86 | X-H torsion
[ 10167 10162 10161 10158 ] final   27.36 input  -65.29 | X-H torsion
[ 10718 10713 10712 10709 ] final  149.68 input   66.30 | X-H torsion
[ 10763 10752 10751 10750 ] final  -93.71 input  -60.55 | X-H torsion
[ 11005 11000 10999 10996 ] final   70.12 input  -57.11 | X-H torsion

> <Gold.Protein.ActiveResidues>
 VAL166  LYS551  ARG553  GLY616  TRP617  ASP618  TYR619  PRO620  LYS621  CYS622 
 ASP623  PHE694  ASN695  SER759  ASP760  ASP761  ALA762  ILE779  LEU786  VAL792 
 PHE793  MET794  SER795  GLU796  ALA797  LYS798  CYS799  TRP800  GLU811  SER814 

> <Gold.Protein.RotatedAtoms>
  152.3516  134.6997  160.0234 H   0  0  0  0  0  0  0  0  0  0  0  0  # atno 6907 bound_to 6896
  151.7350  133.3314  159.3358 H   0  0  0  0  0  0  0  0  0  0  0  0  # atno 6908 bound_to 6896
  150.7544  134.6263  159.6207 H   0  0  0  0  0  0  0  0  0  0  0  0  # atno 6909 bound_to 6896
  145.3627  139.2414  143.3498 H   0  0  0  0  0  0  0  0  0  0  0  0  # atno 7974 bound_to 7965
  155.6173  140.3495  155.4641 H   0  0  0  0  0  0  0  0  0  0  0  0  # atno 8008 bound_to 7997
  156.0107  140.1232  157.0481 H   0  0  0  0  0  0  0  0  0  0  0  0  # atno 8009 bound_to 7997
  154.4280  140.1082  156.5811 H   0  0  0  0  0  0  0  0  0  0  0  0  # atno 8010 bound_to 7997
  140.4945  144.0414  150.6309 H   0  0  0  0  0  0  0  0  0  0  0  0  # atno 10167 bound_to 10162
  157.2930  131.0857  151.1447 H   0  0  0  0  0  0  0  0  0  0  0  0  # atno 10718 bound_to 10713
  154.6985  135.5184  153.8493 H   0  0  0  0  0  0  0  0  0  0  0  0  # atno 10763 bound_to 10752
  153.0686  135.6593  154.0308 H   0  0  0  0  0  0  0  0  0  0  0  0  # atno 10764 bound_to 10752
  154.0170  135.2997  155.3365 H   0  0  0  0  0  0  0  0  0  0  0  0  # atno 10765 bound_to 10752
  139.9615  134.7053  156.0636 H   0  0  0  0  0  0  0  0  0  0  0  0  # atno 11005 bound_to 11000
  146.2920  140.4263  142.8736 LP  0  0  0  0  0  0  0  0  0  0  0  0  # atno 17320 bound_to 7965
  144.8635  140.7172  143.6092 LP  0  0  0  0  0  0  0  0  0  0  0  0  # atno 17321 bound_to 7965
  140.3692  143.2864  152.0297 LP  0  0  0  0  0  0  0  0  0  0  0  0  # atno 17342 bound_to 10162
  139.4858  144.6243  151.7195 LP  0  0  0  0  0  0  0  0  0  0  0  0  # atno 17343 bound_to 10162
  157.2836  130.6762  149.6078 LP  0  0  0  0  0  0  0  0  0  0  0  0  # atno 17370 bound_to 10713
  155.9668  130.4442  150.5452 LP  0  0  0  0  0  0  0  0  0  0  0  0  # atno 17371 bound_to 10713
  141.1292  133.6591  156.3419 LP  0  0  0  0  0  0  0  0  0  0  0  0  # atno 17394 bound_to 11000
  140.5490  134.6046  157.5402 LP  0  0  0  0  0  0  0  0  0  0  0  0  # atno 17395 bound_to 11000

$$$$
