AV-unprocessed.smi:59|AV-procd|sdf|585|dock3
  -GOLD-   2262016483D 1   1.00000     0.00000
 Structure written by MMmdl.
 29 30  0  0  0  0  0  0  0  0  2 V2000
  153.3719  137.5641  159.8776 C   0  0  0  0  0  0  0  0  0  0  0  0
  152.3853  138.3532  159.1499 N   0  0  0  0  0  0  0  0  0  0  0  0
  151.1183  137.9897  158.9240 C   0  0  0  0  0  0  0  0  0  0  0  0
  150.5800  136.9563  159.3220 O   0  0  0  0  0  0  0  0  0  0  0  0
  150.3987  139.0378  158.0866 C   0  0  2  0  0  0  0  0  0  0  0  0
  149.6148  138.4232  157.0769 O   0  0  0  0  0  0  0  0  0  0  0  0
  151.5480  139.9693  157.6139 C   0  0  2  0  0  0  0  0  0  0  0  0
  151.9512  139.7532  156.1391 C   0  0  0  0  0  0  0  0  0  0  0  0
  153.0745  139.2533  155.9039 O   0  0  0  0  0  0  0  0  0  0  0  0
  151.1234  140.1051  155.2702 O   0  5  0  0  0  0  0  0  0  0  0  0
  152.7258  139.6504  158.5745 C   0  0  1  0  0  0  0  0  0  0  0  0
  152.9107  140.7392  159.6082 C   0  0  0  0  0  0  0  0  0  0  0  0
  153.8542  140.8145  160.6750 C   0  0  0  0  0  0  0  0  0  0  0  0
  153.7303  141.9148  161.3989 N   0  0  0  0  0  0  0  0  0  0  0  0
  152.7060  142.5782  160.8257 N   0  0  0  0  0  0  0  0  0  0  0  0
  152.2849  143.8502  161.3725 C   0  0  0  0  0  0  0  0  0  0  0  0
  152.1929  141.8941  159.7454 C   0  0  0  0  0  0  0  0  0  0  0  0
  149.7287  139.5912  158.7452 H   0  0  0  0  0  0  0  0  0  0  0  0
  151.2382  141.0113  157.7149 H   0  0  0  0  0  0  0  0  0  0  0  0
  153.6593  139.5276  158.0217 H   0  0  0  0  0  0  0  0  0  0  0  0
  153.0278  137.3629  160.8926 H   0  0  0  0  0  0  0  0  0  0  0  0
  154.3261  138.0877  159.9422 H   0  0  0  0  0  0  0  0  0  0  0  0
  153.5420  136.6111  159.3758 H   0  0  0  0  0  0  0  0  0  0  0  0
  148.7366  138.3133  157.4075 H   0  0  0  0  0  0  0  0  0  0  0  0
  154.6215  140.1035  160.9438 H   0  0  0  0  0  0  0  0  0  0  0  0
  151.4496  144.2472  160.7950 H   0  0  0  0  0  0  0  0  0  0  0  0
  153.1117  144.5601  161.3343 H   0  0  0  0  0  0  0  0  0  0  0  0
  151.9701  143.7203  162.4084 H   0  0  0  0  0  0  0  0  0  0  0  0
  151.3651  142.2781  159.1674 H   0  0  0  0  0  0  0  0  0  0  0  0
  1  2  1  0  0  0  0
  1 21  1  0  0  0  0
  1 22  1  0  0  0  0
  1 23  1  0  0  0  0
  2 11  1  0  0  0  0
  2  3  1  0  0  0  0
  3  4  2  0  0  0  0
  3  5  1  0  0  0  0
  5 18  1  0  0  0  0
  5  6  1  0  0  0  0
  5  7  1  0  0  0  0
  6 24  1  0  0  0  0
  7 19  1  0  0  0  0
  7  8  1  0  0  0  0
  7 11  1  0  0  0  0
  8  9  2  0  0  0  0
  8 10  1  0  0  0  0
 11 20  1  0  0  0  0
 11 12  1  0  0  0  0
 12 17  2  0  0  0  0
 12 13  1  0  0  0  0
 13 14  2  0  0  0  0
 13 25  1  0  0  0  0
 14 15  1  0  0  0  0
 15 16  1  0  0  0  0
 15 17  1  0  0  0  0
 16 26  1  0  0  0  0
 16 27  1  0  0  0  0
 16 28  1  0  0  0  0
 17 29  1  0  0  0  0
M  CHG  1  10  -1
M  END
> <s_m_source_file>
AV-unprocessed.smi

> <i_m_source_file_index>
59

> <i_lp_mmshare_version>
43012

> <i_f3d_flags>
0

> <s_epik_input>
W0NIM11OMUMoPU8pW0NASF0oW09IXSlbQ0BIXShDKD1PKVtPSF0pW0NASF0xYzJbY0hdbm4oW0NIM10pW2NIXTI=

> <s_epik_cmdline>
J2VwaWtfcHl0aG9uJywgJy1waCcsICc3LjAnLCAnLXRuJywgJzgnLCAnLW1hJywgJzIwMCcsICctbWV0YWxfYmluZGluZycsICctaW1hZScsICc8aW5maWxlLm1hZT4nLCAnLW9tYWUnLCAnPG91dGZpbGUubWFlPic=

> <r_lp_tautomer_probability>
1

> <r_epik_Ionization_Penalty>
0.00173515

> <r_epik_Ionization_Penalty_Charging>
0.00120567

> <r_epik_Ionization_Penalty_Neutral>
0.000529476

> <r_epik_State_Penalty>
-0

> <r_epik_Charging_Adjusted_Penalty>
0.00120567

> <i_epik_Tot_Q>
-1

> <i_epik_Tot_abs_Q>
1

> <r_epik_Metal_State_Penalty>
-0

> <b_epik_Metal_Only>
0

> <s_lp_Force_Field>
OPLS_2005

> <r_lp_Energy>
7.95478

> <b_lp_Chiralities_Consistent>
1

> <s_lp_Variant>
AV-unprocessed.smi:59-1

> <Gold.Version>
5.8.1

> <Gold.Id.Protein>
6NUR|6NUR_protein|mol2

> <Gold.PLP.Fitness>
44.7993

> <Gold.PLP.PLP>
-33.0259

> <Gold.PLP.part.hbond>
-2.9945

> <Gold.PLP.part.metal>
0.0000

> <Gold.PLP.part.buried>
-6.2664

> <Gold.PLP.part.nonpolar>
-24.2595

> <Gold.PLP.part.repulsive>
0.0319

> <Gold.PLP.ligand.clash>
0.0000

> <Gold.PLP.ligand.torsion>
0.1196

> <Gold.PLP.Chemscore.Hbond>
4.0000

> <Gold.PLP.Chemscore.CHOScore>
0.0000

> <Gold.PLP.Chemscore.Metal>
0.0000

> <Gold.Chemscore.Hbonds>
donor molecule, donor type, donor heavy atom, donor atom, acceptor molecule, acceptor atom, score
      P1  H  6896  6907       L1     4  1.00
      P1  H  7989  7998       L1    10  1.00
      P1  H  7997  8010       L1     9  2.00

> <Gold.PLP.Chemscore.Internal.Correction>
0.0126

> <Gold.Rescore>
     Score         DG    S(hbond)    S(metal)    S(lipo)     H(rot)  DE(clash)    DE(int)     intcor
     15.31     -16.70       2.94        0.00      57.15       2.06       0.00       1.39       ----

> <Gold.Chemscore.Fitness>
15.3141

> <Gold.Chemscore.DG>
-16.7028

> <Gold.Chemscore.ZeroCoef>
-5.4800

> <Gold.Chemscore.Hbond>
2.9401

> <Gold.Chemscore.Metal>
0.0000

> <Gold.Chemscore.Lipo>
57.1511

> <Gold.Chemscore.Internal_Hbond>
0.0000

> <Gold.Chemscore.DEClash>
0.0000

> <Gold.Chemscore.DEInternal>
1.3887

> <Gold.Chemscore.Rot>
2.0639

> <Gold.Chemscore.Internal.Correction>
   9.000000E+99

> <Gold.Chemscore.Hbonds>
donor molecule, donor type, donor heavy atom, donor atom, acceptor molecule, acceptor atom, score
      P1  H  6896  6907       L1     4  0.94
      P1  H  7989  7998       L1    10  0.95
      P1  H  7997  8010       L1     9  0.93

> <Gold.Chemscore.Hbond.Weighted>
-9.8198

> <Gold.Chemscore.Metal.Weighted>
-0.0000

> <Gold.Chemscore.Lipo.Weighted>
-6.6867

> <Gold.Chemscore.Internal_Hbond.Weighted>
0.0000

> <Gold.Chemscore.DEClash.Weighted>
0.0000

> <Gold.Chemscore.DEInternal.Weighted>
1.3887

> <Gold.Chemscore.Rot.Weighted>
5.2837

> <Gold.Chemscore.Internal.Correction.Weighted>
   9.000000E+99

> <Gold.Protein.RotatedTorsions>
[ 6907 6896 6895 6894 ] final  -27.18 input  -60.11 | X-H torsion
[ 7974 7965 7964 7962 ] final  -57.08 input  175.53 | X-H torsion
[ 8008 7997 7996 7995 ] final  102.63 input   59.86 | X-H torsion
[ 10167 10162 10161 10158 ] final -172.55 input  -65.29 | X-H torsion
[ 10718 10713 10712 10709 ] final  -30.79 input   66.30 | X-H torsion
[ 10763 10752 10751 10750 ] final -162.85 input  -60.55 | X-H torsion
[ 11005 11000 10999 10996 ] final  166.21 input  -57.11 | X-H torsion

> <Gold.Protein.ActiveResidues>
 VAL166  LYS551  ARG553  GLY616  TRP617  ASP618  TYR619  PRO620  LYS621  CYS622 
 ASP623  PHE694  ASN695  SER759  ASP760  ASP761  ALA762  ILE779  LEU786  VAL792 
 PHE793  MET794  SER795  GLU796  ALA797  LYS798  CYS799  TRP800  GLU811  SER814 

> <Gold.Protein.RotatedAtoms>
  151.1504  135.0224  159.8665 H   0  0  0  0  0  0  0  0  0  0  0  0  # atno 6907 bound_to 6896
  152.5453  134.1395  159.8483 H   0  0  0  0  0  0  0  0  0  0  0  0  # atno 6908 bound_to 6896
  151.1479  133.4881  159.2628 H   0  0  0  0  0  0  0  0  0  0  0  0  # atno 6909 bound_to 6896
  145.8552  140.8324  142.9965 H   0  0  0  0  0  0  0  0  0  0  0  0  # atno 7974 bound_to 7965
  156.1410  140.3178  155.8496 H   0  0  0  0  0  0  0  0  0  0  0  0  # atno 8008 bound_to 7997
  155.4153  140.0508  157.3046 H   0  0  0  0  0  0  0  0  0  0  0  0  # atno 8009 bound_to 7997
  154.4977  140.2117  155.9425 H   0  0  0  0  0  0  0  0  0  0  0  0  # atno 8010 bound_to 7997
  139.5738  144.1580  152.1422 H   0  0  0  0  0  0  0  0  0  0  0  0  # atno 10167 bound_to 10162
  156.3954  130.4380  149.7362 H   0  0  0  0  0  0  0  0  0  0  0  0  # atno 10718 bound_to 10713
  154.7176  135.3019  154.9098 H   0  0  0  0  0  0  0  0  0  0  0  0  # atno 10763 bound_to 10752
  153.9980  135.6710  153.4761 H   0  0  0  0  0  0  0  0  0  0  0  0  # atno 10764 bound_to 10752
  153.0807  135.5011  154.8412 H   0  0  0  0  0  0  0  0  0  0  0  0  # atno 10765 bound_to 10752
  140.2640  134.7879  157.3616 H   0  0  0  0  0  0  0  0  0  0  0  0  # atno 11005 bound_to 11000
  144.6728  140.1013  143.7460 LP  0  0  0  0  0  0  0  0  0  0  0  0  # atno 17320 bound_to 7965
  145.9311  139.2607  143.1324 LP  0  0  0  0  0  0  0  0  0  0  0  0  # atno 17321 bound_to 7965
  140.1118  144.5450  150.6920 LP  0  0  0  0  0  0  0  0  0  0  0  0  # atno 17342 bound_to 10162
  140.7021  143.2442  151.4832 LP  0  0  0  0  0  0  0  0  0  0  0  0  # atno 17343 bound_to 10162
  156.4399  130.7856  151.2877 LP  0  0  0  0  0  0  0  0  0  0  0  0  # atno 17370 bound_to 10713
  157.7501  131.0128  150.3398 LP  0  0  0  0  0  0  0  0  0  0  0  0  # atno 17371 bound_to 10713
  140.1437  134.4939  155.8012 LP  0  0  0  0  0  0  0  0  0  0  0  0  # atno 17394 bound_to 11000
  141.2186  133.6835  156.7255 LP  0  0  0  0  0  0  0  0  0  0  0  0  # atno 17395 bound_to 11000

$$$$
