AV-unprocessed.smi:370|AV-procd|sdf|2439|dock1
  -GOLD-   2262022383D 1   1.00000     0.00000
 Structure written by MMmdl.
 42 43  0  0  0  0  0  0  0  0  3 V2000
  150.8411  140.8018  157.1886 C   0  0  0  0  0  0  0  0  0  0  0  0
  151.2979  139.6558  156.3521 C   0  0  0  0  0  0  0  0  0  0  0  0
  150.7116  138.4730  156.0014 C   0  0  0  0  0  0  0  0  0  0  0  0
  151.6959  137.8521  155.1849 C   0  0  0  0  0  0  0  0  0  0  0  0
  151.5908  136.6477  154.6029 N   0  5  0  0  0  0  0  0  0  0  0  0
  150.8932  135.6589  155.2061 C   0  0  0  0  0  0  0  0  0  0  0  0
  151.2639  134.9843  156.1695 O   0  0  0  0  0  0  0  0  0  0  0  0
  149.6950  135.4318  154.6488 N   0  0  0  0  0  0  0  0  0  0  0  0
  148.7198  134.4224  155.0608 C   0  0  0  0  0  0  0  0  0  0  0  0
  148.4672  133.3087  153.9979 C   0  0  0  0  0  0  0  0  0  0  0  0
  149.8430  132.9053  153.4038 C   0  0  0  0  0  0  0  0  0  0  0  0
  147.8483  132.0480  154.6505 C   0  0  0  0  0  0  0  0  0  0  0  0
  147.5569  133.8692  152.9319 N   0  3  0  0  0  0  0  0  0  0  0  0
  147.2092  132.9532  151.8074 C   0  0  0  0  0  0  0  0  0  0  0  0
  146.4099  133.6966  150.7222 C   0  0  0  0  0  0  0  0  0  0  0  0
  145.2460  134.2841  151.2849 O   0  0  0  0  0  0  0  0  0  0  0  0
  145.5737  135.2331  152.2890 C   0  0  0  0  0  0  0  0  0  0  0  0
  146.3141  134.5246  153.4334 C   0  0  0  0  0  0  0  0  0  0  0  0
  152.7894  138.5859  155.0642 N   0  0  0  0  0  0  0  0  0  0  0  0
  152.5396  139.7477  155.8045 O   0  0  0  0  0  0  0  0  0  0  0  0
  150.6351  140.4759  158.2081 H   0  0  0  0  0  0  0  0  0  0  0  0
  149.9284  141.2362  156.7808 H   0  0  0  0  0  0  0  0  0  0  0  0
  151.5983  141.5850  157.2311 H   0  0  0  0  0  0  0  0  0  0  0  0
  149.7337  138.1105  156.2809 H   0  0  0  0  0  0  0  0  0  0  0  0
  149.4401  136.0135  153.8640 H   0  0  0  0  0  0  0  0  0  0  0  0
  149.0316  134.0100  156.0188 H   0  0  0  0  0  0  0  0  0  0  0  0
  147.7856  134.9471  155.2631 H   0  0  0  0  0  0  0  0  0  0  0  0
  150.5469  132.5933  154.1757 H   0  0  0  0  0  0  0  0  0  0  0  0
  150.3040  133.7328  152.8632 H   0  0  0  0  0  0  0  0  0  0  0  0
  149.7666  132.0555  152.7252 H   0  0  0  0  0  0  0  0  0  0  0  0
  148.5533  131.5619  155.3254 H   0  0  0  0  0  0  0  0  0  0  0  0
  147.5646  131.3046  153.9057 H   0  0  0  0  0  0  0  0  0  0  0  0
  146.9632  132.2850  155.2410 H   0  0  0  0  0  0  0  0  0  0  0  0
  148.0986  132.5551  151.3224 H   0  0  0  0  0  0  0  0  0  0  0  0
  146.6338  132.1053  152.1808 H   0  0  0  0  0  0  0  0  0  0  0  0
  147.0234  134.4638  150.2469 H   0  0  0  0  0  0  0  0  0  0  0  0
  146.1087  133.0025  149.9375 H   0  0  0  0  0  0  0  0  0  0  0  0
  146.1778  136.0398  151.8705 H   0  0  0  0  0  0  0  0  0  0  0  0
  144.6529  135.6835  152.6599 H   0  0  0  0  0  0  0  0  0  0  0  0
  145.6488  133.7819  153.8752 H   0  0  0  0  0  0  0  0  0  0  0  0
  146.5268  135.2584  154.2074 H   0  0  0  0  0  0  0  0  0  0  0  0
  148.0975  134.6068  152.5031 H   0  0  0  0  0  0  0  0  0  0  0  0
  1  2  1  0  0  0  0
  1 21  1  0  0  0  0
  1 22  1  0  0  0  0
  1 23  1  0  0  0  0
  2 20  1  0  0  0  0
  2  3  2  0  0  0  0
  3  4  1  0  0  0  0
  3 24  1  0  0  0  0
  4  5  1  0  0  0  0
  4 19  2  0  0  0  0
  5  6  1  0  0  0  0
  6  7  2  0  0  0  0
  6  8  1  0  0  0  0
  8  9  1  0  0  0  0
  8 25  1  0  0  0  0
  9 10  1  0  0  0  0
  9 26  1  0  0  0  0
  9 27  1  0  0  0  0
 10 11  1  0  0  0  0
 10 12  1  0  0  0  0
 10 13  1  0  0  0  0
 11 28  1  0  0  0  0
 11 29  1  0  0  0  0
 11 30  1  0  0  0  0
 12 31  1  0  0  0  0
 12 32  1  0  0  0  0
 12 33  1  0  0  0  0
 13 18  1  0  0  0  0
 13 14  1  0  0  0  0
 13 42  1  0  0  0  0
 14 15  1  0  0  0  0
 14 34  1  0  0  0  0
 14 35  1  0  0  0  0
 15 16  1  0  0  0  0
 15 36  1  0  0  0  0
 15 37  1  0  0  0  0
 16 17  1  0  0  0  0
 17 18  1  0  0  0  0
 17 38  1  0  0  0  0
 17 39  1  0  0  0  0
 18 40  1  0  0  0  0
 18 41  1  0  0  0  0
 19 20  1  0  0  0  0
M  CHG  1   5  -1
M  CHG  1  13   1
M  END
> <s_m_source_file>
AV-unprocessed.smi

> <i_m_source_file_index>
370

> <i_lp_mmshare_version>
43012

> <i_f3d_flags>
0

> <s_epik_input>
W0NIM11jMVtjSF1jKG5vMSlbTkhdQyg9TylbTkhdW0NIMl1DKFtDSDNdKShbQ0gzXSlOMltDSDJdW0NIMl1PW0NIMl1bQ0gyXTI=

> <s_epik_cmdline>
J2VwaWtfcHl0aG9uJywgJy1waCcsICc3LjAnLCAnLXRuJywgJzgnLCAnLW1hJywgJzIwMCcsICctbWV0YWxfYmluZGluZycsICctaW1hZScsICc8aW5maWxlLm1hZT4nLCAnLW9tYWUnLCAnPG91dGZpbGUubWFlPic=

> <r_epik_Ionization_Penalty>
6.73014

> <r_epik_Ionization_Penalty_Charging>
6.73004

> <r_epik_Ionization_Penalty_Neutral>
9.76201e-05

> <r_epik_State_Penalty>
6.93052

> <r_epik_Charging_Adjusted_Penalty>
13.6606

> <i_epik_Tot_Q>
0

> <i_epik_Tot_abs_Q>
2

> <r_epik_Metal_State_Penalty>
2.86736

> <b_epik_Metal_Only>
1

> <s_lp_Force_Field>
OPLS_2005

> <r_lp_Energy>
13.9603

> <b_lp_Chiralities_Consistent>
1

> <s_lp_Variant>
AV-unprocessed.smi:370-4

> <Gold.Version>
5.8.1

> <Gold.Id.Protein>
6NUR|6NUR_protein|mol2

> <Gold.PLP.Fitness>
47.8443

> <Gold.PLP.PLP>
-32.2240

> <Gold.PLP.part.hbond>
-5.0000

> <Gold.PLP.part.metal>
0.0000

> <Gold.PLP.part.buried>
-3.9928

> <Gold.PLP.part.nonpolar>
-22.8728

> <Gold.PLP.part.repulsive>
0.9677

> <Gold.PLP.ligand.clash>
0.0000

> <Gold.PLP.ligand.torsion>
1.2724

> <Gold.PLP.Chemscore.Hbond>
6.0000

> <Gold.PLP.Chemscore.CHOScore>
0.0000

> <Gold.PLP.Chemscore.Metal>
0.0000

> <Gold.Chemscore.Hbonds>
donor molecule, donor type, donor heavy atom, donor atom, acceptor molecule, acceptor atom, score
      L1  H     8    25       P1  7948  0.97
      L1  H    13    42       P1  7948  2.00
      P1  H  7997  8010       L1    20  0.80
      P1  H 10752 10764       L1     5  1.10

> <Gold.PLP.Chemscore.Internal.Correction>
0.1650

> <Gold.Rescore>
     Score         DG    S(hbond)    S(metal)    S(lipo)     H(rot)  DE(clash)    DE(int)     intcor
     17.59     -19.02       3.40        0.00      52.96       1.57       0.11       1.32       ----

> <Gold.Chemscore.Fitness>
17.5922

> <Gold.Chemscore.DG>
-19.0168

> <Gold.Chemscore.ZeroCoef>
-5.4800

> <Gold.Chemscore.Hbond>
3.4011

> <Gold.Chemscore.Metal>
0.0000

> <Gold.Chemscore.Lipo>
52.9625

> <Gold.Chemscore.Internal_Hbond>
0.0000

> <Gold.Chemscore.DEClash>
0.1055

> <Gold.Chemscore.DEInternal>
1.3191

> <Gold.Chemscore.Rot>
1.5701

> <Gold.Chemscore.Internal.Correction>
   9.000000E+99

> <Gold.Chemscore.Hbonds>
donor molecule, donor type, donor heavy atom, donor atom, acceptor molecule, acceptor atom, score
      L1  H     8    25       P1  7948  0.56
      L1  H    13    42       P1  7948  0.45
      P1  H  7997  8010       L1    20  0.12
      P1  H 10752 10764       L1     5  0.03

> <Gold.Chemscore.Hbond.Weighted>
-11.3596

> <Gold.Chemscore.Metal.Weighted>
-0.0000

> <Gold.Chemscore.Lipo.Weighted>
-6.1966

> <Gold.Chemscore.Internal_Hbond.Weighted>
0.0000

> <Gold.Chemscore.DEClash.Weighted>
0.1055

> <Gold.Chemscore.DEInternal.Weighted>
1.3191

> <Gold.Chemscore.Rot.Weighted>
4.0194

> <Gold.Chemscore.Internal.Correction.Weighted>
   9.000000E+99

> <Gold.Protein.RotatedTorsions>
[ 6907 6896 6895 6894 ] final -114.52 input  -60.11 | X-H torsion
[ 7974 7965 7964 7962 ] final   57.96 input  175.53 | X-H torsion
[ 8008 7997 7996 7995 ] final   89.35 input   59.86 | X-H torsion
[ 10167 10162 10161 10158 ] final   68.69 input  -65.29 | X-H torsion
[ 10718 10713 10712 10709 ] final  -10.86 input   66.30 | X-H torsion
[ 10763 10752 10751 10750 ] final  -70.30 input  -60.55 | X-H torsion
[ 11005 11000 10999 10996 ] final  -22.64 input  -57.11 | X-H torsion

> <Gold.Protein.ActiveResidues>
 VAL166  LYS551  ARG553  GLY616  TRP617  ASP618  TYR619  PRO620  LYS621  CYS622 
 ASP623  PHE694  ASN695  SER759  ASP760  ASP761  ALA762  ILE779  LEU786  VAL792 
 PHE793  MET794  SER795  GLU796  ALA797  LYS798  CYS799  TRP800  GLU811  SER814 

> <Gold.Protein.RotatedAtoms>
  150.7908  133.8789  159.3279 H   0  0  0  0  0  0  0  0  0  0  0  0  # atno 6907 bound_to 6896
  151.6628  135.0985  160.0192 H   0  0  0  0  0  0  0  0  0  0  0  0  # atno 6908 bound_to 6896
  152.3982  133.6739  159.6329 H   0  0  0  0  0  0  0  0  0  0  0  0  # atno 6909 bound_to 6896
  145.9234  139.3748  143.0464 H   0  0  0  0  0  0  0  0  0  0  0  0  # atno 7974 bound_to 7965
  155.9989  140.3361  155.6826 H   0  0  0  0  0  0  0  0  0  0  0  0  # atno 8008 bound_to 7997
  155.6318  140.0686  157.2664 H   0  0  0  0  0  0  0  0  0  0  0  0  # atno 8009 bound_to 7997
  154.4243  140.1758  156.1467 H   0  0  0  0  0  0  0  0  0  0  0  0  # atno 8010 bound_to 7997
  140.0759  144.5113  150.7195 H   0  0  0  0  0  0  0  0  0  0  0  0  # atno 10167 bound_to 10162
  156.6673  130.4999  149.6011 H   0  0  0  0  0  0  0  0  0  0  0  0  # atno 10718 bound_to 10713
  154.4157  135.5998  153.5979 H   0  0  0  0  0  0  0  0  0  0  0  0  # atno 10763 bound_to 10752
  152.9792  135.5940  154.4016 H   0  0  0  0  0  0  0  0  0  0  0  0  # atno 10764 bound_to 10752
  154.3834  135.2841  155.2176 H   0  0  0  0  0  0  0  0  0  0  0  0  # atno 10765 bound_to 10752
  140.8676  133.7743  156.0148 H   0  0  0  0  0  0  0  0  0  0  0  0  # atno 11005 bound_to 11000
  145.8520  140.9523  143.0745 LP  0  0  0  0  0  0  0  0  0  0  0  0  # atno 17320 bound_to 7965
  144.6755  140.0419  143.7480 LP  0  0  0  0  0  0  0  0  0  0  0  0  # atno 17321 bound_to 7965
  140.7102  143.2499  151.4604 LP  0  0  0  0  0  0  0  0  0  0  0  0  # atno 17342 bound_to 10162
  139.5808  144.1714  152.1965 LP  0  0  0  0  0  0  0  0  0  0  0  0  # atno 17343 bound_to 10162
  156.1965  130.6593  151.1120 LP  0  0  0  0  0  0  0  0  0  0  0  0  # atno 17370 bound_to 10713
  157.7089  131.0743  150.6570 LP  0  0  0  0  0  0  0  0  0  0  0  0  # atno 17371 bound_to 10713
  140.8610  134.2840  157.5234 LP  0  0  0  0  0  0  0  0  0  0  0  0  # atno 17394 bound_to 11000
  139.8710  134.9518  156.4096 LP  0  0  0  0  0  0  0  0  0  0  0  0  # atno 17395 bound_to 11000

$$$$
