AV-unprocessed.smi:1260|AV-procd|sdf|5294|dock8
  -GOLD-   22720 4413D 1   1.00000     0.00000
 Structure written by MMmdl.
 37 39  0  0  0  0  0  0  0  0  2 V2000
  150.3616  140.1626  154.4624 O   0  0  0  0  0  0  0  0  0  0  0  0
  150.6808  139.6453  155.5323 C   0  0  0  0  0  0  0  0  0  0  0  0
  151.2897  138.2445  155.5564 C   0  0  0  0  0  0  0  0  0  0  0  0
  152.7012  138.3086  155.2278 N   0  0  0  0  0  0  0  0  0  0  0  0
  153.3754  139.1226  154.4130 C   0  0  0  0  0  0  0  0  0  0  0  0
  154.6745  138.8663  154.4323 N   0  0  0  0  0  0  0  0  0  0  0  0
  154.7752  137.8152  155.3284 N   0  0  0  0  0  0  0  0  0  0  0  0
  153.6076  137.4798  155.8041 N   0  0  0  0  0  0  0  0  0  0  0  0
  150.5655  140.2651  156.7167 N   0  0  0  0  0  0  0  0  0  0  0  0
  150.1635  141.6575  156.8904 C   0  0  1  0  0  0  0  0  0  0  0  0
  149.0490  141.8439  157.9286 C   0  0  0  0  0  0  0  0  0  0  0  0
  149.3153  143.2226  158.5602 C   0  0  0  0  0  0  0  0  0  0  0  0
  150.5507  143.7359  157.9270 N   0  3  1  0  0  0  0  0  0  0  0  0
  151.3439  144.7113  158.7184 C   0  0  0  0  0  0  0  0  0  0  0  0
  152.2043  144.0395  159.8017 C   0  0  0  0  0  0  0  0  0  0  0  0
  153.0799  142.9396  159.1932 C   0  0  0  0  0  0  0  0  0  0  0  0
  152.1924  141.9106  158.4865 C   0  0  0  0  0  0  0  0  0  0  0  0
  151.2934  142.5669  157.4053 C   0  0  1  0  0  0  0  0  0  0  0  0
  151.1631  137.7880  156.5394 H   0  0  0  0  0  0  0  0  0  0  0  0
  150.7868  137.6029  154.8316 H   0  0  0  0  0  0  0  0  0  0  0  0
  152.9201  139.9030  153.8213 H   0  0  0  0  0  0  0  0  0  0  0  0
  150.8480  139.7614  157.5456 H   0  0  0  0  0  0  0  0  0  0  0  0
  149.8032  142.0505  155.9372 H   0  0  0  0  0  0  0  0  0  0  0  0
  148.0600  141.7837  157.4727 H   0  0  0  0  0  0  0  0  0  0  0  0
  149.1013  141.0734  158.6995 H   0  0  0  0  0  0  0  0  0  0  0  0
  148.4927  143.9165  158.3854 H   0  0  0  0  0  0  0  0  0  0  0  0
  149.4410  143.1201  159.6386 H   0  0  0  0  0  0  0  0  0  0  0  0
  151.9953  145.2491  158.0284 H   0  0  0  0  0  0  0  0  0  0  0  0
  150.6796  145.4553  159.1596 H   0  0  0  0  0  0  0  0  0  0  0  0
  152.8322  144.7854  160.2899 H   0  0  0  0  0  0  0  0  0  0  0  0
  151.5686  143.6174  160.5808 H   0  0  0  0  0  0  0  0  0  0  0  0
  153.7880  143.3716  158.4849 H   0  0  0  0  0  0  0  0  0  0  0  0
  153.6700  142.4543  159.9713 H   0  0  0  0  0  0  0  0  0  0  0  0
  152.8218  141.1412  158.0382 H   0  0  0  0  0  0  0  0  0  0  0  0
  151.5783  141.4042  159.2323 H   0  0  0  0  0  0  0  0  0  0  0  0
  151.9245  142.8937  156.5774 H   0  0  0  0  0  0  0  0  0  0  0  0
  150.2303  144.2341  157.1087 H   0  0  0  0  0  0  0  0  0  0  0  0
  1  2  2  0  0  0  0
  2  3  1  0  0  0  0
  2  9  1  0  0  0  0
  3  4  1  0  0  0  0
  3 19  1  0  0  0  0
  3 20  1  0  0  0  0
  4  8  1  0  0  0  0
  4  5  1  0  0  0  0
  5  6  2  0  0  0  0
  5 21  1  0  0  0  0
  6  7  1  0  0  0  0
  7  8  2  0  0  0  0
  9 10  1  0  0  0  0
  9 22  1  0  0  0  0
 10 18  1  0  0  0  0
 10 11  1  0  0  0  0
 10 23  1  0  0  0  0
 11 12  1  0  0  0  0
 11 24  1  0  0  0  0
 11 25  1  0  0  0  0
 12 13  1  0  0  0  0
 12 26  1  0  0  0  0
 12 27  1  0  0  0  0
 13 18  1  0  0  0  0
 13 14  1  0  0  0  0
 13 37  1  0  0  0  0
 14 15  1  0  0  0  0
 14 28  1  0  0  0  0
 14 29  1  0  0  0  0
 15 16  1  0  0  0  0
 15 30  1  0  0  0  0
 15 31  1  0  0  0  0
 16 17  1  0  0  0  0
 16 32  1  0  0  0  0
 16 33  1  0  0  0  0
 17 18  1  0  0  0  0
 17 34  1  0  0  0  0
 17 35  1  0  0  0  0
 18 36  1  0  0  0  0
M  CHG  1  13   1
M  END
> <s_m_source_file>
AV-unprocessed.smi

> <i_m_source_file_index>
1260

> <i_lp_mmshare_version>
43012

> <i_f3d_flags>
0

> <s_epik_input>
bjFubltjSF1uMVtDSDJdQyg9TylbTkhdW0NASF0oW0NIMl1bQ0gyXTIpW0NAQEhdKE4yMylbQ0gyXVtDSDJdW0NIMl1bQ0gyXTM=

> <s_epik_cmdline>
J2VwaWtfcHl0aG9uJywgJy1waCcsICc3LjAnLCAnLXRuJywgJzgnLCAnLW1hJywgJzIwMCcsICctbWV0YWxfYmluZGluZycsICctaW1hZScsICc8aW5maWxlLm1hZT4nLCAnLW9tYWUnLCAnPG91dGZpbGUubWFlPic=

> <r_lp_tautomer_probability>
1

> <r_epik_Ionization_Penalty>
0.00234324

> <r_epik_Ionization_Penalty_Charging>
0.00233897

> <r_epik_Ionization_Penalty_Neutral>
4.26861e-06

> <r_epik_State_Penalty>
0.00161477

> <r_epik_Charging_Adjusted_Penalty>
0.00395374

> <i_epik_Tot_Q>
1

> <i_epik_Tot_abs_Q>
1

> <r_epik_Metal_State_Penalty>
-0

> <b_epik_Metal_Only>
0

> <s_lp_Force_Field>
OPLS_2005

> <r_lp_Energy>
37.4375

> <b_lp_Chiralities_Consistent>
1

> <s_lp_Variant>
AV-unprocessed.smi:1260-2

> <Gold.Version>
5.8.1

> <Gold.Id.Protein>
6NUR|6NUR_protein|mol2

> <Gold.PLP.Fitness>
45.3991

> <Gold.PLP.PLP>
-35.2271

> <Gold.PLP.part.hbond>
-6.0000

> <Gold.PLP.part.metal>
0.0000

> <Gold.PLP.part.buried>
-4.4703

> <Gold.PLP.part.nonpolar>
-24.6859

> <Gold.PLP.part.repulsive>
0.1685

> <Gold.PLP.ligand.clash>
0.0000

> <Gold.PLP.ligand.torsion>
0.7456

> <Gold.PLP.Chemscore.Hbond>
3.8853

> <Gold.PLP.Chemscore.CHOScore>
0.0000

> <Gold.PLP.Chemscore.Metal>
0.0000

> <Gold.Chemscore.Hbonds>
donor molecule, donor type, donor heavy atom, donor atom, acceptor molecule, acceptor atom, score
      L1  H    13    37       P1  8028  2.00
      P1  H  7989  7998       L1     1  1.00
      P1  H  7997  8009       L1     6  0.66
      P1  H 10752 10765       L1     8  0.23

> <Gold.PLP.Chemscore.Internal.Correction>
0.0072

> <Gold.Rescore>
     Score         DG    S(hbond)    S(metal)    S(lipo)     H(rot)  DE(clash)    DE(int)     intcor
     15.01     -16.02       2.03        0.00      75.46       1.98       0.25       0.76       ----

> <Gold.Chemscore.Fitness>
15.0070

> <Gold.Chemscore.DG>
-16.0170

> <Gold.Chemscore.ZeroCoef>
-5.4800

> <Gold.Chemscore.Hbond>
2.0257

> <Gold.Chemscore.Metal>
0.0000

> <Gold.Chemscore.Lipo>
75.4622

> <Gold.Chemscore.Internal_Hbond>
0.0000

> <Gold.Chemscore.DEClash>
0.2514

> <Gold.Chemscore.DEInternal>
0.7587

> <Gold.Chemscore.Rot>
1.9757

> <Gold.Chemscore.Internal.Correction>
   9.000000E+99

> <Gold.Chemscore.Hbonds>
donor molecule, donor type, donor heavy atom, donor atom, acceptor molecule, acceptor atom, score
      L1  H    13    37       P1  8028  0.80
      P1  H  7989  7998       L1     1  0.95
      P1  H  7997  8009       L1     6  0.06
      P1  H 10752 10765       L1     8  0.08

> <Gold.Chemscore.Hbond.Weighted>
-6.7657

> <Gold.Chemscore.Metal.Weighted>
-0.0000

> <Gold.Chemscore.Lipo.Weighted>
-8.8291

> <Gold.Chemscore.Internal_Hbond.Weighted>
0.0000

> <Gold.Chemscore.DEClash.Weighted>
0.2514

> <Gold.Chemscore.DEInternal.Weighted>
0.7587

> <Gold.Chemscore.Rot.Weighted>
5.0578

> <Gold.Chemscore.Internal.Correction.Weighted>
   9.000000E+99

> <Gold.Protein.RotatedTorsions>
[ 6907 6896 6895 6894 ] final -155.92 input  -60.11 | X-H torsion
[ 7974 7965 7964 7962 ] final  126.65 input  175.53 | X-H torsion
[ 8008 7997 7996 7995 ] final  -76.75 input   59.86 | X-H torsion
[ 10167 10162 10161 10158 ] final   38.34 input  -65.29 | X-H torsion
[ 10718 10713 10712 10709 ] final  158.54 input   66.30 | X-H torsion
[ 10763 10752 10751 10750 ] final -131.56 input  -60.55 | X-H torsion
[ 11005 11000 10999 10996 ] final   87.93 input  -57.11 | X-H torsion

> <Gold.Protein.ActiveResidues>
 VAL166  LYS551  ARG553  GLY616  TRP617  ASP618  TYR619  PRO620  LYS621  CYS622 
 ASP623  PHE694  ASN695  SER759  ASP760  ASP761  ALA762  ILE779  LEU786  VAL792 
 PHE793  MET794  SER795  GLU796  ALA797  LYS798  CYS799  TRP800  GLU811  SER814 

> <Gold.Protein.RotatedAtoms>
  151.2798  133.4215  159.2625 H   0  0  0  0  0  0  0  0  0  0  0  0  # atno 6907 bound_to 6896
  151.0371  134.9581  159.8152 H   0  0  0  0  0  0  0  0  0  0  0  0  # atno 6908 bound_to 6896
  152.5357  134.2757  159.9041 H   0  0  0  0  0  0  0  0  0  0  0  0  # atno 6909 bound_to 6896
  145.0593  139.3818  143.5014 H   0  0  0  0  0  0  0  0  0  0  0  0  # atno 7974 bound_to 7965
  154.5533  140.0722  156.8703 H   0  0  0  0  0  0  0  0  0  0  0  0  # atno 8008 bound_to 7997
  155.2950  140.3380  155.4232 H   0  0  0  0  0  0  0  0  0  0  0  0  # atno 8009 bound_to 7997
  156.1980  140.1711  156.7943 H   0  0  0  0  0  0  0  0  0  0  0  0  # atno 8010 bound_to 7997
  140.3946  144.1807  150.6131 H   0  0  0  0  0  0  0  0  0  0  0  0  # atno 10167 bound_to 10162
  157.1764  131.0622  151.2155 H   0  0  0  0  0  0  0  0  0  0  0  0  # atno 10718 bound_to 10713
  154.8750  135.3826  154.4267 H   0  0  0  0  0  0  0  0  0  0  0  0  # atno 10763 bound_to 10752
  153.4965  135.7030  153.5860 H   0  0  0  0  0  0  0  0  0  0  0  0  # atno 10764 bound_to 10752
  153.4211  135.3901  155.2078 H   0  0  0  0  0  0  0  0  0  0  0  0  # atno 10765 bound_to 10752
  139.8908  134.8454  156.2929 H   0  0  0  0  0  0  0  0  0  0  0  0  # atno 11005 bound_to 11000
  146.3523  140.0283  142.8652 LP  0  0  0  0  0  0  0  0  0  0  0  0  # atno 17320 bound_to 7965
  145.1429  140.9581  143.4478 LP  0  0  0  0  0  0  0  0  0  0  0  0  # atno 17321 bound_to 7965
  140.4804  143.2381  151.8963 LP  0  0  0  0  0  0  0  0  0  0  0  0  # atno 17342 bound_to 10162
  139.4787  144.5275  151.8714 LP  0  0  0  0  0  0  0  0  0  0  0  0  # atno 17343 bound_to 10162
  157.3994  130.7325  149.6756 LP  0  0  0  0  0  0  0  0  0  0  0  0  # atno 17370 bound_to 10713
  155.9730  130.4125  150.4034 LP  0  0  0  0  0  0  0  0  0  0  0  0  # atno 17371 bound_to 10713
  140.9964  133.7177  156.0893 LP  0  0  0  0  0  0  0  0  0  0  0  0  # atno 17394 bound_to 11000
  140.7556  134.3996  157.5534 LP  0  0  0  0  0  0  0  0  0  0  0  0  # atno 17395 bound_to 11000

$$$$
