AV-unprocessed.smi:3058|AV-procd|sdf|11671|dock8
  -GOLD-   2272017 73D 1   1.00000     0.00000
 Structure written by MMmdl.
 38 40  0  0  0  0  0  0  0  0  1 V2000
  144.2016  136.2534  152.1117 O   0  0  0  0  0  0  0  0  0  0  0  0
  145.3648  136.0474  151.7625 C   0  0  0  0  0  0  0  0  0  0  0  0
  146.3967  136.7932  152.1858 N   0  0  0  0  0  0  0  0  0  0  0  0
  146.2964  137.9225  153.1022 C   0  0  0  0  0  0  0  0  0  0  0  0
  147.3943  137.8768  154.1771 C   0  0  0  0  0  0  0  0  0  0  0  0
  148.0266  139.2355  154.4056 C   0  0  0  0  0  0  0  0  0  0  0  0
  147.2291  140.3878  154.5639 C   0  0  0  0  0  0  0  0  0  0  0  0
  147.8635  141.6269  154.7771 C   0  0  0  0  0  0  0  0  0  0  0  0
  149.2717  141.6604  154.8239 C   0  0  0  0  0  0  0  0  0  0  0  0
  150.0450  140.5633  154.6747 N   0  0  0  0  0  0  0  0  0  0  0  0
  149.4290  139.3791  154.4702 C   0  0  0  0  0  0  0  0  0  0  0  0
  145.7087  134.9189  150.7740 C   0  0  2  0  0  0  0  0  0  0  0  0
  144.4959  134.0776  150.3042 C   0  0  0  0  0  0  0  0  0  0  0  0
  144.9447  132.6323  150.5926 C   0  0  2  0  0  0  0  0  0  0  0  0
  144.9125  132.3769  152.1110 C   0  0  0  0  0  0  0  0  0  0  0  0
  146.1395  133.1599  152.6125 C   0  0  0  0  0  0  0  0  0  0  0  0
  146.6668  133.8287  151.3237 C   0  0  1  0  0  0  0  0  0  0  0  0
  146.4418  132.7068  150.3140 C   0  0  0  0  0  0  0  0  0  0  0  0
  147.3190  136.5627  151.8451 H   0  0  0  0  0  0  0  0  0  0  0  0
  146.3407  138.8614  152.5472 H   0  0  0  0  0  0  0  0  0  0  0  0
  145.3138  137.8858  153.5735 H   0  0  0  0  0  0  0  0  0  0  0  0
  146.9802  137.5176  155.1199 H   0  0  0  0  0  0  0  0  0  0  0  0
  148.1734  137.1676  153.8940 H   0  0  0  0  0  0  0  0  0  0  0  0
  146.1514  140.3247  154.5244 H   0  0  0  0  0  0  0  0  0  0  0  0
  147.2851  142.5303  154.9027 H   0  0  0  0  0  0  0  0  0  0  0  0
  149.7905  142.5935  154.9862 H   0  0  0  0  0  0  0  0  0  0  0  0
  150.0747  138.5205  154.3566 H   0  0  0  0  0  0  0  0  0  0  0  0
  146.1699  135.3698  149.8929 H   0  0  0  0  0  0  0  0  0  0  0  0
  143.5581  134.3182  150.8068 H   0  0  0  0  0  0  0  0  0  0  0  0
  144.3324  134.2195  149.2351 H   0  0  0  0  0  0  0  0  0  0  0  0
  144.4039  131.8841  150.0126 H   0  0  0  0  0  0  0  0  0  0  0  0
  143.9843  132.7229  152.5668 H   0  0  0  0  0  0  0  0  0  0  0  0
  145.0190  131.3141  152.3320 H   0  0  0  0  0  0  0  0  0  0  0  0
  145.9013  133.8609  153.4113 H   0  0  0  0  0  0  0  0  0  0  0  0
  146.8857  132.4703  153.0094 H   0  0  0  0  0  0  0  0  0  0  0  0
  147.7030  134.1602  151.3977 H   0  0  0  0  0  0  0  0  0  0  0  0
  146.9744  131.7862  150.5599 H   0  0  0  0  0  0  0  0  0  0  0  0
  146.6777  132.9910  149.2869 H   0  0  0  0  0  0  0  0  0  0  0  0
  1  2  2  0  0  0  0
  2  3  1  0  0  0  0
  2 12  1  0  0  0  0
  3  4  1  0  0  0  0
  3 19  1  0  0  0  0
  4  5  1  0  0  0  0
  4 20  1  0  0  0  0
  4 21  1  0  0  0  0
  5  6  1  0  0  0  0
  5 22  1  0  0  0  0
  5 23  1  0  0  0  0
  6 11  1  0  0  0  0
  6  7  2  0  0  0  0
  7  8  1  0  0  0  0
  7 24  1  0  0  0  0
  8  9  2  0  0  0  0
  8 25  1  0  0  0  0
  9 10  1  0  0  0  0
  9 26  1  0  0  0  0
 10 11  2  0  0  0  0
 11 27  1  0  0  0  0
 12 17  1  0  0  0  0
 12 13  1  0  0  0  0
 12 28  1  0  0  0  0
 13 14  1  0  0  0  0
 13 29  1  0  0  0  0
 13 30  1  0  0  0  0
 14 18  1  0  0  0  0
 14 15  1  0  0  0  0
 14 31  1  0  0  0  0
 15 16  1  0  0  0  0
 15 32  1  0  0  0  0
 15 33  1  0  0  0  0
 16 17  1  0  0  0  0
 16 34  1  0  0  0  0
 16 35  1  0  0  0  0
 17 18  1  0  0  0  0
 17 36  1  0  0  0  0
 18 37  1  0  0  0  0
 18 38  1  0  0  0  0
M  END
> <s_m_source_file>
AV-unprocessed.smi

> <i_m_source_file_index>
3058

> <i_lp_mmshare_version>
43012

> <i_f3d_flags>
0

> <s_epik_input>
W0NIMl0xW0NIMl1bQ0BIXShbQ0gyXTIpW0NAQEhdKFtDSDJdW0NAQEhdMTIpQyg9TylbTkhdW0NIMl1bQ0gyXWMzW2NIXVtjSF1bY0hdbltjSF0z

> <s_epik_cmdline>
J2VwaWtfcHl0aG9uJywgJy1waCcsICc3LjAnLCAnLXRuJywgJzgnLCAnLW1hJywgJzIwMCcsICctbWV0YWxfYmluZGluZycsICctaW1hZScsICc8aW5maWxlLm1hZT4nLCAnLW9tYWUnLCAnPG91dGZpbGUubWFlPic=

> <r_epik_Ionization_Penalty>
0.0135821

> <r_epik_Ionization_Penalty_Charging>
0

> <r_epik_Ionization_Penalty_Neutral>
0.0135821

> <r_epik_State_Penalty>
0.0105782

> <r_epik_Charging_Adjusted_Penalty>
0.0105782

> <i_epik_Tot_Q>
0

> <i_epik_Tot_abs_Q>
0

> <r_epik_Metal_State_Penalty>
0.0103407

> <b_epik_Metal_Only>
0

> <s_lp_Force_Field>
OPLS_2005

> <r_lp_Energy>
46.6846

> <b_lp_Chiralities_Consistent>
1

> <s_lp_Variant>
AV-unprocessed.smi:3058-3

> <Gold.Version>
5.8.1

> <Gold.Id.Protein>
6NUR|6NUR_protein|mol2

> <Gold.PLP.Fitness>
39.4822

> <Gold.PLP.PLP>
-32.1660

> <Gold.PLP.part.hbond>
-2.0000

> <Gold.PLP.part.metal>
0.0000

> <Gold.PLP.part.buried>
-2.9227

> <Gold.PLP.part.nonpolar>
-27.6933

> <Gold.PLP.part.repulsive>
0.7875

> <Gold.PLP.ligand.clash>
0.0000

> <Gold.PLP.ligand.torsion>
0.5647

> <Gold.PLP.Chemscore.Hbond>
1.8800

> <Gold.PLP.Chemscore.CHOScore>
0.9272

> <Gold.PLP.Chemscore.Metal>
0.0000

> <Gold.Chemscore.Hbonds>
donor molecule, donor type, donor heavy atom, donor atom, acceptor molecule, acceptor atom, score
      L1  H     3    19       P1  7948  1.00
      P1  H  7989  7998       L1    10  0.88
      L1  C     9    26       P1  8028  0.98

> <Gold.PLP.Chemscore.Internal.Correction>
0.0241

> <Gold.Rescore>
     Score         DG    S(hbond)    S(metal)    S(lipo)     H(rot)  DE(clash)    DE(int)     intcor
     16.94     -17.56       1.72        0.00      84.11       1.37       0.16       0.46       ----

> <Gold.Chemscore.Fitness>
16.9385

> <Gold.Chemscore.DG>
-17.5613

> <Gold.Chemscore.ZeroCoef>
-5.4800

> <Gold.Chemscore.Hbond>
1.7171

> <Gold.Chemscore.Metal>
0.0000

> <Gold.Chemscore.Lipo>
84.1125

> <Gold.Chemscore.Internal_Hbond>
0.0000

> <Gold.Chemscore.DEClash>
0.1629

> <Gold.Chemscore.DEInternal>
0.4600

> <Gold.Chemscore.Rot>
1.3653

> <Gold.Chemscore.Internal.Correction>
   9.000000E+99

> <Gold.Chemscore.Hbonds>
donor molecule, donor type, donor heavy atom, donor atom, acceptor molecule, acceptor atom, score
      L1  H     3    19       P1  7948  0.99
      P1  H  7989  7998       L1    10  0.61

> <Gold.Chemscore.Hbond.Weighted>
-5.7353

> <Gold.Chemscore.Metal.Weighted>
-0.0000

> <Gold.Chemscore.Lipo.Weighted>
-9.8412

> <Gold.Chemscore.Internal_Hbond.Weighted>
0.0000

> <Gold.Chemscore.DEClash.Weighted>
0.1629

> <Gold.Chemscore.DEInternal.Weighted>
0.4600

> <Gold.Chemscore.Rot.Weighted>
3.4951

> <Gold.Chemscore.Internal.Correction.Weighted>
   9.000000E+99

> <Gold.Protein.RotatedTorsions>
[ 6907 6896 6895 6894 ] final  -40.00 input  -60.11 | X-H torsion
[ 7974 7965 7964 7962 ] final -166.30 input  175.53 | X-H torsion
[ 8008 7997 7996 7995 ] final  -74.14 input   59.86 | X-H torsion
[ 10167 10162 10161 10158 ] final   39.17 input  -65.29 | X-H torsion
[ 10718 10713 10712 10709 ] final -166.72 input   66.30 | X-H torsion
[ 10763 10752 10751 10750 ] final   87.55 input  -60.55 | X-H torsion
[ 11005 11000 10999 10996 ] final   85.14 input  -57.11 | X-H torsion

> <Gold.Protein.ActiveResidues>
 VAL166  LYS551  ARG553  GLY616  TRP617  ASP618  TYR619  PRO620  LYS621  CYS622 
 ASP623  PHE694  ASN695  SER759  ASP760  ASP761  ALA762  ILE779  LEU786  VAL792 
 PHE793  MET794  SER795  GLU796  ALA797  LYS798  CYS799  TRP800  GLU811  SER814 

> <Gold.Protein.RotatedAtoms>
  150.9836  134.9186  159.7858 H   0  0  0  0  0  0  0  0  0  0  0  0  # atno 6907 bound_to 6896
  152.5229  134.3376  159.9215 H   0  0  0  0  0  0  0  0  0  0  0  0  # atno 6908 bound_to 6896
  151.3383  133.3931  159.2703 H   0  0  0  0  0  0  0  0  0  0  0  0  # atno 6909 bound_to 6896
  144.7249  140.2687  143.6254 H   0  0  0  0  0  0  0  0  0  0  0  0  # atno 7974 bound_to 7965
  154.5306  140.0766  156.8338 H   0  0  0  0  0  0  0  0  0  0  0  0  # atno 8008 bound_to 7997
  155.3383  140.3406  155.4221 H   0  0  0  0  0  0  0  0  0  0  0  0  # atno 8009 bound_to 7997
  156.1777  140.1641  156.8319 H   0  0  0  0  0  0  0  0  0  0  0  0  # atno 8010 bound_to 7997
  140.3865  144.1910  150.6130 H   0  0  0  0  0  0  0  0  0  0  0  0  # atno 10167 bound_to 10162
  156.6719  130.9087  151.3045 H   0  0  0  0  0  0  0  0  0  0  0  0  # atno 10718 bound_to 10713
  153.1680  135.4539  154.9863 H   0  0  0  0  0  0  0  0  0  0  0  0  # atno 10763 bound_to 10752
  154.7945  135.3232  154.7701 H   0  0  0  0  0  0  0  0  0  0  0  0  # atno 10764 bound_to 10752
  153.8181  135.6949  153.4886 H   0  0  0  0  0  0  0  0  0  0  0  0  # atno 10765 bound_to 10752
  139.8980  134.8266  156.2541 H   0  0  0  0  0  0  0  0  0  0  0  0  # atno 11005 bound_to 11000
  145.8064  139.1985  143.2018 LP  0  0  0  0  0  0  0  0  0  0  0  0  # atno 17320 bound_to 7965
  146.0633  140.7947  142.9724 LP  0  0  0  0  0  0  0  0  0  0  0  0  # atno 17321 bound_to 7965
  140.4884  143.2355  151.8855 LP  0  0  0  0  0  0  0  0  0  0  0  0  # atno 17342 bound_to 10162
  139.4791  144.5193  151.8823 LP  0  0  0  0  0  0  0  0  0  0  0  0  # atno 17343 bound_to 10162
  157.7074  130.9401  150.0975 LP  0  0  0  0  0  0  0  0  0  0  0  0  # atno 17370 bound_to 10713
  156.1932  130.3656  149.8883 LP  0  0  0  0  0  0  0  0  0  0  0  0  # atno 17371 bound_to 10713
  141.0205  133.7044  156.1260 LP  0  0  0  0  0  0  0  0  0  0  0  0  # atno 17394 bound_to 11000
  140.7241  134.4327  157.5572 LP  0  0  0  0  0  0  0  0  0  0  0  0  # atno 17395 bound_to 11000

$$$$
