AV-unprocessed.smi:867|AV-procd|sdf|4001|dock3
  -GOLD-   22720 1483D 1   1.00000     0.00000
 Structure written by MMmdl.
 54 57  0  0  0  0  0  0  0  0  3 V2000
  152.4643  139.6965  156.3720 O   0  0  0  0  0  0  0  0  0  0  0  0
  151.4425  139.8204  155.6954 C   0  0  0  0  0  0  0  0  0  0  0  0
  150.6046  140.8612  155.8448 N   0  0  0  0  0  0  0  0  0  0  0  0
  150.7895  141.9878  156.7565 C   0  0  0  0  0  0  0  0  0  0  0  0
  151.3922  141.5601  158.1084 C   0  0  0  0  0  0  0  0  0  0  0  0
  151.6770  142.7223  159.0438 C   0  0  0  0  0  0  0  0  0  0  0  0
  152.1104  142.4959  160.3694 C   0  0  0  0  0  0  0  0  0  0  0  0
  152.3879  143.5986  161.2039 C   0  0  0  0  0  0  0  0  0  0  0  0
  152.2238  144.9032  160.6949 C   0  0  0  0  0  0  0  0  0  0  0  0
  151.8040  145.0808  159.4231 N   0  3  0  0  0  0  0  0  0  0  0  0
  151.5274  144.0518  158.5929 C   0  0  0  0  0  0  0  0  0  0  0  0
  151.0369  138.8945  154.7908 N   0  0  0  0  0  0  0  0  0  0  0  0
  151.5854  137.5412  154.6339 C   0  0  0  0  0  0  0  0  0  0  0  0
  150.5983  136.5293  155.2448 C   0  0  0  0  0  0  0  0  0  0  0  0
  149.2382  136.6497  154.6435 N   0  3  0  0  0  0  0  0  0  0  0  0
  148.2484  135.6995  155.2278 C   0  0  1  0  0  0  0  0  0  0  0  0
  146.9261  135.5879  154.4300 C   0  0  0  0  0  0  0  0  0  0  0  0
  146.7378  134.0666  154.2767 C   0  0  1  0  0  0  0  0  0  0  0  0
  147.7112  133.5535  153.2018 C   0  0  0  0  0  0  0  0  0  0  0  0
  149.0753  133.6714  153.9042 C   0  0  0  0  0  0  0  0  0  0  0  0
  148.7026  134.2199  155.2991 C   0  0  2  0  0  0  0  0  0  0  0  0
  147.3699  133.5231  155.5528 C   0  0  0  0  0  0  0  0  0  0  0  0
  148.7433  138.0568  154.6452 C   0  0  0  0  0  0  0  0  0  0  0  0
  149.7799  139.0279  154.0513 C   0  0  0  0  0  0  0  0  0  0  0  0
  149.7738  140.8794  155.2709 H   0  0  0  0  0  0  0  0  0  0  0  0
  151.4027  142.7630  156.2937 H   0  0  0  0  0  0  0  0  0  0  0  0
  149.8119  142.4393  156.9256 H   0  0  0  0  0  0  0  0  0  0  0  0
  150.7074  140.8756  158.6103 H   0  0  0  0  0  0  0  0  0  0  0  0
  152.3111  140.9967  157.9402 H   0  0  0  0  0  0  0  0  0  0  0  0
  152.2375  141.4900  160.7428 H   0  0  0  0  0  0  0  0  0  0  0  0
  152.7236  143.4457  162.2192 H   0  0  0  0  0  0  0  0  0  0  0  0
  152.4139  145.8028  161.2617 H   0  0  0  0  0  0  0  0  0  0  0  0
  151.2069  144.3216  157.5971 H   0  0  0  0  0  0  0  0  0  0  0  0
  151.7218  137.3326  153.5717 H   0  0  0  0  0  0  0  0  0  0  0  0
  152.5699  137.4078  155.0821 H   0  0  0  0  0  0  0  0  0  0  0  0
  150.9952  135.5262  155.0926 H   0  0  0  0  0  0  0  0  0  0  0  0
  150.5310  136.6832  156.3230 H   0  0  0  0  0  0  0  0  0  0  0  0
  148.0229  136.0347  156.2422 H   0  0  0  0  0  0  0  0  0  0  0  0
  146.1028  136.0317  154.9913 H   0  0  0  0  0  0  0  0  0  0  0  0
  146.9631  136.0753  153.4550 H   0  0  0  0  0  0  0  0  0  0  0  0
  145.7033  133.7662  154.1076 H   0  0  0  0  0  0  0  0  0  0  0  0
  147.4986  132.5139  152.9489 H   0  0  0  0  0  0  0  0  0  0  0  0
  147.6632  134.1370  152.2817 H   0  0  0  0  0  0  0  0  0  0  0  0
  149.5426  132.6896  153.9904 H   0  0  0  0  0  0  0  0  0  0  0  0
  149.7660  134.3169  153.3615 H   0  0  0  0  0  0  0  0  0  0  0  0
  149.4552  134.0251  156.0637 H   0  0  0  0  0  0  0  0  0  0  0  0
  146.8679  133.8594  156.4618 H   0  0  0  0  0  0  0  0  0  0  0  0
  147.4459  132.4343  155.5689 H   0  0  0  0  0  0  0  0  0  0  0  0
  147.8171  138.1372  154.0769 H   0  0  0  0  0  0  0  0  0  0  0  0
  148.5087  138.3545  155.6686 H   0  0  0  0  0  0  0  0  0  0  0  0
  149.3903  140.0468  154.0658 H   0  0  0  0  0  0  0  0  0  0  0  0
  149.9528  138.7950  152.9996 H   0  0  0  0  0  0  0  0  0  0  0  0
  149.3425  136.3886  153.6732 H   0  0  0  0  0  0  0  0  0  0  0  0
  151.6935  146.0329  159.0735 H   0  0  0  0  0  0  0  0  0  0  0  0
  1  2  2  0  0  0  0
  2  3  1  0  0  0  0
  2 12  1  0  0  0  0
  3  4  1  0  0  0  0
  3 25  1  0  0  0  0
  4  5  1  0  0  0  0
  4 26  1  0  0  0  0
  4 27  1  0  0  0  0
  5  6  1  0  0  0  0
  5 28  1  0  0  0  0
  5 29  1  0  0  0  0
  6 11  1  0  0  0  0
  6  7  2  0  0  0  0
  7  8  1  0  0  0  0
  7 30  1  0  0  0  0
  8  9  2  0  0  0  0
  8 31  1  0  0  0  0
  9 10  1  0  0  0  0
  9 32  1  0  0  0  0
 10 11  2  0  0  0  0
 10 54  1  0  0  0  0
 11 33  1  0  0  0  0
 12 24  1  0  0  0  0
 12 13  1  0  0  0  0
 13 14  1  0  0  0  0
 13 34  1  0  0  0  0
 13 35  1  0  0  0  0
 14 15  1  0  0  0  0
 14 36  1  0  0  0  0
 14 37  1  0  0  0  0
 15 16  1  0  0  0  0
 15 23  1  0  0  0  0
 15 53  1  0  0  0  0
 16 21  1  0  0  0  0
 16 17  1  0  0  0  0
 16 38  1  0  0  0  0
 17 18  1  0  0  0  0
 17 39  1  0  0  0  0
 17 40  1  0  0  0  0
 18 22  1  0  0  0  0
 18 19  1  0  0  0  0
 18 41  1  0  0  0  0
 19 20  1  0  0  0  0
 19 42  1  0  0  0  0
 19 43  1  0  0  0  0
 20 21  1  0  0  0  0
 20 44  1  0  0  0  0
 20 45  1  0  0  0  0
 21 22  1  0  0  0  0
 21 46  1  0  0  0  0
 22 47  1  0  0  0  0
 22 48  1  0  0  0  0
 23 24  1  0  0  0  0
 23 49  1  0  0  0  0
 23 50  1  0  0  0  0
 24 51  1  0  0  0  0
 24 52  1  0  0  0  0
M  CHG  1  10   1
M  CHG  1  15   1
M  END
> <s_m_source_file>
AV-unprocessed.smi

> <i_m_source_file_index>
867

> <i_lp_mmshare_version>
43012

> <i_f3d_flags>
0

> <s_epik_input>
W0NIMl0xW0NIMl1bQ0BASF0oW0NIMl0yKVtDQEBIXShbQ0gyXVtDQEhdMTIpTihbQ0gyXVtDSDJdMylbQ0gyXVtDSDJdTjNDKD1PKVtOSF1bQ0gyXVtDSDJdYzRbY0hdW2NIXVtjSF1uW2NIXTQ=

> <s_epik_cmdline>
J2VwaWtfcHl0aG9uJywgJy1waCcsICc3LjAnLCAnLXRuJywgJzgnLCAnLW1hJywgJzIwMCcsICctbWV0YWxfYmluZGluZycsICctaW1hZScsICc8aW5maWxlLm1hZT4nLCAnLW9tYWUnLCAnPG91dGZpbGUubWFlPic=

> <r_epik_Ionization_Penalty>
2.25108

> <r_epik_Ionization_Penalty_Charging>
2.25105

> <r_epik_Ionization_Penalty_Neutral>
2.64641e-05

> <r_epik_State_Penalty>
2.39519

> <r_epik_Charging_Adjusted_Penalty>
4.64625

> <i_epik_Tot_Q>
2

> <i_epik_Tot_abs_Q>
2

> <r_epik_Metal_State_Penalty>
2.40865

> <b_epik_Metal_Only>
0

> <s_lp_Force_Field>
OPLS_2005

> <r_lp_Energy>
106.845

> <b_lp_Chiralities_Consistent>
1

> <s_lp_Variant>
AV-unprocessed.smi:867-8

> <Gold.Version>
5.8.1

> <Gold.Id.Protein>
6NUR|6NUR_protein|mol2

> <Gold.PLP.Fitness>
53.0913

> <Gold.PLP.PLP>
-46.5983

> <Gold.PLP.part.hbond>
-2.0000

> <Gold.PLP.part.metal>
0.0000

> <Gold.PLP.part.buried>
-4.7505

> <Gold.PLP.part.nonpolar>
-39.5516

> <Gold.PLP.part.repulsive>
0.2732

> <Gold.PLP.ligand.clash>
2.0145

> <Gold.PLP.ligand.torsion>
0.3034

> <Gold.PLP.Chemscore.Hbond>
3.0000

> <Gold.PLP.Chemscore.CHOScore>
0.0000

> <Gold.PLP.Chemscore.Metal>
0.0000

> <Gold.Chemscore.Hbonds>
donor molecule, donor type, donor heavy atom, donor atom, acceptor molecule, acceptor atom, score
      L1  H    15    53       P1  7948  2.00
      P1  H  7997  8009       L1     1  1.00

> <Gold.PLP.Chemscore.Internal.Correction>
0.1144

> <Gold.Rescore>
     Score         DG    S(hbond)    S(metal)    S(lipo)     H(rot)  DE(clash)    DE(int)     intcor
     20.38     -22.07       1.91        0.00     119.05       1.46       0.11       1.57       ----

> <Gold.Chemscore.Fitness>
20.3841

> <Gold.Chemscore.DG>
-22.0697

> <Gold.Chemscore.ZeroCoef>
-5.4800

> <Gold.Chemscore.Hbond>
1.9135

> <Gold.Chemscore.Metal>
0.0000

> <Gold.Chemscore.Lipo>
119.0520

> <Gold.Chemscore.Internal_Hbond>
0.0000

> <Gold.Chemscore.DEClash>
0.1129

> <Gold.Chemscore.DEInternal>
1.5728

> <Gold.Chemscore.Rot>
1.4572

> <Gold.Chemscore.Internal.Correction>
   9.000000E+99

> <Gold.Chemscore.Hbonds>
donor molecule, donor type, donor heavy atom, donor atom, acceptor molecule, acceptor atom, score
      L1  H    15    53       P1  7948  0.88
      P1  H  7997  8009       L1     1  0.98

> <Gold.Chemscore.Hbond.Weighted>
-6.3911

> <Gold.Chemscore.Metal.Weighted>
-0.0000

> <Gold.Chemscore.Lipo.Weighted>
-13.9291

> <Gold.Chemscore.Internal_Hbond.Weighted>
0.0000

> <Gold.Chemscore.DEClash.Weighted>
0.1129

> <Gold.Chemscore.DEInternal.Weighted>
1.5728

> <Gold.Chemscore.Rot.Weighted>
3.7305

> <Gold.Chemscore.Internal.Correction.Weighted>
   9.000000E+99

> <Gold.Protein.RotatedTorsions>
[ 6907 6896 6895 6894 ] final -154.05 input  -60.11 | X-H torsion
[ 7974 7965 7964 7962 ] final -131.51 input  175.53 | X-H torsion
[ 8008 7997 7996 7995 ] final -150.15 input   59.86 | X-H torsion
[ 10167 10162 10161 10158 ] final  149.68 input  -65.29 | X-H torsion
[ 10718 10713 10712 10709 ] final  -13.03 input   66.30 | X-H torsion
[ 10763 10752 10751 10750 ] final  -73.19 input  -60.55 | X-H torsion
[ 11005 11000 10999 10996 ] final  110.66 input  -57.11 | X-H torsion

> <Gold.Protein.ActiveResidues>
 VAL166  LYS551  ARG553  GLY616  TRP617  ASP618  TYR619  PRO620  LYS621  CYS622 
 ASP623  PHE694  ASN695  SER759  ASP760  ASP761  ALA762  ILE779  LEU786  VAL792 
 PHE793  MET794  SER795  GLU796  ALA797  LYS798  CYS799  TRP800  GLU811  SER814 

> <Gold.Protein.RotatedAtoms>
  151.2517  133.4346  159.2611 H   0  0  0  0  0  0  0  0  0  0  0  0  # atno 6907 bound_to 6896
  151.0611  134.9737  159.8271 H   0  0  0  0  0  0  0  0  0  0  0  0  # atno 6908 bound_to 6896
  152.5398  134.2468  159.8936 H   0  0  0  0  0  0  0  0  0  0  0  0  # atno 6909 bound_to 6896
  144.9372  140.7197  143.4869 H   0  0  0  0  0  0  0  0  0  0  0  0  # atno 7974 bound_to 7965
  155.6190  140.0679  157.2683 H   0  0  0  0  0  0  0  0  0  0  0  0  # atno 8008 bound_to 7997
  154.4234  140.1788  156.1400 H   0  0  0  0  0  0  0  0  0  0  0  0  # atno 8009 bound_to 7997
  156.0024  140.3335  155.6862 H   0  0  0  0  0  0  0  0  0  0  0  0  # atno 8010 bound_to 7997
  139.4858  144.5582  151.7279 H   0  0  0  0  0  0  0  0  0  0  0  0  # atno 10167 bound_to 10162
  156.6361  130.4915  149.6111 H   0  0  0  0  0  0  0  0  0  0  0  0  # atno 10718 bound_to 10713
  154.4560  135.5905  153.6224 H   0  0  0  0  0  0  0  0  0  0  0  0  # atno 10763 bound_to 10752
  152.9818  135.6032  154.3545 H   0  0  0  0  0  0  0  0  0  0  0  0  # atno 10764 bound_to 10752
  154.3412  135.2841  155.2401 H   0  0  0  0  0  0  0  0  0  0  0  0  # atno 10765 bound_to 10752
  139.8886  134.9489  156.6313 H   0  0  0  0  0  0  0  0  0  0  0  0  # atno 11005 bound_to 11000
  145.3048  139.1838  143.4670 LP  0  0  0  0  0  0  0  0  0  0  0  0  # atno 17320 bound_to 7965
  146.3271  140.3044  142.8623 LP  0  0  0  0  0  0  0  0  0  0  0  0  # atno 17321 bound_to 7965
  140.5147  144.0970  150.6005 LP  0  0  0  0  0  0  0  0  0  0  0  0  # atno 17342 bound_to 10162
  140.3908  143.2753  152.0062 LP  0  0  0  0  0  0  0  0  0  0  0  0  # atno 17343 bound_to 10162
  156.2196  130.6729  151.1354 LP  0  0  0  0  0  0  0  0  0  0  0  0  # atno 17370 bound_to 10713
  157.7185  131.0696  150.6231 LP  0  0  0  0  0  0  0  0  0  0  0  0  # atno 17371 bound_to 10713
  140.7664  133.8774  155.8458 LP  0  0  0  0  0  0  0  0  0  0  0  0  # atno 17394 bound_to 11000
  140.9879  134.1318  157.4435 LP  0  0  0  0  0  0  0  0  0  0  0  0  # atno 17395 bound_to 11000

$$$$
