AV-unprocessed.smi:3118|AV-procd|sdf|11886|dock7
  -GOLD-   2272017273D 1   1.00000     0.00000
 Structure written by MMmdl.
 33 34  0  0  0  0  0  0  0  0  2 V2000
  149.3741  140.5584  157.2900 C   0  0  0  0  0  0  0  0  0  0  0  0
  150.3462  141.1469  156.2587 C   0  0  2  0  0  0  0  0  0  0  0  0
  151.5829  140.2406  156.0752 C   0  0  0  0  0  0  0  0  0  0  0  0
  151.2442  138.9090  155.5615 N   0  0  0  0  0  0  0  0  0  0  0  0
  151.5932  137.6983  156.1023 C   0  0  0  0  0  0  0  0  0  0  0  0
  151.0450  136.7364  155.2936 C   0  0  0  0  0  0  0  0  0  0  0  0
  150.3897  137.3999  154.2912 N   0  3  0  0  0  0  0  0  0  0  0  0
  150.5162  138.7210  154.4528 C   0  0  0  0  0  0  0  0  0  0  0  0
  150.7355  142.4893  156.6899 N   0  0  0  0  0  0  0  0  0  0  0  0
  151.4683  142.7842  157.7752 C   0  0  0  0  0  0  0  0  0  0  0  0
  151.9028  141.9302  158.5492 O   0  0  0  0  0  0  0  0  0  0  0  0
  151.7324  144.2746  158.0220 C   0  0  0  0  0  0  0  0  0  0  0  0
  152.6280  144.5850  159.2349 C   0  0  0  0  0  0  0  0  0  0  0  0
  151.6457  145.6939  159.6237 C   0  0  0  0  0  0  0  0  0  0  0  0
  150.5916  145.0016  158.7548 C   0  0  0  0  0  0  0  0  0  0  0  0
  149.0319  139.5686  156.9864 H   0  0  0  0  0  0  0  0  0  0  0  0
  148.4915  141.1890  157.4034 H   0  0  0  0  0  0  0  0  0  0  0  0
  149.8430  140.4615  158.2699 H   0  0  0  0  0  0  0  0  0  0  0  0
  149.8090  141.2071  155.3102 H   0  0  0  0  0  0  0  0  0  0  0  0
  152.3100  140.7018  155.4046 H   0  0  0  0  0  0  0  0  0  0  0  0
  152.0867  140.0923  157.0311 H   0  0  0  0  0  0  0  0  0  0  0  0
  152.1834  137.6135  157.0033 H   0  0  0  0  0  0  0  0  0  0  0  0
  151.0703  135.6581  155.3557 H   0  0  0  0  0  0  0  0  0  0  0  0
  150.1007  139.4843  153.8195 H   0  0  0  0  0  0  0  0  0  0  0  0
  150.4275  143.2569  156.1105 H   0  0  0  0  0  0  0  0  0  0  0  0
  152.0544  144.8145  157.1291 H   0  0  0  0  0  0  0  0  0  0  0  0
  152.6775  143.7877  159.9786 H   0  0  0  0  0  0  0  0  0  0  0  0
  153.6235  144.9471  158.9769 H   0  0  0  0  0  0  0  0  0  0  0  0
  151.4043  145.7363  160.6862 H   0  0  0  0  0  0  0  0  0  0  0  0
  151.9376  146.6706  159.2347 H   0  0  0  0  0  0  0  0  0  0  0  0
  150.0174  145.6835  158.1271 H   0  0  0  0  0  0  0  0  0  0  0  0
  149.9372  144.3437  159.3299 H   0  0  0  0  0  0  0  0  0  0  0  0
  149.8802  136.9570  153.5369 H   0  0  0  0  0  0  0  0  0  0  0  0
  1  2  1  0  0  0  0
  1 16  1  0  0  0  0
  1 17  1  0  0  0  0
  1 18  1  0  0  0  0
  2  3  1  0  0  0  0
  2  9  1  0  0  0  0
  2 19  1  0  0  0  0
  3  4  1  0  0  0  0
  3 20  1  0  0  0  0
  3 21  1  0  0  0  0
  4  8  1  0  0  0  0
  4  5  1  0  0  0  0
  5  6  2  0  0  0  0
  5 22  1  0  0  0  0
  6  7  1  0  0  0  0
  6 23  1  0  0  0  0
  7  8  2  0  0  0  0
  7 33  1  0  0  0  0
  8 24  1  0  0  0  0
  9 10  1  0  0  0  0
  9 25  1  0  0  0  0
 10 11  2  0  0  0  0
 10 12  1  0  0  0  0
 12 15  1  0  0  0  0
 12 13  1  0  0  0  0
 12 26  1  0  0  0  0
 13 14  1  0  0  0  0
 13 27  1  0  0  0  0
 13 28  1  0  0  0  0
 14 15  1  0  0  0  0
 14 29  1  0  0  0  0
 14 30  1  0  0  0  0
 15 31  1  0  0  0  0
 15 32  1  0  0  0  0
M  CHG  1   7   1
M  END
> <s_m_source_file>
AV-unprocessed.smi

> <i_m_source_file_index>
3118

> <i_lp_mmshare_version>
43012

> <i_f3d_flags>
0

> <s_epik_input>
W0NIMl0xW0NIMl1bQ0gyXVtDSF0xQyg9TylbTkhdW0NASF0oW0NIM10pW0NIMl1uMltjSF1bY0hdbltjSF0y

> <s_epik_cmdline>
J2VwaWtfcHl0aG9uJywgJy1waCcsICc3LjAnLCAnLXRuJywgJzgnLCAnLW1hJywgJzIwMCcsICctbWV0YWxfYmluZGluZycsICctaW1hZScsICc8aW5maWxlLm1hZT4nLCAnLW9tYWUnLCAnPG91dGZpbGUubWFlPic=

> <r_lp_tautomer_probability>
1

> <r_epik_Ionization_Penalty>
0.244425

> <r_epik_Ionization_Penalty_Charging>
0

> <r_epik_Ionization_Penalty_Neutral>
0.244425

> <r_epik_State_Penalty>
0.23553

> <r_epik_Charging_Adjusted_Penalty>
0.23553

> <i_epik_Tot_Q>
1

> <i_epik_Tot_abs_Q>
1

> <r_epik_Metal_State_Penalty>
0.5288

> <b_epik_Metal_Only>
0

> <s_lp_Force_Field>
OPLS_2005

> <r_lp_Energy>
13.9066

> <b_lp_Chiralities_Consistent>
1

> <s_lp_Variant>
AV-unprocessed.smi:3118-1

> <Gold.Version>
5.8.1

> <Gold.Id.Protein>
6NUR|6NUR_protein|mol2

> <Gold.PLP.Fitness>
47.8915

> <Gold.PLP.PLP>
-36.4509

> <Gold.PLP.part.hbond>
-2.9411

> <Gold.PLP.part.metal>
0.0000

> <Gold.PLP.part.buried>
-3.1250

> <Gold.PLP.part.nonpolar>
-29.6227

> <Gold.PLP.part.repulsive>
0.1288

> <Gold.PLP.ligand.clash>
0.0000

> <Gold.PLP.ligand.torsion>
0.4281

> <Gold.PLP.Chemscore.Hbond>
3.0000

> <Gold.PLP.Chemscore.CHOScore>
0.9602

> <Gold.PLP.Chemscore.Metal>
0.0000

> <Gold.Chemscore.Hbonds>
donor molecule, donor type, donor heavy atom, donor atom, acceptor molecule, acceptor atom, score
      L1  H     7    33       P1  7948  2.00
      L1  H     9    25       P1  8028  0.65
      L1  C     8    24       P1  7957  0.44

> <Gold.PLP.Chemscore.Internal.Correction>
0.4162

> <Gold.Rescore>
     Score         DG    S(hbond)    S(metal)    S(lipo)     H(rot)  DE(clash)    DE(int)     intcor
     15.05     -16.25       1.94        0.00      77.25       1.86       0.05       1.15       ----

> <Gold.Chemscore.Fitness>
15.0457

> <Gold.Chemscore.DG>
-16.2476

> <Gold.Chemscore.ZeroCoef>
-5.4800

> <Gold.Chemscore.Hbond>
1.9403

> <Gold.Chemscore.Metal>
0.0000

> <Gold.Chemscore.Lipo>
77.2530

> <Gold.Chemscore.Internal_Hbond>
0.0000

> <Gold.Chemscore.DEClash>
0.0477

> <Gold.Chemscore.DEInternal>
1.1542

> <Gold.Chemscore.Rot>
1.8561

> <Gold.Chemscore.Internal.Correction>
   9.000000E+99

> <Gold.Chemscore.Hbonds>
donor molecule, donor type, donor heavy atom, donor atom, acceptor molecule, acceptor atom, score
      L1  H     7    33       P1  7948  0.38
      L1  H     9    25       P1  8028  0.62

> <Gold.Chemscore.Hbond.Weighted>
-6.4806

> <Gold.Chemscore.Metal.Weighted>
-0.0000

> <Gold.Chemscore.Lipo.Weighted>
-9.0386

> <Gold.Chemscore.Internal_Hbond.Weighted>
0.0000

> <Gold.Chemscore.DEClash.Weighted>
0.0477

> <Gold.Chemscore.DEInternal.Weighted>
1.1542

> <Gold.Chemscore.Rot.Weighted>
4.7516

> <Gold.Chemscore.Internal.Correction.Weighted>
   9.000000E+99

> <Gold.Protein.RotatedTorsions>
[ 6907 6896 6895 6894 ] final -112.14 input  -60.11 | X-H torsion
[ 7974 7965 7964 7962 ] final -113.87 input  175.53 | X-H torsion
[ 8008 7997 7996 7995 ] final  158.72 input   59.86 | X-H torsion
[ 10167 10162 10161 10158 ] final   65.94 input  -65.29 | X-H torsion
[ 10718 10713 10712 10709 ] final  -79.93 input   66.30 | X-H torsion
[ 10763 10752 10751 10750 ] final   74.87 input  -60.55 | X-H torsion
[ 11005 11000 10999 10996 ] final  -97.11 input  -57.11 | X-H torsion

> <Gold.Protein.ActiveResidues>
 VAL166  LYS551  ARG553  GLY616  TRP617  ASP618  TYR619  PRO620  LYS621  CYS622 
 ASP623  PHE694  ASN695  SER759  ASP760  ASP761  ALA762  ILE779  LEU786  VAL792 
 PHE793  MET794  SER795  GLU796  ALA797  LYS798  CYS799  TRP800  GLU811  SER814 

> <Gold.Protein.RotatedAtoms>
  150.7738  133.9133  159.3375 H   0  0  0  0  0  0  0  0  0  0  0  0  # atno 6907 bound_to 6896
  151.7013  135.0927  160.0261 H   0  0  0  0  0  0  0  0  0  0  0  0  # atno 6908 bound_to 6896
  152.3765  133.6451  159.6163 H   0  0  0  0  0  0  0  0  0  0  0  0  # atno 6909 bound_to 6896
  145.1269  140.8702  143.3781 H   0  0  0  0  0  0  0  0  0  0  0  0  # atno 7974 bound_to 7965
  156.2285  140.1851  156.7302 H   0  0  0  0  0  0  0  0  0  0  0  0  # atno 8008 bound_to 7997
  154.5982  140.0640  156.9360 H   0  0  0  0  0  0  0  0  0  0  0  0  # atno 8009 bound_to 7997
  155.2220  140.3308  155.4317 H   0  0  0  0  0  0  0  0  0  0  0  0  # atno 8010 bound_to 7997
  140.1058  144.4863  150.7008 H   0  0  0  0  0  0  0  0  0  0  0  0  # atno 10167 bound_to 10162
  156.0081  130.4559  150.3723 H   0  0  0  0  0  0  0  0  0  0  0  0  # atno 10718 bound_to 10713
  153.0616  135.5010  154.8106 H   0  0  0  0  0  0  0  0  0  0  0  0  # atno 10763 bound_to 10752
  154.6891  135.2981  154.9508 H   0  0  0  0  0  0  0  0  0  0  0  0  # atno 10764 bound_to 10752
  154.0268  135.6735  153.4830 H   0  0  0  0  0  0  0  0  0  0  0  0  # atno 10765 bound_to 10752
  141.1390  133.8146  157.0661 H   0  0  0  0  0  0  0  0  0  0  0  0  # atno 11005 bound_to 11000
  145.0679  139.3054  143.5847 LP  0  0  0  0  0  0  0  0  0  0  0  0  # atno 17320 bound_to 7965
  146.3517  140.0143  142.8664 LP  0  0  0  0  0  0  0  0  0  0  0  0  # atno 17321 bound_to 7965
  140.6953  143.2400  151.5019 LP  0  0  0  0  0  0  0  0  0  0  0  0  # atno 17342 bound_to 10162
  139.5646  144.2073  152.1745 LP  0  0  0  0  0  0  0  0  0  0  0  0  # atno 17343 bound_to 10162
  157.1807  131.0391  151.2750 LP  0  0  0  0  0  0  0  0  0  0  0  0  # atno 17370 bound_to 10713
  157.4148  130.7405  149.6867 LP  0  0  0  0  0  0  0  0  0  0  0  0  # atno 17371 bound_to 10713
  140.0540  134.9790  157.1188 LP  0  0  0  0  0  0  0  0  0  0  0  0  # atno 17394 bound_to 11000
  140.3947  134.2147  155.7165 LP  0  0  0  0  0  0  0  0  0  0  0  0  # atno 17395 bound_to 11000

$$$$
