AV-unprocessed.smi:2564|AV-procd|sdf|10062|dock8
  -GOLD-   2272014103D 1   1.00000     0.00000
 Structure written by MMmdl.
 29 30  0  0  0  0  0  0  0  0  2 V2000
  152.4040  144.0883  158.6241 C   0  0  0  0  0  0  0  0  0  0  0  0
  152.2895  143.2144  159.7207 C   0  0  0  0  0  0  0  0  0  0  0  0
  151.4412  142.1616  159.7270 N   0  0  0  0  0  0  0  0  0  0  0  0
  150.6686  141.9179  158.6625 N   0  0  0  0  0  0  0  0  0  0  0  0
  150.7273  142.7193  157.5691 C   0  0  0  0  0  0  0  0  0  0  0  0
  149.9023  142.4379  156.4721 N   0  0  0  0  0  0  0  0  0  0  0  0
  149.3640  141.0990  156.2771 C   0  0  0  0  0  0  0  0  0  0  0  0
  150.1122  140.3424  155.1712 C   0  0  2  0  0  0  0  0  0  0  0  0
  149.2643  139.1902  154.5965 C   0  0  0  0  0  0  0  0  0  0  0  0
  150.0441  138.4315  153.5989 N   0  3  0  0  0  0  0  0  0  0  0  0
  151.3223  137.9521  154.1593 C   0  0  0  0  0  0  0  0  0  0  0  0
  152.1081  139.1298  154.7594 C   0  0  0  0  0  0  0  0  0  0  0  0
  151.3034  139.7917  155.7296 O   0  0  0  0  0  0  0  0  0  0  0  0
  151.5918  143.8303  157.5062 C   0  0  0  0  0  0  0  0  0  0  0  0
  153.0882  144.9235  158.6414 H   0  0  0  0  0  0  0  0  0  0  0  0
  152.8867  143.3609  160.6083 H   0  0  0  0  0  0  0  0  0  0  0  0
  149.7910  143.1238  155.7394 H   0  0  0  0  0  0  0  0  0  0  0  0
  149.4110  140.5423  157.2142 H   0  0  0  0  0  0  0  0  0  0  0  0
  148.3109  141.1876  156.0071 H   0  0  0  0  0  0  0  0  0  0  0  0
  150.3683  141.0388  154.3701 H   0  0  0  0  0  0  0  0  0  0  0  0
  148.9484  138.5145  155.3926 H   0  0  0  0  0  0  0  0  0  0  0  0
  148.3602  139.5759  154.1244 H   0  0  0  0  0  0  0  0  0  0  0  0
  149.5015  137.6433  153.2753 H   0  0  0  0  0  0  0  0  0  0  0  0
  151.1196  137.2042  154.9269 H   0  0  0  0  0  0  0  0  0  0  0  0
  151.9009  137.4619  153.3760 H   0  0  0  0  0  0  0  0  0  0  0  0
  153.0185  138.7696  155.2390 H   0  0  0  0  0  0  0  0  0  0  0  0
  152.4137  139.8326  153.9826 H   0  0  0  0  0  0  0  0  0  0  0  0
  151.6325  144.4645  156.6328 H   0  0  0  0  0  0  0  0  0  0  0  0
  150.2422  139.0384  152.8160 H   0  0  0  0  0  0  0  0  0  0  0  0
  1 14  1  0  0  0  0
  1  2  2  0  0  0  0
  1 15  1  0  0  0  0
  2  3  1  0  0  0  0
  2 16  1  0  0  0  0
  3  4  2  0  0  0  0
  4  5  1  0  0  0  0
  5  6  1  0  0  0  0
  5 14  2  0  0  0  0
  6  7  1  0  0  0  0
  6 17  1  0  0  0  0
  7  8  1  0  0  0  0
  7 18  1  0  0  0  0
  7 19  1  0  0  0  0
  8 13  1  0  0  0  0
  8  9  1  0  0  0  0
  8 20  1  0  0  0  0
  9 10  1  0  0  0  0
  9 21  1  0  0  0  0
  9 22  1  0  0  0  0
 10 11  1  0  0  0  0
 10 23  1  0  0  0  0
 10 29  1  0  0  0  0
 11 12  1  0  0  0  0
 11 24  1  0  0  0  0
 11 25  1  0  0  0  0
 12 13  1  0  0  0  0
 12 26  1  0  0  0  0
 12 27  1  0  0  0  0
 14 28  1  0  0  0  0
M  CHG  1  10   1
M  END
> <s_m_source_file>
AV-unprocessed.smi

> <i_m_source_file_index>
2564

> <i_lp_mmshare_version>
43012

> <i_f3d_flags>
0

> <s_epik_input>
W2NIXTFbY0hdW2NIXW5uYzFbTkhdW0NIMl1bQ0BASF0yW0NIMl1bTkhdW0NIMl1bQ0gyXU8y

> <s_epik_cmdline>
J2VwaWtfcHl0aG9uJywgJy1waCcsICc3LjAnLCAnLXRuJywgJzgnLCAnLW1hJywgJzIwMCcsICctbWV0YWxfYmluZGluZycsICctaW1hZScsICc8aW5maWxlLm1hZT4nLCAnLW9tYWUnLCAnPG91dGZpbGUubWFlPic=

> <r_lp_tautomer_probability>
0.999978

> <r_epik_Ionization_Penalty>
0.0278973

> <r_epik_Ionization_Penalty_Charging>
0.00959556

> <r_epik_Ionization_Penalty_Neutral>
0.0183017

> <r_epik_State_Penalty>
0.0323017

> <r_epik_Charging_Adjusted_Penalty>
0.0418973

> <i_epik_Tot_Q>
1

> <i_epik_Tot_abs_Q>
1

> <r_epik_Metal_State_Penalty>
0.0301524

> <b_epik_Metal_Only>
0

> <s_lp_Force_Field>
OPLS_2005

> <r_lp_Energy>
19.9275

> <b_lp_Chiralities_Consistent>
1

> <s_lp_Variant>
AV-unprocessed.smi:2564-1

> <Gold.Version>
5.8.1

> <Gold.Id.Protein>
6NUR|6NUR_protein|mol2

> <Gold.PLP.Fitness>
41.7796

> <Gold.PLP.PLP>
-31.6204

> <Gold.PLP.part.hbond>
-3.7835

> <Gold.PLP.part.metal>
0.0000

> <Gold.PLP.part.buried>
-3.3583

> <Gold.PLP.part.nonpolar>
-25.0921

> <Gold.PLP.part.repulsive>
0.1711

> <Gold.PLP.ligand.clash>
0.0000

> <Gold.PLP.ligand.torsion>
0.4292

> <Gold.PLP.Chemscore.Hbond>
3.6720

> <Gold.PLP.Chemscore.CHOScore>
0.0000

> <Gold.PLP.Chemscore.Metal>
0.0000

> <Gold.Chemscore.Hbonds>
donor molecule, donor type, donor heavy atom, donor atom, acceptor molecule, acceptor atom, score
      L1  H     6    17       P1  8028  0.66
      L1  H    10    23       P1  7948  1.95
      L1  H    10    29       P1  7957  1.00

> <Gold.PLP.Chemscore.Internal.Correction>
0.0015

> <Gold.Rescore>
     Score         DG    S(hbond)    S(metal)    S(lipo)     H(rot)  DE(clash)    DE(int)     intcor
     18.18     -18.61       2.50        0.00      69.78       1.33       0.01       0.42       ----

> <Gold.Chemscore.Fitness>
18.1793

> <Gold.Chemscore.DG>
-18.6066

> <Gold.Chemscore.ZeroCoef>
-5.4800

> <Gold.Chemscore.Hbond>
2.5014

> <Gold.Chemscore.Metal>
0.0000

> <Gold.Chemscore.Lipo>
69.7811

> <Gold.Chemscore.Internal_Hbond>
0.0000

> <Gold.Chemscore.DEClash>
0.0088

> <Gold.Chemscore.DEInternal>
0.4185

> <Gold.Chemscore.Rot>
1.3251

> <Gold.Chemscore.Internal.Correction>
   9.000000E+99

> <Gold.Chemscore.Hbonds>
donor molecule, donor type, donor heavy atom, donor atom, acceptor molecule, acceptor atom, score
      L1  H     6    17       P1  8028  0.66
      L1  H    10    23       P1  7948  0.81
      L1  H    10    29       P1  7957  0.58

> <Gold.Chemscore.Hbond.Weighted>
-8.3546

> <Gold.Chemscore.Metal.Weighted>
-0.0000

> <Gold.Chemscore.Lipo.Weighted>
-8.1644

> <Gold.Chemscore.Internal_Hbond.Weighted>
0.0000

> <Gold.Chemscore.DEClash.Weighted>
0.0088

> <Gold.Chemscore.DEInternal.Weighted>
0.4185

> <Gold.Chemscore.Rot.Weighted>
3.3924

> <Gold.Chemscore.Internal.Correction.Weighted>
   9.000000E+99

> <Gold.Protein.RotatedTorsions>
[ 6907 6896 6895 6894 ] final   65.47 input  -60.11 | X-H torsion
[ 7974 7965 7964 7962 ] final  -60.57 input  175.53 | X-H torsion
[ 8008 7997 7996 7995 ] final   20.67 input   59.86 | X-H torsion
[ 10167 10162 10161 10158 ] final  165.87 input  -65.29 | X-H torsion
[ 10718 10713 10712 10709 ] final  -86.75 input   66.30 | X-H torsion
[ 10763 10752 10751 10750 ] final  167.15 input  -60.55 | X-H torsion
[ 11005 11000 10999 10996 ] final   79.78 input  -57.11 | X-H torsion

> <Gold.Protein.ActiveResidues>
 VAL166  LYS551  ARG553  GLY616  TRP617  ASP618  TYR619  PRO620  LYS621  CYS622 
 ASP623  PHE694  ASN695  SER759  ASP760  ASP761  ALA762  ILE779  LEU786  VAL792 
 PHE793  MET794  SER795  GLU796  ALA797  LYS798  CYS799  TRP800  GLU811  SER814 

> <Gold.Protein.RotatedAtoms>
  152.4410  134.5591  159.9888 H   0  0  0  0  0  0  0  0  0  0  0  0  # atno 6907 bound_to 6896
  151.5689  133.3387  159.2993 H   0  0  0  0  0  0  0  0  0  0  0  0  # atno 6908 bound_to 6896
  150.8316  134.7605  159.6922 H   0  0  0  0  0  0  0  0  0  0  0  0  # atno 6909 bound_to 6896
  145.8139  140.8582  143.0168 H   0  0  0  0  0  0  0  0  0  0  0  0  # atno 7974 bound_to 7965
  154.9390  140.3050  155.5130 H   0  0  0  0  0  0  0  0  0  0  0  0  # atno 8008 bound_to 7997
  156.2997  140.2340  156.4395 H   0  0  0  0  0  0  0  0  0  0  0  0  # atno 8009 bound_to 7997
  154.8163  140.0426  157.1368 H   0  0  0  0  0  0  0  0  0  0  0  0  # atno 8010 bound_to 7997
  139.4914  144.4086  151.9325 H   0  0  0  0  0  0  0  0  0  0  0  0  # atno 10167 bound_to 10162
  155.9988  130.4776  150.4762 H   0  0  0  0  0  0  0  0  0  0  0  0  # atno 10718 bound_to 10713
  154.3496  135.2753  155.2379 H   0  0  0  0  0  0  0  0  0  0  0  0  # atno 10763 bound_to 10752
  154.4614  135.5906  153.6262 H   0  0  0  0  0  0  0  0  0  0  0  0  # atno 10764 bound_to 10752
  152.9851  135.6066  154.3705 H   0  0  0  0  0  0  0  0  0  0  0  0  # atno 10765 bound_to 10752
  139.9159  134.7869  156.1823 H   0  0  0  0  0  0  0  0  0  0  0  0  # atno 11005 bound_to 11000
  144.6754  140.0435  143.7480 LP  0  0  0  0  0  0  0  0  0  0  0  0  # atno 17320 bound_to 7965
  145.9748  139.2896  143.1077 LP  0  0  0  0  0  0  0  0  0  0  0  0  # atno 17321 bound_to 7965
  140.3527  144.3069  150.5946 LP  0  0  0  0  0  0  0  0  0  0  0  0  # atno 17342 bound_to 10162
  140.5471  143.2213  151.7989 LP  0  0  0  0  0  0  0  0  0  0  0  0  # atno 17343 bound_to 10162
  157.2772  131.0599  151.2222 LP  0  0  0  0  0  0  0  0  0  0  0  0  # atno 17370 bound_to 10713
  157.3281  130.6971  149.6308 LP  0  0  0  0  0  0  0  0  0  0  0  0  # atno 17371 bound_to 10713
  141.0634  133.6830  156.1998 LP  0  0  0  0  0  0  0  0  0  0  0  0  # atno 17394 bound_to 11000
  140.6624  134.4954  157.5584 LP  0  0  0  0  0  0  0  0  0  0  0  0  # atno 17395 bound_to 11000

$$$$
