#       Name:                AV-unprocessed.smi:3243
#       Creating user name   scv26
#       Creation time:       Fri Mar 27 18:26:40 2020


#       File generated by GOLD software.
#

@<TRIPOS>MOLECULE
AV-unprocessed.smi:3243
    40    41     1
SMALL
NO_CHARGES


@<TRIPOS>ATOM
      1 ****        -4.7297   2.2380  -2.5196 C.3            1 S1                 0.0000
      2 ****        -4.7653   1.7833  -1.0536 C.3            1 S1                 0.0000
      3 ****        -4.5398   2.9321  -0.0602 C.3            1 S1                 0.0000
      4 ****        -3.8454   0.6308  -0.7988 C.2            1 S1                 0.0000
      5 ****        -2.5155   0.7026  -0.9140 N.2            1 S1                 0.0000
      6 ****        -1.8809  -0.5075  -0.6188 C.2            1 S1                 0.0000
      7 ****        -0.3872  -0.6056  -0.6846 C.3            1 S1                 0.0000
      8 ****         0.2872   0.0068   0.5544 C.3            1 S1                 0.0000
      9 ****         1.7407  -0.0891   0.4818 N.am           1 S1                 0.0000
     10 ****         2.4565  -1.1844   0.7794 C.2            1 S1                 0.0000
     11 ****         1.9423  -2.2432   1.1439 O.2            1 S1                 0.0000
     12 ****         3.9319  -1.0043   0.6291 C.3            1 S1                 0.0000
     13 ****         4.7389  -2.1962   0.1557 C.3            1 S1                 0.0000
     14 ****         4.8360  -1.7488   1.5939 C.3            1 S1                 0.0000
     15 ****         6.0953  -1.0958   2.1213 C.3            1 S1                 0.0000
     16 ****        -2.7562  -1.5081  -0.2778 C.2            1 S1                 0.0000
     17 ****        -4.4107  -0.9643  -0.3139 S.3            1 S1                 0.0000
     18 ****        -4.9776   1.4155  -3.1912 H              1 S1                 0.0000
     19 ****        -3.7421   2.6086  -2.7962 H              1 S1                 0.0000
     20 ****        -5.4474   3.0387  -2.6997 H              1 S1                 0.0000
     21 ****        -5.7755   1.4148  -0.8714 H              1 S1                 0.0000
     22 ****        -4.6550   2.5891   0.9685 H              1 S1                 0.0000
     23 ****        -5.2562   3.7379  -0.2218 H              1 S1                 0.0000
     24 ****        -3.5388   3.3529  -0.1611 H              1 S1                 0.0000
     25 ****        -0.0926  -1.6510  -0.7851 H              1 S1                 0.0000
     26 ****        -0.0219  -0.1057  -1.5826 H              1 S1                 0.0000
     27 ****         0.0229   1.0614   0.6388 H              1 S1                 0.0000
     28 ****        -0.0738  -0.4769   1.4638 H              1 S1                 0.0000
     29 ****         2.2389   0.7393   0.1899 H              1 S1                 0.0000
     30 ****         4.2689  -0.0245   0.2934 H              1 S1                 0.0000
     31 ****         4.2189  -3.1318  -0.0422 H              1 S1                 0.0000
     32 ****         5.5778  -1.9904  -0.5059 H              1 S1                 0.0000
     33 ****         4.3531  -2.3963   2.3240 H              1 S1                 0.0000
     34 ****         6.5552  -0.4672   1.3583 H              1 S1                 0.0000
     35 ****         6.8138  -1.8580   2.4227 H              1 S1                 0.0000
     36 ****         5.8605  -0.4765   2.9868 H              1 S1                 0.0000
     37 ****        -2.5281  -2.5280  -0.0054 H              1 S1                 0.0000
     38 ****        -2.0270   1.5329  -1.1826 LP             1 S1                 0.0000
     39 ****         0.9484  -2.3130   1.2290 LP             1 S1                 0.0000
     40 ****         2.5189  -3.0326   1.3545 LP             1 S1                 0.0000
@<TRIPOS>BOND
    1    1    2 1     
    2    1   18 1     
    3    1   19 1     
    4    1   20 1     
    5    2    3 1     
    6    2    4 1     
    7    2   21 1     
    8    3   22 1     
    9    3   23 1     
   10    3   24 1     
   11    4   17 1     
   12    4    5 2     
   13    5    6 1     
   14    6    7 1     
   15    6   16 2     
   16    7    8 1     
   17    7   25 1     
   18    7   26 1     
   19    8    9 1     
   20    8   27 1     
   21    8   28 1     
   22    9   10 am    
   23    9   29 1     
   24   10   11 2     
   25   10   12 1     
   26   12   14 1     
   27   12   13 1     
   28   12   30 1     
   29   13   14 1     
   30   13   31 1     
   31   13   32 1     
   32   14   15 1     
   33   14   33 1     
   34   15   34 1     
   35   15   35 1     
   36   15   36 1     
   37   16   17 1     
   38   16   37 1     
   39    5   38 1     
   40   11   39 1     
   41   11   40 1     
@<TRIPOS>SUBSTRUCTURE
      1 S1             1
@<TRIPOS>SET
LONE_PAIRS      STATIC     ATOMS    <user>   **** ""
3 38 39 40
DONOR_HYDROGENS      STATIC     ATOMS    <user>   **** ""
1 29
ATOM$BLUE        STATIC     ATOMS    COLORGROUP SYSTEM
3 38 39 40
ATOM$RED        STATIC     ATOMS    COLORGROUP SYSTEM
1 29
