#       Name:                AV-unprocessed.smi:3181
#       Creating user name   scv26
#       Creation time:       Fri Mar 27 17:58:06 2020


#       File generated by GOLD software.
#

@<TRIPOS>MOLECULE
AV-unprocessed.smi:3181
    44    45     1
SMALL
NO_CHARGES


@<TRIPOS>ATOM
      1 ****        -2.0215  -1.2086   2.8397 C.3            1 S1                 0.0000
      2 ****        -1.5489  -0.5646   1.5254 C.3            1 S1                 0.0000
      3 ****        -2.0603  -1.3102   0.2707 C.3            1 S1                 0.0000
      4 ****        -3.5033  -1.4645   0.2517 N.pl3          1 S1                 0.0000
      5 ****        -4.4633  -0.5951  -0.0679 C.2            1 S1                 0.0000
      6 ****        -5.6885  -1.0905   0.0326 N.2            1 S1                 0.0000
      7 ****        -5.3896  -2.3591   0.4429 C.2            1 S1                 0.0000
      8 ****        -4.0933  -2.6354   0.5879 N.2            1 S1                 0.0000
      9 ****        -0.0702  -0.4724   1.5355 N.4            1 S1                 1.0000
     10 ****         0.5379   0.4024   0.5072 C.3            1 S1                 0.0000
     11 ****         1.5607   1.3451   1.1581 C.3            1 S1                 0.0000
     12 ****         2.2175   2.2513   0.1077 C.3            1 S1                 0.0000
     13 ****         2.8958   1.4403  -1.0156 C.3            1 S1                 0.0000
     14 ****         3.5349   2.3982  -2.0368 C.3            1 S1                 0.0000
     15 ****         1.8916   0.4488  -1.6621 C.3            1 S1                 0.0000
     16 ****         2.5382  -0.4394  -2.7400 C.3            1 S1                 0.0000
     17 ****         1.2272  -0.4351  -0.5858 C.3            1 S1                 0.0000
     18 ****        -3.1077  -1.1873   2.9316 H              1 S1                 0.0000
     19 ****        -1.6182  -0.6780   3.7029 H              1 S1                 0.0000
     20 ****        -1.7011  -2.2485   2.9093 H              1 S1                 0.0000
     21 ****        -1.9424   0.4530   1.5104 H              1 S1                 0.0000
     22 ****        -1.7798  -0.7736  -0.6357 H              1 S1                 0.0000
     23 ****        -1.6014  -2.2983   0.2029 H              1 S1                 0.0000
     24 ****        -4.2625   0.4201  -0.3775 H              1 S1                 0.0000
     25 ****        -6.1498  -3.1004   0.6414 H              1 S1                 0.0000
     26 ****         0.1905  -0.0907   2.4335 H              1 S1                 0.0000
     27 ****        -0.2386   1.0169   0.0481 H              1 S1                 0.0000
     28 ****         1.0741   1.9595   1.9170 H              1 S1                 0.0000
     29 ****         2.3297   0.7672   1.6731 H              1 S1                 0.0000
     30 ****         1.4643   2.9147  -0.3199 H              1 S1                 0.0000
     31 ****         2.9501   2.8953   0.5958 H              1 S1                 0.0000
     32 ****         3.7010   0.8595  -0.5627 H              1 S1                 0.0000
     33 ****         2.7768   2.9621  -2.5814 H              1 S1                 0.0000
     34 ****         4.1459   1.8660  -2.7652 H              1 S1                 0.0000
     35 ****         4.1890   3.1168  -1.5423 H              1 S1                 0.0000
     36 ****         1.1040   1.0292  -2.1453 H              1 S1                 0.0000
     37 ****         3.3852  -0.9971  -2.3391 H              1 S1                 0.0000
     38 ****         2.8924   0.1455  -3.5884 H              1 S1                 0.0000
     39 ****         1.8229  -1.1623  -3.1334 H              1 S1                 0.0000
     40 ****         1.9797  -1.0815  -0.1309 H              1 S1                 0.0000
     41 ****         0.5043  -1.0999  -1.0584 H              1 S1                 0.0000
     42 ****         0.3265  -1.3985   1.4616 H              1 S1                 0.0000
     43 ****        -6.5745  -0.6607  -0.1413 LP             1 S1                 0.0000
     44 ****        -3.6646  -3.4926   0.8734 LP             1 S1                 0.0000
@<TRIPOS>BOND
    1    1    2 1     
    2    1   18 1     
    3    1   19 1     
    4    1   20 1     
    5    2    3 1     
    6    2    9 1     
    7    2   21 1     
    8    3    4 1     
    9    3   22 1     
   10    3   23 1     
   11    4    8 1     
   12    4    5 1     
   13    5    6 2     
   14    5   24 1     
   15    6    7 1     
   16    7    8 2     
   17    7   25 1     
   18    9   10 1     
   19    9   26 1     
   20    9   42 1     
   21   10   17 1     
   22   10   11 1     
   23   10   27 1     
   24   11   12 1     
   25   11   28 1     
   26   11   29 1     
   27   12   13 1     
   28   12   30 1     
   29   12   31 1     
   30   13   14 1     
   31   13   15 1     
   32   13   32 1     
   33   14   33 1     
   34   14   34 1     
   35   14   35 1     
   36   15   16 1     
   37   15   17 1     
   38   15   36 1     
   39   16   37 1     
   40   16   38 1     
   41   16   39 1     
   42   17   40 1     
   43   17   41 1     
   44    6   43 1     
   45    8   44 1     
@<TRIPOS>SUBSTRUCTURE
      1 S1             1
@<TRIPOS>SET
LONE_PAIRS      STATIC     ATOMS    <user>   **** ""
2 43 44
DONOR_HYDROGENS      STATIC     ATOMS    <user>   **** ""
2 26 42
ATOM$BLUE        STATIC     ATOMS    COLORGROUP SYSTEM
2 43 44
ATOM$RED        STATIC     ATOMS    COLORGROUP SYSTEM
2 26 42
