AV-unprocessed.smi:276|AV-procd|sdf|2083|dock9
  -GOLD-   2262021353D 1   1.00000     0.00000
 Structure written by MMmdl.
 57 61  0  0  0  0  0  0  0  0  1 V2000
  146.0163  141.3845  156.7910 C   0  0  0  0  0  0  0  0  0  0  0  0
  146.4057  140.3991  155.8503 O   0  0  0  0  0  0  0  0  0  0  0  0
  146.4808  140.9007  154.5230 C   0  0  1  0  0  0  0  0  0  0  0  0
  147.4847  142.0545  154.3855 C   0  0  0  0  0  0  0  0  0  0  0  0
  148.5811  141.0283  154.0355 C   0  0  1  0  0  0  0  0  0  0  0  0
  149.3620  140.6463  155.2198 N   0  0  0  0  0  0  0  0  0  0  0  0
  150.0930  141.7125  155.8997 C   0  0  0  0  0  0  0  0  0  0  0  0
  150.1161  139.5265  155.1317 C   0  0  0  0  0  0  0  0  0  0  0  0
  151.2506  139.6086  154.3925 N   0  0  0  0  0  0  0  0  0  0  0  0
  152.0433  138.5415  154.2605 C   0  0  0  0  0  0  0  0  0  0  0  0
  151.8847  137.3165  154.7648 N   0  0  0  0  0  0  0  0  0  0  0  0
  150.7360  137.2245  155.4940 C   0  0  0  0  0  0  0  0  0  0  0  0
  149.8001  138.2714  155.7287 C   0  0  0  0  0  0  0  0  0  0  0  0
  148.7580  137.8014  156.5196 N   0  0  0  0  0  0  0  0  0  0  0  0
  149.0658  136.5547  156.7489 C   0  0  0  0  0  0  0  0  0  0  0  0
  150.2251  136.1176  156.1495 N   0  0  0  0  0  0  0  0  0  0  0  0
  150.7950  134.7842  156.2309 C   0  0  0  0  0  0  0  0  0  0  0  0
  149.7576  133.6662  156.4929 C   0  0  1  0  0  0  0  0  0  0  0  0
  148.9289  133.6455  155.3479 O   0  0  0  0  0  0  0  0  0  0  0  0
  150.3351  132.2414  156.6631 C   0  0  1  0  0  0  0  0  0  0  0  0
  151.1300  131.6872  155.4756 C   0  0  0  0  0  0  0  0  0  0  0  0
  152.1210  130.7178  156.1011 C   0  0  0  0  0  0  0  0  0  0  0  0
  152.0419  131.0261  157.5954 C   0  0  0  0  0  0  0  0  0  0  0  0
  151.3414  132.2581  157.6660 O   0  0  0  0  0  0  0  0  0  0  0  0
  147.4307  140.0595  153.6523 C   0  0  0  0  0  0  0  0  0  0  0  0
  147.0740  139.8628  152.1686 C   0  0  0  0  0  0  0  0  0  0  0  0
  146.5430  138.4742  152.5321 C   0  0  0  0  0  0  0  0  0  0  0  0
  147.4603  138.5202  153.7551 C   0  0  0  0  0  0  0  0  0  0  0  0
  145.9794  140.9435  157.7868 H   0  0  0  0  0  0  0  0  0  0  0  0
  145.0251  141.7766  156.5598 H   0  0  0  0  0  0  0  0  0  0  0  0
  146.7222  142.2150  156.8186 H   0  0  0  0  0  0  0  0  0  0  0  0
  145.5071  141.0817  154.0650 H   0  0  0  0  0  0  0  0  0  0  0  0
  147.2479  142.7054  153.5422 H   0  0  0  0  0  0  0  0  0  0  0  0
  147.6431  142.6393  155.2915 H   0  0  0  0  0  0  0  0  0  0  0  0
  149.1855  141.3528  153.1885 H   0  0  0  0  0  0  0  0  0  0  0  0
  151.0860  141.4042  156.2328 H   0  0  0  0  0  0  0  0  0  0  0  0
  149.5344  142.0357  156.7783 H   0  0  0  0  0  0  0  0  0  0  0  0
  150.2201  142.5748  155.2443 H   0  0  0  0  0  0  0  0  0  0  0  0
  152.9315  138.6904  153.6642 H   0  0  0  0  0  0  0  0  0  0  0  0
  148.4413  135.9113  157.3512 H   0  0  0  0  0  0  0  0  0  0  0  0
  151.3082  134.6000  155.2858 H   0  0  0  0  0  0  0  0  0  0  0  0
  151.5634  134.7763  157.0054 H   0  0  0  0  0  0  0  0  0  0  0  0
  149.1390  133.9223  157.3534 H   0  0  0  0  0  0  0  0  0  0  0  0
  148.2238  134.2617  155.4749 H   0  0  0  0  0  0  0  0  0  0  0  0
  149.5513  131.5348  156.9437 H   0  0  0  0  0  0  0  0  0  0  0  0
  150.4939  131.2013  154.7364 H   0  0  0  0  0  0  0  0  0  0  0  0
  151.6787  132.4886  154.9790 H   0  0  0  0  0  0  0  0  0  0  0  0
  151.8546  129.6793  155.9032 H   0  0  0  0  0  0  0  0  0  0  0  0
  153.1243  130.8888  155.7097 H   0  0  0  0  0  0  0  0  0  0  0  0
  151.4711  130.2573  158.1186 H   0  0  0  0  0  0  0  0  0  0  0  0
  153.0240  131.1007  158.0630 H   0  0  0  0  0  0  0  0  0  0  0  0
  146.3250  140.5510  151.7760 H   0  0  0  0  0  0  0  0  0  0  0  0
  147.9553  139.8204  151.5260 H   0  0  0  0  0  0  0  0  0  0  0  0
  145.4842  138.4808  152.7964 H   0  0  0  0  0  0  0  0  0  0  0  0
  146.7786  137.6905  151.8119 H   0  0  0  0  0  0  0  0  0  0  0  0
  148.4293  138.0747  153.5343 H   0  0  0  0  0  0  0  0  0  0  0  0
  147.0280  138.1056  154.6660 H   0  0  0  0  0  0  0  0  0  0  0  0
  1  2  1  0  0  0  0
  1 29  1  0  0  0  0
  1 30  1  0  0  0  0
  1 31  1  0  0  0  0
  2  3  1  0  0  0  0
  3 25  1  0  0  0  0
  3  4  1  0  0  0  0
  3 32  1  0  0  0  0
  4  5  1  0  0  0  0
  4 33  1  0  0  0  0
  4 34  1  0  0  0  0
  5  6  1  0  0  0  0
  5 25  1  0  0  0  0
  5 35  1  0  0  0  0
  6  7  1  0  0  0  0
  6  8  1  0  0  0  0
  7 36  1  0  0  0  0
  7 37  1  0  0  0  0
  7 38  1  0  0  0  0
  8 13  1  0  0  0  0
  8  9  2  0  0  0  0
  9 10  1  0  0  0  0
 10 11  2  0  0  0  0
 10 39  1  0  0  0  0
 11 12  1  0  0  0  0
 12 16  1  0  0  0  0
 12 13  2  0  0  0  0
 13 14  1  0  0  0  0
 14 15  2  0  0  0  0
 15 16  1  0  0  0  0
 15 40  1  0  0  0  0
 16 17  1  0  0  0  0
 17 18  1  0  0  0  0
 17 41  1  0  0  0  0
 17 42  1  0  0  0  0
 18 19  1  0  0  0  0
 18 20  1  0  0  0  0
 18 43  1  0  0  0  0
 19 44  1  0  0  0  0
 20 24  1  0  0  0  0
 20 21  1  0  0  0  0
 20 45  1  0  0  0  0
 21 22  1  0  0  0  0
 21 46  1  0  0  0  0
 21 47  1  0  0  0  0
 22 23  1  0  0  0  0
 22 48  1  0  0  0  0
 22 49  1  0  0  0  0
 23 24  1  0  0  0  0
 23 50  1  0  0  0  0
 23 51  1  0  0  0  0
 25 28  1  0  0  0  0
 25 26  1  0  0  0  0
 26 27  1  0  0  0  0
 26 52  1  0  0  0  0
 26 53  1  0  0  0  0
 27 28  1  0  0  0  0
 27 54  1  0  0  0  0
 27 55  1  0  0  0  0
 28 56  1  0  0  0  0
 28 57  1  0  0  0  0
M  END
> <s_m_source_file>
AV-unprocessed.smi

> <i_m_source_file_index>
276

> <i_lp_mmshare_version>
43012

> <i_f3d_flags>
0

> <s_epik_input>
W0NIMl0xW0NIMl1bQ0gyXUMxMltDQEhdKE9bQ0gzXSlbQ0gyXVtDQEhdMk4oW0NIM10pYyhuW2NIXW4zKWMoYzM0KW5bY0hdbjRbQ0gyXVtDQEhdKFtPSF0pW0NAQEhdNVtDSDJdW0NIMl1bQ0gyXU81

> <s_epik_cmdline>
J2VwaWtfcHl0aG9uJywgJy1waCcsICc3LjAnLCAnLXRuJywgJzgnLCAnLW1hJywgJzIwMCcsICctbWV0YWxfYmluZGluZycsICctaW1hZScsICc8aW5maWxlLm1hZT4nLCAnLW9tYWUnLCAnPG91dGZpbGUubWFlPic=

> <r_lp_tautomer_probability>
1

> <r_epik_Ionization_Penalty>
0.00204117

> <r_epik_Ionization_Penalty_Charging>
0

> <r_epik_Ionization_Penalty_Neutral>
0.00204117

> <r_epik_State_Penalty>
0.00127401

> <r_epik_Charging_Adjusted_Penalty>
0.00127401

> <i_epik_Tot_Q>
0

> <i_epik_Tot_abs_Q>
0

> <r_epik_Metal_State_Penalty>
-0

> <b_epik_Metal_Only>
0

> <s_lp_Force_Field>
OPLS_2005

> <r_lp_Energy>
58.3472

> <b_lp_Chiralities_Consistent>
1

> <s_lp_Variant>
AV-unprocessed.smi:276-14

> <Gold.Version>
5.8.1

> <Gold.Id.Protein>
6NUR|6NUR_protein|mol2

> <Gold.PLP.Fitness>
44.4745

> <Gold.PLP.PLP>
-36.1930

> <Gold.PLP.part.hbond>
-3.0000

> <Gold.PLP.part.metal>
0.0000

> <Gold.PLP.part.buried>
-1.0404

> <Gold.PLP.part.nonpolar>
-32.9689

> <Gold.PLP.part.repulsive>
0.3748

> <Gold.PLP.ligand.clash>
0.0000

> <Gold.PLP.ligand.torsion>
0.9067

> <Gold.PLP.Chemscore.Hbond>
3.0000

> <Gold.PLP.Chemscore.CHOScore>
0.0000

> <Gold.PLP.Chemscore.Metal>
0.0000

> <Gold.Chemscore.Hbonds>
donor molecule, donor type, donor heavy atom, donor atom, acceptor molecule, acceptor atom, score
      P1  H  6896  6908       L1    24  1.00
      P1  H  7989  7998       L1     9  1.00
      P1  H 10752 10765       L1    11  0.94

> <Gold.PLP.Chemscore.Internal.Correction>
1.0949

> <Gold.Rescore>
     Score         DG    S(hbond)    S(metal)    S(lipo)     H(rot)  DE(clash)    DE(int)     intcor
     15.88     -18.40       2.88        0.00      87.65       2.72       1.62       0.89       ----

> <Gold.Chemscore.Fitness>
15.8822

> <Gold.Chemscore.DG>
-18.4000

> <Gold.Chemscore.ZeroCoef>
-5.4800

> <Gold.Chemscore.Hbond>
2.8807

> <Gold.Chemscore.Metal>
0.0000

> <Gold.Chemscore.Lipo>
87.6456

> <Gold.Chemscore.Internal_Hbond>
0.0000

> <Gold.Chemscore.DEClash>
1.6246

> <Gold.Chemscore.DEInternal>
0.8932

> <Gold.Chemscore.Rot>
2.7172

> <Gold.Chemscore.Internal.Correction>
   9.000000E+99

> <Gold.Chemscore.Hbonds>
donor molecule, donor type, donor heavy atom, donor atom, acceptor molecule, acceptor atom, score
      P1  H  6896  6908       L1    24  0.97
      P1  H  7989  7998       L1     9  0.88
      P1  H 10752 10765       L1    11  0.82

> <Gold.Chemscore.Hbond.Weighted>
-9.6214

> <Gold.Chemscore.Metal.Weighted>
-0.0000

> <Gold.Chemscore.Lipo.Weighted>
-10.2545

> <Gold.Chemscore.Internal_Hbond.Weighted>
0.0000

> <Gold.Chemscore.DEClash.Weighted>
1.6246

> <Gold.Chemscore.DEInternal.Weighted>
0.8932

> <Gold.Chemscore.Rot.Weighted>
6.9560

> <Gold.Chemscore.Internal.Correction.Weighted>
   9.000000E+99

> <Gold.Protein.RotatedTorsions>
[ 6907 6896 6895 6894 ] final   69.61 input  -60.11 | X-H torsion
[ 7974 7965 7964 7962 ] final  -78.90 input  175.53 | X-H torsion
[ 8008 7997 7996 7995 ] final  175.15 input   59.86 | X-H torsion
[ 10167 10162 10161 10158 ] final -131.83 input  -65.29 | X-H torsion
[ 10718 10713 10712 10709 ] final  166.06 input   66.30 | X-H torsion
[ 10763 10752 10751 10750 ] final  176.09 input  -60.55 | X-H torsion
[ 11005 11000 10999 10996 ] final  158.41 input  -57.11 | X-H torsion

> <Gold.Protein.ActiveResidues>
 VAL166  LYS551  ARG553  GLY616  TRP617  ASP618  TYR619  PRO620  LYS621  CYS622 
 ASP623  PHE694  ASN695  SER759  ASP760  ASP761  ALA762  ILE779  LEU786  VAL792 
 PHE793  MET794  SER795  GLU796  ALA797  LYS798  CYS799  TRP800  GLU811  SER814 

> <Gold.Protein.RotatedAtoms>
  152.4697  134.4990  159.9718 H   0  0  0  0  0  0  0  0  0  0  0  0  # atno 6907 bound_to 6896
  151.5020  133.3496  159.2878 H   0  0  0  0  0  0  0  0  0  0  0  0  # atno 6908 bound_to 6896
  150.8700  134.8100  159.7209 H   0  0  0  0  0  0  0  0  0  0  0  0  # atno 6909 bound_to 6896
  145.5804  140.9449  143.1347 H   0  0  0  0  0  0  0  0  0  0  0  0  # atno 7974 bound_to 7965
  156.0900  140.1416  156.9604 H   0  0  0  0  0  0  0  0  0  0  0  0  # atno 8008 bound_to 7997
  154.4636  140.0934  156.7007 H   0  0  0  0  0  0  0  0  0  0  0  0  # atno 8009 bound_to 7997
  155.4935  140.3449  155.4361 H   0  0  0  0  0  0  0  0  0  0  0  0  # atno 8010 bound_to 7997
  139.9149  143.6451  152.2567 H   0  0  0  0  0  0  0  0  0  0  0  0  # atno 10167 bound_to 10162
  157.0713  131.0367  151.2610 H   0  0  0  0  0  0  0  0  0  0  0  0  # atno 10718 bound_to 10713
  154.4764  135.2773  155.1604 H   0  0  0  0  0  0  0  0  0  0  0  0  # atno 10763 bound_to 10752
  154.3332  135.6186  153.5565 H   0  0  0  0  0  0  0  0  0  0  0  0  # atno 10764 bound_to 10752
  152.9870  135.5770  154.5156 H   0  0  0  0  0  0  0  0  0  0  0  0  # atno 10765 bound_to 10752
  140.1862  134.8440  157.2860 H   0  0  0  0  0  0  0  0  0  0  0  0  # atno 11005 bound_to 11000
  144.7396  139.7485  143.7316 LP  0  0  0  0  0  0  0  0  0  0  0  0  # atno 17320 bound_to 7965
  146.1720  139.4875  142.9921 LP  0  0  0  0  0  0  0  0  0  0  0  0  # atno 17321 bound_to 7965
  139.6911  144.7646  151.1437 LP  0  0  0  0  0  0  0  0  0  0  0  0  # atno 17342 bound_to 10162
  140.7676  143.5588  150.9122 LP  0  0  0  0  0  0  0  0  0  0  0  0  # atno 17343 bound_to 10162
  157.4876  130.7802  149.7475 LP  0  0  0  0  0  0  0  0  0  0  0  0  # atno 17370 bound_to 10713
  155.9950  130.3915  150.2838 LP  0  0  0  0  0  0  0  0  0  0  0  0  # atno 17371 bound_to 10713
  140.2211  134.4022  155.7565 LP  0  0  0  0  0  0  0  0  0  0  0  0  # atno 17394 bound_to 11000
  141.2225  133.7166  156.8492 LP  0  0  0  0  0  0  0  0  0  0  0  0  # atno 17395 bound_to 11000

$$$$
