AV-unprocessed.smi:2172|AV-procd|sdf|8834|dock5
  -GOLD-   2272012 23D 1   1.00000     0.00000
 Structure written by MMmdl.
 36 38  0  0  0  0  0  0  0  0  1 V2000
  151.1792  140.1370  154.9345 O   0  0  0  0  0  0  0  0  0  0  0  0
  151.6146  139.6442  156.1831 C   0  0  0  0  0  0  0  0  0  0  0  0
  151.8496  140.7280  157.1916 C   0  0  0  0  0  0  0  0  0  0  0  0
  151.4620  141.9846  156.9687 N   0  0  0  0  0  0  0  0  0  0  0  0
  151.8416  142.6314  158.1278 C   0  0  0  0  0  0  0  0  0  0  0  0
  151.7047  143.9849  158.5108 C   0  0  0  0  0  0  0  0  0  0  0  0
  152.1684  144.4212  159.7692 C   0  0  0  0  0  0  0  0  0  0  0  0
  152.7725  143.5120  160.6615 C   0  0  0  0  0  0  0  0  0  0  0  0
  152.9197  142.1593  160.2989 C   0  0  0  0  0  0  0  0  0  0  0  0
  152.4594  141.7295  159.0395 C   0  0  0  0  0  0  0  0  0  0  0  0
  152.4573  140.5010  158.3853 N   0  0  0  0  0  0  0  0  0  0  0  0
  152.9917  139.2514  158.9149 C   0  0  0  0  0  0  0  0  0  0  0  0
  154.3082  139.4444  159.6956 C   0  0  2  0  0  0  0  0  0  0  0  0
  155.4047  139.4770  158.8032 O   0  0  0  0  0  0  0  0  0  0  0  0
  154.4694  138.3826  160.7724 C   0  0  0  0  0  0  0  0  0  0  0  0
  154.5094  137.0180  160.4138 C   0  0  0  0  0  0  0  0  0  0  0  0
  154.6661  136.0278  161.4032 C   0  0  0  0  0  0  0  0  0  0  0  0
  154.7862  136.3965  162.7571 C   0  0  0  0  0  0  0  0  0  0  0  0
  154.9772  135.1829  163.9686 Cl  0  0  0  0  0  0  0  0  0  0  0  0
  154.7522  137.7566  163.1204 C   0  0  0  0  0  0  0  0  0  0  0  0
  154.5963  138.7470  162.1312 C   0  0  0  0  0  0  0  0  0  0  0  0
  150.3216  139.7835  154.7556 H   0  0  0  0  0  0  0  0  0  0  0  0
  150.8583  138.9568  156.5635 H   0  0  0  0  0  0  0  0  0  0  0  0
  152.5244  139.0591  156.0516 H   0  0  0  0  0  0  0  0  0  0  0  0
  151.2406  144.6882  157.8354 H   0  0  0  0  0  0  0  0  0  0  0  0
  152.0583  145.4579  160.0516 H   0  0  0  0  0  0  0  0  0  0  0  0
  153.1229  143.8537  161.6245 H   0  0  0  0  0  0  0  0  0  0  0  0
  153.3810  141.4610  160.9813 H   0  0  0  0  0  0  0  0  0  0  0  0
  152.2347  138.8162  159.5684 H   0  0  0  0  0  0  0  0  0  0  0  0
  153.1388  138.5372  158.1060 H   0  0  0  0  0  0  0  0  0  0  0  0
  154.2898  140.4176  160.1869 H   0  0  0  0  0  0  0  0  0  0  0  0
  155.7065  138.5922  158.6660 H   0  0  0  0  0  0  0  0  0  0  0  0
  154.4212  136.7255  159.3779 H   0  0  0  0  0  0  0  0  0  0  0  0
  154.6947  134.9853  161.1218 H   0  0  0  0  0  0  0  0  0  0  0  0
  154.8463  138.0425  164.1578 H   0  0  0  0  0  0  0  0  0  0  0  0
  154.5763  139.7877  162.4199 H   0  0  0  0  0  0  0  0  0  0  0  0
  1  2  1  0  0  0  0
  1 22  1  0  0  0  0
  2  3  1  0  0  0  0
  2 23  1  0  0  0  0
  2 24  1  0  0  0  0
  3 11  1  0  0  0  0
  3  4  2  0  0  0  0
  4  5  1  0  0  0  0
  5 10  2  0  0  0  0
  5  6  1  0  0  0  0
  6  7  2  0  0  0  0
  6 25  1  0  0  0  0
  7  8  1  0  0  0  0
  7 26  1  0  0  0  0
  8  9  2  0  0  0  0
  8 27  1  0  0  0  0
  9 10  1  0  0  0  0
  9 28  1  0  0  0  0
 10 11  1  0  0  0  0
 11 12  1  0  0  0  0
 12 13  1  0  0  0  0
 12 29  1  0  0  0  0
 12 30  1  0  0  0  0
 13 14  1  0  0  0  0
 13 15  1  0  0  0  0
 13 31  1  0  0  0  0
 14 32  1  0  0  0  0
 15 21  1  0  0  0  0
 15 16  2  0  0  0  0
 16 17  1  0  0  0  0
 16 33  1  0  0  0  0
 17 18  2  0  0  0  0
 17 34  1  0  0  0  0
 18 19  1  0  0  0  0
 18 20  1  0  0  0  0
 20 21  2  0  0  0  0
 20 35  1  0  0  0  0
 21 36  1  0  0  0  0
M  END
> <s_m_source_file>
AV-unprocessed.smi

> <i_m_source_file_index>
2172

> <i_lp_mmshare_version>
43012

> <i_f3d_flags>
0

> <s_epik_input>
W2NIXTFbY0hdW2NIXVtjSF1jKGMxMiluKGMobjIpW0NIMl1bT0hdKVtDSDJdW0NASF0oW09IXSljM1tjSF1bY0hdYyhDbClbY0hdW2NIXTM=

> <s_epik_cmdline>
J2VwaWtfcHl0aG9uJywgJy1waCcsICc3LjAnLCAnLXRuJywgJzgnLCAnLW1hJywgJzIwMCcsICctbWV0YWxfYmluZGluZycsICctaW1hZScsICc8aW5maWxlLm1hZT4nLCAnLW9tYWUnLCAnPG91dGZpbGUubWFlPic=

> <r_epik_Ionization_Penalty>
0.0634726

> <r_epik_Ionization_Penalty_Charging>
0

> <r_epik_Ionization_Penalty_Neutral>
0.0634726

> <r_epik_State_Penalty>
0.0551572

> <r_epik_Charging_Adjusted_Penalty>
0.0551572

> <i_epik_Tot_Q>
0

> <i_epik_Tot_abs_Q>
0

> <r_epik_Metal_State_Penalty>
5.78034e-05

> <b_epik_Metal_Only>
0

> <s_lp_Force_Field>
OPLS_2005

> <r_lp_Energy>
12.889

> <b_lp_Chiralities_Consistent>
1

> <s_lp_Variant>
AV-unprocessed.smi:2172-1

> <Gold.Version>
5.8.1

> <Gold.Id.Protein>
6NUR|6NUR_protein|mol2

> <Gold.PLP.Fitness>
48.2812

> <Gold.PLP.PLP>
-43.6746

> <Gold.PLP.part.hbond>
-2.0000

> <Gold.PLP.part.metal>
0.0000

> <Gold.PLP.part.buried>
-4.7426

> <Gold.PLP.part.nonpolar>
-36.7768

> <Gold.PLP.part.repulsive>
0.0585

> <Gold.PLP.ligand.clash>
0.0000

> <Gold.PLP.ligand.torsion>
0.7179

> <Gold.PLP.Chemscore.Hbond>
2.0000

> <Gold.PLP.Chemscore.CHOScore>
0.0000

> <Gold.PLP.Chemscore.Metal>
0.0000

> <Gold.Chemscore.Hbonds>
donor molecule, donor type, donor heavy atom, donor atom, acceptor molecule, acceptor atom, score
      P1  H  7989  7998       L1     1  1.00
      P1  H  7997  8010       L1    14  1.00

> <Gold.PLP.Chemscore.Internal.Correction>
0.0423

> <Gold.Rescore>
     Score         DG    S(hbond)    S(metal)    S(lipo)     H(rot)  DE(clash)    DE(int)     intcor
     19.71     -20.60       1.89        0.00     132.53       2.62       0.01       0.88       ----

> <Gold.Chemscore.Fitness>
19.7078

> <Gold.Chemscore.DG>
-20.5955

> <Gold.Chemscore.ZeroCoef>
-5.4800

> <Gold.Chemscore.Hbond>
1.8936

> <Gold.Chemscore.Metal>
0.0000

> <Gold.Chemscore.Lipo>
132.5329

> <Gold.Chemscore.Internal_Hbond>
0.0000

> <Gold.Chemscore.DEClash>
0.0064

> <Gold.Chemscore.DEInternal>
0.8812

> <Gold.Chemscore.Rot>
2.6232

> <Gold.Chemscore.Internal.Correction>
   9.000000E+99

> <Gold.Chemscore.Hbonds>
donor molecule, donor type, donor heavy atom, donor atom, acceptor molecule, acceptor atom, score
      P1  H  7989  7998       L1     1  0.50
      P1  H  7997  8010       L1    14  0.37

> <Gold.Chemscore.Hbond.Weighted>
-6.3246

> <Gold.Chemscore.Metal.Weighted>
-0.0000

> <Gold.Chemscore.Lipo.Weighted>
-15.5064

> <Gold.Chemscore.Internal_Hbond.Weighted>
0.0000

> <Gold.Chemscore.DEClash.Weighted>
0.0064

> <Gold.Chemscore.DEInternal.Weighted>
0.8812

> <Gold.Chemscore.Rot.Weighted>
6.7154

> <Gold.Chemscore.Internal.Correction.Weighted>
   9.000000E+99

> <Gold.Protein.RotatedTorsions>
[ 6907 6896 6895 6894 ] final -146.43 input  -60.11 | X-H torsion
[ 7974 7965 7964 7962 ] final   -5.97 input  175.53 | X-H torsion
[ 8008 7997 7996 7995 ] final   -6.80 input   59.86 | X-H torsion
[ 10167 10162 10161 10158 ] final  151.02 input  -65.29 | X-H torsion
[ 10718 10713 10712 10709 ] final    0.70 input   66.30 | X-H torsion
[ 10763 10752 10751 10750 ] final   35.56 input  -60.55 | X-H torsion
[ 11005 11000 10999 10996 ] final   15.52 input  -57.11 | X-H torsion

> <Gold.Protein.ActiveResidues>
 VAL166  LYS551  ARG553  GLY616  TRP617  ASP618  TYR619  PRO620  LYS621  CYS622 
 ASP623  PHE694  ASN695  SER759  ASP760  ASP761  ALA762  ILE779  LEU786  VAL792 
 PHE793  MET794  SER795  GLU796  ALA797  LYS798  CYS799  TRP800  GLU811  SER814 

> <Gold.Protein.RotatedAtoms>
  151.1416  133.4968  159.2596 H   0  0  0  0  0  0  0  0  0  0  0  0  # atno 6907 bound_to 6896
  151.1649  135.0290  159.8736 H   0  0  0  0  0  0  0  0  0  0  0  0  # atno 6908 bound_to 6896
  152.5462  134.1285  159.8482 H   0  0  0  0  0  0  0  0  0  0  0  0  # atno 6909 bound_to 6896
  146.2341  140.2100  142.8335 H   0  0  0  0  0  0  0  0  0  0  0  0  # atno 7974 bound_to 7965
  154.5901  140.2423  155.7932 H   0  0  0  0  0  0  0  0  0  0  0  0  # atno 8008 bound_to 7997
  156.2241  140.2988  155.9978 H   0  0  0  0  0  0  0  0  0  0  0  0  # atno 8009 bound_to 7997
  155.2389  140.0406  157.2963 H   0  0  0  0  0  0  0  0  0  0  0  0  # atno 8010 bound_to 7997
  139.4844  144.5475  151.7459 H   0  0  0  0  0  0  0  0  0  0  0  0  # atno 10167 bound_to 10162
  156.8372  130.5509  149.5681 H   0  0  0  0  0  0  0  0  0  0  0  0  # atno 10718 bound_to 10713
  153.0114  135.6330  154.1847 H   0  0  0  0  0  0  0  0  0  0  0  0  # atno 10763 bound_to 10752
  154.1588  135.2824  155.3116 H   0  0  0  0  0  0  0  0  0  0  0  0  # atno 10764 bound_to 10752
  154.5997  135.5591  153.7422 H   0  0  0  0  0  0  0  0  0  0  0  0  # atno 10765 bound_to 10752
  140.4574  134.1162  155.7711 H   0  0  0  0  0  0  0  0  0  0  0  0  # atno 11005 bound_to 11000
  144.9714  140.8372  143.5453 LP  0  0  0  0  0  0  0  0  0  0  0  0  # atno 17320 bound_to 7965
  145.2082  139.2218  143.5157 LP  0  0  0  0  0  0  0  0  0  0  0  0  # atno 17321 bound_to 7965
  140.5024  144.1149  150.5974 LP  0  0  0  0  0  0  0  0  0  0  0  0  # atno 17342 bound_to 10162
  140.4047  143.2686  151.9905 LP  0  0  0  0  0  0  0  0  0  0  0  0  # atno 17343 bound_to 10162
  156.0900  130.5889  150.9717 LP  0  0  0  0  0  0  0  0  0  0  0  0  # atno 17370 bound_to 10713
  157.6375  131.0914  150.8319 LP  0  0  0  0  0  0  0  0  0  0  0  0  # atno 17371 bound_to 10713
  141.1637  133.8744  157.1776 LP  0  0  0  0  0  0  0  0  0  0  0  0  # atno 17394 bound_to 11000
  139.9967  135.0044  157.0099 LP  0  0  0  0  0  0  0  0  0  0  0  0  # atno 17395 bound_to 11000

$$$$
