#       Name:                AV-unprocessed.smi:981
#       Creating user name   scv26
#       Creation time:       Fri Mar 27 02:22:05 2020


#       File generated by GOLD software.
#

@<TRIPOS>MOLECULE
AV-unprocessed.smi:981
    39    40     1
SMALL
NO_CHARGES


@<TRIPOS>ATOM
      1 ****        -4.8550   1.2876  -0.9236 C.3            1 S1                 0.0000
      2 ****        -4.8152   0.7372   0.5093 C.3            1 S1                 0.0000
      3 ****        -4.8440   1.8383   1.5794 C.3            1 S1                 0.0000
      4 ****        -3.6815  -0.2180   0.7145 C.2            1 S1                 0.0000
      5 ****        -2.3933   0.1298   0.6354 N.2            1 S1                 0.0000
      6 ****        -1.5279  -0.9437   0.8669 C.2            1 S1                 0.0000
      7 ****        -0.0451  -0.7346   0.8116 C.3            1 S1                 0.0000
      8 ****         0.4818  -0.6899  -0.6293 C.3            1 S1                 0.0000
      9 ****         1.9238  -0.4879  -0.6421 N.am           1 S1                 0.0000
     10 ****         2.6785  -0.4625  -1.7520 C.2            1 S1                 0.0000
     11 ****         2.2205  -0.6226  -2.8820 O.2            1 S1                 0.0000
     12 ****         3.9927  -0.2661  -1.5420 N.am           1 S1                 0.0000
     13 ****         5.0429  -0.1900  -2.5136 C.3            1 S1                 0.0000
     14 ****         6.4394  -0.5474  -2.0519 C.3            1 S1                 0.0000
     15 ****         6.0912   0.8873  -2.3370 C.3            1 S1                 0.0000
     16 ****        -2.1838  -2.1213   1.1246 C.2            1 S1                 0.0000
     17 ****        -3.9140  -1.9231   1.0863 S.3            1 S1                 0.0000
     18 ****        -4.9167   0.4789  -1.6524 H              1 S1                 0.0000
     19 ****        -3.9625   1.8721  -1.1493 H              1 S1                 0.0000
     20 ****        -5.7211   1.9328  -1.0724 H              1 S1                 0.0000
     21 ****        -5.7305   0.1588   0.6406 H              1 S1                 0.0000
     22 ****        -4.8979   1.4104   2.5809 H              1 S1                 0.0000
     23 ****        -5.7097   2.4885   1.4510 H              1 S1                 0.0000
     24 ****        -3.9505   2.4617   1.5310 H              1 S1                 0.0000
     25 ****         0.2167   0.1920   1.3244 H              1 S1                 0.0000
     26 ****         0.4615  -1.5314   1.3580 H              1 S1                 0.0000
     27 ****         0.2403  -1.6211  -1.1446 H              1 S1                 0.0000
     28 ****         0.0015   0.1195  -1.1815 H              1 S1                 0.0000
     29 ****         2.3788  -0.3544   0.2493 H              1 S1                 0.0000
     30 ****         4.2855  -0.1986  -0.5779 H              1 S1                 0.0000
     31 ****         4.8119  -0.4726  -3.5395 H              1 S1                 0.0000
     32 ****         6.5759  -0.8329  -1.0105 H              1 S1                 0.0000
     33 ****         7.0869  -1.0571  -2.7623 H              1 S1                 0.0000
     34 ****         6.5061   1.3355  -3.2375 H              1 S1                 0.0000
     35 ****         5.9919   1.5591  -1.4863 H              1 S1                 0.0000
     36 ****        -1.7553  -3.0905   1.3323 H              1 S1                 0.0000
     37 ****        -2.0819   1.0582   0.4324 LP             1 S1                 0.0000
     38 ****         1.2411  -0.7811  -3.0067 LP             1 S1                 0.0000
     39 ****         2.8276  -0.5942  -3.6762 LP             1 S1                 0.0000
@<TRIPOS>BOND
    1    1    2 1     
    2    1   18 1     
    3    1   19 1     
    4    1   20 1     
    5    2    3 1     
    6    2    4 1     
    7    2   21 1     
    8    3   22 1     
    9    3   23 1     
   10    3   24 1     
   11    4   17 1     
   12    4    5 2     
   13    5    6 1     
   14    6    7 1     
   15    6   16 2     
   16    7    8 1     
   17    7   25 1     
   18    7   26 1     
   19    8    9 1     
   20    8   27 1     
   21    8   28 1     
   22    9   10 am    
   23    9   29 1     
   24   10   11 2     
   25   10   12 am    
   26   12   13 1     
   27   12   30 1     
   28   13   15 1     
   29   13   14 1     
   30   13   31 1     
   31   14   15 1     
   32   14   32 1     
   33   14   33 1     
   34   15   34 1     
   35   15   35 1     
   36   16   17 1     
   37   16   36 1     
   38    5   37 1     
   39   11   38 1     
   40   11   39 1     
@<TRIPOS>SUBSTRUCTURE
      1 S1             1
@<TRIPOS>SET
LONE_PAIRS      STATIC     ATOMS    <user>   **** ""
3 37 38 39
DONOR_HYDROGENS      STATIC     ATOMS    <user>   **** ""
2 29 30
ATOM$BLUE        STATIC     ATOMS    COLORGROUP SYSTEM
3 37 38 39
ATOM$RED        STATIC     ATOMS    COLORGROUP SYSTEM
2 29 30
