#       Name:                AV-unprocessed.smi:811
#       Creating user name   scv26
#       Creation time:       Fri Mar 27 01:25:15 2020


#       File generated by GOLD software.
#

@<TRIPOS>MOLECULE
AV-unprocessed.smi:811
    52    54     1
SMALL
NO_CHARGES


@<TRIPOS>ATOM
      1 ****        -5.7564  -4.1149  -2.8368 C.3            1 S1                 0.0000
      2 ****        -5.1929  -2.8437  -2.3380 N.4            1 S1                 1.0000
      3 ****        -5.5062  -2.5416  -0.9213 C.3            1 S1                 0.0000
      4 ****        -4.2617  -1.8593  -0.3277 C.3            1 S1                 0.0000
      5 ****        -3.3605  -1.5902  -1.5353 C.3            1 S1                 0.0000
      6 ****        -1.9336  -1.5781  -1.2310 N.am           1 S1                 0.0000
      7 ****        -1.2920  -0.5560  -0.6481 C.2            1 S1                 0.0000
      8 ****        -1.8549   0.4786  -0.2909 O.2            1 S1                 0.0000
      9 ****         0.0163  -0.8230  -0.4930 N.am           1 S1                 0.0000
     10 ****         1.0310   0.0260   0.0258 C.ar           1 S1                 0.0000
     11 ****         2.2165  -0.5666   0.5019 C.ar           1 S1                 0.0000
     12 ****         3.2453   0.2547   1.0006 C.ar           1 S1                 0.0000
     13 ****         3.0680   1.6585   1.0033 C.ar           1 S1                 0.0000
     14 ****         4.0856   2.5044   1.4967 N.3            1 S1                 0.0000
     15 ****         4.5834   2.1854   2.8327 C.3            1 S1                 0.0000
     16 ****         5.8735   2.9705   3.1272 C.3            1 S1                 0.0000
     17 ****         5.6460   4.3632   2.9386 O.3            1 S1                 0.0000
     18 ****         5.2745   4.6605   1.5970 C.3            1 S1                 0.0000
     19 ****         3.9601   3.9405   1.2523 C.3            1 S1                 0.0000
     20 ****         1.9349   2.2287   0.5252 N.ar           1 S1                 0.0000
     21 ****         0.9491   1.4382   0.0518 C.ar           1 S1                 0.0000
     22 ****        -3.7319  -2.7228  -2.4873 C.3            1 S1                 0.0000
     23 ****        -5.3518  -4.9678  -2.2902 H              1 S1                 0.0000
     24 ****        -5.5246  -4.2442  -3.8944 H              1 S1                 0.0000
     25 ****        -6.8412  -4.1192  -2.7258 H              1 S1                 0.0000
     26 ****        -6.3789  -1.8894  -0.8782 H              1 S1                 0.0000
     27 ****        -5.7409  -3.4479  -0.3611 H              1 S1                 0.0000
     28 ****        -4.5051  -0.9469   0.2181 H              1 S1                 0.0000
     29 ****        -3.7702  -2.5404   0.3691 H              1 S1                 0.0000
     30 ****        -3.6475  -0.6418  -1.9952 H              1 S1                 0.0000
     31 ****        -1.3991  -2.3958  -1.4864 H              1 S1                 0.0000
     32 ****         0.3169  -1.7535  -0.7438 H              1 S1                 0.0000
     33 ****         2.3403  -1.6397   0.4871 H              1 S1                 0.0000
     34 ****         4.1586  -0.1983   1.3562 H              1 S1                 0.0000
     35 ****         3.8156   2.4428   3.5636 H              1 S1                 0.0000
     36 ****         4.7843   1.1212   2.9454 H              1 S1                 0.0000
     37 ****         6.1893   2.8000   4.1564 H              1 S1                 0.0000
     38 ****         6.6886   2.6341   2.4845 H              1 S1                 0.0000
     39 ****         5.1500   5.7384   1.4927 H              1 S1                 0.0000
     40 ****         6.0716   4.3646   0.9130 H              1 S1                 0.0000
     41 ****         3.7113   4.1254   0.2064 H              1 S1                 0.0000
     42 ****         3.1454   4.3405   1.8577 H              1 S1                 0.0000
     43 ****         0.0923   1.9689  -0.3331 H              1 S1                 0.0000
     44 ****        -3.2504  -3.6540  -2.1818 H              1 S1                 0.0000
     45 ****        -3.4499  -2.5138  -3.5199 H              1 S1                 0.0000
     46 ****        -5.5971  -2.0954  -2.8832 H              1 S1                 0.0000
     47 ****        -2.8391   0.5864  -0.4314 LP             1 S1                 0.0000
     48 ****        -1.3281   1.2113   0.1398 LP             1 S1                 0.0000
     49 ****         4.8197   2.2445   0.8693 LP             1 S1                 0.0000
     50 ****         6.4843   4.8612   3.1604 LP             1 S1                 0.0000
     51 ****         4.9118   4.6572   3.5506 LP             1 S1                 0.0000
     52 ****         1.8308   3.2233   0.5233 LP             1 S1                 0.0000
@<TRIPOS>BOND
    1    1    2 1     
    2    1   23 1     
    3    1   24 1     
    4    1   25 1     
    5    2   22 1     
    6    2    3 1     
    7    2   46 1     
    8    3    4 1     
    9    3   26 1     
   10    3   27 1     
   11    4    5 1     
   12    4   28 1     
   13    4   29 1     
   14    5    6 1     
   15    5   22 1     
   16    5   30 1     
   17    6    7 am    
   18    6   31 1     
   19    7    8 2     
   20    7    9 am    
   21    9   10 1     
   22    9   32 1     
   23   10   21 ar    
   24   10   11 ar    
   25   11   12 ar    
   26   11   33 1     
   27   12   13 ar    
   28   12   34 1     
   29   13   14 1     
   30   13   20 ar    
   31   14   19 1     
   32   14   15 1     
   33   15   16 1     
   34   15   35 1     
   35   15   36 1     
   36   16   17 1     
   37   16   37 1     
   38   16   38 1     
   39   17   18 1     
   40   18   19 1     
   41   18   39 1     
   42   18   40 1     
   43   19   41 1     
   44   19   42 1     
   45   20   21 ar    
   46   21   43 1     
   47   22   44 1     
   48   22   45 1     
   49    8   47 1     
   50    8   48 1     
   51   14   49 1     
   52   17   50 1     
   53   17   51 1     
   54   20   52 1     
@<TRIPOS>SUBSTRUCTURE
      1 S1             1
@<TRIPOS>SET
LONE_PAIRS      STATIC     ATOMS    <user>   **** ""
6 47 48 49 50 51 52
DONOR_HYDROGENS      STATIC     ATOMS    <user>   **** ""
3 46 31 32
ATOM$BLUE        STATIC     ATOMS    COLORGROUP SYSTEM
6 47 48 49 50 51 52
ATOM$RED        STATIC     ATOMS    COLORGROUP SYSTEM
3 46 31 32
