AV-unprocessed.smi:2821|AV-procd|sdf|10857|dock8
  -GOLD-   2272015303D 1   1.00000     0.00000
 Structure written by MMmdl.
 36 37  0  0  0  0  0  0  0  0  1 V2000
  154.4889  140.6661  161.7071 C   0  0  0  0  0  0  0  0  0  0  0  0
  153.5626  141.3153  160.6764 C   0  0  0  0  0  0  0  0  0  0  0  0
  153.2506  142.6368  161.1077 O   0  0  0  0  0  0  0  0  0  0  0  0
  152.4342  143.4083  160.3066 C   0  0  0  0  0  0  0  0  0  0  0  0
  152.2024  144.7595  160.6413 C   0  0  0  0  0  0  0  0  0  0  0  0
  151.4242  145.5611  159.8810 N   0  0  0  0  0  0  0  0  0  0  0  0
  150.8780  145.0049  158.7770 C   0  0  0  0  0  0  0  0  0  0  0  0
  151.0989  143.6537  158.4299 C   0  0  0  0  0  0  0  0  0  0  0  0
  150.5051  143.1361  157.2685 N   0  0  0  0  0  0  0  0  0  0  0  0
  150.9469  141.8844  156.6586 C   0  0  1  0  0  0  0  0  0  0  0  0
  150.8290  140.7594  157.6999 C   0  0  0  0  0  0  0  0  0  0  0  0
  150.1343  141.5694  155.3806 C   0  0  2  0  0  0  0  0  0  0  0  0
  148.6333  141.3834  155.6172 C   0  0  0  0  0  0  0  0  0  0  0  0
  148.2319  140.5240  154.4414 C   0  0  0  0  0  0  0  0  0  0  0  0
  149.4298  139.5901  154.3244 C   0  0  0  0  0  0  0  0  0  0  0  0
  150.5494  140.3367  154.7912 O   0  0  0  0  0  0  0  0  0  0  0  0
  151.8716  142.8546  159.2035 N   0  0  0  0  0  0  0  0  0  0  0  0
  154.7497  139.6502  161.4103 H   0  0  0  0  0  0  0  0  0  0  0  0
  154.0117  140.6170  162.6861 H   0  0  0  0  0  0  0  0  0  0  0  0
  155.4148  141.2321  161.8120 H   0  0  0  0  0  0  0  0  0  0  0  0
  154.0580  141.3382  159.7044 H   0  0  0  0  0  0  0  0  0  0  0  0
  152.6516  140.7229  160.5772 H   0  0  0  0  0  0  0  0  0  0  0  0
  152.6482  145.2007  161.5204 H   0  0  0  0  0  0  0  0  0  0  0  0
  150.2600  145.6463  158.1657 H   0  0  0  0  0  0  0  0  0  0  0  0
  149.8365  143.7020  156.7665 H   0  0  0  0  0  0  0  0  0  0  0  0
  152.0017  141.9651  156.3939 H   0  0  0  0  0  0  0  0  0  0  0  0
  151.2196  139.8160  157.3185 H   0  0  0  0  0  0  0  0  0  0  0  0
  149.7916  140.5959  157.9939 H   0  0  0  0  0  0  0  0  0  0  0  0
  151.3958  140.9991  158.6003 H   0  0  0  0  0  0  0  0  0  0  0  0
  150.2798  142.3552  154.6375 H   0  0  0  0  0  0  0  0  0  0  0  0
  148.4550  140.8441  156.5488 H   0  0  0  0  0  0  0  0  0  0  0  0
  148.0879  142.3267  155.6575 H   0  0  0  0  0  0  0  0  0  0  0  0
  147.2909  139.9951  154.5946 H   0  0  0  0  0  0  0  0  0  0  0  0
  148.1415  141.1364  153.5432 H   0  0  0  0  0  0  0  0  0  0  0  0
  149.3012  138.7206  154.9703 H   0  0  0  0  0  0  0  0  0  0  0  0
  149.5833  139.2360  153.3049 H   0  0  0  0  0  0  0  0  0  0  0  0
  1  2  1  0  0  0  0
  1 18  1  0  0  0  0
  1 19  1  0  0  0  0
  1 20  1  0  0  0  0
  2  3  1  0  0  0  0
  2 21  1  0  0  0  0
  2 22  1  0  0  0  0
  3  4  1  0  0  0  0
  4 17  1  0  0  0  0
  4  5  2  0  0  0  0
  5  6  1  0  0  0  0
  5 23  1  0  0  0  0
  6  7  2  0  0  0  0
  7  8  1  0  0  0  0
  7 24  1  0  0  0  0
  8  9  1  0  0  0  0
  8 17  2  0  0  0  0
  9 10  1  0  0  0  0
  9 25  1  0  0  0  0
 10 11  1  0  0  0  0
 10 12  1  0  0  0  0
 10 26  1  0  0  0  0
 11 27  1  0  0  0  0
 11 28  1  0  0  0  0
 11 29  1  0  0  0  0
 12 16  1  0  0  0  0
 12 13  1  0  0  0  0
 12 30  1  0  0  0  0
 13 14  1  0  0  0  0
 13 31  1  0  0  0  0
 13 32  1  0  0  0  0
 14 15  1  0  0  0  0
 14 33  1  0  0  0  0
 14 34  1  0  0  0  0
 15 16  1  0  0  0  0
 15 35  1  0  0  0  0
 15 36  1  0  0  0  0
M  END
> <s_m_source_file>
AV-unprocessed.smi

> <i_m_source_file_index>
2821

> <i_lp_mmshare_version>
43012

> <i_f3d_flags>
0

> <s_epik_input>
W0NIM11bQ0gyXU9jMVtjSF1uW2NIXWMobjEpW05IXVtDQEhdKFtDSDNdKVtDQEBIXTJbQ0gyXVtDSDJdW0NIMl1PMg==

> <s_epik_cmdline>
J2VwaWtfcHl0aG9uJywgJy1waCcsICc3LjAnLCAnLXRuJywgJzgnLCAnLW1hJywgJzIwMCcsICctbWV0YWxfYmluZGluZycsICctaW1hZScsICc8aW5maWxlLm1hZT4nLCAnLW9tYWUnLCAnPG91dGZpbGUubWFlPic=

> <r_lp_tautomer_probability>
1

> <r_epik_Ionization_Penalty>
4.69533e-05

> <r_epik_Ionization_Penalty_Charging>
0

> <r_epik_Ionization_Penalty_Neutral>
4.69533e-05

> <r_epik_State_Penalty>
-0

> <r_epik_Charging_Adjusted_Penalty>
0

> <i_epik_Tot_Q>
0

> <i_epik_Tot_abs_Q>
0

> <r_epik_Metal_State_Penalty>
-0

> <b_epik_Metal_Only>
0

> <s_lp_Force_Field>
OPLS_2005

> <r_lp_Energy>
28.2268

> <b_lp_Chiralities_Consistent>
1

> <s_lp_Variant>
AV-unprocessed.smi:2821-2

> <Gold.Version>
5.8.1

> <Gold.Id.Protein>
6NUR|6NUR_protein|mol2

> <Gold.PLP.Fitness>
45.4466

> <Gold.PLP.PLP>
-36.6131

> <Gold.PLP.part.hbond>
-2.1199

> <Gold.PLP.part.metal>
0.0000

> <Gold.PLP.part.buried>
-6.7522

> <Gold.PLP.part.nonpolar>
-28.1718

> <Gold.PLP.part.repulsive>
0.2736

> <Gold.PLP.ligand.clash>
0.0000

> <Gold.PLP.ligand.torsion>
0.0948

> <Gold.PLP.Chemscore.Hbond>
2.0000

> <Gold.PLP.Chemscore.CHOScore>
1.0000

> <Gold.PLP.Chemscore.Metal>
0.0000

> <Gold.Chemscore.Hbonds>
donor molecule, donor type, donor heavy atom, donor atom, acceptor molecule, acceptor atom, score
      L1  H     9    25       P1  8028  1.00
      P1  H  7989  7998       L1    16  1.00
      L1  C     7    24       P1  8029  1.00

> <Gold.PLP.Chemscore.Internal.Correction>
0.0230

> <Gold.Rescore>
     Score         DG    S(hbond)    S(metal)    S(lipo)     H(rot)  DE(clash)    DE(int)     intcor
     14.86     -16.66       1.77        0.00      78.99       1.55       0.33       1.47       ----

> <Gold.Chemscore.Fitness>
14.8588

> <Gold.Chemscore.DG>
-16.6562

> <Gold.Chemscore.ZeroCoef>
-5.4800

> <Gold.Chemscore.Hbond>
1.7683

> <Gold.Chemscore.Metal>
0.0000

> <Gold.Chemscore.Lipo>
78.9880

> <Gold.Chemscore.Internal_Hbond>
0.0000

> <Gold.Chemscore.DEClash>
0.3278

> <Gold.Chemscore.DEInternal>
1.4696

> <Gold.Chemscore.Rot>
1.5514

> <Gold.Chemscore.Internal.Correction>
   9.000000E+99

> <Gold.Chemscore.Hbonds>
donor molecule, donor type, donor heavy atom, donor atom, acceptor molecule, acceptor atom, score
      L1  H     9    25       P1  8028  1.00
      P1  H  7989  7998       L1    16  0.30

> <Gold.Chemscore.Hbond.Weighted>
-5.9061

> <Gold.Chemscore.Metal.Weighted>
-0.0000

> <Gold.Chemscore.Lipo.Weighted>
-9.2416

> <Gold.Chemscore.Internal_Hbond.Weighted>
0.0000

> <Gold.Chemscore.DEClash.Weighted>
0.3278

> <Gold.Chemscore.DEInternal.Weighted>
1.4696

> <Gold.Chemscore.Rot.Weighted>
3.9715

> <Gold.Chemscore.Internal.Correction.Weighted>
   9.000000E+99

> <Gold.Protein.RotatedTorsions>
[ 6907 6896 6895 6894 ] final  -49.48 input  -60.11 | X-H torsion
[ 7974 7965 7964 7962 ] final   93.77 input  175.53 | X-H torsion
[ 8008 7997 7996 7995 ] final   12.97 input   59.86 | X-H torsion
[ 10167 10162 10161 10158 ] final  131.30 input  -65.29 | X-H torsion
[ 10718 10713 10712 10709 ] final -124.80 input   66.30 | X-H torsion
[ 10763 10752 10751 10750 ] final  -72.93 input  -60.55 | X-H torsion
[ 11005 11000 10999 10996 ] final   91.99 input  -57.11 | X-H torsion

> <Gold.Protein.ActiveResidues>
 VAL166  LYS551  ARG553  GLY616  TRP617  ASP618  TYR619  PRO620  LYS621  CYS622 
 ASP623  PHE694  ASN695  SER759  ASP760  ASP761  ALA762  ILE779  LEU786  VAL792 
 PHE793  MET794  SER795  GLU796  ALA797  LYS798  CYS799  TRP800  GLU811  SER814 

> <Gold.Protein.RotatedAtoms>
  150.8801  134.8190  159.7218 H   0  0  0  0  0  0  0  0  0  0  0  0  # atno 6907 bound_to 6896
  152.4772  134.4810  159.9675 H   0  0  0  0  0  0  0  0  0  0  0  0  # atno 6908 bound_to 6896
  151.4886  133.3491  159.2885 H   0  0  0  0  0  0  0  0  0  0  0  0  # atno 6909 bound_to 6896
  145.4745  139.2280  143.2916 H   0  0  0  0  0  0  0  0  0  0  0  0  # atno 7974 bound_to 7965
  154.8280  140.2895  155.5741 H   0  0  0  0  0  0  0  0  0  0  0  0  # atno 8008 bound_to 7997
  156.3003  140.2537  156.3131 H   0  0  0  0  0  0  0  0  0  0  0  0  # atno 8009 bound_to 7997
  154.9263  140.0384  157.2014 H   0  0  0  0  0  0  0  0  0  0  0  0  # atno 8010 bound_to 7997
  139.5390  144.6712  151.4688 H   0  0  0  0  0  0  0  0  0  0  0  0  # atno 10167 bound_to 10162
  156.1619  130.6608  151.0061 H   0  0  0  0  0  0  0  0  0  0  0  0  # atno 10718 bound_to 10713
  154.4524  135.5914  153.6201 H   0  0  0  0  0  0  0  0  0  0  0  0  # atno 10763 bound_to 10752
  152.9815  135.6024  154.3588 H   0  0  0  0  0  0  0  0  0  0  0  0  # atno 10764 bound_to 10752
  154.3450  135.2841  155.2381 H   0  0  0  0  0  0  0  0  0  0  0  0  # atno 10765 bound_to 10752
  139.8830  134.8707  156.3508 H   0  0  0  0  0  0  0  0  0  0  0  0  # atno 11005 bound_to 11000
  146.2377  140.5527  142.8947 LP  0  0  0  0  0  0  0  0  0  0  0  0  # atno 17320 bound_to 7965
  144.7925  140.6059  143.6532 LP  0  0  0  0  0  0  0  0  0  0  0  0  # atno 17321 bound_to 7965
  140.6611  143.8496  150.6889 LP  0  0  0  0  0  0  0  0  0  0  0  0  # atno 17342 bound_to 10162
  140.1891  143.4051  152.1876 LP  0  0  0  0  0  0  0  0  0  0  0  0  # atno 17343 bound_to 10162
  157.6739  131.0855  150.7544 LP  0  0  0  0  0  0  0  0  0  0  0  0  # atno 17370 bound_to 10713
  156.7606  130.4797  149.5437 LP  0  0  0  0  0  0  0  0  0  0  0  0  # atno 17371 bound_to 10713
  140.9595  133.7398  156.0382 LP  0  0  0  0  0  0  0  0  0  0  0  0  # atno 17394 bound_to 11000
  140.8007  134.3512  157.5440 LP  0  0  0  0  0  0  0  0  0  0  0  0  # atno 17395 bound_to 11000

$$$$
