AV-unprocessed.smi:1641|AV-procd|sdf|6559|dock8
  -GOLD-   22720 7243D 1   1.00000     0.00000
 Structure written by MMmdl.
 42 43  0  0  0  0  0  0  0  0  2 V2000
  150.4774  142.1732  157.4920 C   0  0  0  0  0  0  0  0  0  0  0  0
  150.3534  141.2882  156.2993 C   0  0  0  0  0  0  0  0  0  0  0  0
  151.3971  140.6433  155.7638 N   0  0  0  0  0  0  0  0  0  0  0  0
  151.0359  139.8824  154.6605 N   0  0  0  0  0  0  0  0  0  0  0  0
  149.7259  139.9783  154.3950 C   0  0  0  0  0  0  0  0  0  0  0  0
  149.0876  139.3056  153.3194 N   0  0  0  0  0  0  0  0  0  0  0  0
  147.7705  139.1904  153.0747 C   0  0  0  0  0  0  0  0  0  0  0  0
  146.8717  139.6773  153.7609 O   0  0  0  0  0  0  0  0  0  0  0  0
  147.5411  138.4643  151.9708 N   0  0  0  0  0  0  0  0  0  0  0  0
  146.2188  138.1602  151.4361 C   0  0  0  0  0  0  0  0  0  0  0  0
  145.5075  137.0733  152.2658 C   0  0  0  0  0  0  0  0  0  0  0  0
  146.1755  135.7522  152.1621 N   0  3  1  0  0  0  0  0  0  0  0  0
  146.1871  135.0229  153.4525 C   0  0  0  0  0  0  0  0  0  0  0  0
  146.9414  133.6868  153.3130 C   0  0  1  0  0  0  0  0  0  0  0  0
  146.9089  132.8641  154.6055 C   0  0  0  0  0  0  0  0  0  0  0  0
  146.3327  132.9158  152.2835 O   0  0  0  0  0  0  0  0  0  0  0  0
  146.3877  133.5574  151.0144 C   0  0  1  0  0  0  0  0  0  0  0  0
  145.7923  132.6040  149.9728 C   0  0  0  0  0  0  0  0  0  0  0  0
  145.6191  134.8901  151.0901 C   0  0  0  0  0  0  0  0  0  0  0  0
  148.8193  141.0168  155.4818 S   0  0  0  0  0  0  0  0  0  0  0  0
  151.3578  141.9055  158.0771 H   0  0  0  0  0  0  0  0  0  0  0  0
  149.5959  142.0747  158.1256 H   0  0  0  0  0  0  0  0  0  0  0  0
  150.5683  143.2125  157.1759 H   0  0  0  0  0  0  0  0  0  0  0  0
  149.7082  138.8567  152.6621 H   0  0  0  0  0  0  0  0  0  0  0  0
  148.3353  138.1044  151.4614 H   0  0  0  0  0  0  0  0  0  0  0  0
  145.6342  139.0796  151.3953 H   0  0  0  0  0  0  0  0  0  0  0  0
  146.3386  137.8225  150.4062 H   0  0  0  0  0  0  0  0  0  0  0  0
  145.5063  137.3923  153.3093 H   0  0  0  0  0  0  0  0  0  0  0  0
  144.4608  136.9751  151.9734 H   0  0  0  0  0  0  0  0  0  0  0  0
  146.6661  135.6353  154.2176 H   0  0  0  0  0  0  0  0  0  0  0  0
  145.1609  134.8461  153.7786 H   0  0  0  0  0  0  0  0  0  0  0  0
  147.9834  133.8779  153.0500 H   0  0  0  0  0  0  0  0  0  0  0  0
  147.3772  133.4048  155.4283 H   0  0  0  0  0  0  0  0  0  0  0  0
  147.4450  131.9230  154.4802 H   0  0  0  0  0  0  0  0  0  0  0  0
  145.8856  132.6280  154.8987 H   0  0  0  0  0  0  0  0  0  0  0  0
  147.4302  133.7483  150.7531 H   0  0  0  0  0  0  0  0  0  0  0  0
  145.8164  133.0455  148.9763 H   0  0  0  0  0  0  0  0  0  0  0  0
  144.7554  132.3610  150.2067 H   0  0  0  0  0  0  0  0  0  0  0  0
  146.3525  131.6694  149.9354 H   0  0  0  0  0  0  0  0  0  0  0  0
  144.5616  134.7036  151.2853 H   0  0  0  0  0  0  0  0  0  0  0  0
  145.6807  135.3946  150.1263 H   0  0  0  0  0  0  0  0  0  0  0  0
  147.1418  135.9320  151.9293 H   0  0  0  0  0  0  0  0  0  0  0  0
  1  2  1  0  0  0  0
  1 21  1  0  0  0  0
  1 22  1  0  0  0  0
  1 23  1  0  0  0  0
  2 20  1  0  0  0  0
  2  3  2  0  0  0  0
  3  4  1  0  0  0  0
  4  5  2  0  0  0  0
  5  6  1  0  0  0  0
  5 20  1  0  0  0  0
  6  7  1  0  0  0  0
  6 24  1  0  0  0  0
  7  8  2  0  0  0  0
  7  9  1  0  0  0  0
  9 10  1  0  0  0  0
  9 25  1  0  0  0  0
 10 11  1  0  0  0  0
 10 26  1  0  0  0  0
 10 27  1  0  0  0  0
 11 12  1  0  0  0  0
 11 28  1  0  0  0  0
 11 29  1  0  0  0  0
 12 19  1  0  0  0  0
 12 13  1  0  0  0  0
 12 42  1  0  0  0  0
 13 14  1  0  0  0  0
 13 30  1  0  0  0  0
 13 31  1  0  0  0  0
 14 15  1  0  0  0  0
 14 16  1  0  0  0  0
 14 32  1  0  0  0  0
 15 33  1  0  0  0  0
 15 34  1  0  0  0  0
 15 35  1  0  0  0  0
 16 17  1  0  0  0  0
 17 18  1  0  0  0  0
 17 19  1  0  0  0  0
 17 36  1  0  0  0  0
 18 37  1  0  0  0  0
 18 38  1  0  0  0  0
 18 39  1  0  0  0  0
 19 40  1  0  0  0  0
 19 41  1  0  0  0  0
M  CHG  1  12   1
M  END
> <s_m_source_file>
AV-unprocessed.smi

> <i_m_source_file_index>
1641

> <i_lp_mmshare_version>
43012

> <i_f3d_flags>
0

> <s_epik_input>
W0NIM11jMW5uYyhzMSlbTkhdQyg9TylbTkhdW0NIMl1bQ0gyXU4yW0NIMl1bQ0BASF0oW0NIM10pT1tDQEBIXShbQ0gzXSlbQ0gyXTI=

> <s_epik_cmdline>
J2VwaWtfcHl0aG9uJywgJy1waCcsICc3LjAnLCAnLXRuJywgJzgnLCAnLW1hJywgJzIwMCcsICctbWV0YWxfYmluZGluZycsICctaW1hZScsICc8aW5maWxlLm1hZT4nLCAnLW9tYWUnLCAnPG91dGZpbGUubWFlPic=

> <r_lp_tautomer_probability>
1

> <r_epik_Ionization_Penalty>
0.700114

> <r_epik_Ionization_Penalty_Charging>
0.695697

> <r_epik_Ionization_Penalty_Neutral>
0.00441638

> <r_epik_State_Penalty>
0.717972

> <r_epik_Charging_Adjusted_Penalty>
1.41367

> <i_epik_Tot_Q>
1

> <i_epik_Tot_abs_Q>
1

> <r_epik_Metal_State_Penalty>
1.06958

> <b_epik_Metal_Only>
0

> <s_lp_Force_Field>
OPLS_2005

> <r_lp_Energy>
12.6792

> <b_lp_Chiralities_Consistent>
1

> <s_lp_Variant>
AV-unprocessed.smi:1641-4

> <Gold.Version>
5.8.1

> <Gold.Id.Protein>
6NUR|6NUR_protein|mol2

> <Gold.PLP.Fitness>
40.8008

> <Gold.PLP.PLP>
-31.4872

> <Gold.PLP.part.hbond>
-5.0986

> <Gold.PLP.part.metal>
0.0000

> <Gold.PLP.part.buried>
-1.3623

> <Gold.PLP.part.nonpolar>
-26.2483

> <Gold.PLP.part.repulsive>
0.6259

> <Gold.PLP.ligand.clash>
0.0000

> <Gold.PLP.ligand.torsion>
0.6168

> <Gold.PLP.Chemscore.Hbond>
3.5120

> <Gold.PLP.Chemscore.CHOScore>
0.0000

> <Gold.PLP.Chemscore.Metal>
0.0000

> <Gold.Chemscore.Hbonds>
donor molecule, donor type, donor heavy atom, donor atom, acceptor molecule, acceptor atom, score
      L1  H     6    24       P1  7957  0.06
      L1  H     9    25       P1  7948  0.40
      L1  H    12    42       P1  7948  2.00
      P1  H  7989  7998       L1     4  0.90

> <Gold.PLP.Chemscore.Internal.Correction>
0.0111

> <Gold.Rescore>
     Score         DG    S(hbond)    S(metal)    S(lipo)     H(rot)  DE(clash)    DE(int)     intcor
     13.21     -15.21       2.19        0.00      56.42       1.64       0.24       1.76       ----

> <Gold.Chemscore.Fitness>
13.2131

> <Gold.Chemscore.DG>
-15.2075

> <Gold.Chemscore.ZeroCoef>
-5.4800

> <Gold.Chemscore.Hbond>
2.1897

> <Gold.Chemscore.Metal>
0.0000

> <Gold.Chemscore.Lipo>
56.4232

> <Gold.Chemscore.Internal_Hbond>
0.0000

> <Gold.Chemscore.DEClash>
0.2365

> <Gold.Chemscore.DEInternal>
1.7579

> <Gold.Chemscore.Rot>
1.6358

> <Gold.Chemscore.Internal.Correction>
   9.000000E+99

> <Gold.Chemscore.Hbonds>
donor molecule, donor type, donor heavy atom, donor atom, acceptor molecule, acceptor atom, score
      L1  H     6    24       P1  7957  0.07
      L1  H     9    25       P1  7948  0.39
      L1  H    12    42       P1  7948  1.00
      P1  H  7989  7998       L1     4  0.05

> <Gold.Chemscore.Hbond.Weighted>
-7.3137

> <Gold.Chemscore.Metal.Weighted>
-0.0000

> <Gold.Chemscore.Lipo.Weighted>
-6.6015

> <Gold.Chemscore.Internal_Hbond.Weighted>
0.0000

> <Gold.Chemscore.DEClash.Weighted>
0.2365

> <Gold.Chemscore.DEInternal.Weighted>
1.7579

> <Gold.Chemscore.Rot.Weighted>
4.1878

> <Gold.Chemscore.Internal.Correction.Weighted>
   9.000000E+99

> <Gold.Protein.RotatedTorsions>
[ 6907 6896 6895 6894 ] final  -50.64 input  -60.11 | X-H torsion
[ 7974 7965 7964 7962 ] final   -2.15 input  175.53 | X-H torsion
[ 8008 7997 7996 7995 ] final  167.76 input   59.86 | X-H torsion
[ 10167 10162 10161 10158 ] final  -89.10 input  -65.29 | X-H torsion
[ 10718 10713 10712 10709 ] final  177.96 input   66.30 | X-H torsion
[ 10763 10752 10751 10750 ] final   67.27 input  -60.55 | X-H torsion
[ 11005 11000 10999 10996 ] final -135.55 input  -57.11 | X-H torsion

> <Gold.Protein.ActiveResidues>
 VAL166  LYS551  ARG553  GLY616  TRP617  ASP618  TYR619  PRO620  LYS621  CYS622 
 ASP623  PHE694  ASN695  SER759  ASP760  ASP761  ALA762  ILE779  LEU786  VAL792 
 PHE793  MET794  SER795  GLU796  ALA797  LYS798  CYS799  TRP800  GLU811  SER814 

> <Gold.Protein.RotatedAtoms>
  150.8688  134.8057  159.7138 H   0  0  0  0  0  0  0  0  0  0  0  0  # atno 6907 bound_to 6896
  152.4700  134.4981  159.9726 H   0  0  0  0  0  0  0  0  0  0  0  0  # atno 6908 bound_to 6896
  151.5072  133.3454  159.2914 H   0  0  0  0  0  0  0  0  0  0  0  0  # atno 6909 bound_to 6896
  146.2408  140.1527  142.8333 H   0  0  0  0  0  0  0  0  0  0  0  0  # atno 7974 bound_to 7965
  156.1606  140.1608  156.8619 H   0  0  0  0  0  0  0  0  0  0  0  0  # atno 8008 bound_to 7997
  154.5157  140.0790  156.8112 H   0  0  0  0  0  0  0  0  0  0  0  0  # atno 8009 bound_to 7997
  155.3715  140.3400  155.4245 H   0  0  0  0  0  0  0  0  0  0  0  0  # atno 8010 bound_to 7997
  140.3681  143.2808  151.9533 H   0  0  0  0  0  0  0  0  0  0  0  0  # atno 10167 bound_to 10162
  156.8977  130.9868  151.3040 H   0  0  0  0  0  0  0  0  0  0  0  0  # atno 10718 bound_to 10713
  153.0178  135.5290  154.6953 H   0  0  0  0  0  0  0  0  0  0  0  0  # atno 10763 bound_to 10752
  154.6076  135.2875  155.0469 H   0  0  0  0  0  0  0  0  0  0  0  0  # atno 10764 bound_to 10752
  154.1503  135.6564  153.5014 H   0  0  0  0  0  0  0  0  0  0  0  0  # atno 10765 bound_to 10752
  140.8887  134.1839  157.4542 H   0  0  0  0  0  0  0  0  0  0  0  0  # atno 11005 bound_to 11000
  145.0154  140.8749  143.5199 LP  0  0  0  0  0  0  0  0  0  0  0  0  # atno 17320 bound_to 7965
  145.1567  139.2482  143.5413 LP  0  0  0  0  0  0  0  0  0  0  0  0  # atno 17321 bound_to 7965
  139.4806  144.5932  151.7736 LP  0  0  0  0  0  0  0  0  0  0  0  0  # atno 17342 bound_to 10162
  140.5060  144.1097  150.5983 LP  0  0  0  0  0  0  0  0  0  0  0  0  # atno 17343 bound_to 10162
  157.6045  130.8537  149.8854 LP  0  0  0  0  0  0  0  0  0  0  0  0  # atno 17370 bound_to 10713
  156.0597  130.3702  150.1009 LP  0  0  0  0  0  0  0  0  0  0  0  0  # atno 17371 bound_to 10713
  139.8727  134.9849  156.5260 LP  0  0  0  0  0  0  0  0  0  0  0  0  # atno 17394 bound_to 11000
  140.8373  133.8232  155.9041 LP  0  0  0  0  0  0  0  0  0  0  0  0  # atno 17395 bound_to 11000

$$$$
