#       Name:                AV-unprocessed.smi:1936
#       Creating user name   scv26
#       Creation time:       Fri Mar 27 09:57:59 2020


#       File generated by GOLD software.
#

@<TRIPOS>MOLECULE
AV-unprocessed.smi:1936
    44    45     1
SMALL
NO_CHARGES


@<TRIPOS>ATOM
      1 ****        -1.9090  -0.7618  -3.3332 C.3            1 S1                 0.0000
      2 ****        -1.3284  -0.0623  -2.0970 C.3            1 S1                 0.0000
      3 ****        -1.9221  -0.6339  -0.7889 C.3            1 S1                 0.0000
      4 ****        -1.3124  -0.0387   0.4278 N.4            1 S1                 1.0000
      5 ****        -1.8493   1.3014   0.7640 C.3            1 S1                 0.0000
      6 ****        -1.0994   1.8822   1.9735 C.3            1 S1                 0.0000
      7 ****        -1.2154   0.9906   3.0761 O.3            1 S1                 0.0000
      8 ****        -0.6386  -0.2794   2.7977 C.3            1 S1                 0.0000
      9 ****        -1.3650  -0.9310   1.6085 C.3            1 S1                 0.0000
     10 ****         0.1273  -0.2015  -2.1004 N.am           1 S1                 0.0000
     11 ****         1.0111   0.7459  -1.7477 C.2            1 S1                 0.0000
     12 ****         0.6981   1.9026  -1.4676 O.2            1 S1                 0.0000
     13 ****         2.4667   0.2987  -1.6305 C.3            1 S1                 0.0000
     14 ****         2.7469  -0.1576  -0.2801 N.pl3          1 S1                 0.0000
     15 ****         3.3408   0.5375   0.7525 C.2            1 S1                 0.0000
     16 ****         3.3813  -0.2959   1.8334 C.2            1 S1                 0.0000
     17 ****         2.7808  -1.4954   1.3594 C.2            1 S1                 0.0000
     18 ****         2.3962  -1.4078   0.0964 N.2            1 S1                 0.0000
     19 ****        -2.9933  -0.6529  -3.3710 H              1 S1                 0.0000
     20 ****        -1.6818  -1.8285  -3.3321 H              1 S1                 0.0000
     21 ****        -1.5040  -0.3361  -4.2521 H              1 S1                 0.0000
     22 ****        -1.5939   0.9928  -2.1757 H              1 S1                 0.0000
     23 ****        -3.0054  -0.5072  -0.7632 H              1 S1                 0.0000
     24 ****        -1.7428  -1.7103  -0.7811 H              1 S1                 0.0000
     25 ****        -1.7473   1.9759  -0.0857 H              1 S1                 0.0000
     26 ****        -2.9149   1.2261   0.9861 H              1 S1                 0.0000
     27 ****        -0.0482   2.0530   1.7345 H              1 S1                 0.0000
     28 ****        -1.5246   2.8467   2.2518 H              1 S1                 0.0000
     29 ****         0.4260  -0.1667   2.5888 H              1 S1                 0.0000
     30 ****        -0.7245  -0.9098   3.6829 H              1 S1                 0.0000
     31 ****        -2.4046  -1.1378   1.8677 H              1 S1                 0.0000
     32 ****        -0.8933  -1.8860   1.3736 H              1 S1                 0.0000
     33 ****         0.4911  -1.1188  -2.3170 H              1 S1                 0.0000
     34 ****         2.6843  -0.5044  -2.3367 H              1 S1                 0.0000
     35 ****         3.1309   1.1300  -1.8710 H              1 S1                 0.0000
     36 ****         3.6806   1.5559   0.6333 H              1 S1                 0.0000
     37 ****         3.7806  -0.0821   2.8138 H              1 S1                 0.0000
     38 ****         2.6091  -2.4183   1.8933 H              1 S1                 0.0000
     39 ****        -0.3318   0.0837   0.2170 H              1 S1                 0.0000
     40 ****        -2.1844   0.8653   3.2894 LP             1 S1                 0.0000
     41 ****        -0.7495   1.3908   3.8652 LP             1 S1                 0.0000
     42 ****        -0.2618   2.1816  -1.4957 LP             1 S1                 0.0000
     43 ****         1.4036   2.5636  -1.2120 LP             1 S1                 0.0000
     44 ****         1.9465  -2.1095  -0.4562 LP             1 S1                 0.0000
@<TRIPOS>BOND
    1    1    2 1     
    2    1   19 1     
    3    1   20 1     
    4    1   21 1     
    5    2    3 1     
    6    2   10 1     
    7    2   22 1     
    8    3    4 1     
    9    3   23 1     
   10    3   24 1     
   11    4    9 1     
   12    4    5 1     
   13    4   39 1     
   14    5    6 1     
   15    5   25 1     
   16    5   26 1     
   17    6    7 1     
   18    6   27 1     
   19    6   28 1     
   20    7    8 1     
   21    8    9 1     
   22    8   29 1     
   23    8   30 1     
   24    9   31 1     
   25    9   32 1     
   26   10   11 am    
   27   10   33 1     
   28   11   12 2     
   29   11   13 1     
   30   13   14 1     
   31   13   34 1     
   32   13   35 1     
   33   14   18 1     
   34   14   15 1     
   35   15   16 2     
   36   15   36 1     
   37   16   17 1     
   38   16   37 1     
   39   17   18 2     
   40   17   38 1     
   41    7   40 1     
   42    7   41 1     
   43   12   42 1     
   44   12   43 1     
   45   18   44 1     
@<TRIPOS>SUBSTRUCTURE
      1 S1             1
@<TRIPOS>SET
LONE_PAIRS      STATIC     ATOMS    <user>   **** ""
5 40 41 42 43 44
DONOR_HYDROGENS      STATIC     ATOMS    <user>   **** ""
2 39 33
ATOM$BLUE        STATIC     ATOMS    COLORGROUP SYSTEM
5 40 41 42 43 44
ATOM$RED        STATIC     ATOMS    COLORGROUP SYSTEM
2 39 33
