#       Name:                AV-unprocessed.smi:86
#       Creating user name   scv26
#       Creation time:       Thu Mar 26 17:21:16 2020


#       File generated by GOLD software.
#

@<TRIPOS>MOLECULE
AV-unprocessed.smi:86
    60    64     1
SMALL
NO_CHARGES


@<TRIPOS>ATOM
      1 ****        -0.9936  -1.6794   4.8403 O.3            1 S1                 0.0000
      2 ****        -1.9328  -1.7086   3.7848 C.3            1 S1                 0.0000
      3 ****        -2.0271  -3.1102   3.1571 C.3            1 S1                 0.0000
      4 ****        -0.6805  -3.5070   2.5185 C.3            1 S1                 0.0000
      5 ****        -0.2383  -2.6003   1.4695 N.pl3          1 S1                 0.0000
      6 ****        -0.6821  -2.5671   0.1679 C.2            1 S1                 0.0000
      7 ****        -0.1272  -1.6579  -0.5846 N.2            1 S1                 0.0000
      8 ****         0.7789  -1.0168   0.2537 C.ar           1 S1                 0.0000
      9 ****         1.7079   0.0556   0.0954 C.ar           1 S1                 0.0000
     10 ****         1.9121   0.7404  -1.0601 N.pl3          1 S1                 0.0000
     11 ****         1.0976   0.5581  -2.2512 C.3            1 S1                 0.0000
     12 ****         1.6502   1.5811  -3.2457 C.3            1 S1                 0.0000
     13 ****         0.7174   1.9727  -4.4087 C.3            1 S1                 0.0000
     14 ****        -0.4228   2.9062  -3.9757 C.3            1 S1                 0.0000
     15 ****         0.1291   4.1314  -3.2312 C.3            1 S1                 0.0000
     16 ****        -0.9430   4.9626  -2.8393 O.3            1 S1                 0.0000
     17 ****         0.9161   3.6935  -1.9872 C.3            1 S1                 0.0000
     18 ****         2.0847   2.7481  -2.3429 C.3            1 S1                 0.0000
     19 ****         2.6111   2.0226  -1.0950 C.3            1 S1                 0.0000
     20 ****         2.4471   0.4001   1.1829 N.ar           1 S1                 0.0000
     21 ****         2.2934  -0.2435   2.3429 C.ar           1 S1                 0.0000
     22 ****         1.4693  -1.2500   2.6338 N.ar           1 S1                 0.0000
     23 ****         0.7234  -1.6074   1.5501 C.ar           1 S1                 0.0000
     24 ****        -2.6900  -4.1736   4.0435 C.3            1 S1                 0.0000
     25 ****        -3.9405  -4.0738   3.3296 O.3            1 S1                 0.0000
     26 ****        -3.2730  -3.3317   2.2876 C.3            1 S1                 0.0000
     27 ****        -0.9625  -0.8027   5.1915 H              1 S1                 0.0000
     28 ****        -2.8979  -1.4050   4.1917 H              1 S1                 0.0000
     29 ****        -1.6655  -0.9520   3.0472 H              1 S1                 0.0000
     30 ****         0.1027  -3.5742   3.2742 H              1 S1                 0.0000
     31 ****        -0.7468  -4.5045   2.0824 H              1 S1                 0.0000
     32 ****        -1.4353  -3.2413  -0.2121 H              1 S1                 0.0000
     33 ****         1.1787  -0.4560  -2.6431 H              1 S1                 0.0000
     34 ****         0.0527   0.7585  -2.0127 H              1 S1                 0.0000
     35 ****         2.5517   1.1439  -3.6785 H              1 S1                 0.0000
     36 ****         1.3081   2.4803  -5.1724 H              1 S1                 0.0000
     37 ****         0.3134   1.0783  -4.8836 H              1 S1                 0.0000
     38 ****        -0.9886   3.2229  -4.8527 H              1 S1                 0.0000
     39 ****        -1.1217   2.3644  -3.3372 H              1 S1                 0.0000
     40 ****         0.7772   4.7052  -3.8947 H              1 S1                 0.0000
     41 ****        -0.5893   5.7257  -2.4081 H              1 S1                 0.0000
     42 ****         1.3012   4.5667  -1.4592 H              1 S1                 0.0000
     43 ****         0.2362   3.1951  -1.2940 H              1 S1                 0.0000
     44 ****         2.8751   3.3280  -2.8210 H              1 S1                 0.0000
     45 ****         2.4501   2.6136  -0.1922 H              1 S1                 0.0000
     46 ****         3.6806   1.8305  -1.1860 H              1 S1                 0.0000
     47 ****         2.9210   0.0962   3.1535 H              1 S1                 0.0000
     48 ****        -2.2486  -5.1672   3.9506 H              1 S1                 0.0000
     49 ****        -2.7827  -3.8869   5.0917 H              1 S1                 0.0000
     50 ****        -3.7990  -2.4144   2.0210 H              1 S1                 0.0000
     51 ****        -3.0995  -3.9511   1.4068 H              1 S1                 0.0000
     52 ****        -0.0908  -1.9364   4.4953 LP             1 S1                 0.0000
     53 ****        -1.2714  -2.3196   5.5565 LP             1 S1                 0.0000
     54 ****        -0.3117  -1.4649  -1.5483 LP             1 S1                 0.0000
     55 ****        -1.5415   4.4668  -2.2100 LP             1 S1                 0.0000
     56 ****        -1.4649   5.2422  -3.6451 LP             1 S1                 0.0000
     57 ****         3.1128   1.1431   1.1136 LP             1 S1                 0.0000
     58 ****         1.4063  -1.6866   3.5313 LP             1 S1                 0.0000
     59 ****        -4.6478  -3.5571   3.8121 LP             1 S1                 0.0000
     60 ****        -4.3139  -4.9525   3.0322 LP             1 S1                 0.0000
@<TRIPOS>BOND
    1    1    2 1     
    2    1   27 1     
    3    2    3 1     
    4    2   28 1     
    5    2   29 1     
    6    3   26 1     
    7    3    4 1     
    8    3   24 1     
    9    4    5 1     
   10    4   30 1     
   11    4   31 1     
   12    5   23 1     
   13    5    6 1     
   14    6    7 2     
   15    6   32 1     
   16    7    8 1     
   17    8   23 ar    
   18    8    9 ar    
   19    9   10 1     
   20    9   20 ar    
   21   10   19 1     
   22   10   11 1     
   23   11   12 1     
   24   11   33 1     
   25   11   34 1     
   26   12   18 1     
   27   12   13 1     
   28   12   35 1     
   29   13   14 1     
   30   13   36 1     
   31   13   37 1     
   32   14   15 1     
   33   14   38 1     
   34   14   39 1     
   35   15   16 1     
   36   15   17 1     
   37   15   40 1     
   38   16   41 1     
   39   17   18 1     
   40   17   42 1     
   41   17   43 1     
   42   18   19 1     
   43   18   44 1     
   44   19   45 1     
   45   19   46 1     
   46   20   21 ar    
   47   21   22 ar    
   48   21   47 1     
   49   22   23 ar    
   50   24   25 1     
   51   24   48 1     
   52   24   49 1     
   53   25   26 1     
   54   26   50 1     
   55   26   51 1     
   56    1   52 1     
   57    1   53 1     
   58    7   54 1     
   59   16   55 1     
   60   16   56 1     
   61   20   57 1     
   62   22   58 1     
   63   25   59 1     
   64   25   60 1     
@<TRIPOS>SUBSTRUCTURE
      1 S1             1
@<TRIPOS>SET
LONE_PAIRS      STATIC     ATOMS    <user>   **** ""
9 52 53 54 55 56 57 58 59 60
DONOR_HYDROGENS      STATIC     ATOMS    <user>   **** ""
2 27 41
ATOM$BLUE        STATIC     ATOMS    COLORGROUP SYSTEM
9 52 53 54 55 56 57 58 59 60
ATOM$RED        STATIC     ATOMS    COLORGROUP SYSTEM
2 27 41
