AV-unprocessed.smi:1893|AV-procd|sdf|7672|dock10
  -GOLD-   22720 9413D 1   1.00000     0.00000
 Structure written by MMmdl.
 43 44  0  0  0  0  0  0  0  0  2 V2000
  146.9721  140.7354  155.6346 C   0  0  0  0  0  0  0  0  0  0  0  0
  147.7901  141.0875  154.3730 C   0  0  1  0  0  0  0  0  0  0  0  0
  149.1743  141.6779  154.7160 C   0  0  0  0  0  0  0  0  0  0  0  0
  150.1445  140.6096  155.2419 C   0  0  0  0  0  0  0  0  0  0  0  0
  150.2347  139.4460  154.2470 C   0  0  0  0  0  0  0  0  0  0  0  0
  148.8422  138.8790  153.9270 C   0  0  0  0  0  0  0  0  0  0  0  0
  147.9346  139.9454  153.4212 N   0  3  1  0  0  0  0  0  0  0  0  0
  146.6416  139.4281  152.9049 C   0  0  0  0  0  0  0  0  0  0  0  0
  146.8113  138.6721  151.5730 C   0  0  0  0  0  0  0  0  0  0  0  0
  145.7140  137.7416  151.3374 N   0  0  0  0  0  0  0  0  0  0  0  0
  145.5382  136.5809  151.9891 C   0  0  0  0  0  0  0  0  0  0  0  0
  146.2872  136.1986  152.8890 O   0  0  0  0  0  0  0  0  0  0  0  0
  144.3395  135.7265  151.5494 C   0  0  2  0  0  0  0  0  0  0  0  0
  143.3630  135.4376  152.7078 C   0  0  0  0  0  0  0  0  0  0  0  0
  144.8067  134.5077  150.8994 N   0  0  0  0  0  0  0  0  0  0  0  0
  144.1138  133.5325  150.3069 C   0  0  0  0  0  0  0  0  0  0  0  0
  144.8683  132.5864  149.7658 N   0  0  0  0  0  0  0  0  0  0  0  0
  146.1052  133.0787  150.0721 C   0  0  0  0  0  0  0  0  0  0  0  0
  146.1253  134.2332  150.7379 N   0  0  0  0  0  0  0  0  0  0  0  0
  146.8733  141.6061  156.2832 H   0  0  0  0  0  0  0  0  0  0  0  0
  147.4354  139.9455  156.2247 H   0  0  0  0  0  0  0  0  0  0  0  0
  145.9620  140.4116  155.3846 H   0  0  0  0  0  0  0  0  0  0  0  0
  147.2402  141.8700  153.8483 H   0  0  0  0  0  0  0  0  0  0  0  0
  149.6010  142.1325  153.8207 H   0  0  0  0  0  0  0  0  0  0  0  0
  149.0737  142.4831  155.4445 H   0  0  0  0  0  0  0  0  0  0  0  0
  151.1315  141.0453  155.3996 H   0  0  0  0  0  0  0  0  0  0  0  0
  149.8107  140.2430  156.2130 H   0  0  0  0  0  0  0  0  0  0  0  0
  150.7088  139.7892  153.3263 H   0  0  0  0  0  0  0  0  0  0  0  0
  150.8745  138.6599  154.6494 H   0  0  0  0  0  0  0  0  0  0  0  0
  148.9504  138.0919  153.1818 H   0  0  0  0  0  0  0  0  0  0  0  0
  148.4121  138.4058  154.8101 H   0  0  0  0  0  0  0  0  0  0  0  0
  146.1735  138.7953  153.6606 H   0  0  0  0  0  0  0  0  0  0  0  0
  145.9588  140.2617  152.7330 H   0  0  0  0  0  0  0  0  0  0  0  0
  146.8360  139.3812  150.7450 H   0  0  0  0  0  0  0  0  0  0  0  0
  147.7542  138.1256  151.5396 H   0  0  0  0  0  0  0  0  0  0  0  0
  145.0553  137.9835  150.6110 H   0  0  0  0  0  0  0  0  0  0  0  0
  143.7871  136.2957  150.7998 H   0  0  0  0  0  0  0  0  0  0  0  0
  142.9925  136.3634  153.1489 H   0  0  0  0  0  0  0  0  0  0  0  0
  143.8289  134.8569  153.5051 H   0  0  0  0  0  0  0  0  0  0  0  0
  142.4980  134.8761  152.3540 H   0  0  0  0  0  0  0  0  0  0  0  0
  143.0346  133.5168  150.2652 H   0  0  0  0  0  0  0  0  0  0  0  0
  147.0179  132.5759  149.7882 H   0  0  0  0  0  0  0  0  0  0  0  0
  148.4007  140.3404  152.6170 H   0  0  0  0  0  0  0  0  0  0  0  0
  1  2  1  0  0  0  0
  1 20  1  0  0  0  0
  1 21  1  0  0  0  0
  1 22  1  0  0  0  0
  2  7  1  0  0  0  0
  2  3  1  0  0  0  0
  2 23  1  0  0  0  0
  3  4  1  0  0  0  0
  3 24  1  0  0  0  0
  3 25  1  0  0  0  0
  4  5  1  0  0  0  0
  4 26  1  0  0  0  0
  4 27  1  0  0  0  0
  5  6  1  0  0  0  0
  5 28  1  0  0  0  0
  5 29  1  0  0  0  0
  6  7  1  0  0  0  0
  6 30  1  0  0  0  0
  6 31  1  0  0  0  0
  7  8  1  0  0  0  0
  7 43  1  0  0  0  0
  8  9  1  0  0  0  0
  8 32  1  0  0  0  0
  8 33  1  0  0  0  0
  9 10  1  0  0  0  0
  9 34  1  0  0  0  0
  9 35  1  0  0  0  0
 10 11  1  0  0  0  0
 10 36  1  0  0  0  0
 11 12  2  0  0  0  0
 11 13  1  0  0  0  0
 13 14  1  0  0  0  0
 13 15  1  0  0  0  0
 13 37  1  0  0  0  0
 14 38  1  0  0  0  0
 14 39  1  0  0  0  0
 14 40  1  0  0  0  0
 15 19  1  0  0  0  0
 15 16  1  0  0  0  0
 16 17  2  0  0  0  0
 16 41  1  0  0  0  0
 17 18  1  0  0  0  0
 18 19  2  0  0  0  0
 18 42  1  0  0  0  0
M  CHG  1   7   1
M  END
> <s_m_source_file>
AV-unprocessed.smi

> <i_m_source_file_index>
1893

> <i_lp_mmshare_version>
43012

> <i_f3d_flags>
0

> <s_epik_input>
W0NIM11bQ0BASF0xW0NIMl1bQ0gyXVtDSDJdW0NIMl1OMVtDSDJdW0NIMl1bTkhdQyg9TylbQ0BIXShbQ0gzXSluMltjSF1uW2NIXW4y

> <s_epik_cmdline>
J2VwaWtfcHl0aG9uJywgJy1waCcsICc3LjAnLCAnLXRuJywgJzgnLCAnLW1hJywgJzIwMCcsICctbWV0YWxfYmluZGluZycsICctaW1hZScsICc8aW5maWxlLm1hZT4nLCAnLW9tYWUnLCAnPG91dGZpbGUubWFlPic=

> <r_lp_tautomer_probability>
1

> <r_epik_Ionization_Penalty>
0.00266409

> <r_epik_Ionization_Penalty_Charging>
0.00265606

> <r_epik_Ionization_Penalty_Neutral>
8.02794e-06

> <r_epik_State_Penalty>
0.00184955

> <r_epik_Charging_Adjusted_Penalty>
0.00450561

> <i_epik_Tot_Q>
1

> <i_epik_Tot_abs_Q>
1

> <r_epik_Metal_State_Penalty>
-0

> <b_epik_Metal_Only>
0

> <s_lp_Force_Field>
OPLS_2005

> <r_lp_Energy>
25.286

> <b_lp_Chiralities_Consistent>
1

> <s_lp_Variant>
AV-unprocessed.smi:1893-2

> <Gold.Version>
5.8.1

> <Gold.Id.Protein>
6NUR|6NUR_protein|mol2

> <Gold.PLP.Fitness>
45.5301

> <Gold.PLP.PLP>
-34.2532

> <Gold.PLP.part.hbond>
-2.0000

> <Gold.PLP.part.metal>
0.0000

> <Gold.PLP.part.buried>
-1.3327

> <Gold.PLP.part.nonpolar>
-31.8888

> <Gold.PLP.part.repulsive>
1.4284

> <Gold.PLP.ligand.clash>
0.0000

> <Gold.PLP.ligand.torsion>
0.4354

> <Gold.PLP.Chemscore.Hbond>
2.0000

> <Gold.PLP.Chemscore.CHOScore>
2.0000

> <Gold.PLP.Chemscore.Metal>
0.0000

> <Gold.Chemscore.Hbonds>
donor molecule, donor type, donor heavy atom, donor atom, acceptor molecule, acceptor atom, score
      L1  H     7    43       P1  7957  0.94
      L1  H    10    36       P1 10171  1.00
      L1  C    16    41       P1 10186  1.00
      L1  C    18    42       P1 10747  0.74

> <Gold.PLP.Chemscore.Internal.Correction>
0.1476

> <Gold.Rescore>
     Score         DG    S(hbond)    S(metal)    S(lipo)     H(rot)  DE(clash)    DE(int)     intcor
     11.66     -13.03       1.92        0.00      65.34       2.54       0.59       0.78       ----

> <Gold.Chemscore.Fitness>
11.6609

> <Gold.Chemscore.DG>
-13.0266

> <Gold.Chemscore.ZeroCoef>
-5.4800

> <Gold.Chemscore.Hbond>
1.9158

> <Gold.Chemscore.Metal>
0.0000

> <Gold.Chemscore.Lipo>
65.3376

> <Gold.Chemscore.Internal_Hbond>
0.0000

> <Gold.Chemscore.DEClash>
0.5879

> <Gold.Chemscore.DEInternal>
0.7778

> <Gold.Chemscore.Rot>
2.5377

> <Gold.Chemscore.Internal.Correction>
   9.000000E+99

> <Gold.Chemscore.Hbonds>
donor molecule, donor type, donor heavy atom, donor atom, acceptor molecule, acceptor atom, score
      L1  H     7    43       P1  7957  0.91
      L1  H    10    36       P1 10171  0.95

> <Gold.Chemscore.Hbond.Weighted>
-6.3987

> <Gold.Chemscore.Metal.Weighted>
-0.0000

> <Gold.Chemscore.Lipo.Weighted>
-7.6445

> <Gold.Chemscore.Internal_Hbond.Weighted>
0.0000

> <Gold.Chemscore.DEClash.Weighted>
0.5879

> <Gold.Chemscore.DEInternal.Weighted>
0.7778

> <Gold.Chemscore.Rot.Weighted>
6.4966

> <Gold.Chemscore.Internal.Correction.Weighted>
   9.000000E+99

> <Gold.Protein.RotatedTorsions>
[ 6907 6896 6895 6894 ] final  177.18 input  -60.11 | X-H torsion
[ 7974 7965 7964 7962 ] final   90.41 input  175.53 | X-H torsion
[ 8008 7997 7996 7995 ] final  -32.63 input   59.86 | X-H torsion
[ 10167 10162 10161 10158 ] final  -52.75 input  -65.29 | X-H torsion
[ 10718 10713 10712 10709 ] final   61.22 input   66.30 | X-H torsion
[ 10763 10752 10751 10750 ] final -178.96 input  -60.55 | X-H torsion
[ 11005 11000 10999 10996 ] final  -64.84 input  -57.11 | X-H torsion

> <Gold.Protein.ActiveResidues>
 VAL166  LYS551  ARG553  GLY616  TRP617  ASP618  TYR619  PRO620  LYS621  CYS622 
 ASP623  PHE694  ASN695  SER759  ASP760  ASP761  ALA762  ILE779  LEU786  VAL792 
 PHE793  MET794  SER795  GLU796  ALA797  LYS798  CYS799  TRP800  GLU811  SER814 

> <Gold.Protein.RotatedAtoms>
  151.7081  133.3312  159.3283 H   0  0  0  0  0  0  0  0  0  0  0  0  # atno 6907 bound_to 6896
  150.7706  134.6556  159.6321 H   0  0  0  0  0  0  0  0  0  0  0  0  # atno 6908 bound_to 6896
  152.3728  134.6711  160.0222 H   0  0  0  0  0  0  0  0  0  0  0  0  # atno 6909 bound_to 6896
  145.5193  139.2279  143.2680 H   0  0  0  0  0  0  0  0  0  0  0  0  # atno 7974 bound_to 7965
  154.4174  140.1732  156.1758 H   0  0  0  0  0  0  0  0  0  0  0  0  # atno 8008 bound_to 7997
  155.9723  140.3384  155.6562 H   0  0  0  0  0  0  0  0  0  0  0  0  # atno 8009 bound_to 7997
  155.6609  140.0701  157.2545 H   0  0  0  0  0  0  0  0  0  0  0  0  # atno 8010 bound_to 7997
  140.6521  143.2573  151.4693 H   0  0  0  0  0  0  0  0  0  0  0  0  # atno 10167 bound_to 10162
  157.5811  130.8982  149.9433 H   0  0  0  0  0  0  0  0  0  0  0  0  # atno 10718 bound_to 10713
  154.5412  135.2806  155.1094 H   0  0  0  0  0  0  0  0  0  0  0  0  # atno 10763 bound_to 10752
  154.2576  135.6327  153.5266 H   0  0  0  0  0  0  0  0  0  0  0  0  # atno 10764 bound_to 10752
  152.9979  135.5598  154.5951 H   0  0  0  0  0  0  0  0  0  0  0  0  # atno 10765 bound_to 10752
  141.1437  133.6672  156.5895 H   0  0  0  0  0  0  0  0  0  0  0  0  # atno 11005 bound_to 11000
  146.2116  140.6004  142.9057 LP  0  0  0  0  0  0  0  0  0  0  0  0  # atno 17320 bound_to 7965
  144.7684  140.5583  143.6687 LP  0  0  0  0  0  0  0  0  0  0  0  0  # atno 17321 bound_to 7965
  139.5737  144.1867  152.1874 LP  0  0  0  0  0  0  0  0  0  0  0  0  # atno 17342 bound_to 10162
  140.1172  144.5405  150.6886 LP  0  0  0  0  0  0  0  0  0  0  0  0  # atno 17343 bound_to 10162
  156.0857  130.3668  150.0492 LP  0  0  0  0  0  0  0  0  0  0  0  0  # atno 17370 bound_to 10713
  156.8630  130.9498  151.3616 LP  0  0  0  0  0  0  0  0  0  0  0  0  # atno 17371 bound_to 10713
  140.3774  134.7553  157.4639 LP  0  0  0  0  0  0  0  0  0  0  0  0  # atno 17394 bound_to 11000
  140.0664  134.5924  155.8691 LP  0  0  0  0  0  0  0  0  0  0  0  0  # atno 17395 bound_to 11000

$$$$
