AV-unprocessed.smi:242|AV-procd|sdf|1845|dock1
  -GOLD-   2262020463D 1   1.00000     0.00000
 Structure written by MMmdl.
 58 61  0  0  0  0  0  0  0  0  2 V2000
  147.6381  132.1009  152.2790 C   0  0  0  0  0  0  0  0  0  0  0  0
  148.8900  132.6432  152.9953 C   0  0  0  0  0  0  0  0  0  0  0  0
  149.2855  131.6846  154.1347 C   0  0  0  0  0  0  0  0  0  0  0  0
  148.6778  134.0263  153.5079 N   0  3  1  0  0  0  0  0  0  0  0  0
  147.4861  134.2033  154.3770 C   0  0  0  0  0  0  0  0  0  0  0  0
  147.9073  135.1128  155.5376 C   0  0  0  0  0  0  0  0  0  0  0  0
  149.2131  135.7545  155.0597 C   0  0  1  0  0  0  0  0  0  0  0  0
  150.0892  136.2356  156.1301 N   0  0  0  0  0  0  0  0  0  0  0  0
  151.0001  135.2619  156.7195 C   0  0  0  0  0  0  0  0  0  0  0  0
  150.7265  137.3933  155.8491 C   0  0  0  0  0  0  0  0  0  0  0  0
  151.8695  137.3126  155.1255 N   0  0  0  0  0  0  0  0  0  0  0  0
  152.5500  138.4244  154.8294 C   0  0  0  0  0  0  0  0  0  0  0  0
  152.2675  139.6882  155.1538 N   0  0  0  0  0  0  0  0  0  0  0  0
  151.1149  139.7697  155.8789 C   0  0  0  0  0  0  0  0  0  0  0  0
  150.2849  138.6807  156.2649 C   0  0  0  0  0  0  0  0  0  0  0  0
  149.1938  139.1467  156.9882 N   0  0  0  0  0  0  0  0  0  0  0  0
  149.3689  140.4396  157.0270 C   0  0  0  0  0  0  0  0  0  0  0  0
  150.5045  140.8982  156.3973 N   0  0  0  0  0  0  0  0  0  0  0  0
  150.9498  142.2796  156.2955 C   0  0  0  0  0  0  0  0  0  0  0  0
  150.9898  143.0292  157.6508 C   0  0  0  0  0  0  0  0  0  0  0  0
  149.6536  143.2354  158.0763 O   0  0  0  0  0  0  0  0  0  0  0  0
  151.7143  142.1780  158.7131 C   0  0  0  0  0  0  0  0  0  0  0  0
  151.9356  142.9505  160.0258 C   0  0  0  0  0  0  0  0  0  0  0  0
  152.6397  144.1583  159.7652 O   0  0  0  0  0  0  0  0  0  0  0  0
  151.9095  145.0464  158.9279 C   0  0  0  0  0  0  0  0  0  0  0  0
  151.6817  144.4062  157.5468 C   0  0  0  0  0  0  0  0  0  0  0  0
  149.8212  134.6225  154.2327 C   0  0  0  0  0  0  0  0  0  0  0  0
  147.7930  131.0733  151.9486 H   0  0  0  0  0  0  0  0  0  0  0  0
  147.3908  132.6810  151.3900 H   0  0  0  0  0  0  0  0  0  0  0  0
  146.7689  132.1076  152.9376 H   0  0  0  0  0  0  0  0  0  0  0  0
  149.7059  132.6718  152.2712 H   0  0  0  0  0  0  0  0  0  0  0  0
  149.4162  130.6681  153.7624 H   0  0  0  0  0  0  0  0  0  0  0  0
  148.5192  131.6548  154.9100 H   0  0  0  0  0  0  0  0  0  0  0  0
  150.2252  131.9708  154.6068 H   0  0  0  0  0  0  0  0  0  0  0  0
  146.6878  134.6586  153.7901 H   0  0  0  0  0  0  0  0  0  0  0  0
  147.1139  133.2553  154.7676 H   0  0  0  0  0  0  0  0  0  0  0  0
  147.1424  135.8474  155.7926 H   0  0  0  0  0  0  0  0  0  0  0  0
  148.0913  134.5034  156.4242 H   0  0  0  0  0  0  0  0  0  0  0  0
  148.9769  136.5815  154.3884 H   0  0  0  0  0  0  0  0  0  0  0  0
  151.7015  135.7373  157.4071 H   0  0  0  0  0  0  0  0  0  0  0  0
  151.5731  134.7478  155.9467 H   0  0  0  0  0  0  0  0  0  0  0  0
  150.4426  134.5150  157.2848 H   0  0  0  0  0  0  0  0  0  0  0  0
  153.4508  138.2806  154.2509 H   0  0  0  0  0  0  0  0  0  0  0  0
  148.6748  141.0992  157.5275 H   0  0  0  0  0  0  0  0  0  0  0  0
  151.9362  142.2869  155.8297 H   0  0  0  0  0  0  0  0  0  0  0  0
  150.2853  142.7964  155.6018 H   0  0  0  0  0  0  0  0  0  0  0  0
  149.2049  142.4034  158.0740 H   0  0  0  0  0  0  0  0  0  0  0  0
  151.1616  141.2582  158.9096 H   0  0  0  0  0  0  0  0  0  0  0  0
  152.6874  141.8716  158.3271 H   0  0  0  0  0  0  0  0  0  0  0  0
  150.9877  143.1669  160.5211 H   0  0  0  0  0  0  0  0  0  0  0  0
  152.5215  142.3463  160.7185 H   0  0  0  0  0  0  0  0  0  0  0  0
  150.9619  145.3118  159.3989 H   0  0  0  0  0  0  0  0  0  0  0  0
  152.4765  145.9710  158.8198 H   0  0  0  0  0  0  0  0  0  0  0  0
  152.6485  144.2866  157.0561 H   0  0  0  0  0  0  0  0  0  0  0  0
  151.1024  145.0870  156.9222 H   0  0  0  0  0  0  0  0  0  0  0  0
  150.2714  133.8758  154.8899 H   0  0  0  0  0  0  0  0  0  0  0  0
  150.5877  134.9823  153.5454 H   0  0  0  0  0  0  0  0  0  0  0  0
  148.5246  134.6187  152.7045 H   0  0  0  0  0  0  0  0  0  0  0  0
  1  2  1  0  0  0  0
  1 28  1  0  0  0  0
  1 29  1  0  0  0  0
  1 30  1  0  0  0  0
  2  3  1  0  0  0  0
  2  4  1  0  0  0  0
  2 31  1  0  0  0  0
  3 32  1  0  0  0  0
  3 33  1  0  0  0  0
  3 34  1  0  0  0  0
  4 27  1  0  0  0  0
  4  5  1  0  0  0  0
  4 58  1  0  0  0  0
  5  6  1  0  0  0  0
  5 35  1  0  0  0  0
  5 36  1  0  0  0  0
  6  7  1  0  0  0  0
  6 37  1  0  0  0  0
  6 38  1  0  0  0  0
  7  8  1  0  0  0  0
  7 27  1  0  0  0  0
  7 39  1  0  0  0  0
  8  9  1  0  0  0  0
  8 10  1  0  0  0  0
  9 40  1  0  0  0  0
  9 41  1  0  0  0  0
  9 42  1  0  0  0  0
 10 15  1  0  0  0  0
 10 11  2  0  0  0  0
 11 12  1  0  0  0  0
 12 13  2  0  0  0  0
 12 43  1  0  0  0  0
 13 14  1  0  0  0  0
 14 18  1  0  0  0  0
 14 15  2  0  0  0  0
 15 16  1  0  0  0  0
 16 17  2  0  0  0  0
 17 18  1  0  0  0  0
 17 44  1  0  0  0  0
 18 19  1  0  0  0  0
 19 20  1  0  0  0  0
 19 45  1  0  0  0  0
 19 46  1  0  0  0  0
 20 26  1  0  0  0  0
 20 21  1  0  0  0  0
 20 22  1  0  0  0  0
 21 47  1  0  0  0  0
 22 23  1  0  0  0  0
 22 48  1  0  0  0  0
 22 49  1  0  0  0  0
 23 24  1  0  0  0  0
 23 50  1  0  0  0  0
 23 51  1  0  0  0  0
 24 25  1  0  0  0  0
 25 26  1  0  0  0  0
 25 52  1  0  0  0  0
 25 53  1  0  0  0  0
 26 54  1  0  0  0  0
 26 55  1  0  0  0  0
 27 56  1  0  0  0  0
 27 57  1  0  0  0  0
M  CHG  1   4   1
M  END
> <s_m_source_file>
AV-unprocessed.smi

> <i_m_source_file_index>
242

> <i_lp_mmshare_version>
43012

> <i_f3d_flags>
0

> <s_epik_input>
W0NIM11bQ0hdKFtDSDNdKU4xW0NIMl1bQ0gyXVtDQEhdKFtDSDJdMSlOKFtDSDNdKWMobltjSF1uMiljKGMyMyluW2NIXW4zW0NIMl1DNChbT0hdKVtDSDJdW0NIMl1PW0NIMl1bQ0gyXTQ=

> <s_epik_cmdline>
J2VwaWtfcHl0aG9uJywgJy1waCcsICc3LjAnLCAnLXRuJywgJzgnLCAnLW1hJywgJzIwMCcsICctbWV0YWxfYmluZGluZycsICctaW1hZScsICc8aW5maWxlLm1hZT4nLCAnLW9tYWUnLCAnPG91dGZpbGUubWFlPic=

> <r_lp_tautomer_probability>
1

> <r_epik_Ionization_Penalty>
0.000825961

> <r_epik_Ionization_Penalty_Charging>
0.00034898

> <r_epik_Ionization_Penalty_Neutral>
0.000476981

> <r_epik_State_Penalty>
-0

> <r_epik_Charging_Adjusted_Penalty>
0.00034898

> <i_epik_Tot_Q>
1

> <i_epik_Tot_abs_Q>
1

> <r_epik_Metal_State_Penalty>
-0

> <b_epik_Metal_Only>
0

> <s_lp_Force_Field>
OPLS_2005

> <r_lp_Energy>
46.4754

> <b_lp_Chiralities_Consistent>
1

> <s_lp_Variant>
AV-unprocessed.smi:242-2

> <Gold.Version>
5.8.1

> <Gold.Id.Protein>
6NUR|6NUR_protein|mol2

> <Gold.PLP.Fitness>
49.2824

> <Gold.PLP.PLP>
-43.7106

> <Gold.PLP.part.hbond>
-3.8203

> <Gold.PLP.part.metal>
0.0000

> <Gold.PLP.part.buried>
-1.9611

> <Gold.PLP.part.nonpolar>
-37.1656

> <Gold.PLP.part.repulsive>
0.1441

> <Gold.PLP.ligand.clash>
0.0084

> <Gold.PLP.ligand.torsion>
1.4842

> <Gold.PLP.Chemscore.Hbond>
2.7095

> <Gold.PLP.Chemscore.CHOScore>
0.0000

> <Gold.PLP.Chemscore.Metal>
0.0000

> <Gold.Chemscore.Hbonds>
donor molecule, donor type, donor heavy atom, donor atom, acceptor molecule, acceptor atom, score
      L1  H     4    58       P1  7948  1.67
      P1  H  7989  7998       L1    13  0.58
      P1  H 10752 10764       L1    11  0.05

> <Gold.PLP.Chemscore.Internal.Correction>
0.4200

> <Gold.Rescore>
     Score         DG    S(hbond)    S(metal)    S(lipo)     H(rot)  DE(clash)    DE(int)     intcor
     12.48     -14.61       0.98        0.00     104.69       2.50       0.22       1.91       ----

> <Gold.Chemscore.Fitness>
12.4785

> <Gold.Chemscore.DG>
-14.6064

> <Gold.Chemscore.ZeroCoef>
-5.4800

> <Gold.Chemscore.Hbond>
0.9809

> <Gold.Chemscore.Metal>
0.0000

> <Gold.Chemscore.Lipo>
104.6946

> <Gold.Chemscore.Internal_Hbond>
0.0000

> <Gold.Chemscore.DEClash>
0.2178

> <Gold.Chemscore.DEInternal>
1.9101

> <Gold.Chemscore.Rot>
2.4996

> <Gold.Chemscore.Internal.Correction>
   9.000000E+99

> <Gold.Chemscore.Hbonds>
donor molecule, donor type, donor heavy atom, donor atom, acceptor molecule, acceptor atom, score
      L1  H     4    58       P1  7948  0.16
      P1  H  7989  7998       L1    13  0.11
      P1  H 10752 10764       L1    11  0.02

> <Gold.Chemscore.Hbond.Weighted>
-3.2761

> <Gold.Chemscore.Metal.Weighted>
-0.0000

> <Gold.Chemscore.Lipo.Weighted>
-12.2493

> <Gold.Chemscore.Internal_Hbond.Weighted>
0.0000

> <Gold.Chemscore.DEClash.Weighted>
0.2178

> <Gold.Chemscore.DEInternal.Weighted>
1.9101

> <Gold.Chemscore.Rot.Weighted>
6.3990

> <Gold.Chemscore.Internal.Correction.Weighted>
   9.000000E+99

> <Gold.Protein.RotatedTorsions>
[ 6907 6896 6895 6894 ] final -135.52 input  -60.11 | X-H torsion
[ 7974 7965 7964 7962 ] final   62.34 input  175.53 | X-H torsion
[ 8008 7997 7996 7995 ] final  143.24 input   59.86 | X-H torsion
[ 10167 10162 10161 10158 ] final   12.15 input  -65.29 | X-H torsion
[ 10718 10713 10712 10709 ] final -100.89 input   66.30 | X-H torsion
[ 10763 10752 10751 10750 ] final -105.65 input  -60.55 | X-H torsion
[ 11005 11000 10999 10996 ] final   33.31 input  -57.11 | X-H torsion

> <Gold.Protein.ActiveResidues>
 VAL166  LYS551  ARG553  GLY616  TRP617  ASP618  TYR619  PRO620  LYS621  CYS622 
 ASP623  PHE694  ASN695  SER759  ASP760  ASP761  ALA762  ILE779  LEU786  VAL792 
 PHE793  MET794  SER795  GLU796  ALA797  LYS798  CYS799  TRP800  GLU811  SER814 

> <Gold.Protein.RotatedAtoms>
  150.9989  133.6075  159.2697 H   0  0  0  0  0  0  0  0  0  0  0  0  # atno 6907 bound_to 6896
  151.3269  135.0831  159.9335 H   0  0  0  0  0  0  0  0  0  0  0  0  # atno 6908 bound_to 6896
  152.5268  133.9626  159.7778 H   0  0  0  0  0  0  0  0  0  0  0  0  # atno 6909 bound_to 6896
  145.8745  139.3400  143.0743 H   0  0  0  0  0  0  0  0  0  0  0  0  # atno 7974 bound_to 7965
  156.2934  140.2267  156.4858 H   0  0  0  0  0  0  0  0  0  0  0  0  # atno 8008 bound_to 7997
  154.7814  140.0460  157.1151 H   0  0  0  0  0  0  0  0  0  0  0  0  # atno 8009 bound_to 7997
  154.9755  140.3072  155.4972 H   0  0  0  0  0  0  0  0  0  0  0  0  # atno 8010 bound_to 7997
  140.6086  143.8455  150.7041 H   0  0  0  0  0  0  0  0  0  0  0  0  # atno 10167 bound_to 10162
  156.0177  130.5348  150.6882 H   0  0  0  0  0  0  0  0  0  0  0  0  # atno 10718 bound_to 10713
  154.7960  135.4741  154.0163 H   0  0  0  0  0  0  0  0  0  0  0  0  # atno 10763 bound_to 10752
  153.1705  135.6824  153.8622 H   0  0  0  0  0  0  0  0  0  0  0  0  # atno 10764 bound_to 10752
  153.8206  135.3205  155.3387 H   0  0  0  0  0  0  0  0  0  0  0  0  # atno 10765 bound_to 10752
  140.2645  134.3154  155.7847 H   0  0  0  0  0  0  0  0  0  0  0  0  # atno 11005 bound_to 11000
  145.9097  140.9188  143.0460 LP  0  0  0  0  0  0  0  0  0  0  0  0  # atno 17320 bound_to 7965
  144.6726  140.1144  143.7453 LP  0  0  0  0  0  0  0  0  0  0  0  0  # atno 17321 bound_to 7965
  140.2018  143.3953  152.1786 LP  0  0  0  0  0  0  0  0  0  0  0  0  # atno 17342 bound_to 10162
  139.5344  144.7194  151.4944 LP  0  0  0  0  0  0  0  0  0  0  0  0  # atno 17343 bound_to 10162
  157.4570  131.0879  151.0786 LP  0  0  0  0  0  0  0  0  0  0  0  0  # atno 17370 bound_to 10713
  157.1285  130.6092  149.5523 LP  0  0  0  0  0  0  0  0  0  0  0  0  # atno 17371 bound_to 10713
  141.2186  133.7429  156.9238 LP  0  0  0  0  0  0  0  0  0  0  0  0  # atno 17394 bound_to 11000
  140.1433  134.9279  157.2495 LP  0  0  0  0  0  0  0  0  0  0  0  0  # atno 17395 bound_to 11000

$$$$
