AV-unprocessed.smi:1414|AV-procd|sdf|5761|dock10
  -GOLD-   22720 5403D 1   1.00000     0.00000
 Structure written by MMmdl.
 45 46  0  0  0  0  0  0  0  0  1 V2000
  150.4057  143.7258  158.5703 C   0  0  0  0  0  0  0  0  0  0  0  0
  151.2413  142.4930  158.2091 C   0  0  2  0  0  0  0  0  0  0  0  0
  150.3587  141.2776  157.8617 C   0  0  0  0  0  0  0  0  0  0  0  0
  151.1717  140.0646  157.6702 N   0  0  0  0  0  0  0  0  0  0  0  0
  151.4893  139.4778  156.0646 S   0  0  0  0  0  0  0  0  0  0  0  0
  151.0582  140.5125  155.1120 O   0  0  0  0  0  0  0  0  0  0  0  0
  152.8778  138.9936  156.0260 O   0  0  0  0  0  0  0  0  0  0  0  0
  150.3671  138.0278  155.8836 C   0  0  0  0  0  0  0  0  0  0  0  0
  148.9729  138.4726  155.4178 C   0  0  0  0  0  0  0  0  0  0  0  0
  148.4375  137.5809  154.3949 N   0  0  0  0  0  0  0  0  0  0  0  0
  147.1550  137.2024  154.2985 C   0  0  0  0  0  0  0  0  0  0  0  0
  146.2786  137.5767  155.0773 O   0  0  0  0  0  0  0  0  0  0  0  0
  146.9726  136.3646  153.2633 N   0  0  0  0  0  0  0  0  0  0  0  0
  145.7699  135.7513  152.8176 C   0  0  0  0  0  0  0  0  0  0  0  0
  144.5204  135.8719  153.4733 C   0  0  0  0  0  0  0  0  0  0  0  0
  143.3973  135.2273  152.9199 C   0  0  0  0  0  0  0  0  0  0  0  0
  143.5615  134.4921  151.7301 C   0  0  0  0  0  0  0  0  0  0  0  0
  144.7427  134.3799  151.0870 N   0  0  0  0  0  0  0  0  0  0  0  0
  145.8149  135.0014  151.6230 C   0  0  0  0  0  0  0  0  0  0  0  0
  152.1514  139.8292  158.7437 C   0  0  0  0  0  0  0  0  0  0  0  0
  152.9603  141.1054  159.0489 C   0  0  2  0  0  0  0  0  0  0  0  0
  153.8777  140.9278  160.2635 C   0  0  0  0  0  0  0  0  0  0  0  0
  152.0676  142.1775  159.3221 O   0  0  0  0  0  0  0  0  0  0  0  0
  149.7604  144.0185  157.7419 H   0  0  0  0  0  0  0  0  0  0  0  0
  151.0473  144.5748  158.8071 H   0  0  0  0  0  0  0  0  0  0  0  0
  149.7728  143.5344  159.4372 H   0  0  0  0  0  0  0  0  0  0  0  0
  151.8739  142.7522  157.3604 H   0  0  0  0  0  0  0  0  0  0  0  0
  149.6570  141.0897  158.6753 H   0  0  0  0  0  0  0  0  0  0  0  0
  149.7587  141.4788  156.9745 H   0  0  0  0  0  0  0  0  0  0  0  0
  150.8088  137.3441  155.1604 H   0  0  0  0  0  0  0  0  0  0  0  0
  150.3055  137.5185  156.8441 H   0  0  0  0  0  0  0  0  0  0  0  0
  148.2833  138.4719  156.2620 H   0  0  0  0  0  0  0  0  0  0  0  0
  149.0032  139.4970  155.0427 H   0  0  0  0  0  0  0  0  0  0  0  0
  149.0934  137.2197  153.7176 H   0  0  0  0  0  0  0  0  0  0  0  0
  147.8059  136.0924  152.7627 H   0  0  0  0  0  0  0  0  0  0  0  0
  144.3955  136.4516  154.3741 H   0  0  0  0  0  0  0  0  0  0  0  0
  142.4305  135.2983  153.3958 H   0  0  0  0  0  0  0  0  0  0  0  0
  142.7204  133.9861  151.2799 H   0  0  0  0  0  0  0  0  0  0  0  0
  146.7424  134.8923  151.0798 H   0  0  0  0  0  0  0  0  0  0  0  0
  151.6083  139.5165  159.6363 H   0  0  0  0  0  0  0  0  0  0  0  0
  152.8157  139.0065  158.4798 H   0  0  0  0  0  0  0  0  0  0  0  0
  153.5809  141.3699  158.1925 H   0  0  0  0  0  0  0  0  0  0  0  0
  154.5911  140.1194  160.1019 H   0  0  0  0  0  0  0  0  0  0  0  0
  153.3045  140.6949  161.1614 H   0  0  0  0  0  0  0  0  0  0  0  0
  154.4454  141.8378  160.4581 H   0  0  0  0  0  0  0  0  0  0  0  0
  1  2  1  0  0  0  0
  1 24  1  0  0  0  0
  1 25  1  0  0  0  0
  1 26  1  0  0  0  0
  2 23  1  0  0  0  0
  2  3  1  0  0  0  0
  2 27  1  0  0  0  0
  3  4  1  0  0  0  0
  3 28  1  0  0  0  0
  3 29  1  0  0  0  0
  4  5  1  0  0  0  0
  4 20  1  0  0  0  0
  5  6  2  0  0  0  0
  5  7  2  0  0  0  0
  5  8  1  0  0  0  0
  8  9  1  0  0  0  0
  8 30  1  0  0  0  0
  8 31  1  0  0  0  0
  9 10  1  0  0  0  0
  9 32  1  0  0  0  0
  9 33  1  0  0  0  0
 10 11  1  0  0  0  0
 10 34  1  0  0  0  0
 11 12  2  0  0  0  0
 11 13  1  0  0  0  0
 13 14  1  0  0  0  0
 13 35  1  0  0  0  0
 14 19  1  0  0  0  0
 14 15  2  0  0  0  0
 15 16  1  0  0  0  0
 15 36  1  0  0  0  0
 16 17  2  0  0  0  0
 16 37  1  0  0  0  0
 17 18  1  0  0  0  0
 17 38  1  0  0  0  0
 18 19  2  0  0  0  0
 19 39  1  0  0  0  0
 20 21  1  0  0  0  0
 20 40  1  0  0  0  0
 20 41  1  0  0  0  0
 21 22  1  0  0  0  0
 21 23  1  0  0  0  0
 21 42  1  0  0  0  0
 22 43  1  0  0  0  0
 22 44  1  0  0  0  0
 22 45  1  0  0  0  0
M  END
> <s_m_source_file>
AV-unprocessed.smi

> <i_m_source_file_index>
1414

> <i_lp_mmshare_version>
43012

> <i_f3d_flags>
0

> <s_epik_input>
W0NIM11bQ0BASF0xW0NIMl1OKFtDSDJdW0NASF0oTzEpW0NIM10pUyg9TykoPU8pW0NIMl1bQ0gyXVtOSF1DKD1PKVtOSF1jMltjSF1bY0hdW2NIXW5bY0hdMg==

> <s_epik_cmdline>
J2VwaWtfcHl0aG9uJywgJy1waCcsICc3LjAnLCAnLXRuJywgJzgnLCAnLW1hJywgJzIwMCcsICctbWV0YWxfYmluZGluZycsICctaW1hZScsICc8aW5maWxlLm1hZT4nLCAnLW9tYWUnLCAnPG91dGZpbGUubWFlPic=

> <r_epik_Ionization_Penalty>
0.00437531

> <r_epik_Ionization_Penalty_Charging>
0

> <r_epik_Ionization_Penalty_Neutral>
0.00437531

> <r_epik_State_Penalty>
0.00312896

> <r_epik_Charging_Adjusted_Penalty>
0.00312896

> <i_epik_Tot_Q>
0

> <i_epik_Tot_abs_Q>
0

> <r_epik_Metal_State_Penalty>
-0

> <b_epik_Metal_Only>
0

> <s_lp_Force_Field>
OPLS_2005

> <r_lp_Energy>
4.57438

> <b_lp_Chiralities_Consistent>
1

> <s_lp_Variant>
AV-unprocessed.smi:1414-2

> <Gold.Version>
5.8.1

> <Gold.Id.Protein>
6NUR|6NUR_protein|mol2

> <Gold.PLP.Fitness>
43.3743

> <Gold.PLP.PLP>
-29.9027

> <Gold.PLP.part.hbond>
-3.8719

> <Gold.PLP.part.metal>
0.0000

> <Gold.PLP.part.buried>
-6.2726

> <Gold.PLP.part.nonpolar>
-20.3722

> <Gold.PLP.part.repulsive>
0.2459

> <Gold.PLP.ligand.clash>
0.0000

> <Gold.PLP.ligand.torsion>
1.9952

> <Gold.PLP.Chemscore.Hbond>
3.5948

> <Gold.PLP.Chemscore.CHOScore>
1.5176

> <Gold.PLP.Chemscore.Metal>
0.0000

> <Gold.Chemscore.Hbonds>
donor molecule, donor type, donor heavy atom, donor atom, acceptor molecule, acceptor atom, score
      L1  H    10    34       P1  7948  0.63
      L1  H    13    35       P1  7948  0.83
      P1  H  7989  7998       L1     6  0.98
      P1  H  7997  8008       L1     7  1.00
      L1  C    17    38       P1 10186  1.00
      L1  C    19    39       P1  7948  0.60

> <Gold.PLP.Chemscore.Internal.Correction>
2.1249

> <Gold.Rescore>
     Score         DG    S(hbond)    S(metal)    S(lipo)     H(rot)  DE(clash)    DE(int)     intcor
     18.44     -21.63       3.61        0.00      69.46       1.57       0.00       3.19       ----

> <Gold.Chemscore.Fitness>
18.4443

> <Gold.Chemscore.DG>
-21.6346

> <Gold.Chemscore.ZeroCoef>
-5.4800

> <Gold.Chemscore.Hbond>
3.6059

> <Gold.Chemscore.Metal>
0.0000

> <Gold.Chemscore.Lipo>
69.4608

> <Gold.Chemscore.Internal_Hbond>
0.0000

> <Gold.Chemscore.DEClash>
0.0015

> <Gold.Chemscore.DEInternal>
3.1888

> <Gold.Chemscore.Rot>
1.5687

> <Gold.Chemscore.Internal.Correction>
   9.000000E+99

> <Gold.Chemscore.Hbonds>
donor molecule, donor type, donor heavy atom, donor atom, acceptor molecule, acceptor atom, score
      L1  H    10    34       P1  7948  0.62
      L1  H    13    35       P1  7948  0.80
      P1  H  7989  7998       L1     6  0.93
      P1  H  7997  8008       L1     7  0.96

> <Gold.Chemscore.Hbond.Weighted>
-12.0436

> <Gold.Chemscore.Metal.Weighted>
-0.0000

> <Gold.Chemscore.Lipo.Weighted>
-8.1269

> <Gold.Chemscore.Internal_Hbond.Weighted>
0.0000

> <Gold.Chemscore.DEClash.Weighted>
0.0015

> <Gold.Chemscore.DEInternal.Weighted>
3.1888

> <Gold.Chemscore.Rot.Weighted>
4.0160

> <Gold.Chemscore.Internal.Correction.Weighted>
   9.000000E+99

> <Gold.Protein.RotatedTorsions>
[ 6907 6896 6895 6894 ] final   38.02 input  -60.11 | X-H torsion
[ 7974 7965 7964 7962 ] final  132.09 input  175.53 | X-H torsion
[ 8008 7997 7996 7995 ] final  -57.13 input   59.86 | X-H torsion
[ 10167 10162 10161 10158 ] final    4.78 input  -65.29 | X-H torsion
[ 10718 10713 10712 10709 ] final -173.50 input   66.30 | X-H torsion
[ 10763 10752 10751 10750 ] final  -72.85 input  -60.55 | X-H torsion
[ 11005 11000 10999 10996 ] final  107.56 input  -57.11 | X-H torsion

> <Gold.Protein.ActiveResidues>
 VAL166  LYS551  ARG553  GLY616  TRP617  ASP618  TYR619  PRO620  LYS621  CYS622 
 ASP623  PHE694  ASN695  SER759  ASP760  ASP761  ALA762  ILE779  LEU786  VAL792 
 PHE793  MET794  SER795  GLU796  ALA797  LYS798  CYS799  TRP800  GLU811  SER814 

> <Gold.Protein.RotatedAtoms>
  152.1509  134.8989  160.0547 H   0  0  0  0  0  0  0  0  0  0  0  0  # atno 6907 bound_to 6896
  152.0021  133.3824  159.4194 H   0  0  0  0  0  0  0  0  0  0  0  0  # atno 6908 bound_to 6896
  150.6875  134.3745  159.5050 H   0  0  0  0  0  0  0  0  0  0  0  0  # atno 6909 bound_to 6896
  145.0004  139.4317  143.5295 H   0  0  0  0  0  0  0  0  0  0  0  0  # atno 7974 bound_to 7965
  154.4256  140.1114  156.5748 H   0  0  0  0  0  0  0  0  0  0  0  0  # atno 8008 bound_to 7997
  155.6174  140.3495  155.4622 H   0  0  0  0  0  0  0  0  0  0  0  0  # atno 8009 bound_to 7997
  156.0051  140.1207  157.0498 H   0  0  0  0  0  0  0  0  0  0  0  0  # atno 8010 bound_to 7997
  140.6516  143.7529  150.7585 H   0  0  0  0  0  0  0  0  0  0  0  0  # atno 10167 bound_to 10162
  156.7713  130.9449  151.3120 H   0  0  0  0  0  0  0  0  0  0  0  0  # atno 10718 bound_to 10713
  154.4514  135.5916  153.6194 H   0  0  0  0  0  0  0  0  0  0  0  0  # atno 10763 bound_to 10752
  152.9814  135.6022  154.3600 H   0  0  0  0  0  0  0  0  0  0  0  0  # atno 10764 bound_to 10752
  154.3461  135.2841  155.2375 H   0  0  0  0  0  0  0  0  0  0  0  0  # atno 10765 bound_to 10752
  139.8830  134.9404  156.5838 H   0  0  0  0  0  0  0  0  0  0  0  0  # atno 11005 bound_to 11000
  146.3451  139.9389  142.8743 LP  0  0  0  0  0  0  0  0  0  0  0  0  # atno 17320 bound_to 7965
  145.2161  140.9916  143.4073 LP  0  0  0  0  0  0  0  0  0  0  0  0  # atno 17321 bound_to 7965
  140.1181  143.4637  152.2329 LP  0  0  0  0  0  0  0  0  0  0  0  0  # atno 17342 bound_to 10162
  139.5732  144.7474  151.3833 LP  0  0  0  0  0  0  0  0  0  0  0  0  # atno 17343 bound_to 10162
  157.6689  130.9033  149.9996 LP  0  0  0  0  0  0  0  0  0  0  0  0  # atno 17370 bound_to 10713
  156.1276  130.3644  149.9784 LP  0  0  0  0  0  0  0  0  0  0  0  0  # atno 17371 bound_to 10713
  140.8007  133.8507  155.8724 LP  0  0  0  0  0  0  0  0  0  0  0  0  # atno 17394 bound_to 11000
  140.9595  134.1674  157.4665 LP  0  0  0  0  0  0  0  0  0  0  0  0  # atno 17395 bound_to 11000

$$$$
