AV-unprocessed.smi:1401|AV-procd|sdf|5694|dock3
  -GOLD-   22720 5323D 1   1.00000     0.00000
 Structure written by MMmdl.
 48 50  0  0  0  0  0  0  0  0  1 V2000
  151.8635  144.6934  161.4827 C   0  0  0  0  0  0  0  0  0  0  0  0
  152.3532  143.5411  160.6481 C   0  0  0  0  0  0  0  0  0  0  0  0
  151.8414  143.4214  159.4678 N   0  0  0  0  0  0  0  0  0  0  0  0
  152.2377  142.4141  158.6080 N   0  0  0  0  0  0  0  0  0  0  0  0
  151.6265  142.5063  157.2706 C   0  0  0  0  0  0  0  0  0  0  0  0
  150.3631  141.6432  157.1038 C   0  0  0  0  0  0  0  0  0  0  0  0
  150.3796  140.4692  157.4709 O   0  0  0  0  0  0  0  0  0  0  0  0
  149.2697  142.2355  156.5958 N   0  0  0  0  0  0  0  0  0  0  0  0
  147.9267  141.6727  156.5322 C   0  0  2  0  0  0  0  0  0  0  0  0
  147.2848  141.6588  157.9299 C   0  0  0  0  0  0  0  0  0  0  0  0
  148.0052  140.2553  155.9163 C   0  0  1  0  0  0  0  0  0  0  0  0
  146.6376  139.5955  155.6331 C   0  0  0  0  0  0  0  0  0  0  0  0
  146.7785  139.1230  154.1732 C   0  0  1  0  0  0  0  0  0  0  0  0
  146.7119  140.3451  153.2382 C   0  0  0  0  0  0  0  0  0  0  0  0
  148.0702  141.0293  153.4778 C   0  0  0  0  0  0  0  0  0  0  0  0
  148.7208  140.1273  154.5460 C   0  0  2  0  0  0  0  0  0  0  0  0
  148.2539  138.7479  154.0949 C   0  0  0  0  0  0  0  0  0  0  0  0
  153.1636  141.4584  158.9086 C   0  0  0  0  0  0  0  0  0  0  0  0
  153.5017  140.5872  158.1065 O   0  0  0  0  0  0  0  0  0  0  0  0
  153.7278  141.5907  160.2538 C   0  0  0  0  0  0  0  0  0  0  0  0
  154.7049  140.6121  160.6076 C   0  0  0  0  0  0  0  0  0  0  0  0
  155.5047  139.8311  160.9085 N   0  0  0  0  0  0  0  0  0  0  0  0
  153.3572  142.5841  161.1001 C   0  0  0  0  0  0  0  0  0  0  0  0
  153.9251  142.7755  162.4995 C   0  0  0  0  0  0  0  0  0  0  0  0
  151.4054  144.3368  162.4054 H   0  0  0  0  0  0  0  0  0  0  0  0
  151.1187  145.2908  160.9543 H   0  0  0  0  0  0  0  0  0  0  0  0
  152.6878  145.3566  161.7461 H   0  0  0  0  0  0  0  0  0  0  0  0
  151.3791  143.5379  157.0155 H   0  0  0  0  0  0  0  0  0  0  0  0
  152.3560  142.1931  156.5214 H   0  0  0  0  0  0  0  0  0  0  0  0
  149.3606  143.1988  156.3074 H   0  0  0  0  0  0  0  0  0  0  0  0
  147.3187  142.3054  155.8834 H   0  0  0  0  0  0  0  0  0  0  0  0
  146.2769  141.2448  157.8963 H   0  0  0  0  0  0  0  0  0  0  0  0
  147.2082  142.6655  158.3418 H   0  0  0  0  0  0  0  0  0  0  0  0
  147.8673  141.0578  158.6289 H   0  0  0  0  0  0  0  0  0  0  0  0
  148.5497  139.6200  156.6178 H   0  0  0  0  0  0  0  0  0  0  0  0
  146.4751  138.7513  156.3042 H   0  0  0  0  0  0  0  0  0  0  0  0
  145.7978  140.2807  155.7558 H   0  0  0  0  0  0  0  0  0  0  0  0
  146.0841  138.3276  153.9019 H   0  0  0  0  0  0  0  0  0  0  0  0
  146.6175  140.0350  152.1968 H   0  0  0  0  0  0  0  0  0  0  0  0
  145.8702  140.9984  153.4705 H   0  0  0  0  0  0  0  0  0  0  0  0
  148.6644  141.0233  152.5629 H   0  0  0  0  0  0  0  0  0  0  0  0
  147.9712  142.0680  153.7911 H   0  0  0  0  0  0  0  0  0  0  0  0
  149.8041  140.2351  154.6058 H   0  0  0  0  0  0  0  0  0  0  0  0
  148.5348  137.9473  154.7817 H   0  0  0  0  0  0  0  0  0  0  0  0
  148.5824  138.4865  153.0873 H   0  0  0  0  0  0  0  0  0  0  0  0
  154.6578  142.0109  162.7559 H   0  0  0  0  0  0  0  0  0  0  0  0
  153.1307  142.7307  163.2454 H   0  0  0  0  0  0  0  0  0  0  0  0
  154.4201  143.7441  162.5814 H   0  0  0  0  0  0  0  0  0  0  0  0
  1  2  1  0  0  0  0
  1 25  1  0  0  0  0
  1 26  1  0  0  0  0
  1 27  1  0  0  0  0
  2 23  1  0  0  0  0
  2  3  2  0  0  0  0
  3  4  1  0  0  0  0
  4  5  1  0  0  0  0
  4 18  1  0  0  0  0
  5  6  1  0  0  0  0
  5 28  1  0  0  0  0
  5 29  1  0  0  0  0
  6  7  2  0  0  0  0
  6  8  1  0  0  0  0
  8  9  1  0  0  0  0
  8 30  1  0  0  0  0
  9 10  1  0  0  0  0
  9 11  1  0  0  0  0
  9 31  1  0  0  0  0
 10 32  1  0  0  0  0
 10 33  1  0  0  0  0
 10 34  1  0  0  0  0
 11 16  1  0  0  0  0
 11 12  1  0  0  0  0
 11 35  1  0  0  0  0
 12 13  1  0  0  0  0
 12 36  1  0  0  0  0
 12 37  1  0  0  0  0
 13 17  1  0  0  0  0
 13 14  1  0  0  0  0
 13 38  1  0  0  0  0
 14 15  1  0  0  0  0
 14 39  1  0  0  0  0
 14 40  1  0  0  0  0
 15 16  1  0  0  0  0
 15 41  1  0  0  0  0
 15 42  1  0  0  0  0
 16 17  1  0  0  0  0
 16 43  1  0  0  0  0
 17 44  1  0  0  0  0
 17 45  1  0  0  0  0
 18 19  2  0  0  0  0
 18 20  1  0  0  0  0
 20 21  1  0  0  0  0
 20 23  2  0  0  0  0
 21 22  3  0  0  0  0
 23 24  1  0  0  0  0
 24 46  1  0  0  0  0
 24 47  1  0  0  0  0
 24 48  1  0  0  0  0
M  END
> <s_m_source_file>
AV-unprocessed.smi

> <i_m_source_file_index>
1401

> <i_lp_mmshare_version>
43012

> <i_f3d_flags>
0

> <s_epik_input>
TiNDYyhjMVtDSDNdKWMoPU8pbihuYzFbQ0gzXSlbQ0gyXUMoPU8pW05IXVtDQEhdKFtDSDNdKVtDQEhdKFtDSDJdW0NASF0yMylbQ0BIXShbQ0gyXTMpW0NIMl1bQ0gyXTI=

> <s_epik_cmdline>
J2VwaWtfcHl0aG9uJywgJy1waCcsICc3LjAnLCAnLXRuJywgJzgnLCAnLW1hJywgJzIwMCcsICctbWV0YWxfYmluZGluZycsICctaW1hZScsICc8aW5maWxlLm1hZT4nLCAnLW9tYWUnLCAnPG91dGZpbGUubWFlPic=

> <r_lp_tautomer_probability>
1

> <r_epik_Ionization_Penalty>
2.16501e-08

> <r_epik_Ionization_Penalty_Charging>
2.29436e-11

> <r_epik_Ionization_Penalty_Neutral>
2.16271e-08

> <r_epik_State_Penalty>
-0

> <r_epik_Charging_Adjusted_Penalty>
2.29436e-11

> <i_epik_Tot_Q>
0

> <i_epik_Tot_abs_Q>
0

> <r_epik_Metal_State_Penalty>
-0

> <b_epik_Metal_Only>
0

> <s_lp_Force_Field>
OPLS_2005

> <r_lp_Energy>
65.485

> <b_lp_Chiralities_Consistent>
1

> <s_lp_Variant>
AV-unprocessed.smi:1401-7

> <Gold.Version>
5.8.1

> <Gold.Id.Protein>
6NUR|6NUR_protein|mol2

> <Gold.PLP.Fitness>
43.3109

> <Gold.PLP.PLP>
-39.1044

> <Gold.PLP.part.hbond>
-2.0000

> <Gold.PLP.part.metal>
0.0000

> <Gold.PLP.part.buried>
1.0989

> <Gold.PLP.part.nonpolar>
-36.1916

> <Gold.PLP.part.repulsive>
0.0320

> <Gold.PLP.ligand.clash>
0.0000

> <Gold.PLP.ligand.torsion>
0.6279

> <Gold.PLP.Chemscore.Hbond>
1.8080

> <Gold.PLP.Chemscore.CHOScore>
0.0000

> <Gold.PLP.Chemscore.Metal>
0.0000

> <Gold.Chemscore.Hbonds>
donor molecule, donor type, donor heavy atom, donor atom, acceptor molecule, acceptor atom, score
      L1  H     8    30       P1  8028  1.00
      P1  H  7997  8008       L1    19  0.67

> <Gold.PLP.Chemscore.Internal.Correction>
0.0383

> <Gold.Rescore>
     Score         DG    S(hbond)    S(metal)    S(lipo)     H(rot)  DE(clash)    DE(int)     intcor
     15.93     -19.76       1.88        0.00     103.99       1.63       1.92       1.92       ----

> <Gold.Chemscore.Fitness>
15.9289

> <Gold.Chemscore.DG>
-19.7622

> <Gold.Chemscore.ZeroCoef>
-5.4800

> <Gold.Chemscore.Hbond>
1.8813

> <Gold.Chemscore.Metal>
0.0000

> <Gold.Chemscore.Lipo>
103.9862

> <Gold.Chemscore.Internal_Hbond>
0.0000

> <Gold.Chemscore.DEClash>
1.9178

> <Gold.Chemscore.DEInternal>
1.9155

> <Gold.Chemscore.Rot>
1.6281

> <Gold.Chemscore.Internal.Correction>
   9.000000E+99

> <Gold.Chemscore.Hbonds>
donor molecule, donor type, donor heavy atom, donor atom, acceptor molecule, acceptor atom, score
      L1  H     8    30       P1  8028  0.99
      P1  H  7997  8008       L1    19  0.67

> <Gold.Chemscore.Hbond.Weighted>
-6.2836

> <Gold.Chemscore.Metal.Weighted>
-0.0000

> <Gold.Chemscore.Lipo.Weighted>
-12.1664

> <Gold.Chemscore.Internal_Hbond.Weighted>
0.0000

> <Gold.Chemscore.DEClash.Weighted>
1.9178

> <Gold.Chemscore.DEInternal.Weighted>
1.9155

> <Gold.Chemscore.Rot.Weighted>
4.1678

> <Gold.Chemscore.Internal.Correction.Weighted>
   9.000000E+99

> <Gold.Protein.RotatedTorsions>
[ 6907 6896 6895 6894 ] final   -1.31 input  -60.11 | X-H torsion
[ 7974 7965 7964 7962 ] final  -16.54 input  175.53 | X-H torsion
[ 8008 7997 7996 7995 ] final  -90.29 input   59.86 | X-H torsion
[ 10167 10162 10161 10158 ] final  -51.64 input  -65.29 | X-H torsion
[ 10718 10713 10712 10709 ] final  156.78 input   66.30 | X-H torsion
[ 10763 10752 10751 10750 ] final   -3.51 input  -60.55 | X-H torsion
[ 11005 11000 10999 10996 ] final   93.21 input  -57.11 | X-H torsion

> <Gold.Protein.ActiveResidues>
 VAL166  LYS551  ARG553  GLY616  TRP617  ASP618  TYR619  PRO620  LYS621  CYS622 
 ASP623  PHE694  ASN695  SER759  ASP760  ASP761  ALA762  ILE779  LEU786  VAL792 
 PHE793  MET794  SER795  GLU796  ALA797  LYS798  CYS799  TRP800  GLU811  SER814 

> <Gold.Protein.RotatedAtoms>
  151.5481  135.1068  159.9942 H   0  0  0  0  0  0  0  0  0  0  0  0  # atno 6907 bound_to 6896
  152.4504  133.7614  159.6759 H   0  0  0  0  0  0  0  0  0  0  0  0  # atno 6908 bound_to 6896
  150.8431  133.7838  159.3077 H   0  0  0  0  0  0  0  0  0  0  0  0  # atno 6909 bound_to 6896
  146.1983  140.3650  142.8432 H   0  0  0  0  0  0  0  0  0  0  0  0  # atno 7974 bound_to 7965
  154.6968  140.0532  157.0418 H   0  0  0  0  0  0  0  0  0  0  0  0  # atno 8008 bound_to 7997
  155.0740  140.3202  155.4603 H   0  0  0  0  0  0  0  0  0  0  0  0  # atno 8009 bound_to 7997
  156.2747  140.2076  156.5868 H   0  0  0  0  0  0  0  0  0  0  0  0  # atno 8010 bound_to 7997
  140.6578  143.2612  151.4533 H   0  0  0  0  0  0  0  0  0  0  0  0  # atno 10167 bound_to 10162
  157.2004  131.0675  151.2028 H   0  0  0  0  0  0  0  0  0  0  0  0  # atno 10718 bound_to 10713
  153.3724  135.6995  153.6628 H   0  0  0  0  0  0  0  0  0  0  0  0  # atno 10763 bound_to 10752
  153.5272  135.3599  155.2660 H   0  0  0  0  0  0  0  0  0  0  0  0  # atno 10764 bound_to 10752
  154.8683  135.4172  154.3005 H   0  0  0  0  0  0  0  0  0  0  0  0  # atno 10765 bound_to 10752
  139.8813  134.8777  156.3684 H   0  0  0  0  0  0  0  0  0  0  0  0  # atno 11005 bound_to 11000
  144.8627  140.7163  143.6097 LP  0  0  0  0  0  0  0  0  0  0  0  0  # atno 17320 bound_to 7965
  145.3570  139.1691  143.4404 LP  0  0  0  0  0  0  0  0  0  0  0  0  # atno 17321 bound_to 7965
  139.5804  144.1722  152.1961 LP  0  0  0  0  0  0  0  0  0  0  0  0  # atno 17342 bound_to 10162
  140.1045  144.5510  150.6966 LP  0  0  0  0  0  0  0  0  0  0  0  0  # atno 17343 bound_to 10162
  157.3772  130.7212  149.6605 LP  0  0  0  0  0  0  0  0  0  0  0  0  # atno 17370 bound_to 10713
  155.9701  130.4182  150.4317 LP  0  0  0  0  0  0  0  0  0  0  0  0  # atno 17371 bound_to 10713
  140.9481  133.7469  156.0235 LP  0  0  0  0  0  0  0  0  0  0  0  0  # atno 17394 bound_to 11000
  140.8139  134.3368  157.5403 LP  0  0  0  0  0  0  0  0  0  0  0  0  # atno 17395 bound_to 11000

$$$$
