#       Name:                AV-unprocessed.smi:876
#       Creating user name   scv26
#       Creation time:       Fri Mar 27 01:50:52 2020


#       File generated by GOLD software.
#

@<TRIPOS>MOLECULE
AV-unprocessed.smi:876
    45    46     1
SMALL
NO_CHARGES


@<TRIPOS>ATOM
      1 ****        -6.4187   0.2046   1.0820 C.3            1 S1                 0.0000
      2 ****        -5.5948   1.2660   0.5182 N.pl3          1 S1                 0.0000
      3 ****        -6.2001   2.5273   0.1052 C.3            1 S1                 0.0000
      4 ****        -4.2149   1.0492   0.3132 C.ar           1 S1                 0.0000
      5 ****        -3.5595  -0.1566   0.6635 C.ar           1 S1                 0.0000
      6 ****        -2.1776  -0.3031   0.4251 C.ar           1 S1                 0.0000
      7 ****        -1.4545   0.7579  -0.1733 C.ar           1 S1                 0.0000
      8 ****        -0.0600   0.7201  -0.4472 N.am           1 S1                 0.0000
      9 ****         0.7382  -0.3532  -0.5837 C.2            1 S1                 0.0000
     10 ****         0.3742  -1.5259  -0.5010 O.2            1 S1                 0.0000
     11 ****         2.0026   0.0097  -0.8419 N.am           1 S1                 0.0000
     12 ****         3.1079  -0.9203  -1.0461 C.3            1 S1                 0.0000
     13 ****         4.3070  -0.2069  -1.6075 C.2            1 S1                 0.0000
     14 ****         5.3877  -0.3364  -0.8414 C.2            1 S1                 0.0000
     15 ****         5.1291  -1.1425   0.4061 C.3            1 S1                 0.0000
     16 ****         6.0616  -2.3597   0.5341 C.3            1 S1                 0.0000
     17 ****         7.4018  -1.9461   0.7012 O.3            1 S1                 0.0000
     18 ****         3.6337  -1.5316   0.2797 C.3            1 S1                 0.0000
     19 ****        -2.1503   1.9427  -0.4867 C.ar           1 S1                 0.0000
     20 ****        -3.4746   2.0403  -0.2411 N.pl3          1 S1                 1.0000
     21 ****         2.8170  -1.7050  -1.7467 H              1 S1                 0.0000
     22 ****         5.2621  -0.4855   1.2670 H              1 S1                 0.0000
     23 ****        -6.0700  -0.0619   2.0802 H              1 S1                 0.0000
     24 ****        -6.3842  -0.6843   0.4511 H              1 S1                 0.0000
     25 ****        -7.4610   0.5131   1.1656 H              1 S1                 0.0000
     26 ****        -6.0637   2.6861  -0.9650 H              1 S1                 0.0000
     27 ****        -5.7483   3.3627   0.6411 H              1 S1                 0.0000
     28 ****        -7.2710   2.5401   0.3099 H              1 S1                 0.0000
     29 ****        -4.0942  -0.9773   1.1177 H              1 S1                 0.0000
     30 ****        -1.7009  -1.2252   0.7192 H              1 S1                 0.0000
     31 ****         0.3725   1.6164  -0.6169 H              1 S1                 0.0000
     32 ****         2.2192   0.9941  -0.8983 H              1 S1                 0.0000
     33 ****         4.2708   0.3322  -2.5428 H              1 S1                 0.0000
     34 ****         6.3556   0.0914  -1.0578 H              1 S1                 0.0000
     35 ****         5.7778  -2.9637   1.3964 H              1 S1                 0.0000
     36 ****         5.9899  -2.9994  -0.3464 H              1 S1                 0.0000
     37 ****         7.9457  -2.7149   0.7797 H              1 S1                 0.0000
     38 ****         3.0778  -1.1649   1.1438 H              1 S1                 0.0000
     39 ****         3.5045  -2.6146   0.2657 H              1 S1                 0.0000
     40 ****        -1.6921   2.8137  -0.9327 H              1 S1                 0.0000
     41 ****        -3.9447   2.9113  -0.4882 H              1 S1                 0.0000
     42 ****        -0.5855  -1.7399  -0.3184 LP             1 S1                 0.0000
     43 ****         1.0380  -2.2648  -0.6164 LP             1 S1                 0.0000
     44 ****         7.4824  -1.3900   1.5284 LP             1 S1                 0.0000
     45 ****         7.6901  -1.4085  -0.0912 LP             1 S1                 0.0000
@<TRIPOS>BOND
    1    1    2 1     
    2    1   23 1     
    3    1   24 1     
    4    1   25 1     
    5    2    3 1     
    6    2    4 1     
    7    3   26 1     
    8    3   27 1     
    9    3   28 1     
   10    4   20 ar    
   11    4    5 ar    
   12    5    6 ar    
   13    5   29 1     
   14    6    7 ar    
   15    6   30 1     
   16    7    8 1     
   17    7   19 ar    
   18    8    9 am    
   19    8   31 1     
   20    9   10 2     
   21    9   11 am    
   22   11   12 1     
   23   11   32 1     
   24   12   21 1     
   25   12   18 1     
   26   12   13 1     
   27   13   14 2     
   28   13   33 1     
   29   14   15 1     
   30   14   34 1     
   31   15   22 1     
   32   15   16 1     
   33   15   18 1     
   34   16   17 1     
   35   16   35 1     
   36   16   36 1     
   37   17   37 1     
   38   18   38 1     
   39   18   39 1     
   40   19   20 ar    
   41   19   40 1     
   42   20   41 1     
   43   10   42 1     
   44   10   43 1     
   45   17   44 1     
   46   17   45 1     
@<TRIPOS>SUBSTRUCTURE
      1 S1             1
@<TRIPOS>SET
LONE_PAIRS      STATIC     ATOMS    <user>   **** ""
4 42 43 44 45
DONOR_HYDROGENS      STATIC     ATOMS    <user>   **** ""
4 31 32 37 41
ATOM$BLUE        STATIC     ATOMS    COLORGROUP SYSTEM
4 42 43 44 45
ATOM$RED        STATIC     ATOMS    COLORGROUP SYSTEM
4 31 32 37 41
