#       Name:                AV-unprocessed.smi:1726
#       Creating user name   scv26
#       Creation time:       Fri Mar 27 08:17:21 2020


#       File generated by GOLD software.
#

@<TRIPOS>MOLECULE
AV-unprocessed.smi:1726
    47    48     1
SMALL
NO_CHARGES


@<TRIPOS>ATOM
      1 ****        -3.3540  -0.9862   3.1492 C.3            1 S1                 0.0000
      2 ****        -3.4928  -2.0782   2.0788 C.3            1 S1                 0.0000
      3 ****        -3.1658  -1.5872   0.7159 N.4            1 S1                 1.0000
      4 ****        -3.7609  -2.4434  -0.3432 C.3            1 S1                 0.0000
      5 ****        -3.5249  -1.8480  -1.7409 C.3            1 S1                 0.0000
      6 ****        -2.0299  -1.6220  -1.9990 C.3            1 S1                 0.0000
      7 ****        -1.4296  -0.7543  -0.8822 C.3            1 S1                 0.0000
      8 ****         0.0048  -0.5873  -1.0993 N.am           1 S1                 0.0000
      9 ****         0.7513   0.4039  -0.5906 C.2            1 S1                 0.0000
     10 ****         0.2921   1.2853   0.1357 O.2            1 S1                 0.0000
     11 ****         2.0383   0.2792  -0.9636 N.am           1 S1                 0.0000
     12 ****         3.1335   1.1088  -0.6679 C.2            1 S1                 0.0000
     13 ****         3.0407   2.3864  -0.2144 C.2            1 S1                 0.0000
     14 ****         4.2170   3.1935   0.0649 C.2            1 S1                 0.0000
     15 ****         4.1034   4.6403   0.5203 C.3            1 S1                 0.0000
     16 ****         5.1245   5.3698   0.0686 F              1 S1                 0.0000
     17 ****         2.9703   5.1931   0.0869 F              1 S1                 0.0000
     18 ****         4.1100   4.6972   1.8514 F              1 S1                 0.0000
     19 ****         5.4098   2.6201  -0.1792 C.2            1 S1                 0.0000
     20 ****         5.5141   1.3078  -0.6454 N.am           1 S1                 0.0000
     21 ****         4.4561   0.5090  -0.9103 C.2            1 S1                 0.0000
     22 ****         4.6306  -0.6365  -1.3244 O.2            1 S1                 0.0000
     23 ****        -1.7081  -1.3853   0.4991 C.3            1 S1                 0.0000
     24 ****         6.4454   0.9466  -0.7946 H              1 S1                 0.0000
     25 ****        -3.7010  -1.3525   4.1157 H              1 S1                 0.0000
     26 ****        -3.9499  -0.1087   2.8969 H              1 S1                 0.0000
     27 ****        -2.3204  -0.6668   3.2795 H              1 S1                 0.0000
     28 ****        -2.8729  -2.9414   2.3257 H              1 S1                 0.0000
     29 ****        -4.5265  -2.4266   2.0956 H              1 S1                 0.0000
     30 ****        -3.3352  -3.4464  -0.2836 H              1 S1                 0.0000
     31 ****        -4.8342  -2.5444  -0.1771 H              1 S1                 0.0000
     32 ****        -3.9377  -2.5106  -2.5022 H              1 S1                 0.0000
     33 ****        -4.0601  -0.9018  -1.8314 H              1 S1                 0.0000
     34 ****        -1.5168  -2.5838  -2.0439 H              1 S1                 0.0000
     35 ****        -1.8878  -1.1450  -2.9695 H              1 S1                 0.0000
     36 ****        -1.9051   0.2280  -0.9242 H              1 S1                 0.0000
     37 ****         0.4612  -1.2737  -1.6830 H              1 S1                 0.0000
     38 ****         2.2718  -0.5411  -1.5045 H              1 S1                 0.0000
     39 ****         2.0813   2.8515  -0.0588 H              1 S1                 0.0000
     40 ****         6.3608   3.1137  -0.0427 H              1 S1                 0.0000
     41 ****        -1.3060  -0.7369   1.2767 H              1 S1                 0.0000
     42 ****        -1.1914  -2.3425   0.5896 H              1 S1                 0.0000
     43 ****        -3.6045  -0.6819   0.6255 H              1 S1                 0.0000
     44 ****        -0.6798   1.2831   0.3713 LP             1 S1                 0.0000
     45 ****         0.8909   2.0034   0.4902 LP             1 S1                 0.0000
     46 ****         3.8444  -1.2233  -1.5183 LP             1 S1                 0.0000
     47 ****         5.5586  -0.9807  -1.4670 LP             1 S1                 0.0000
@<TRIPOS>BOND
    1    1    2 1     
    2    1   25 1     
    3    1   26 1     
    4    1   27 1     
    5    2    3 1     
    6    2   28 1     
    7    2   29 1     
    8    3   23 1     
    9    3    4 1     
   10    3   43 1     
   11    4    5 1     
   12    4   30 1     
   13    4   31 1     
   14    5    6 1     
   15    5   32 1     
   16    5   33 1     
   17    6    7 1     
   18    6   34 1     
   19    6   35 1     
   20    7    8 1     
   21    7   23 1     
   22    7   36 1     
   23    8    9 am    
   24    8   37 1     
   25    9   10 2     
   26    9   11 am    
   27   11   12 1     
   28   11   38 1     
   29   12   21 1     
   30   12   13 2     
   31   13   14 1     
   32   13   39 1     
   33   14   15 1     
   34   14   19 2     
   35   15   16 1     
   36   15   17 1     
   37   15   18 1     
   38   19   20 1     
   39   19   40 1     
   40   20   24 1     
   41   20   21 am    
   42   21   22 2     
   43   23   41 1     
   44   23   42 1     
   45   10   44 1     
   46   10   45 1     
   47   22   46 1     
   48   22   47 1     
@<TRIPOS>SUBSTRUCTURE
      1 S1             1
@<TRIPOS>SET
LONE_PAIRS      STATIC     ATOMS    <user>   **** ""
4 44 45 46 47
DONOR_HYDROGENS      STATIC     ATOMS    <user>   **** ""
4 43 37 38 24
ATOM$BLUE        STATIC     ATOMS    COLORGROUP SYSTEM
4 44 45 46 47
ATOM$RED        STATIC     ATOMS    COLORGROUP SYSTEM
4 43 37 38 24
