AV-unprocessed.smi:2009|AV-procd|sdf|8148|dock7
  -GOLD-   2272010393D 1   1.00000     0.00000
 Structure written by MMmdl.
 37 38  0  0  0  0  0  0  0  0  2 V2000
  150.3469  141.0966  157.7623 C   0  0  0  0  0  0  0  0  0  0  0  0
  151.8621  141.2503  157.5737 C   0  0  1  0  0  0  0  0  0  0  0  0
  152.5728  141.6520  158.8904 C   0  0  0  0  0  0  0  0  0  0  0  0
  152.2363  142.9907  159.3679 N   0  0  0  0  0  0  0  0  0  0  0  0
  152.4610  144.2064  158.7496 C   0  0  0  0  0  0  0  0  0  0  0  0
  151.9878  145.1826  159.5781 C   0  0  0  0  0  0  0  0  0  0  0  0
  151.4950  144.4617  160.7009 C   0  0  0  0  0  0  0  0  0  0  0  0
  151.6524  143.1537  160.5788 N   0  0  0  0  0  0  0  0  0  0  0  0
  152.4050  139.9906  157.0840 N   0  5  0  0  0  0  0  0  0  0  0  0
  151.9993  139.4703  155.6028 S   0  0  0  0  0  0  0  0  0  0  0  0
  150.9644  140.2894  154.9514 O   0  0  0  0  0  0  0  0  0  0  0  0
  153.1667  139.0719  154.7991 O   0  0  0  0  0  0  0  0  0  0  0  0
  151.2097  137.9991  156.0894 N   0  0  0  0  0  0  0  0  0  0  0  0
  150.7661  137.0890  155.0127 C   0  0  0  0  0  0  0  0  0  0  0  0
  150.4523  135.6834  155.5524 C   0  0  0  0  0  0  0  0  0  0  0  0
  149.4326  135.7390  156.6925 C   0  0  0  0  0  0  0  0  0  0  0  0
  149.9561  136.6695  157.7891 C   0  0  0  0  0  0  0  0  0  0  0  0
  150.2671  138.0675  157.2303 C   0  0  0  0  0  0  0  0  0  0  0  0
  149.9019  142.0263  158.1175 H   0  0  0  0  0  0  0  0  0  0  0  0
  150.1120  140.3174  158.4883 H   0  0  0  0  0  0  0  0  0  0  0  0
  149.8573  140.8372  156.8227 H   0  0  0  0  0  0  0  0  0  0  0  0
  152.0137  142.0585  156.8566 H   0  0  0  0  0  0  0  0  0  0  0  0
  152.3176  140.9390  159.6758 H   0  0  0  0  0  0  0  0  0  0  0  0
  153.6557  141.5936  158.7708 H   0  0  0  0  0  0  0  0  0  0  0  0
  152.9247  144.2694  157.7758 H   0  0  0  0  0  0  0  0  0  0  0  0
  151.9920  146.2486  159.4066 H   0  0  0  0  0  0  0  0  0  0  0  0
  151.0327  144.8482  161.5971 H   0  0  0  0  0  0  0  0  0  0  0  0
  149.8881  137.5171  154.5273 H   0  0  0  0  0  0  0  0  0  0  0  0
  151.5409  137.0086  154.2509 H   0  0  0  0  0  0  0  0  0  0  0  0
  150.0760  135.0524  154.7471 H   0  0  0  0  0  0  0  0  0  0  0  0
  151.3723  135.2159  155.9063 H   0  0  0  0  0  0  0  0  0  0  0  0
  148.4744  136.1028  156.3195 H   0  0  0  0  0  0  0  0  0  0  0  0
  149.2586  134.7405  157.0941 H   0  0  0  0  0  0  0  0  0  0  0  0
  149.2238  136.7464  158.5932 H   0  0  0  0  0  0  0  0  0  0  0  0
  150.8588  136.2457  158.2315 H   0  0  0  0  0  0  0  0  0  0  0  0
  150.6769  138.6851  158.0286 H   0  0  0  0  0  0  0  0  0  0  0  0
  149.3498  138.5562  156.9002 H   0  0  0  0  0  0  0  0  0  0  0  0
  1  2  1  0  0  0  0
  1 19  1  0  0  0  0
  1 20  1  0  0  0  0
  1 21  1  0  0  0  0
  2  3  1  0  0  0  0
  2  9  1  0  0  0  0
  2 22  1  0  0  0  0
  3  4  1  0  0  0  0
  3 23  1  0  0  0  0
  3 24  1  0  0  0  0
  4  8  1  0  0  0  0
  4  5  1  0  0  0  0
  5  6  2  0  0  0  0
  5 25  1  0  0  0  0
  6  7  1  0  0  0  0
  6 26  1  0  0  0  0
  7  8  2  0  0  0  0
  7 27  1  0  0  0  0
  9 10  1  0  0  0  0
 10 11  2  0  0  0  0
 10 12  2  0  0  0  0
 10 13  1  0  0  0  0
 13 18  1  0  0  0  0
 13 14  1  0  0  0  0
 14 15  1  0  0  0  0
 14 28  1  0  0  0  0
 14 29  1  0  0  0  0
 15 16  1  0  0  0  0
 15 30  1  0  0  0  0
 15 31  1  0  0  0  0
 16 17  1  0  0  0  0
 16 32  1  0  0  0  0
 16 33  1  0  0  0  0
 17 18  1  0  0  0  0
 17 34  1  0  0  0  0
 17 35  1  0  0  0  0
 18 36  1  0  0  0  0
 18 37  1  0  0  0  0
M  CHG  1   9  -1
M  END
> <s_m_source_file>
AV-unprocessed.smi

> <i_m_source_file_index>
2009

> <i_lp_mmshare_version>
43012

> <i_f3d_flags>
0

> <s_epik_input>
bjFbY0hdW2NIXVtjSF1uMVtDSDJdW0NAQEhdKFtDSDNdKVtOSF1TKD1PKSg9TylOMltDSDJdW0NIMl1bQ0gyXVtDSDJdW0NIMl0y

> <s_epik_cmdline>
J2VwaWtfcHl0aG9uJywgJy1waCcsICc3LjAnLCAnLXRuJywgJzgnLCAnLW1hJywgJzIwMCcsICctbWV0YWxfYmluZGluZycsICctaW1hZScsICc8aW5maWxlLm1hZT4nLCAnLW9tYWUnLCAnPG91dGZpbGUubWFlPic=

> <r_lp_tautomer_probability>
1

> <r_epik_Ionization_Penalty>
1.75622

> <r_epik_Ionization_Penalty_Charging>
1.7562

> <r_epik_Ionization_Penalty_Neutral>
2.38826e-05

> <r_epik_State_Penalty>
1.86645

> <r_epik_Charging_Adjusted_Penalty>
3.62264

> <i_epik_Tot_Q>
-1

> <i_epik_Tot_abs_Q>
1

> <r_epik_Metal_State_Penalty>
0.460135

> <b_epik_Metal_Only>
0

> <s_lp_Force_Field>
OPLS_2005

> <r_lp_Energy>
6.21629

> <b_lp_Chiralities_Consistent>
1

> <s_lp_Variant>
AV-unprocessed.smi:2009-4

> <Gold.Version>
5.8.1

> <Gold.Id.Protein>
6NUR|6NUR_protein|mol2

> <Gold.PLP.Fitness>
44.1221

> <Gold.PLP.PLP>
-35.5844

> <Gold.PLP.part.hbond>
-3.5659

> <Gold.PLP.part.metal>
0.0000

> <Gold.PLP.part.buried>
-6.6368

> <Gold.PLP.part.nonpolar>
-25.8397

> <Gold.PLP.part.repulsive>
0.1326

> <Gold.PLP.ligand.clash>
0.0000

> <Gold.PLP.ligand.torsion>
0.9524

> <Gold.PLP.Chemscore.Hbond>
2.9520

> <Gold.PLP.Chemscore.CHOScore>
0.0000

> <Gold.PLP.Chemscore.Metal>
0.0000

> <Gold.Chemscore.Hbonds>
donor molecule, donor type, donor heavy atom, donor atom, acceptor molecule, acceptor atom, score
      P1  H  7989  7998       L1    11  1.00
      P1  H  7997  8010       L1     9  1.66

> <Gold.PLP.Chemscore.Internal.Correction>
1.5866

> <Gold.Rescore>
     Score         DG    S(hbond)    S(metal)    S(lipo)     H(rot)  DE(clash)    DE(int)     intcor
     13.24     -15.46       1.41        0.00      79.26       1.57       0.07       2.16       ----

> <Gold.Chemscore.Fitness>
13.2356

> <Gold.Chemscore.DG>
-15.4642

> <Gold.Chemscore.ZeroCoef>
-5.4800

> <Gold.Chemscore.Hbond>
1.4139

> <Gold.Chemscore.Metal>
0.0000

> <Gold.Chemscore.Lipo>
79.2635

> <Gold.Chemscore.Internal_Hbond>
0.0000

> <Gold.Chemscore.DEClash>
0.0689

> <Gold.Chemscore.DEInternal>
2.1597

> <Gold.Chemscore.Rot>
1.5672

> <Gold.Chemscore.Internal.Correction>
   9.000000E+99

> <Gold.Chemscore.Hbonds>
donor molecule, donor type, donor heavy atom, donor atom, acceptor molecule, acceptor atom, score
      P1  H  7989  7998       L1    11  0.60
      P1  H  7997  8010       L1     9  0.14

> <Gold.Chemscore.Hbond.Weighted>
-4.7223

> <Gold.Chemscore.Metal.Weighted>
-0.0000

> <Gold.Chemscore.Lipo.Weighted>
-9.2738

> <Gold.Chemscore.Internal_Hbond.Weighted>
0.0000

> <Gold.Chemscore.DEClash.Weighted>
0.0689

> <Gold.Chemscore.DEInternal.Weighted>
2.1597

> <Gold.Chemscore.Rot.Weighted>
4.0119

> <Gold.Chemscore.Internal.Correction.Weighted>
   9.000000E+99

> <Gold.Protein.RotatedTorsions>
[ 6907 6896 6895 6894 ] final  154.08 input  -60.11 | X-H torsion
[ 7974 7965 7964 7962 ] final   90.90 input  175.53 | X-H torsion
[ 8008 7997 7996 7995 ] final   46.06 input   59.86 | X-H torsion
[ 10167 10162 10161 10158 ] final  -21.42 input  -65.29 | X-H torsion
[ 10718 10713 10712 10709 ] final  -72.51 input   66.30 | X-H torsion
[ 10763 10752 10751 10750 ] final  -90.70 input  -60.55 | X-H torsion
[ 11005 11000 10999 10996 ] final    7.13 input  -57.11 | X-H torsion

> <Gold.Protein.ActiveResidues>
 VAL166  LYS551  ARG553  GLY616  TRP617  ASP618  TYR619  PRO620  LYS621  CYS622 
 ASP623  PHE694  ASN695  SER759  ASP760  ASP761  ALA762  ILE779  LEU786  VAL792 
 PHE793  MET794  SER795  GLU796  ALA797  LYS798  CYS799  TRP800  GLU811  SER814 

> <Gold.Protein.RotatedAtoms>
  152.0635  133.4073  159.4427 H   0  0  0  0  0  0  0  0  0  0  0  0  # atno 6907 bound_to 6896
  150.6865  134.3173  159.4781 H   0  0  0  0  0  0  0  0  0  0  0  0  # atno 6908 bound_to 6896
  152.0996  134.9350  160.0620 H   0  0  0  0  0  0  0  0  0  0  0  0  # atno 6909 bound_to 6896
  145.5129  139.2277  143.2714 H   0  0  0  0  0  0  0  0  0  0  0  0  # atno 7974 bound_to 7965
  155.3462  140.3411  155.4239 H   0  0  0  0  0  0  0  0  0  0  0  0  # atno 8008 bound_to 7997
  156.1787  140.1656  156.8349 H   0  0  0  0  0  0  0  0  0  0  0  0  # atno 8009 bound_to 7997
  154.5310  140.0745  156.8328 H   0  0  0  0  0  0  0  0  0  0  0  0  # atno 8010 bound_to 7997
  140.7282  143.4630  151.0353 H   0  0  0  0  0  0  0  0  0  0  0  0  # atno 10167 bound_to 10162
  156.0317  130.4374  150.2603 H   0  0  0  0  0  0  0  0  0  0  0  0  # atno 10718 bound_to 10713
  154.6684  135.5295  153.8107 H   0  0  0  0  0  0  0  0  0  0  0  0  # atno 10763 bound_to 10752
  153.0486  135.6523  154.0763 H   0  0  0  0  0  0  0  0  0  0  0  0  # atno 10764 bound_to 10752
  154.0664  135.2957  155.3296 H   0  0  0  0  0  0  0  0  0  0  0  0  # atno 10765 bound_to 10752
  140.5517  134.0277  155.7939 H   0  0  0  0  0  0  0  0  0  0  0  0  # atno 11005 bound_to 11000
  146.2155  140.5937  142.9040 LP  0  0  0  0  0  0  0  0  0  0  0  0  # atno 17320 bound_to 7965
  144.7718  140.5653  143.6665 LP  0  0  0  0  0  0  0  0  0  0  0  0  # atno 17321 bound_to 7965
  139.8316  143.7683  152.3180 LP  0  0  0  0  0  0  0  0  0  0  0  0  # atno 17342 bound_to 10162
  139.7801  144.7447  151.0100 LP  0  0  0  0  0  0  0  0  0  0  0  0  # atno 17343 bound_to 10162
  157.0705  131.0115  151.3192 LP  0  0  0  0  0  0  0  0  0  0  0  0  # atno 17370 bound_to 10713
  157.5003  130.7876  149.7597 LP  0  0  0  0  0  0  0  0  0  0  0  0  # atno 17371 bound_to 10713
  141.1168  133.9527  157.2807 LP  0  0  0  0  0  0  0  0  0  0  0  0  # atno 17394 bound_to 11000
  139.9452  135.0185  156.8830 LP  0  0  0  0  0  0  0  0  0  0  0  0  # atno 17395 bound_to 11000

$$$$
