#       Name:                AV-unprocessed.smi:171
#       Creating user name   scv26
#       Creation time:       Thu Mar 26 19:18:39 2020


#       File generated by GOLD software.
#

@<TRIPOS>MOLECULE
AV-unprocessed.smi:171
    65    68     1
SMALL
NO_CHARGES


@<TRIPOS>ATOM
      1 ****        -2.7638  -3.7715   0.3684 C.3            1 S1                 0.0000
      2 ****        -3.7481  -2.6074   0.1637 C.3            1 S1                 0.0000
      3 ****        -5.1001  -2.9257   0.8198 C.3            1 S1                 0.0000
      4 ****        -3.9408  -2.2459  -1.3281 C.3            1 S1                 0.0000
      5 ****        -2.6604  -1.7957  -2.0735 C.3            1 S1                 0.0000
      6 ****        -2.9866  -1.4670  -3.5481 C.2            1 S1                 0.0000
      7 ****        -3.3017  -2.3741  -4.3155 O.2            1 S1                 0.0000
      8 ****        -2.9178  -0.1905  -3.9678 N.am           1 S1                 0.0000
      9 ****        -2.5348   0.9599  -3.1500 C.3            1 S1                 0.0000
     10 ****        -2.5998   0.6641  -1.6421 C.3            1 S1                 0.0000
     11 ****        -2.0477  -0.6591  -1.3689 N.pl3          1 S1                 0.0000
     12 ****        -0.7160  -0.6828  -1.1121 C.ar           1 S1                 0.0000
     13 ****         0.1426  -1.2554  -1.9969 N.ar           1 S1                 0.0000
     14 ****         1.4554  -1.2679  -1.7478 C.ar           1 S1                 0.0000
     15 ****         2.1106  -0.7710  -0.6963 N.ar           1 S1                 0.0000
     16 ****         1.2524  -0.1939   0.1930 C.ar           1 S1                 0.0000
     17 ****        -0.1619  -0.1080   0.0640 C.ar           1 S1                 0.0000
     18 ****        -0.7023   0.5374   1.1696 N.2            1 S1                 0.0000
     19 ****         0.3353   0.8233   1.9076 C.2            1 S1                 0.0000
     20 ****         1.5496   0.4273   1.3933 N.pl3          1 S1                 0.0000
     21 ****         2.8577   0.6218   1.9982 C.3            1 S1                 0.0000
     22 ****         3.5169   1.9676   1.6142 C.3            1 S1                 0.0000
     23 ****         3.6923   2.0007   0.2062 O.3            1 S1                 0.0000
     24 ****         2.7072   3.1915   2.0190 C.3            1 S1                 0.0000
     25 ****         3.7754   4.2718   2.1228 C.3            1 S1                 0.0000
     26 ****         4.8957   3.6021   2.6835 O.3            1 S1                 0.0000
     27 ****         4.8571   2.2158   2.3463 C.3            1 S1                 0.0000
     28 ****         6.1365   1.8037   1.5996 C.3            1 S1                 0.0000
     29 ****        -3.0831  -4.6615  -0.1749 H              1 S1                 0.0000
     30 ****        -2.6847  -4.0365   1.4231 H              1 S1                 0.0000
     31 ****        -1.7604  -3.5133   0.0302 H              1 S1                 0.0000
     32 ****        -3.3444  -1.7380   0.6840 H              1 S1                 0.0000
     33 ****        -5.5725  -3.7917   0.3547 H              1 S1                 0.0000
     34 ****        -5.7881  -2.0843   0.7331 H              1 S1                 0.0000
     35 ****        -4.9814  -3.1424   1.8819 H              1 S1                 0.0000
     36 ****        -4.3701  -3.1077  -1.8418 H              1 S1                 0.0000
     37 ****        -4.6933  -1.4593  -1.4021 H              1 S1                 0.0000
     38 ****        -1.9793  -2.6470  -2.0929 H              1 S1                 0.0000
     39 ****        -3.1377  -0.0049  -4.9357 H              1 S1                 0.0000
     40 ****        -1.5151   1.2319  -3.4250 H              1 S1                 0.0000
     41 ****        -3.1663   1.8128  -3.3994 H              1 S1                 0.0000
     42 ****        -2.0917   1.4508  -1.0833 H              1 S1                 0.0000
     43 ****        -3.6369   0.6799  -1.3058 H              1 S1                 0.0000
     44 ****         2.0688  -1.7435  -2.4988 H              1 S1                 0.0000
     45 ****         0.2430   1.3391   2.8524 H              1 S1                 0.0000
     46 ****         2.7395   0.5538   3.0805 H              1 S1                 0.0000
     47 ****         3.5008  -0.2106   1.7094 H              1 S1                 0.0000
     48 ****         4.2406   1.2729  -0.0448 H              1 S1                 0.0000
     49 ****         1.9092   3.4430   1.3190 H              1 S1                 0.0000
     50 ****         2.2563   3.0387   3.0006 H              1 S1                 0.0000
     51 ****         4.0417   4.6468   1.1337 H              1 S1                 0.0000
     52 ****         3.4643   5.1171   2.7367 H              1 S1                 0.0000
     53 ****         4.8391   1.6878   3.3005 H              1 S1                 0.0000
     54 ****         6.1104   0.7479   1.3288 H              1 S1                 0.0000
     55 ****         7.0150   1.9638   2.2250 H              1 S1                 0.0000
     56 ****         6.2758   2.3851   0.6875 H              1 S1                 0.0000
     57 ****        -3.3456  -3.3167  -3.9843 LP             1 S1                 0.0000
     58 ****        -3.5142  -2.1695  -5.2710 LP             1 S1                 0.0000
     59 ****        -0.2094  -1.6686  -2.8368 LP             1 S1                 0.0000
     60 ****         3.1023  -0.8161  -0.5761 LP             1 S1                 0.0000
     61 ****        -1.6643   0.7367   1.3566 LP             1 S1                 0.0000
     62 ****         4.1297   2.8599  -0.0591 LP             1 S1                 0.0000
     63 ****         2.8037   1.9254  -0.2463 LP             1 S1                 0.0000
     64 ****         4.8765   3.7012   3.6784 LP             1 S1                 0.0000
     65 ****         5.7367   4.0066   2.3244 LP             1 S1                 0.0000
@<TRIPOS>BOND
    1    1    2 1     
    2    1   29 1     
    3    1   30 1     
    4    1   31 1     
    5    2    3 1     
    6    2    4 1     
    7    2   32 1     
    8    3   33 1     
    9    3   34 1     
   10    3   35 1     
   11    4    5 1     
   12    4   36 1     
   13    4   37 1     
   14    5   11 1     
   15    5    6 1     
   16    5   38 1     
   17    6    7 2     
   18    6    8 am    
   19    8    9 1     
   20    8   39 1     
   21    9   10 1     
   22    9   40 1     
   23    9   41 1     
   24   10   11 1     
   25   10   42 1     
   26   10   43 1     
   27   11   12 1     
   28   12   17 ar    
   29   12   13 ar    
   30   13   14 ar    
   31   14   15 ar    
   32   14   44 1     
   33   15   16 ar    
   34   16   20 1     
   35   16   17 ar    
   36   17   18 1     
   37   18   19 2     
   38   19   20 1     
   39   19   45 1     
   40   20   21 1     
   41   21   22 1     
   42   21   46 1     
   43   21   47 1     
   44   22   27 1     
   45   22   23 1     
   46   22   24 1     
   47   23   48 1     
   48   24   25 1     
   49   24   49 1     
   50   24   50 1     
   51   25   26 1     
   52   25   51 1     
   53   25   52 1     
   54   26   27 1     
   55   27   28 1     
   56   27   53 1     
   57   28   54 1     
   58   28   55 1     
   59   28   56 1     
   60    7   57 1     
   61    7   58 1     
   62   13   59 1     
   63   15   60 1     
   64   18   61 1     
   65   23   62 1     
   66   23   63 1     
   67   26   64 1     
   68   26   65 1     
@<TRIPOS>SUBSTRUCTURE
      1 S1             1
@<TRIPOS>SET
LONE_PAIRS      STATIC     ATOMS    <user>   **** ""
9 57 58 59 60 61 62 63 64 65
DONOR_HYDROGENS      STATIC     ATOMS    <user>   **** ""
2 39 48
ATOM$BLUE        STATIC     ATOMS    COLORGROUP SYSTEM
9 57 58 59 60 61 62 63 64 65
ATOM$RED        STATIC     ATOMS    COLORGROUP SYSTEM
2 39 48
