AV-unprocessed.smi:1628|AV-procd|sdf|6520|dock10
  -GOLD-   22720 7193D 1   1.00000     0.00000
 Structure written by MMmdl.
 55 57  0  0  0  0  0  0  0  0  2 V2000
  149.6008  135.4258  156.2058 O   0  0  0  0  0  0  0  0  0  0  0  0
  149.3247  135.8015  155.0668 C   0  0  0  0  0  0  0  0  0  0  0  0
  148.8158  134.9913  154.1289 N   0  0  0  0  0  0  0  0  0  0  0  0
  148.5437  133.5744  154.3308 C   0  0  0  0  0  0  0  0  0  0  0  0
  148.8656  132.7742  153.0533 C   0  0  0  0  0  0  0  0  0  0  0  0
  147.6609  132.2927  152.3265 N   0  3  0  0  0  0  0  0  0  0  0  0
  146.9857  133.3629  151.5454 C   0  0  0  0  0  0  0  0  0  0  0  0
  146.1881  132.8214  150.3486 C   0  0  0  0  0  0  0  0  0  0  0  0
  145.0796  131.8167  150.7075 C   0  0  0  0  0  0  0  0  0  0  0  0
  145.6359  130.4301  151.0697 C   0  0  0  0  0  0  0  0  0  0  0  0
  146.1588  130.2715  152.5100 C   0  0  0  0  0  0  0  0  0  0  0  0
  146.7200  131.5324  153.1904 C   0  0  0  0  0  0  0  0  0  0  0  0
  149.4671  137.0557  154.6048 N   0  0  0  0  0  0  0  0  0  0  0  0
  150.0237  138.1818  155.2696 C   0  0  0  0  0  0  0  0  0  0  0  0
  150.1691  138.1228  156.6691 C   0  0  0  0  0  0  0  0  0  0  0  0
  150.6946  139.2342  157.3548 C   0  0  0  0  0  0  0  0  0  0  0  0
  151.0580  140.3888  156.6223 C   0  0  0  0  0  0  0  0  0  0  0  0
  151.5862  141.5167  157.2874 N   0  0  0  0  0  0  0  0  0  0  0  0
  150.9313  142.7897  156.9963 C   0  0  0  0  0  0  0  0  0  0  0  0
  151.7777  143.9610  157.5245 C   0  0  0  0  0  0  0  0  0  0  0  0
  152.0425  143.7797  158.9115 O   0  0  0  0  0  0  0  0  0  0  0  0
  152.7808  142.5879  159.1575 C   0  0  0  0  0  0  0  0  0  0  0  0
  151.9673  141.3690  158.6911 C   0  0  0  0  0  0  0  0  0  0  0  0
  150.8990  140.4518  155.2777 N   0  0  0  0  0  0  0  0  0  0  0  0
  150.3976  139.3834  154.6232 C   0  0  0  0  0  0  0  0  0  0  0  0
  148.6083  135.3789  153.2201 H   0  0  0  0  0  0  0  0  0  0  0  0
  149.1389  133.2111  155.1701 H   0  0  0  0  0  0  0  0  0  0  0  0
  147.4949  133.4601  154.6070 H   0  0  0  0  0  0  0  0  0  0  0  0
  149.4625  133.3856  152.3751 H   0  0  0  0  0  0  0  0  0  0  0  0
  149.4881  131.9134  153.3021 H   0  0  0  0  0  0  0  0  0  0  0  0
  146.3427  133.9613  152.1925 H   0  0  0  0  0  0  0  0  0  0  0  0
  147.7378  134.0492  151.1539 H   0  0  0  0  0  0  0  0  0  0  0  0
  145.7309  133.6699  149.8383 H   0  0  0  0  0  0  0  0  0  0  0  0
  146.8695  132.3766  149.6221 H   0  0  0  0  0  0  0  0  0  0  0  0
  144.4341  132.2031  151.4972 H   0  0  0  0  0  0  0  0  0  0  0  0
  144.4404  131.7019  149.8313 H   0  0  0  0  0  0  0  0  0  0  0  0
  144.8591  129.6818  150.9083 H   0  0  0  0  0  0  0  0  0  0  0  0
  146.4294  130.1711  150.3676 H   0  0  0  0  0  0  0  0  0  0  0  0
  145.3506  129.8915  153.1356 H   0  0  0  0  0  0  0  0  0  0  0  0
  146.9192  129.4897  152.5148 H   0  0  0  0  0  0  0  0  0  0  0  0
  147.2248  131.2075  154.1015 H   0  0  0  0  0  0  0  0  0  0  0  0
  145.9080  132.1783  153.5274 H   0  0  0  0  0  0  0  0  0  0  0  0
  149.1051  137.2353  153.6798 H   0  0  0  0  0  0  0  0  0  0  0  0
  149.8818  137.2368  157.2163 H   0  0  0  0  0  0  0  0  0  0  0  0
  150.7955  139.1939  158.4289 H   0  0  0  0  0  0  0  0  0  0  0  0
  150.7676  142.9258  155.9283 H   0  0  0  0  0  0  0  0  0  0  0  0
  149.9492  142.7956  157.4708 H   0  0  0  0  0  0  0  0  0  0  0  0
  152.7151  144.0434  156.9717 H   0  0  0  0  0  0  0  0  0  0  0  0
  151.2438  144.9013  157.3862 H   0  0  0  0  0  0  0  0  0  0  0  0
  153.7441  142.6314  158.6470 H   0  0  0  0  0  0  0  0  0  0  0  0
  152.9896  142.5132  160.2248 H   0  0  0  0  0  0  0  0  0  0  0  0
  151.0686  141.2645  159.3008 H   0  0  0  0  0  0  0  0  0  0  0  0
  152.5623  140.4653  158.8279 H   0  0  0  0  0  0  0  0  0  0  0  0
  150.2782  139.5222  153.5600 H   0  0  0  0  0  0  0  0  0  0  0  0
  148.0171  131.6316  151.6510 H   0  0  0  0  0  0  0  0  0  0  0  0
  1  2  2  0  0  0  0
  2  3  1  0  0  0  0
  2 13  1  0  0  0  0
  3  4  1  0  0  0  0
  3 26  1  0  0  0  0
  4  5  1  0  0  0  0
  4 27  1  0  0  0  0
  4 28  1  0  0  0  0
  5  6  1  0  0  0  0
  5 29  1  0  0  0  0
  5 30  1  0  0  0  0
  6 12  1  0  0  0  0
  6  7  1  0  0  0  0
  6 55  1  0  0  0  0
  7  8  1  0  0  0  0
  7 31  1  0  0  0  0
  7 32  1  0  0  0  0
  8  9  1  0  0  0  0
  8 33  1  0  0  0  0
  8 34  1  0  0  0  0
  9 10  1  0  0  0  0
  9 35  1  0  0  0  0
  9 36  1  0  0  0  0
 10 11  1  0  0  0  0
 10 37  1  0  0  0  0
 10 38  1  0  0  0  0
 11 12  1  0  0  0  0
 11 39  1  0  0  0  0
 11 40  1  0  0  0  0
 12 41  1  0  0  0  0
 12 42  1  0  0  0  0
 13 14  1  0  0  0  0
 13 43  1  0  0  0  0
 14 25  1  0  0  0  0
 14 15  2  0  0  0  0
 15 16  1  0  0  0  0
 15 44  1  0  0  0  0
 16 17  2  0  0  0  0
 16 45  1  0  0  0  0
 17 18  1  0  0  0  0
 17 24  1  0  0  0  0
 18 23  1  0  0  0  0
 18 19  1  0  0  0  0
 19 20  1  0  0  0  0
 19 46  1  0  0  0  0
 19 47  1  0  0  0  0
 20 21  1  0  0  0  0
 20 48  1  0  0  0  0
 20 49  1  0  0  0  0
 21 22  1  0  0  0  0
 22 23  1  0  0  0  0
 22 50  1  0  0  0  0
 22 51  1  0  0  0  0
 23 52  1  0  0  0  0
 23 53  1  0  0  0  0
 24 25  2  0  0  0  0
 25 54  1  0  0  0  0
M  CHG  1   6   1
M  END
> <s_m_source_file>
AV-unprocessed.smi

> <i_m_source_file_index>
1628

> <i_lp_mmshare_version>
43012

> <i_f3d_flags>
0

> <s_epik_input>
W0NIMl0xW0NIMl1bQ0gyXVtDSDJdW0NIMl1bQ0gyXU4xW0NIMl1bQ0gyXVtOSF1DKD1PKVtOSF1jMltjSF1bY0hdYyhuW2NIXTIpTjNbQ0gyXVtDSDJdT1tDSDJdW0NIMl0z

> <s_epik_cmdline>
J2VwaWtfcHl0aG9uJywgJy1waCcsICc3LjAnLCAnLXRuJywgJzgnLCAnLW1hJywgJzIwMCcsICctbWV0YWxfYmluZGluZycsICctaW1hZScsICc8aW5maWxlLm1hZT4nLCAnLW9tYWUnLCAnPG91dGZpbGUubWFlPic=

> <r_lp_tautomer_probability>
1

> <r_epik_Ionization_Penalty>
0.00380107

> <r_epik_Ionization_Penalty_Charging>
0.00211816

> <r_epik_Ionization_Penalty_Neutral>
0.00168291

> <r_epik_State_Penalty>
-0

> <r_epik_Charging_Adjusted_Penalty>
0.00211816

> <i_epik_Tot_Q>
1

> <i_epik_Tot_abs_Q>
1

> <r_epik_Metal_State_Penalty>
-0

> <b_epik_Metal_Only>
0

> <s_lp_Force_Field>
OPLS_2005

> <r_lp_Energy>
41.9459

> <b_lp_Chiralities_Consistent>
1

> <s_lp_Variant>
AV-unprocessed.smi:1628-1

> <Gold.Version>
5.8.1

> <Gold.Id.Protein>
6NUR|6NUR_protein|mol2

> <Gold.PLP.Fitness>
54.5025

> <Gold.PLP.PLP>
-43.6974

> <Gold.PLP.part.hbond>
-4.0000

> <Gold.PLP.part.metal>
0.0000

> <Gold.PLP.part.buried>
-5.3135

> <Gold.PLP.part.nonpolar>
-34.2641

> <Gold.PLP.part.repulsive>
0.1259

> <Gold.PLP.ligand.clash>
0.0000

> <Gold.PLP.ligand.torsion>
0.8053

> <Gold.PLP.Chemscore.Hbond>
3.0144

> <Gold.PLP.Chemscore.CHOScore>
1.0000

> <Gold.PLP.Chemscore.Metal>
0.0000

> <Gold.Chemscore.Hbonds>
donor molecule, donor type, donor heavy atom, donor atom, acceptor molecule, acceptor atom, score
      L1  H     3    26       P1  7948  1.00
      L1  H     6    55       P1 10747  1.00
      L1  H    13    43       P1  7948  0.68
      P1  H  7989  7998       L1    24  0.15
      L1  C    25    54       P1  7957  0.99

> <Gold.PLP.Chemscore.Internal.Correction>
0.3726

> <Gold.Rescore>
     Score         DG    S(hbond)    S(metal)    S(lipo)     H(rot)  DE(clash)    DE(int)     intcor
     21.80     -24.15       2.56        0.00     121.32       1.60       0.16       2.19       ----

> <Gold.Chemscore.Fitness>
21.7993

> <Gold.Chemscore.DG>
-24.1490

> <Gold.Chemscore.ZeroCoef>
-5.4800

> <Gold.Chemscore.Hbond>
2.5642

> <Gold.Chemscore.Metal>
0.0000

> <Gold.Chemscore.Lipo>
121.3214

> <Gold.Chemscore.Internal_Hbond>
0.0000

> <Gold.Chemscore.DEClash>
0.1569

> <Gold.Chemscore.DEInternal>
2.1928

> <Gold.Chemscore.Rot>
1.5976

> <Gold.Chemscore.Internal.Correction>
   9.000000E+99

> <Gold.Chemscore.Hbonds>
donor molecule, donor type, donor heavy atom, donor atom, acceptor molecule, acceptor atom, score
      L1  H     3    26       P1  7948  0.90
      L1  H     6    55       P1 10747  1.00
      L1  H    13    43       P1  7948  0.65

> <Gold.Chemscore.Hbond.Weighted>
-8.5643

> <Gold.Chemscore.Metal.Weighted>
-0.0000

> <Gold.Chemscore.Lipo.Weighted>
-14.1946

> <Gold.Chemscore.Internal_Hbond.Weighted>
0.0000

> <Gold.Chemscore.DEClash.Weighted>
0.1569

> <Gold.Chemscore.DEInternal.Weighted>
2.1928

> <Gold.Chemscore.Rot.Weighted>
4.0899

> <Gold.Chemscore.Internal.Correction.Weighted>
   9.000000E+99

> <Gold.Protein.RotatedTorsions>
[ 6907 6896 6895 6894 ] final   51.01 input  -60.11 | X-H torsion
[ 7974 7965 7964 7962 ] final   18.45 input  175.53 | X-H torsion
[ 8008 7997 7996 7995 ] final  -61.09 input   59.86 | X-H torsion
[ 10167 10162 10161 10158 ] final  -96.47 input  -65.29 | X-H torsion
[ 10718 10713 10712 10709 ] final  155.89 input   66.30 | X-H torsion
[ 10763 10752 10751 10750 ] final  -23.52 input  -60.55 | X-H torsion
[ 11005 11000 10999 10996 ] final   59.55 input  -57.11 | X-H torsion

> <Gold.Protein.ActiveResidues>
 VAL166  LYS551  ARG553  GLY616  TRP617  ASP618  TYR619  PRO620  LYS621  CYS622 
 ASP623  PHE694  ASN695  SER759  ASP760  ASP761  ALA762  ILE779  LEU786  VAL792 
 PHE793  MET794  SER795  GLU796  ALA797  LYS798  CYS799  TRP800  GLU811  SER814 

> <Gold.Protein.RotatedAtoms>
  152.3080  134.7532  160.0342 H   0  0  0  0  0  0  0  0  0  0  0  0  # atno 6907 bound_to 6896
  151.8022  133.3366  159.3538 H   0  0  0  0  0  0  0  0  0  0  0  0  # atno 6908 bound_to 6896
  150.7306  134.5673  159.5917 H   0  0  0  0  0  0  0  0  0  0  0  0  # atno 6909 bound_to 6896
  146.2184  139.8455  142.8632 H   0  0  0  0  0  0  0  0  0  0  0  0  # atno 7974 bound_to 7965
  154.4430  140.1025  156.6375 H   0  0  0  0  0  0  0  0  0  0  0  0  # atno 8008 bound_to 7997
  155.5537  140.3486  155.4456 H   0  0  0  0  0  0  0  0  0  0  0  0  # atno 8009 bound_to 7997
  156.0510  140.1304  157.0039 H   0  0  0  0  0  0  0  0  0  0  0  0  # atno 8010 bound_to 7997
  140.2935  143.3207  152.0322 H   0  0  0  0  0  0  0  0  0  0  0  0  # atno 10167 bound_to 10162
  157.2122  131.0700  151.1962 H   0  0  0  0  0  0  0  0  0  0  0  0  # atno 10718 bound_to 10713
  153.6691  135.6972  153.5153 H   0  0  0  0  0  0  0  0  0  0  0  0  # atno 10763 bound_to 10752
  153.2571  135.4256  155.0856 H   0  0  0  0  0  0  0  0  0  0  0  0  # atno 10764 bound_to 10752
  154.8431  135.3546  154.6236 H   0  0  0  0  0  0  0  0  0  0  0  0  # atno 10765 bound_to 10752
  140.0296  134.6032  155.9526 H   0  0  0  0  0  0  0  0  0  0  0  0  # atno 11005 bound_to 11000
  145.2854  141.0151  143.3693 LP  0  0  0  0  0  0  0  0  0  0  0  0  # atno 17320 bound_to 7965
  144.9117  139.4520  143.6583 LP  0  0  0  0  0  0  0  0  0  0  0  0  # atno 17321 bound_to 7965
  139.4932  144.6508  151.6680 LP  0  0  0  0  0  0  0  0  0  0  0  0  # atno 17342 bound_to 10162
  140.5712  144.0105  150.6218 LP  0  0  0  0  0  0  0  0  0  0  0  0  # atno 17343 bound_to 10162
  157.3660  130.7156  149.6533 LP  0  0  0  0  0  0  0  0  0  0  0  0  # atno 17370 bound_to 10713
  155.9689  130.4212  150.4458 LP  0  0  0  0  0  0  0  0  0  0  0  0  # atno 17371 bound_to 10713
  141.1823  133.6549  156.5070 LP  0  0  0  0  0  0  0  0  0  0  0  0  # atno 17394 bound_to 11000
  140.4249  134.7154  157.4910 LP  0  0  0  0  0  0  0  0  0  0  0  0  # atno 17395 bound_to 11000

$$$$
