#       Name:                AV-unprocessed.smi:177
#       Creating user name   scv26
#       Creation time:       Thu Mar 26 19:23:28 2020


#       File generated by GOLD software.
#

@<TRIPOS>MOLECULE
AV-unprocessed.smi:177
    73    77     1
SMALL
NO_CHARGES


@<TRIPOS>ATOM
      1 ****        -1.3698   0.6648  -3.5590 C.3            1 S1                 0.0000
      2 ****        -2.5673   0.0276  -3.1397 O.3            1 S1                 0.0000
      3 ****        -3.1895   0.6228  -2.0076 C.3            1 S1                 0.0000
      4 ****        -4.6452   0.1257  -1.9718 C.3            1 S1                 0.0000
      5 ****        -5.3878   0.6456  -0.7316 C.3            1 S1                 0.0000
      6 ****        -4.6451   0.2499   0.5530 C.3            1 S1                 0.0000
      7 ****        -5.3441   0.7752   1.6770 O.3            1 S1                 0.0000
      8 ****        -4.7477   0.3754   2.9062 C.3            1 S1                 0.0000
      9 ****        -3.3087   0.9095   2.9695 C.3            1 S1                 0.0000
     10 ****        -2.5452   0.4498   1.8125 N.3            1 S1                 0.0000
     11 ****        -1.2349   0.7792   1.8797 C.ar           1 S1                 0.0000
     12 ****        -0.8625   2.0795   2.0143 N.ar           1 S1                 0.0000
     13 ****         0.4343   2.4023   2.0338 C.ar           1 S1                 0.0000
     14 ****         1.4966   1.6010   1.9242 N.ar           1 S1                 0.0000
     15 ****         1.1218   0.2967   1.7834 C.ar           1 S1                 0.0000
     16 ****        -0.2116  -0.1970   1.7606 C.ar           1 S1                 0.0000
     17 ****        -0.2092  -1.5768   1.6077 N.2            1 S1                 0.0000
     18 ****         1.0580  -1.8829   1.5418 C.2            1 S1                 0.0000
     19 ****         1.9273  -0.8164   1.6135 N.pl3          1 S1                 0.0000
     20 ****         3.3814  -0.8678   1.5543 C.3            1 S1                 0.0000
     21 ****         4.0013  -0.8111   0.1229 C.3            1 S1                 0.0000
     22 ****         5.5478  -0.7628   0.2830 C.3            1 S1                 0.0000
     23 ****         6.0604  -1.9126   0.9266 O.3            1 S1                 0.0000
     24 ****         3.5613  -2.0277  -0.7338 C.3            1 S1                 0.0000
     25 ****         3.9946  -1.9051  -2.2058 C.3            1 S1                 0.0000
     26 ****         3.4696  -0.7076  -2.7658 O.3            1 S1                 0.0000
     27 ****         3.9427   0.4657  -2.1158 C.3            1 S1                 0.0000
     28 ****         3.5203   0.4548  -0.6342 C.3            1 S1                 0.0000
     29 ****        -3.1955   0.7897   0.5427 C.3            1 S1                 0.0000
     30 ****        -2.4511   0.2511  -0.7040 C.3            1 S1                 0.0000
     31 ****        -1.0062   0.1860  -4.4680 H              1 S1                 0.0000
     32 ****        -0.5815   0.5872  -2.8106 H              1 S1                 0.0000
     33 ****        -1.5386   1.7186  -3.7835 H              1 S1                 0.0000
     34 ****        -3.2022   1.7082  -2.1241 H              1 S1                 0.0000
     35 ****        -5.1680   0.4413  -2.8752 H              1 S1                 0.0000
     36 ****        -4.6602  -0.9650  -1.9716 H              1 S1                 0.0000
     37 ****        -5.4815   1.7310  -0.7864 H              1 S1                 0.0000
     38 ****        -6.4022   0.2463  -0.7134 H              1 S1                 0.0000
     39 ****        -4.6328  -0.8398   0.6247 H              1 S1                 0.0000
     40 ****        -5.3343   0.7764   3.7328 H              1 S1                 0.0000
     41 ****        -4.7657  -0.7118   2.9997 H              1 S1                 0.0000
     42 ****        -3.3284   2.0000   2.9931 H              1 S1                 0.0000
     43 ****        -2.8271   0.5748   3.8893 H              1 S1                 0.0000
     44 ****         0.6519   3.4542   2.1447 H              1 S1                 0.0000
     45 ****         1.3964  -2.9022   1.4243 H              1 S1                 0.0000
     46 ****         3.7666  -0.0433   2.1558 H              1 S1                 0.0000
     47 ****         3.6937  -1.7788   2.0662 H              1 S1                 0.0000
     48 ****         6.0590  -0.6723  -0.6734 H              1 S1                 0.0000
     49 ****         5.8403   0.1117   0.8653 H              1 S1                 0.0000
     50 ****         6.9988  -1.8245   0.9970 H              1 S1                 0.0000
     51 ****         3.9378  -2.9587  -0.3093 H              1 S1                 0.0000
     52 ****         2.4758  -2.1148  -0.7295 H              1 S1                 0.0000
     53 ****         5.0793  -1.9312  -2.3116 H              1 S1                 0.0000
     54 ****         3.6075  -2.7504  -2.7749 H              1 S1                 0.0000
     55 ****         5.0230   0.5532  -2.2312 H              1 S1                 0.0000
     56 ****         3.5099   1.3331  -2.6144 H              1 S1                 0.0000
     57 ****         2.4325   0.5129  -0.6187 H              1 S1                 0.0000
     58 ****         3.8790   1.3562  -0.1360 H              1 S1                 0.0000
     59 ****        -3.2341   1.8783   0.4724 H              1 S1                 0.0000
     60 ****        -2.3493  -0.8329  -0.6341 H              1 S1                 0.0000
     61 ****        -1.4407   0.6567  -0.7380 H              1 S1                 0.0000
     62 ****        -2.3525  -0.9226  -2.9140 LP             1 S1                 0.0000
     63 ****        -3.2160   0.0510  -3.9004 LP             1 S1                 0.0000
     64 ****        -6.2882   0.4462   1.6535 LP             1 S1                 0.0000
     65 ****        -5.3377   1.7738   1.6241 LP             1 S1                 0.0000
     66 ****        -2.5483  -0.5497   1.8428 LP             1 S1                 0.0000
     67 ****        -1.5577   2.7934   2.0986 LP             1 S1                 0.0000
     68 ****         2.4454   1.9164   1.9429 LP             1 S1                 0.0000
     69 ****        -0.9954  -2.1929   1.5593 LP             1 S1                 0.0000
     70 ****         5.8375  -2.7267   0.3904 LP             1 S1                 0.0000
     71 ****         5.6601  -1.9947   1.8393 LP             1 S1                 0.0000
     72 ****         2.4726  -0.7322  -2.6924 LP             1 S1                 0.0000
     73 ****         3.7319  -0.6652  -3.7298 LP             1 S1                 0.0000
@<TRIPOS>BOND
    1    1    2 1     
    2    1   31 1     
    3    1   32 1     
    4    1   33 1     
    5    2    3 1     
    6    3   30 1     
    7    3    4 1     
    8    3   34 1     
    9    4    5 1     
   10    4   35 1     
   11    4   36 1     
   12    5    6 1     
   13    5   37 1     
   14    5   38 1     
   15    6   29 1     
   16    6    7 1     
   17    6   39 1     
   18    7    8 1     
   19    8    9 1     
   20    8   40 1     
   21    8   41 1     
   22    9   10 1     
   23    9   42 1     
   24    9   43 1     
   25   10   11 1     
   26   10   29 1     
   27   11   16 ar    
   28   11   12 ar    
   29   12   13 ar    
   30   13   14 ar    
   31   13   44 1     
   32   14   15 ar    
   33   15   19 1     
   34   15   16 ar    
   35   16   17 1     
   36   17   18 2     
   37   18   19 1     
   38   18   45 1     
   39   19   20 1     
   40   20   21 1     
   41   20   46 1     
   42   20   47 1     
   43   21   28 1     
   44   21   22 1     
   45   21   24 1     
   46   22   23 1     
   47   22   48 1     
   48   22   49 1     
   49   23   50 1     
   50   24   25 1     
   51   24   51 1     
   52   24   52 1     
   53   25   26 1     
   54   25   53 1     
   55   25   54 1     
   56   26   27 1     
   57   27   28 1     
   58   27   55 1     
   59   27   56 1     
   60   28   57 1     
   61   28   58 1     
   62   29   30 1     
   63   29   59 1     
   64   30   60 1     
   65   30   61 1     
   66    2   62 1     
   67    2   63 1     
   68    7   64 1     
   69    7   65 1     
   70   10   66 1     
   71   12   67 1     
   72   14   68 1     
   73   17   69 1     
   74   23   70 1     
   75   23   71 1     
   76   26   72 1     
   77   26   73 1     
@<TRIPOS>SUBSTRUCTURE
      1 S1             1
@<TRIPOS>SET
LONE_PAIRS      STATIC     ATOMS    <user>   **** ""
12 62 63 64 65 66 67 68 69 70 71 72 73
DONOR_HYDROGENS      STATIC     ATOMS    <user>   **** ""
1 50
ATOM$BLUE        STATIC     ATOMS    COLORGROUP SYSTEM
12 62 63 64 65 66 67 68 69 70 71 72 73
ATOM$RED        STATIC     ATOMS    COLORGROUP SYSTEM
1 50
