#       Name:                AV-unprocessed.smi:2889
#       Creating user name   scv26
#       Creation time:       Fri Mar 27 15:57:42 2020


#       File generated by GOLD software.
#

@<TRIPOS>MOLECULE
AV-unprocessed.smi:2889
    40    41     1
SMALL
NO_CHARGES


@<TRIPOS>ATOM
      1 ****        -2.3293   0.5818   2.8744 C.3            1 S1                 0.0000
      2 ****        -1.2869  -0.8915   2.6994 S.3            1 S1                 0.0000
      3 ****        -1.7708  -1.4669   1.0400 C.3            1 S1                 0.0000
      4 ****        -1.3387  -2.9292   0.8225 C.3            1 S1                 0.0000
      5 ****        -1.7427  -3.4416  -0.5677 C.3            1 S1                 0.0000
      6 ****        -1.1594  -2.5509  -1.6728 C.3            1 S1                 0.0000
      7 ****        -1.5875  -1.0846  -1.4967 C.3            1 S1                 0.0000
      8 ****        -1.2602  -0.5404  -0.0914 C.3            1 S1                 0.0000
      9 ****         0.1798  -0.2874   0.0358 N.3            1 S1                 0.0000
     10 ****         0.7514   1.3322  -0.1153 S.o2           1 S1                 0.0000
     11 ****         0.1815   1.8945  -1.3497 O.2            1 S1                 0.0000
     12 ****         0.5204   2.0044   1.1723 O.2            1 S1                 0.0000
     13 ****         2.5614   1.0951  -0.3579 C.3            1 S1                 0.0000
     14 ****         3.2411   2.4335  -0.4110 C.2            1 S1                 0.0000
     15 ****         3.2391   3.3861  -1.4675 C.2            1 S1                 0.0000
     16 ****         4.0068   4.4042  -0.9803 C.2            1 S1                 0.0000
     17 ****         4.4516   4.1087   0.2671 O.3            1 S1                 0.0000
     18 ****         3.9584   2.8478   0.6214 N.2            1 S1                 0.0000
     19 ****        -2.1935   1.0176   3.8639 H              1 S1                 0.0000
     20 ****        -3.3809   0.3225   2.7531 H              1 S1                 0.0000
     21 ****        -2.0669   1.3356   2.1330 H              1 S1                 0.0000
     22 ****        -2.8613  -1.4509   1.0155 H              1 S1                 0.0000
     23 ****        -0.2581  -3.0172   0.9419 H              1 S1                 0.0000
     24 ****        -1.7845  -3.5649   1.5884 H              1 S1                 0.0000
     25 ****        -1.3985  -4.4678  -0.6988 H              1 S1                 0.0000
     26 ****        -2.8300  -3.4669  -0.6498 H              1 S1                 0.0000
     27 ****        -0.0709  -2.6187  -1.6592 H              1 S1                 0.0000
     28 ****        -1.4773  -2.9151  -2.6501 H              1 S1                 0.0000
     29 ****        -1.1278  -0.4628  -2.2658 H              1 S1                 0.0000
     30 ****        -2.6639  -1.0142  -1.6577 H              1 S1                 0.0000
     31 ****        -1.7707   0.4176   0.0097 H              1 S1                 0.0000
     32 ****         0.5492  -0.7272   0.8788 H              1 S1                 0.0000
     33 ****         2.9411   0.4874   0.4640 H              1 S1                 0.0000
     34 ****         2.7155   0.5388  -1.2823 H              1 S1                 0.0000
     35 ****         2.7482   3.3326  -2.4277 H              1 S1                 0.0000
     36 ****         4.3159   5.3582  -1.3811 H              1 S1                 0.0000
     37 ****         0.5447  -0.7137  -0.7919 LP             1 S1                 0.0000
     38 ****         4.1220   4.7952   0.9153 LP             1 S1                 0.0000
     39 ****         5.4514   4.0954   0.2754 LP             1 S1                 0.0000
     40 ****         4.1158   2.3593   1.4797 LP             1 S1                 0.0000
@<TRIPOS>BOND
    1    1    2 1     
    2    1   19 1     
    3    1   20 1     
    4    1   21 1     
    5    2    3 1     
    6    3    8 1     
    7    3    4 1     
    8    3   22 1     
    9    4    5 1     
   10    4   23 1     
   11    4   24 1     
   12    5    6 1     
   13    5   25 1     
   14    5   26 1     
   15    6    7 1     
   16    6   27 1     
   17    6   28 1     
   18    7    8 1     
   19    7   29 1     
   20    7   30 1     
   21    8    9 1     
   22    8   31 1     
   23    9   10 1     
   24    9   32 1     
   25   10   11 2     
   26   10   12 2     
   27   10   13 1     
   28   13   14 1     
   29   13   33 1     
   30   13   34 1     
   31   14   18 2     
   32   14   15 1     
   33   15   16 2     
   34   15   35 1     
   35   16   17 1     
   36   16   36 1     
   37   17   18 1     
   38    9   37 1     
   39   17   38 1     
   40   17   39 1     
   41   18   40 1     
@<TRIPOS>SUBSTRUCTURE
      1 S1             1
@<TRIPOS>SET
LONE_PAIRS      STATIC     ATOMS    <user>   **** ""
6 37 11 12 38 39 40
DONOR_HYDROGENS      STATIC     ATOMS    <user>   **** ""
1 32
ATOM$BLUE        STATIC     ATOMS    COLORGROUP SYSTEM
6 37 11 12 38 39 40
ATOM$RED        STATIC     ATOMS    COLORGROUP SYSTEM
1 32
