#       Name:                AV-unprocessed.smi:2455
#       Creating user name   scv26
#       Creation time:       Fri Mar 27 13:33:52 2020


#       File generated by GOLD software.
#

@<TRIPOS>MOLECULE
AV-unprocessed.smi:2455
    43    43     1
SMALL
NO_CHARGES


@<TRIPOS>ATOM
      1 ****        -1.8517   1.1046  -2.7322 C.3            1 S1                 0.0000
      2 ****        -2.3307   0.5912  -1.3610 C.3            1 S1                 0.0000
      3 ****        -1.7650   1.3313  -0.1076 C.3            1 S1                 0.0000
      4 ****        -2.3818   0.6547   1.1556 C.3            1 S1                 0.0000
      5 ****        -2.0505   1.2956   2.5176 C.3            1 S1                 0.0000
      6 ****        -0.2038   1.2598  -0.0771 C.3            1 S1                 0.0000
      7 ****         0.3147  -0.1010  -0.2078 N.am           1 S1                 0.0000
      8 ****         0.8515  -0.8408   0.7744 C.2            1 S1                 0.0000
      9 ****         0.9811  -0.4493   1.9337 O.2            1 S1                 0.0000
     10 ****         1.3190  -2.2440   0.3865 C.3            1 S1                 0.0000
     11 ****         2.7649  -2.2973   0.2590 N.pl3          1 S1                 0.0000
     12 ****         3.5608  -1.7509  -0.7272 C.2            1 S1                 0.0000
     13 ****         4.8554  -2.0632  -0.4255 C.2            1 S1                 0.0000
     14 ****         4.7494  -2.8168   0.7768 C.2            1 S1                 0.0000
     15 ****         3.4977  -2.9576   1.1821 N.2            1 S1                 0.0000
     16 ****        -2.2366   2.8112  -0.1568 C.2            1 S1                 0.0000
     17 ****        -1.3760   3.7192  -0.1149 O.co2          1 S1                 0.0000
     18 ****        -3.4691   3.0163  -0.2302 O.co2          1 S1                -1.0000
     19 ****        -2.3252   0.5400  -3.5354 H              1 S1                 0.0000
     20 ****        -0.7746   0.9919  -2.8513 H              1 S1                 0.0000
     21 ****        -2.1002   2.1548  -2.8850 H              1 S1                 0.0000
     22 ****        -3.4209   0.6336  -1.3501 H              1 S1                 0.0000
     23 ****        -2.0987  -0.4722  -1.2944 H              1 S1                 0.0000
     24 ****        -3.4683   0.6272   1.0585 H              1 S1                 0.0000
     25 ****        -2.0801  -0.3922   1.1895 H              1 S1                 0.0000
     26 ****        -2.5232   0.7355   3.3243 H              1 S1                 0.0000
     27 ****        -2.4117   2.3216   2.5852 H              1 S1                 0.0000
     28 ****        -0.9802   1.3033   2.7169 H              1 S1                 0.0000
     29 ****         0.2173   1.8255  -0.9089 H              1 S1                 0.0000
     30 ****         0.1954   1.7399   0.8173 H              1 S1                 0.0000
     31 ****         0.2521  -0.5156  -1.1260 H              1 S1                 0.0000
     32 ****         0.9892  -2.9593   1.1418 H              1 S1                 0.0000
     33 ****         0.8732  -2.5511  -0.5608 H              1 S1                 0.0000
     34 ****         3.1440  -1.1887  -1.5498 H              1 S1                 0.0000
     35 ****         5.7429  -1.7946  -0.9790 H              1 S1                 0.0000
     36 ****         5.5395  -3.2636   1.3623 H              1 S1                 0.0000
     37 ****         0.6779   0.4690   2.1882 LP             1 S1                 0.0000
     38 ****         1.3897  -1.0494   2.6214 LP             1 S1                 0.0000
     39 ****         3.1678  -3.4441   1.9911 LP             1 S1                 0.0000
     40 ****        -1.6591   4.6780  -0.1399 LP             1 S1                 0.0000
     41 ****        -0.4054   3.4859  -0.0565 LP             1 S1                 0.0000
     42 ****        -3.8193   3.9525  -0.2589 LP             1 S1                 0.0000
     43 ****        -4.1036   2.2440  -0.2602 LP             1 S1                 0.0000
@<TRIPOS>BOND
    1    1    2 1     
    2    1   19 1     
    3    1   20 1     
    4    1   21 1     
    5    2    3 1     
    6    2   22 1     
    7    2   23 1     
    8    3    4 1     
    9    3    6 1     
   10    3   16 1     
   11    4    5 1     
   12    4   24 1     
   13    4   25 1     
   14    5   26 1     
   15    5   27 1     
   16    5   28 1     
   17    6    7 1     
   18    6   29 1     
   19    6   30 1     
   20    7    8 am    
   21    7   31 1     
   22    8    9 2     
   23    8   10 1     
   24   10   11 1     
   25   10   32 1     
   26   10   33 1     
   27   11   15 1     
   28   11   12 1     
   29   12   13 2     
   30   12   34 1     
   31   13   14 1     
   32   13   35 1     
   33   14   15 2     
   34   14   36 1     
   35   16   17 ar    
   36   16   18 ar    
   37    9   37 1     
   38    9   38 1     
   39   15   39 1     
   40   17   40 1     
   41   17   41 1     
   42   18   42 1     
   43   18   43 1     
@<TRIPOS>SUBSTRUCTURE
      1 S1             1
@<TRIPOS>SET
LONE_PAIRS      STATIC     ATOMS    <user>   **** ""
7 37 38 39 40 41 42 43
DONOR_HYDROGENS      STATIC     ATOMS    <user>   **** ""
1 31
ATOM$BLUE        STATIC     ATOMS    COLORGROUP SYSTEM
7 37 38 39 40 41 42 43
ATOM$RED        STATIC     ATOMS    COLORGROUP SYSTEM
1 31
