AV-unprocessed.smi:2799|AV-procd|sdf|10791|dock6
  -GOLD-   2272015223D 1   1.00000     0.00000
 Structure written by MMmdl.
 52 53  0  0  0  0  0  0  0  0  2 V2000
  147.3134  134.6572  154.3719 C   0  0  0  0  0  0  0  0  0  0  0  0
  147.8970  133.3974  153.7150 C   0  0  0  0  0  0  0  0  0  0  0  0
  149.4305  133.3934  153.8330 C   0  0  0  0  0  0  0  0  0  0  0  0
  147.4280  133.2891  152.2467 C   0  0  0  0  0  0  0  0  0  0  0  0
  145.9646  133.0617  152.0823 N   0  3  2  0  0  0  0  0  0  0  0  0
  145.6626  132.2464  150.8740 C   0  0  0  0  0  0  0  0  0  0  0  0
  144.1894  131.8103  150.8426 C   0  0  0  0  0  0  0  0  0  0  0  0
  143.2539  133.0190  150.9436 C   0  0  0  0  0  0  0  0  0  0  0  0
  143.6042  133.8404  152.1910 C   0  0  0  0  0  0  0  0  0  0  0  0
  145.0904  134.2725  152.2058 C   0  0  2  0  0  0  0  0  0  0  0  0
  145.4382  135.3857  151.1803 C   0  0  0  0  0  0  0  0  0  0  0  0
  146.4564  136.3049  151.6822 N   0  0  0  0  0  0  0  0  0  0  0  0
  146.2187  137.4818  152.2796 C   0  0  0  0  0  0  0  0  0  0  0  0
  145.0871  137.9229  152.4776 O   0  0  0  0  0  0  0  0  0  0  0  0
  147.3697  138.0755  152.6442 N   0  0  0  0  0  0  0  0  0  0  0  0
  147.5682  139.3141  153.2788 C   0  0  0  0  0  0  0  0  0  0  0  0
  146.7523  140.3894  153.1403 C   0  0  0  0  0  0  0  0  0  0  0  0
  147.0377  141.6295  153.8212 C   0  0  0  0  0  0  0  0  0  0  0  0
  148.1351  141.6978  154.5877 C   0  0  0  0  0  0  0  0  0  0  0  0
  148.9995  140.6001  154.7371 N   0  0  0  0  0  0  0  0  0  0  0  0
  150.1735  140.7734  155.5962 C   0  0  0  0  0  0  0  0  0  0  0  0
  148.7790  139.4020  154.1183 C   0  0  0  0  0  0  0  0  0  0  0  0
  149.5562  138.4551  154.2645 O   0  0  0  0  0  0  0  0  0  0  0  0
  147.6576  135.5631  153.8715 H   0  0  0  0  0  0  0  0  0  0  0  0
  147.6053  134.7258  155.4203 H   0  0  0  0  0  0  0  0  0  0  0  0
  146.2235  134.6511  154.3359 H   0  0  0  0  0  0  0  0  0  0  0  0
  147.5082  132.5518  154.2815 H   0  0  0  0  0  0  0  0  0  0  0  0
  149.8732  134.2239  153.2822 H   0  0  0  0  0  0  0  0  0  0  0  0
  149.8601  132.4695  153.4453 H   0  0  0  0  0  0  0  0  0  0  0  0
  149.7431  133.4827  154.8738 H   0  0  0  0  0  0  0  0  0  0  0  0
  147.7311  134.1708  151.6819 H   0  0  0  0  0  0  0  0  0  0  0  0
  147.9586  132.4537  151.7872 H   0  0  0  0  0  0  0  0  0  0  0  0
  145.9142  132.8031  149.9709 H   0  0  0  0  0  0  0  0  0  0  0  0
  146.2892  131.3537  150.8691 H   0  0  0  0  0  0  0  0  0  0  0  0
  143.9838  131.2550  149.9269 H   0  0  0  0  0  0  0  0  0  0  0  0
  143.9933  131.1262  151.6695 H   0  0  0  0  0  0  0  0  0  0  0  0
  143.3420  133.6342  150.0480 H   0  0  0  0  0  0  0  0  0  0  0  0
  142.2161  132.6877  150.9913 H   0  0  0  0  0  0  0  0  0  0  0  0
  142.9395  134.7001  152.2736 H   0  0  0  0  0  0  0  0  0  0  0  0
  143.4044  133.2343  153.0759 H   0  0  0  0  0  0  0  0  0  0  0  0
  145.2529  134.6942  153.1968 H   0  0  0  0  0  0  0  0  0  0  0  0
  145.8520  134.9476  150.2730 H   0  0  0  0  0  0  0  0  0  0  0  0
  144.5457  135.9294  150.8699 H   0  0  0  0  0  0  0  0  0  0  0  0
  147.4189  136.0222  151.5662 H   0  0  0  0  0  0  0  0  0  0  0  0
  148.2169  137.5508  152.4811 H   0  0  0  0  0  0  0  0  0  0  0  0
  145.8791  140.3636  152.5087 H   0  0  0  0  0  0  0  0  0  0  0  0
  146.3823  142.4815  153.7159 H   0  0  0  0  0  0  0  0  0  0  0  0
  148.4168  142.5892  155.1290 H   0  0  0  0  0  0  0  0  0  0  0  0
  150.1455  140.0686  156.4286 H   0  0  0  0  0  0  0  0  0  0  0  0
  150.2414  141.7756  156.0213 H   0  0  0  0  0  0  0  0  0  0  0  0
  151.0910  140.5979  155.0322 H   0  0  0  0  0  0  0  0  0  0  0  0
  145.7055  132.4731  152.8612 H   0  0  0  0  0  0  0  0  0  0  0  0
  1  2  1  0  0  0  0
  1 24  1  0  0  0  0
  1 25  1  0  0  0  0
  1 26  1  0  0  0  0
  2  3  1  0  0  0  0
  2  4  1  0  0  0  0
  2 27  1  0  0  0  0
  3 28  1  0  0  0  0
  3 29  1  0  0  0  0
  3 30  1  0  0  0  0
  4  5  1  0  0  0  0
  4 31  1  0  0  0  0
  4 32  1  0  0  0  0
  5 10  1  0  0  0  0
  5  6  1  0  0  0  0
  5 52  1  0  0  0  0
  6  7  1  0  0  0  0
  6 33  1  0  0  0  0
  6 34  1  0  0  0  0
  7  8  1  0  0  0  0
  7 35  1  0  0  0  0
  7 36  1  0  0  0  0
  8  9  1  0  0  0  0
  8 37  1  0  0  0  0
  8 38  1  0  0  0  0
  9 10  1  0  0  0  0
  9 39  1  0  0  0  0
  9 40  1  0  0  0  0
 10 11  1  0  0  0  0
 10 41  1  0  0  0  0
 11 12  1  0  0  0  0
 11 42  1  0  0  0  0
 11 43  1  0  0  0  0
 12 13  1  0  0  0  0
 12 44  1  0  0  0  0
 13 14  2  0  0  0  0
 13 15  1  0  0  0  0
 15 16  1  0  0  0  0
 15 45  1  0  0  0  0
 16 22  1  0  0  0  0
 16 17  2  0  0  0  0
 17 18  1  0  0  0  0
 17 46  1  0  0  0  0
 18 19  2  0  0  0  0
 18 47  1  0  0  0  0
 19 20  1  0  0  0  0
 19 48  1  0  0  0  0
 20 21  1  0  0  0  0
 20 22  1  0  0  0  0
 21 49  1  0  0  0  0
 21 50  1  0  0  0  0
 21 51  1  0  0  0  0
 22 23  2  0  0  0  0
M  CHG  1   5   1
M  END
> <s_m_source_file>
AV-unprocessed.smi

> <i_m_source_file_index>
2799

> <i_lp_mmshare_version>
43012

> <i_f3d_flags>
0

> <s_epik_input>
W0NIM11bQ0hdKFtDSDNdKVtDSDJdTjFbQ0gyXVtDSDJdW0NIMl1bQ0gyXVtDQEhdMVtDSDJdW05IXUMoPU8pW05IXWMyW2NIXVtjSF1bY0hdbihbQ0gzXSljMj1P

> <s_epik_cmdline>
J2VwaWtfcHl0aG9uJywgJy1waCcsICc3LjAnLCAnLXRuJywgJzgnLCAnLW1hJywgJzIwMCcsICctbWV0YWxfYmluZGluZycsICctaW1hZScsICc8aW5maWxlLm1hZT4nLCAnLW9tYWUnLCAnPG91dGZpbGUubWFlPic=

> <r_lp_tautomer_probability>
1

> <r_epik_Ionization_Penalty>
0.0010885

> <r_epik_Ionization_Penalty_Charging>
0.00106921

> <r_epik_Ionization_Penalty_Neutral>
1.92865e-05

> <r_epik_State_Penalty>
0.000697184

> <r_epik_Charging_Adjusted_Penalty>
0.0017664

> <i_epik_Tot_Q>
1

> <i_epik_Tot_abs_Q>
1

> <r_epik_Metal_State_Penalty>
-0

> <b_epik_Metal_Only>
0

> <s_lp_Force_Field>
OPLS_2005

> <r_lp_Energy>
36.9818

> <b_lp_Chiralities_Consistent>
1

> <s_lp_Variant>
AV-unprocessed.smi:2799-3

> <Gold.Version>
5.8.1

> <Gold.Id.Protein>
6NUR|6NUR_protein|mol2

> <Gold.PLP.Fitness>
46.9913

> <Gold.PLP.PLP>
-40.1193

> <Gold.PLP.part.hbond>
-1.7943

> <Gold.PLP.part.metal>
0.0000

> <Gold.PLP.part.buried>
-0.9954

> <Gold.PLP.part.nonpolar>
-40.3348

> <Gold.PLP.part.repulsive>
2.3096

> <Gold.PLP.ligand.clash>
0.0000

> <Gold.PLP.ligand.torsion>
1.1000

> <Gold.PLP.Chemscore.Hbond>
2.0000

> <Gold.PLP.Chemscore.CHOScore>
1.0000

> <Gold.PLP.Chemscore.Metal>
0.0000

> <Gold.Chemscore.Hbonds>
donor molecule, donor type, donor heavy atom, donor atom, acceptor molecule, acceptor atom, score
      L1  H    12    44       P1  7948  1.00
      L1  H    15    45       P1  7948  0.99
      L1  C    19    48       P1  8028  1.00

> <Gold.PLP.Chemscore.Internal.Correction>
0.0720

> <Gold.Rescore>
     Score         DG    S(hbond)    S(metal)    S(lipo)     H(rot)  DE(clash)    DE(int)     intcor
     16.39     -18.99       1.92        0.00      94.96       1.57       0.56       2.04       ----

> <Gold.Chemscore.Fitness>
16.3877

> <Gold.Chemscore.DG>
-18.9949

> <Gold.Chemscore.ZeroCoef>
-5.4800

> <Gold.Chemscore.Hbond>
1.9222

> <Gold.Chemscore.Metal>
0.0000

> <Gold.Chemscore.Lipo>
94.9633

> <Gold.Chemscore.Internal_Hbond>
0.0000

> <Gold.Chemscore.DEClash>
0.5641

> <Gold.Chemscore.DEInternal>
2.0431

> <Gold.Chemscore.Rot>
1.5688

> <Gold.Chemscore.Internal.Correction>
   9.000000E+99

> <Gold.Chemscore.Hbonds>
donor molecule, donor type, donor heavy atom, donor atom, acceptor molecule, acceptor atom, score
      L1  H    12    44       P1  7948  0.90
      L1  H    15    45       P1  7948  0.94

> <Gold.Chemscore.Hbond.Weighted>
-6.4202

> <Gold.Chemscore.Metal.Weighted>
-0.0000

> <Gold.Chemscore.Lipo.Weighted>
-11.1107

> <Gold.Chemscore.Internal_Hbond.Weighted>
0.0000

> <Gold.Chemscore.DEClash.Weighted>
0.5641

> <Gold.Chemscore.DEInternal.Weighted>
2.0431

> <Gold.Chemscore.Rot.Weighted>
4.0161

> <Gold.Chemscore.Internal.Correction.Weighted>
   9.000000E+99

> <Gold.Protein.RotatedTorsions>
[ 6907 6896 6895 6894 ] final   87.22 input  -60.11 | X-H torsion
[ 7974 7965 7964 7962 ] final  -53.26 input  175.53 | X-H torsion
[ 8008 7997 7996 7995 ] final   84.23 input   59.86 | X-H torsion
[ 10167 10162 10161 10158 ] final  -48.88 input  -65.29 | X-H torsion
[ 10718 10713 10712 10709 ] final -123.44 input   66.30 | X-H torsion
[ 10763 10752 10751 10750 ] final  160.70 input  -60.55 | X-H torsion
[ 11005 11000 10999 10996 ] final   86.89 input  -57.11 | X-H torsion

> <Gold.Protein.ActiveResidues>
 VAL166  LYS551  ARG553  GLY616  TRP617  ASP618  TYR619  PRO620  LYS621  CYS622 
 ASP623  PHE694  ASN695  SER759  ASP760  ASP761  ALA762  ILE779  LEU786  VAL792 
 PHE793  MET794  SER795  GLU796  ALA797  LYS798  CYS799  TRP800  GLU811  SER814 

> <Gold.Protein.RotatedAtoms>
  152.5407  134.2310  159.8824 H   0  0  0  0  0  0  0  0  0  0  0  0  # atno 6907 bound_to 6896
  151.2282  133.4458  159.2610 H   0  0  0  0  0  0  0  0  0  0  0  0  # atno 6908 bound_to 6896
  151.0741  134.9830  159.8379 H   0  0  0  0  0  0  0  0  0  0  0  0  # atno 6909 bound_to 6896
  145.8988  140.8011  142.9754 H   0  0  0  0  0  0  0  0  0  0  0  0  # atno 7974 bound_to 7965
  155.9343  140.3412  155.6275 H   0  0  0  0  0  0  0  0  0  0  0  0  # atno 8008 bound_to 7997
  155.7118  140.0773  157.2386 H   0  0  0  0  0  0  0  0  0  0  0  0  # atno 8009 bound_to 7997
  154.4091  140.1621  156.2292 H   0  0  0  0  0  0  0  0  0  0  0  0  # atno 8010 bound_to 7997
  140.6711  143.2721  151.4134 H   0  0  0  0  0  0  0  0  0  0  0  0  # atno 10167 bound_to 10162
  156.1502  130.6529  150.9902 H   0  0  0  0  0  0  0  0  0  0  0  0  # atno 10718 bound_to 10713
  154.2516  135.2771  155.2814 H   0  0  0  0  0  0  0  0  0  0  0  0  # atno 10763 bound_to 10752
  154.5460  135.5689  153.6884 H   0  0  0  0  0  0  0  0  0  0  0  0  # atno 10764 bound_to 10752
  152.9979  135.6263  154.2663 H   0  0  0  0  0  0  0  0  0  0  0  0  # atno 10765 bound_to 10752
  139.8933  134.8386  156.2784 H   0  0  0  0  0  0  0  0  0  0  0  0  # atno 11005 bound_to 11000
  144.6734  140.1644  143.7419 LP  0  0  0  0  0  0  0  0  0  0  0  0  # atno 17320 bound_to 7965
  145.8817  139.2327  143.1601 LP  0  0  0  0  0  0  0  0  0  0  0  0  # atno 17321 bound_to 7965
  139.5980  144.1356  152.2166 LP  0  0  0  0  0  0  0  0  0  0  0  0  # atno 17342 bound_to 10162
  140.0732  144.5762  150.7176 LP  0  0  0  0  0  0  0  0  0  0  0  0  # atno 17343 bound_to 10162
  157.6650  131.0873  150.7749 LP  0  0  0  0  0  0  0  0  0  0  0  0  # atno 17370 bound_to 10713
  156.7817  130.4861  149.5400 LP  0  0  0  0  0  0  0  0  0  0  0  0  # atno 17371 bound_to 10713
  141.0055  133.7126  156.1028 LP  0  0  0  0  0  0  0  0  0  0  0  0  # atno 17394 bound_to 11000
  140.7439  134.4119  157.5551 LP  0  0  0  0  0  0  0  0  0  0  0  0  # atno 17395 bound_to 11000

$$$$
