#       Name:                AV-unprocessed.smi:2242
#       Creating user name   scv26
#       Creation time:       Fri Mar 27 12:26:53 2020


#       File generated by GOLD software.
#

@<TRIPOS>MOLECULE
AV-unprocessed.smi:2242
    48    49     1
SMALL
NO_CHARGES


@<TRIPOS>ATOM
      1 ****        -5.0608   3.5212   0.7100 C.3            1 S1                 0.0000
      2 ****        -4.3985   2.1597   0.7108 C.ar           1 S1                 0.0000
      3 ****        -5.1677   0.9804   0.7106 C.ar           1 S1                 0.0000
      4 ****        -4.4902  -0.2547   0.7134 C.ar           1 S1                 0.0000
      5 ****        -5.2527  -1.5629   0.7121 C.3            1 S1                 0.0000
      6 ****        -3.1439  -0.3566   0.7173 N.ar           1 S1                 0.0000
      7 ****        -2.3931   0.7727   0.7185 C.ar           1 S1                 0.0000
      8 ****        -0.9732   0.7750   0.7259 N.am           1 S1                 0.0000
      9 ****        -0.1398  -0.2799   0.7488 C.2            1 S1                 0.0000
     10 ****        -0.4874  -1.4611   0.7638 O.2            1 S1                 0.0000
     11 ****         1.1412   0.1194   0.7485 N.am           1 S1                 0.0000
     12 ****         2.3159  -0.7532   0.7655 C.3            1 S1                 0.0000
     13 ****         3.1186  -0.4447   2.0410 C.3            1 S1                 0.0000
     14 ****         3.1396  -0.5789  -0.5383 C.3            1 S1                 0.0000
     15 ****         2.2969  -0.8244  -1.8085 C.3            1 S1                 0.0000
     16 ****         3.1546  -0.7197  -3.0794 C.3            1 S1                 0.0000
     17 ****         4.2374  -1.6391  -3.0130 O.3            1 S1                 0.0000
     18 ****         5.1170  -1.3701  -1.9287 C.3            1 S1                 0.0000
     19 ****         4.3679  -1.5100  -0.5934 C.3            1 S1                 0.0000
     20 ****        -2.9933   2.0517   0.7135 C.ar           1 S1                 0.0000
     21 ****        -6.1478   3.4342   0.7091 H              1 S1                 0.0000
     22 ****        -4.7625   4.0856  -0.1738 H              1 S1                 0.0000
     23 ****        -4.7644   4.0850   1.5948 H              1 S1                 0.0000
     24 ****        -6.2474   1.0211   0.7087 H              1 S1                 0.0000
     25 ****        -6.3299  -1.3940   0.7145 H              1 S1                 0.0000
     26 ****        -4.9986  -2.1502   1.5948 H              1 S1                 0.0000
     27 ****        -5.0015  -2.1471  -0.1736 H              1 S1                 0.0000
     28 ****        -0.5416   1.6872   0.7154 H              1 S1                 0.0000
     29 ****         1.3219   1.1125   0.7336 H              1 S1                 0.0000
     30 ****         1.9997  -1.7960   0.8261 H              1 S1                 0.0000
     31 ****         3.9342  -1.1523   2.1859 H              1 S1                 0.0000
     32 ****         2.4846  -0.5093   2.9262 H              1 S1                 0.0000
     33 ****         3.5445   0.5587   2.0109 H              1 S1                 0.0000
     34 ****         3.4996   0.4507  -0.5745 H              1 S1                 0.0000
     35 ****         1.8392  -1.8135  -1.7609 H              1 S1                 0.0000
     36 ****         1.4791  -0.1070  -1.8771 H              1 S1                 0.0000
     37 ****         2.5512  -0.9507  -3.9575 H              1 S1                 0.0000
     38 ****         3.5315   0.2957  -3.2113 H              1 S1                 0.0000
     39 ****         5.9470  -2.0756  -1.9672 H              1 S1                 0.0000
     40 ****         5.5444  -0.3715  -2.0321 H              1 S1                 0.0000
     41 ****         5.0589  -1.2882   0.2190 H              1 S1                 0.0000
     42 ****         4.0528  -2.5462  -0.4630 H              1 S1                 0.0000
     43 ****        -2.3842   2.9443   0.7137 H              1 S1                 0.0000
     44 ****        -2.7051  -1.2551   0.7193 LP             1 S1                 0.0000
     45 ****        -1.4593  -1.6963   0.7593 LP             1 S1                 0.0000
     46 ****         0.2022  -2.1850   0.7805 LP             1 S1                 0.0000
     47 ****         4.7556  -1.5859  -3.8666 LP             1 S1                 0.0000
     48 ****         3.8679  -2.5619  -2.9043 LP             1 S1                 0.0000
@<TRIPOS>BOND
    1    1    2 1     
    2    1   21 1     
    3    1   22 1     
    4    1   23 1     
    5    2   20 ar    
    6    2    3 ar    
    7    3    4 ar    
    8    3   24 1     
    9    4    5 1     
   10    4    6 ar    
   11    5   25 1     
   12    5   26 1     
   13    5   27 1     
   14    6    7 ar    
   15    7    8 1     
   16    7   20 ar    
   17    8    9 am    
   18    8   28 1     
   19    9   10 2     
   20    9   11 am    
   21   11   12 1     
   22   11   29 1     
   23   12   13 1     
   24   12   14 1     
   25   12   30 1     
   26   13   31 1     
   27   13   32 1     
   28   13   33 1     
   29   14   19 1     
   30   14   15 1     
   31   14   34 1     
   32   15   16 1     
   33   15   35 1     
   34   15   36 1     
   35   16   17 1     
   36   16   37 1     
   37   16   38 1     
   38   17   18 1     
   39   18   19 1     
   40   18   39 1     
   41   18   40 1     
   42   19   41 1     
   43   19   42 1     
   44   20   43 1     
   45    6   44 1     
   46   10   45 1     
   47   10   46 1     
   48   17   47 1     
   49   17   48 1     
@<TRIPOS>SUBSTRUCTURE
      1 S1             1
@<TRIPOS>SET
LONE_PAIRS      STATIC     ATOMS    <user>   **** ""
5 44 45 46 47 48
DONOR_HYDROGENS      STATIC     ATOMS    <user>   **** ""
2 28 29
ATOM$BLUE        STATIC     ATOMS    COLORGROUP SYSTEM
5 44 45 46 47 48
ATOM$RED        STATIC     ATOMS    COLORGROUP SYSTEM
2 28 29
