AV-unprocessed.smi:2153|AV-procd|sdf|8766|dock1
  -GOLD-   2272011543D 1   1.00000     0.00000
 Structure written by MMmdl.
 48 49  0  0  0  0  0  0  0  0  1 V2000
  153.4594  141.4500  160.7012 C   0  0  0  0  0  0  0  0  0  0  0  0
  153.0969  142.3224  159.4883 C   0  0  2  0  0  0  0  0  0  0  0  0
  152.7911  143.7676  159.9314 C   0  0  0  0  0  0  0  0  0  0  0  0
  152.4184  144.6626  158.7401 C   0  0  0  0  0  0  0  0  0  0  0  0
  151.2331  144.0761  157.9615 C   0  0  0  0  0  0  0  0  0  0  0  0
  151.5312  142.6410  157.5042 C   0  0  0  0  0  0  0  0  0  0  0  0
  151.9103  141.7318  158.6927 C   0  0  1  0  0  0  0  0  0  0  0  0
  152.3037  140.4564  158.2014 O   0  0  0  0  0  0  0  0  0  0  0  0
  151.4234  139.9017  157.2344 C   0  0  0  0  0  0  0  0  0  0  0  0
  151.8711  138.4713  156.9166 C   0  0  0  0  0  0  0  0  0  0  0  0
  150.7176  137.6083  156.7024 N   0  0  0  0  0  0  0  0  0  0  0  0
  150.7901  136.3271  156.3173 C   0  0  0  0  0  0  0  0  0  0  0  0
  151.8568  135.7487  156.1043 O   0  0  0  0  0  0  0  0  0  0  0  0
  149.4467  135.6065  156.1344 C   0  0  0  0  0  0  0  0  0  0  0  0
  149.5823  134.2411  155.6095 N   0  0  0  0  0  0  0  0  0  0  0  0
  149.1804  133.9663  154.3148 C   0  0  0  0  0  0  0  0  0  0  0  0
  149.2760  132.7441  153.7479 C   0  0  0  0  0  0  0  0  0  0  0  0
  149.8249  131.6177  154.4919 C   0  0  0  0  0  0  0  0  0  0  0  0
  149.9263  130.4819  154.0257 O   0  0  0  0  0  0  0  0  0  0  0  0
  150.2349  131.9252  155.8094 N   0  0  0  0  0  0  0  0  0  0  0  0
  150.7832  130.8312  156.5840 C   0  0  0  0  0  0  0  0  0  0  0  0
  150.1286  133.2063  156.4005 C   0  0  0  0  0  0  0  0  0  0  0  0
  150.4906  133.4336  157.5571 O   0  0  0  0  0  0  0  0  0  0  0  0
  152.6220  141.3679  161.3946 H   0  0  0  0  0  0  0  0  0  0  0  0
  154.3040  141.8703  161.2478 H   0  0  0  0  0  0  0  0  0  0  0  0
  153.7386  140.4410  160.3967 H   0  0  0  0  0  0  0  0  0  0  0  0
  153.9660  142.3516  158.8294 H   0  0  0  0  0  0  0  0  0  0  0  0
  151.9724  143.7668  160.6525 H   0  0  0  0  0  0  0  0  0  0  0  0
  153.6539  144.1906  160.4470 H   0  0  0  0  0  0  0  0  0  0  0  0
  152.1735  145.6659  159.0900 H   0  0  0  0  0  0  0  0  0  0  0  0
  153.2781  144.7671  158.0769 H   0  0  0  0  0  0  0  0  0  0  0  0
  150.3417  144.0827  158.5900 H   0  0  0  0  0  0  0  0  0  0  0  0
  151.0088  144.7028  157.0980 H   0  0  0  0  0  0  0  0  0  0  0  0
  150.6626  142.2452  156.9788 H   0  0  0  0  0  0  0  0  0  0  0  0
  152.3476  142.6544  156.7809 H   0  0  0  0  0  0  0  0  0  0  0  0
  151.0573  141.6325  159.3674 H   0  0  0  0  0  0  0  0  0  0  0  0
  150.4087  139.8856  157.6348 H   0  0  0  0  0  0  0  0  0  0  0  0
  151.4046  140.5002  156.3233 H   0  0  0  0  0  0  0  0  0  0  0  0
  152.5115  138.4646  156.0333 H   0  0  0  0  0  0  0  0  0  0  0  0
  152.4608  138.0780  157.7460 H   0  0  0  0  0  0  0  0  0  0  0  0
  149.8054  138.0159  156.8491 H   0  0  0  0  0  0  0  0  0  0  0  0
  148.9098  135.5957  157.0846 H   0  0  0  0  0  0  0  0  0  0  0  0
  148.8306  136.2004  155.4577 H   0  0  0  0  0  0  0  0  0  0  0  0
  148.7699  134.7710  153.7221 H   0  0  0  0  0  0  0  0  0  0  0  0
  148.9426  132.5980  152.7310 H   0  0  0  0  0  0  0  0  0  0  0  0
  151.1682  131.1762  157.5427 H   0  0  0  0  0  0  0  0  0  0  0  0
  151.5996  130.3961  156.0048 H   0  0  0  0  0  0  0  0  0  0  0  0
  149.9767  130.1121  156.7369 H   0  0  0  0  0  0  0  0  0  0  0  0
  1  2  1  0  0  0  0
  1 24  1  0  0  0  0
  1 25  1  0  0  0  0
  1 26  1  0  0  0  0
  2  7  1  0  0  0  0
  2  3  1  0  0  0  0
  2 27  1  0  0  0  0
  3  4  1  0  0  0  0
  3 28  1  0  0  0  0
  3 29  1  0  0  0  0
  4  5  1  0  0  0  0
  4 30  1  0  0  0  0
  4 31  1  0  0  0  0
  5  6  1  0  0  0  0
  5 32  1  0  0  0  0
  5 33  1  0  0  0  0
  6  7  1  0  0  0  0
  6 34  1  0  0  0  0
  6 35  1  0  0  0  0
  7  8  1  0  0  0  0
  7 36  1  0  0  0  0
  8  9  1  0  0  0  0
  9 10  1  0  0  0  0
  9 37  1  0  0  0  0
  9 38  1  0  0  0  0
 10 11  1  0  0  0  0
 10 39  1  0  0  0  0
 10 40  1  0  0  0  0
 11 12  1  0  0  0  0
 11 41  1  0  0  0  0
 12 13  2  0  0  0  0
 12 14  1  0  0  0  0
 14 15  1  0  0  0  0
 14 42  1  0  0  0  0
 14 43  1  0  0  0  0
 15 22  1  0  0  0  0
 15 16  1  0  0  0  0
 16 17  2  0  0  0  0
 16 44  1  0  0  0  0
 17 18  1  0  0  0  0
 17 45  1  0  0  0  0
 18 19  2  0  0  0  0
 18 20  1  0  0  0  0
 20 21  1  0  0  0  0
 20 22  1  0  0  0  0
 21 46  1  0  0  0  0
 21 47  1  0  0  0  0
 21 48  1  0  0  0  0
 22 23  2  0  0  0  0
M  END
> <s_m_source_file>
AV-unprocessed.smi

> <i_m_source_file_index>
2153

> <i_lp_mmshare_version>
43012

> <i_f3d_flags>
0

> <s_epik_input>
W0NIM11bQ0BASF0xW0NIMl1bQ0gyXVtDSDJdW0NIMl1bQ0BIXTFPW0NIMl1bQ0gyXVtOSF1DKD1PKVtDSDJdbjJbY0hdW2NIXWMoPU8pbihbQ0gzXSljMj1P

> <s_epik_cmdline>
J2VwaWtfcHl0aG9uJywgJy1waCcsICc3LjAnLCAnLXRuJywgJzgnLCAnLW1hJywgJzIwMCcsICctbWV0YWxfYmluZGluZycsICctaW1hZScsICc8aW5maWxlLm1hZT4nLCAnLW9tYWUnLCAnPG91dGZpbGUubWFlPic=

> <r_lp_tautomer_probability>
1

> <r_epik_Ionization_Penalty>
4.02205e-08

> <r_epik_Ionization_Penalty_Charging>
1.23606e-08

> <r_epik_Ionization_Penalty_Neutral>
2.78599e-08

> <r_epik_State_Penalty>
-0

> <r_epik_Charging_Adjusted_Penalty>
1.23606e-08

> <i_epik_Tot_Q>
0

> <i_epik_Tot_abs_Q>
0

> <r_epik_Metal_State_Penalty>
-0

> <b_epik_Metal_Only>
0

> <s_lp_Force_Field>
OPLS_2005

> <r_lp_Energy>
20.2875

> <b_lp_Chiralities_Consistent>
1

> <s_lp_Variant>
AV-unprocessed.smi:2153-1

> <Gold.Version>
5.8.1

> <Gold.Id.Protein>
6NUR|6NUR_protein|mol2

> <Gold.PLP.Fitness>
50.8422

> <Gold.PLP.PLP>
-42.8555

> <Gold.PLP.part.hbond>
-2.0000

> <Gold.PLP.part.metal>
0.0000

> <Gold.PLP.part.buried>
-5.1961

> <Gold.PLP.part.nonpolar>
-36.5162

> <Gold.PLP.part.repulsive>
0.1402

> <Gold.PLP.ligand.clash>
0.0000

> <Gold.PLP.ligand.torsion>
0.4705

> <Gold.PLP.Chemscore.Hbond>
1.9120

> <Gold.PLP.Chemscore.CHOScore>
1.0000

> <Gold.PLP.Chemscore.Metal>
0.0000

> <Gold.Chemscore.Hbonds>
donor molecule, donor type, donor heavy atom, donor atom, acceptor molecule, acceptor atom, score
      P1  H  6896  6907       L1    23  0.90
      P1  H 10752 10763       L1    13  1.00
      L1  C    16    44       P1  7948  1.00

> <Gold.PLP.Chemscore.Internal.Correction>
0.1918

> <Gold.Rescore>
     Score         DG    S(hbond)    S(metal)    S(lipo)     H(rot)  DE(clash)    DE(int)     intcor
     18.25     -18.91       1.94        0.00     107.37       2.20       0.10       0.55       ----

> <Gold.Chemscore.Fitness>
18.2535

> <Gold.Chemscore.DG>
-18.9078

> <Gold.Chemscore.ZeroCoef>
-5.4800

> <Gold.Chemscore.Hbond>
1.9428

> <Gold.Chemscore.Metal>
0.0000

> <Gold.Chemscore.Lipo>
107.3738

> <Gold.Chemscore.Internal_Hbond>
0.0000

> <Gold.Chemscore.DEClash>
0.0998

> <Gold.Chemscore.DEInternal>
0.5545

> <Gold.Chemscore.Rot>
2.1968

> <Gold.Chemscore.Internal.Correction>
   9.000000E+99

> <Gold.Chemscore.Hbonds>
donor molecule, donor type, donor heavy atom, donor atom, acceptor molecule, acceptor atom, score
      P1  H  6896  6907       L1    23  0.88
      P1  H 10752 10763       L1    13  1.00

> <Gold.Chemscore.Hbond.Weighted>
-6.4888

> <Gold.Chemscore.Metal.Weighted>
-0.0000

> <Gold.Chemscore.Lipo.Weighted>
-12.5627

> <Gold.Chemscore.Internal_Hbond.Weighted>
0.0000

> <Gold.Chemscore.DEClash.Weighted>
0.0998

> <Gold.Chemscore.DEInternal.Weighted>
0.5545

> <Gold.Chemscore.Rot.Weighted>
5.6238

> <Gold.Chemscore.Internal.Correction.Weighted>
   9.000000E+99

> <Gold.Protein.RotatedTorsions>
[ 6907 6896 6895 6894 ] final -146.26 input  -60.11 | X-H torsion
[ 7974 7965 7964 7962 ] final  148.95 input  175.53 | X-H torsion
[ 8008 7997 7996 7995 ] final  -13.34 input   59.86 | X-H torsion
[ 10167 10162 10161 10158 ] final -137.40 input  -65.29 | X-H torsion
[ 10718 10713 10712 10709 ] final  -58.81 input   66.30 | X-H torsion
[ 10763 10752 10751 10750 ] final   92.40 input  -60.55 | X-H torsion
[ 11005 11000 10999 10996 ] final -134.69 input  -57.11 | X-H torsion

> <Gold.Protein.ActiveResidues>
 VAL166  LYS551  ARG553  GLY616  TRP617  ASP618  TYR619  PRO620  LYS621  CYS622 
 ASP623  PHE694  ASN695  SER759  ASP760  ASP761  ALA762  ILE779  LEU786  VAL792 
 PHE793  MET794  SER795  GLU796  ALA797  LYS798  CYS799  TRP800  GLU811  SER814 

> <Gold.Protein.RotatedAtoms>
  151.1392  133.4983  159.2597 H   0  0  0  0  0  0  0  0  0  0  0  0  # atno 6907 bound_to 6896
  151.1673  135.0301  159.8746 H   0  0  0  0  0  0  0  0  0  0  0  0  # atno 6908 bound_to 6896
  152.5462  134.1259  159.8472 H   0  0  0  0  0  0  0  0  0  0  0  0  # atno 6909 bound_to 6896
  144.8475  139.6218  143.5989 H   0  0  0  0  0  0  0  0  0  0  0  0  # atno 7974 bound_to 7965
  154.5301  140.2252  155.8820 H   0  0  0  0  0  0  0  0  0  0  0  0  # atno 8008 bound_to 7997
  156.1755  140.3112  155.9014 H   0  0  0  0  0  0  0  0  0  0  0  0  # atno 8009 bound_to 7997
  155.3469  140.0453  157.3036 H   0  0  0  0  0  0  0  0  0  0  0  0  # atno 8010 bound_to 7997
  139.8582  143.7111  152.2652 H   0  0  0  0  0  0  0  0  0  0  0  0  # atno 10167 bound_to 10162
  156.1107  130.4175  150.0629 H   0  0  0  0  0  0  0  0  0  0  0  0  # atno 10718 bound_to 10713
  153.2188  135.4363  155.0465 H   0  0  0  0  0  0  0  0  0  0  0  0  # atno 10763 bound_to 10752
  154.8239  135.3351  154.6959 H   0  0  0  0  0  0  0  0  0  0  0  0  # atno 10764 bound_to 10752
  153.7392  135.7006  153.5027 H   0  0  0  0  0  0  0  0  0  0  0  0  # atno 10765 bound_to 10752
  140.8967  134.1743  157.4490 H   0  0  0  0  0  0  0  0  0  0  0  0  # atno 11005 bound_to 11000
  146.2756  139.6746  142.9265 LP  0  0  0  0  0  0  0  0  0  0  0  0  # atno 17320 bound_to 7965
  145.4567  141.0431  143.2774 LP  0  0  0  0  0  0  0  0  0  0  0  0  # atno 17321 bound_to 7965
  139.7399  144.7562  151.0668 LP  0  0  0  0  0  0  0  0  0  0  0  0  # atno 17342 bound_to 10162
  140.7778  143.4985  150.9802 LP  0  0  0  0  0  0  0  0  0  0  0  0  # atno 17343 bound_to 10162
  156.8593  130.9486  151.3619 LP  0  0  0  0  0  0  0  0  0  0  0  0  # atno 17370 bound_to 10713
  157.6288  130.8713  149.9237 LP  0  0  0  0  0  0  0  0  0  0  0  0  # atno 17371 bound_to 10713
  139.8736  134.9881  156.5397 LP  0  0  0  0  0  0  0  0  0  0  0  0  # atno 17394 bound_to 11000
  140.8281  133.8301  155.8958 LP  0  0  0  0  0  0  0  0  0  0  0  0  # atno 17395 bound_to 11000

$$$$
