AV-unprocessed.smi:2642|AV-procd|sdf|10275|dock4
  -GOLD-   2272014283D 1   1.00000     0.00000
 Structure written by MMmdl.
 31 32  0  0  0  0  0  0  0  0  2 V2000
  144.5190  136.8597  152.1541 O   0  0  0  0  0  0  0  0  0  0  0  0
  145.7089  136.5555  152.0741 C   0  0  0  0  0  0  0  0  0  0  0  0
  146.7077  137.3710  152.4400 N   0  0  0  0  0  0  0  0  0  0  0  0
  146.5390  138.7172  152.9724 C   0  0  0  0  0  0  0  0  0  0  0  0
  146.9969  138.8014  154.4394 C   0  0  0  0  0  0  0  0  0  0  0  0
  148.4443  139.0116  154.5349 N   0  0  0  0  0  0  0  0  0  0  0  0
  149.3222  138.0628  154.8740 C   0  0  0  0  0  0  0  0  0  0  0  0
  149.0935  136.8883  155.1640 O   0  0  0  0  0  0  0  0  0  0  0  0
  150.6994  138.6837  154.8375 C   0  0  0  0  0  0  0  0  0  0  0  0
  150.4159  140.0422  154.4331 N   0  5  0  0  0  0  0  0  0  0  0  0
  149.0786  140.1693  154.2670 C   0  0  0  0  0  0  0  0  0  0  0  0
  148.4744  141.1822  153.9149 O   0  0  0  0  0  0  0  0  0  0  0  0
  146.1843  135.3919  151.5979 N   0  0  0  0  0  0  0  0  0  0  0  0
  145.4597  134.2655  151.1223 C   0  0  0  0  0  0  0  0  0  0  0  0
  146.0487  133.1519  150.4752 C   0  0  0  0  0  0  0  0  0  0  0  0
  145.2168  132.1054  150.0322 C   0  0  0  0  0  0  0  0  0  0  0  0
  143.8290  132.2121  150.2463 C   0  0  0  0  0  0  0  0  0  0  0  0
  143.2529  133.2732  150.8494 N   0  0  0  0  0  0  0  0  0  0  0  0
  144.0565  134.2734  151.2698 C   0  0  0  0  0  0  0  0  0  0  0  0
  147.6559  137.0421  152.3329 H   0  0  0  0  0  0  0  0  0  0  0  0
  147.0786  139.4399  152.3576 H   0  0  0  0  0  0  0  0  0  0  0  0
  145.4820  138.9738  152.8958 H   0  0  0  0  0  0  0  0  0  0  0  0
  146.4742  139.6130  154.9485 H   0  0  0  0  0  0  0  0  0  0  0  0
  146.7158  137.8918  154.9730 H   0  0  0  0  0  0  0  0  0  0  0  0
  151.1636  138.6153  155.8219 H   0  0  0  0  0  0  0  0  0  0  0  0
  151.3302  138.1466  154.1287 H   0  0  0  0  0  0  0  0  0  0  0  0
  147.1885  135.3249  151.5175 H   0  0  0  0  0  0  0  0  0  0  0  0
  147.1105  133.0845  150.2972 H   0  0  0  0  0  0  0  0  0  0  0  0
  145.6337  131.2418  149.5354 H   0  0  0  0  0  0  0  0  0  0  0  0
  143.1634  131.4269  149.9190 H   0  0  0  0  0  0  0  0  0  0  0  0
  143.5608  135.1074  151.7450 H   0  0  0  0  0  0  0  0  0  0  0  0
  1  2  2  0  0  0  0
  2  3  1  0  0  0  0
  2 13  1  0  0  0  0
  3  4  1  0  0  0  0
  3 20  1  0  0  0  0
  4  5  1  0  0  0  0
  4 21  1  0  0  0  0
  4 22  1  0  0  0  0
  5  6  1  0  0  0  0
  5 23  1  0  0  0  0
  5 24  1  0  0  0  0
  6 11  1  0  0  0  0
  6  7  1  0  0  0  0
  7  8  2  0  0  0  0
  7  9  1  0  0  0  0
  9 10  1  0  0  0  0
  9 25  1  0  0  0  0
  9 26  1  0  0  0  0
 10 11  1  0  0  0  0
 11 12  2  0  0  0  0
 13 14  1  0  0  0  0
 13 27  1  0  0  0  0
 14 19  1  0  0  0  0
 14 15  2  0  0  0  0
 15 16  1  0  0  0  0
 15 28  1  0  0  0  0
 16 17  2  0  0  0  0
 16 29  1  0  0  0  0
 17 18  1  0  0  0  0
 17 30  1  0  0  0  0
 18 19  2  0  0  0  0
 19 31  1  0  0  0  0
M  CHG  1  10  -1
M  END
> <s_m_source_file>
AV-unprocessed.smi

> <i_m_source_file_index>
2642

> <i_lp_mmshare_version>
43012

> <i_f3d_flags>
0

> <s_epik_input>
W2NIXTFuW2NIXVtjSF1bY0hdYzFbTkhdQyg9TylbTkhdW0NIMl1bQ0gyXU4yQyg9TylbQ0gyXVtOSF1DMj1P

> <s_epik_cmdline>
J2VwaWtfcHl0aG9uJywgJy1waCcsICc3LjAnLCAnLXRuJywgJzgnLCAnLW1hJywgJzIwMCcsICctbWV0YWxfYmluZGluZycsICctaW1hZScsICc8aW5maWxlLm1hZT4nLCAnLW9tYWUnLCAnPG91dGZpbGUubWFlPic=

> <r_lp_tautomer_probability>
1

> <r_epik_Ionization_Penalty>
5.82623

> <r_epik_Ionization_Penalty_Charging>
5.82164

> <r_epik_Ionization_Penalty_Neutral>
0.00459419

> <r_epik_State_Penalty>
5.8249

> <r_epik_Charging_Adjusted_Penalty>
11.6465

> <i_epik_Tot_Q>
-1

> <i_epik_Tot_abs_Q>
1

> <r_epik_Metal_State_Penalty>
1.79397

> <b_epik_Metal_Only>
1

> <s_lp_Force_Field>
OPLS_2005

> <r_lp_Energy>
16.7854

> <b_lp_Chiralities_Consistent>
1

> <s_lp_Variant>
AV-unprocessed.smi:2642-2

> <Gold.Version>
5.8.1

> <Gold.Id.Protein>
6NUR|6NUR_protein|mol2

> <Gold.PLP.Fitness>
41.1422

> <Gold.PLP.PLP>
-29.7250

> <Gold.PLP.part.hbond>
-3.5148

> <Gold.PLP.part.metal>
0.0000

> <Gold.PLP.part.buried>
-6.6196

> <Gold.PLP.part.nonpolar>
-23.2733

> <Gold.PLP.part.repulsive>
2.0604

> <Gold.PLP.ligand.clash>
0.0000

> <Gold.PLP.ligand.torsion>
0.3437

> <Gold.PLP.Chemscore.Hbond>
3.2343

> <Gold.PLP.Chemscore.CHOScore>
0.7967

> <Gold.PLP.Chemscore.Metal>
0.0000

> <Gold.Chemscore.Hbonds>
donor molecule, donor type, donor heavy atom, donor atom, acceptor molecule, acceptor atom, score
      L1  H     3    20       P1  7948  1.00
      L1  H    13    27       P1  7948  0.94
      P1  H  7989  7998       L1    10  1.00
      P1  H  8011  8017       L1    12  0.06
      L1  C    17    30       P1 10952  0.81

> <Gold.PLP.Chemscore.Internal.Correction>
0.0117

> <Gold.Rescore>
     Score         DG    S(hbond)    S(metal)    S(lipo)     H(rot)  DE(clash)    DE(int)     intcor
     16.50     -18.66       3.55        0.00      52.70       1.90       0.43       1.73       ----

> <Gold.Chemscore.Fitness>
16.4976

> <Gold.Chemscore.DG>
-18.6624

> <Gold.Chemscore.ZeroCoef>
-5.4800

> <Gold.Chemscore.Hbond>
3.5545

> <Gold.Chemscore.Metal>
0.0000

> <Gold.Chemscore.Lipo>
52.7044

> <Gold.Chemscore.Internal_Hbond>
0.0000

> <Gold.Chemscore.DEClash>
0.4298

> <Gold.Chemscore.DEInternal>
1.7350

> <Gold.Chemscore.Rot>
1.8969

> <Gold.Chemscore.Internal.Correction>
   9.000000E+99

> <Gold.Chemscore.Hbonds>
donor molecule, donor type, donor heavy atom, donor atom, acceptor molecule, acceptor atom, score
      L1  H     3    20       P1  7948  0.98
      L1  H    13    27       P1  7948  0.84
      P1  H  7989  7998       L1    10  0.95
      P1  H  8011  8017       L1    12  0.07

> <Gold.Chemscore.Hbond.Weighted>
-11.8721

> <Gold.Chemscore.Metal.Weighted>
-0.0000

> <Gold.Chemscore.Lipo.Weighted>
-6.1664

> <Gold.Chemscore.Internal_Hbond.Weighted>
0.0000

> <Gold.Chemscore.DEClash.Weighted>
0.4298

> <Gold.Chemscore.DEInternal.Weighted>
1.7350

> <Gold.Chemscore.Rot.Weighted>
4.8561

> <Gold.Chemscore.Internal.Correction.Weighted>
   9.000000E+99

> <Gold.Protein.RotatedTorsions>
[ 6907 6896 6895 6894 ] final -159.87 input  -60.11 | X-H torsion
[ 7974 7965 7964 7962 ] final  -75.34 input  175.53 | X-H torsion
[ 8008 7997 7996 7995 ] final   30.76 input   59.86 | X-H torsion
[ 10167 10162 10161 10158 ] final  -28.17 input  -65.29 | X-H torsion
[ 10718 10713 10712 10709 ] final   64.62 input   66.30 | X-H torsion
[ 10763 10752 10751 10750 ] final  -74.05 input  -60.55 | X-H torsion
[ 11005 11000 10999 10996 ] final  -32.20 input  -57.11 | X-H torsion

> <Gold.Protein.ActiveResidues>
 VAL166  LYS551  ARG553  GLY616  TRP617  ASP618  TYR619  PRO620  LYS621  CYS622 
 ASP623  PHE694  ASN695  SER759  ASP760  ASP761  ALA762  ILE779  LEU786  VAL792 
 PHE793  MET794  SER795  GLU796  ALA797  LYS798  CYS799  TRP800  GLU811  SER814 

> <Gold.Protein.RotatedAtoms>
  151.3403  133.3965  159.2670 H   0  0  0  0  0  0  0  0  0  0  0  0  # atno 6907 bound_to 6896
  150.9883  134.9225  159.7895 H   0  0  0  0  0  0  0  0  0  0  0  0  # atno 6908 bound_to 6896
  152.5239  134.3367  159.9255 H   0  0  0  0  0  0  0  0  0  0  0  0  # atno 6909 bound_to 6896
  145.6272  140.9347  143.1106 H   0  0  0  0  0  0  0  0  0  0  0  0  # atno 7974 bound_to 7965
  155.0956  140.3224  155.4561 H   0  0  0  0  0  0  0  0  0  0  0  0  # atno 8008 bound_to 7997
  156.2731  140.2070  156.6029 H   0  0  0  0  0  0  0  0  0  0  0  0  # atno 8009 bound_to 7997
  154.6869  140.0520  157.0311 H   0  0  0  0  0  0  0  0  0  0  0  0  # atno 8010 bound_to 7997
  140.7272  143.4032  151.1229 H   0  0  0  0  0  0  0  0  0  0  0  0  # atno 10167 bound_to 10162
  157.6052  130.9170  149.9870 H   0  0  0  0  0  0  0  0  0  0  0  0  # atno 10718 bound_to 10713
  154.4679  135.5877  153.6301 H   0  0  0  0  0  0  0  0  0  0  0  0  # atno 10763 bound_to 10752
  152.9831  135.6059  154.3404 H   0  0  0  0  0  0  0  0  0  0  0  0  # atno 10764 bound_to 10752
  154.3283  135.2843  155.2464 H   0  0  0  0  0  0  0  0  0  0  0  0  # atno 10765 bound_to 10752
  140.9532  133.7208  156.1253 H   0  0  0  0  0  0  0  0  0  0  0  0  # atno 11005 bound_to 11000
  144.7207  139.8039  143.7383 LP  0  0  0  0  0  0  0  0  0  0  0  0  # atno 17320 bound_to 7965
  146.1385  139.4436  143.0124 LP  0  0  0  0  0  0  0  0  0  0  0  0  # atno 17321 bound_to 7965
  139.7655  143.8571  152.3109 LP  0  0  0  0  0  0  0  0  0  0  0  0  # atno 17342 bound_to 10162
  139.8472  144.7182  150.9258 LP  0  0  0  0  0  0  0  0  0  0  0  0  # atno 17343 bound_to 10162
  156.1136  130.3649  150.0006 LP  0  0  0  0  0  0  0  0  0  0  0  0  # atno 17370 bound_to 10713
  156.8100  130.9321  151.3644 LP  0  0  0  0  0  0  0  0  0  0  0  0  # atno 17371 bound_to 10713
  140.7573  134.3979  157.5532 LP  0  0  0  0  0  0  0  0  0  0  0  0  # atno 17394 bound_to 11000
  139.8854  134.8938  156.2645 LP  0  0  0  0  0  0  0  0  0  0  0  0  # atno 17395 bound_to 11000

$$$$
