AV-unprocessed.smi:860|AV-procd|sdf|3965|dock2
  -GOLD-   22720 1433D 1   1.00000     0.00000
 Structure written by MMmdl.
 41 43  0  0  0  0  0  0  0  0  1 V2000
  151.6862  145.3980  158.9388 C   0  0  0  0  0  0  0  0  0  0  0  0
  151.9253  143.9267  158.9830 C   0  0  0  0  0  0  0  0  0  0  0  0
  152.5119  143.2008  159.9909 C   0  0  0  0  0  0  0  0  0  0  0  0
  152.5906  141.8029  159.7142 C   0  0  0  0  0  0  0  0  0  0  0  0
  152.0537  141.4949  158.4886 C   0  0  0  0  0  0  0  0  0  0  0  0
  152.0224  140.1282  157.9973 C   0  0  0  0  0  0  0  0  0  0  0  0
  152.4349  138.9708  158.7777 C   0  0  0  0  0  0  0  0  0  0  0  0
  152.3587  137.7427  158.2216 C   0  0  0  0  0  0  0  0  0  0  0  0
  151.8700  137.5403  156.8598 C   0  0  0  0  0  0  0  0  0  0  0  0
  151.7838  136.4298  156.3365 O   0  0  0  0  0  0  0  0  0  0  0  0
  151.5076  138.6961  156.2270 N   0  0  0  0  0  0  0  0  0  0  0  0
  150.9805  138.6985  154.8528 C   0  0  0  0  0  0  0  0  0  0  0  0
  149.4679  139.0478  154.7443 C   0  0  0  0  0  0  0  0  0  0  0  0
  148.9628  138.3497  153.6194 O   0  0  0  0  0  0  0  0  0  0  0  0
  148.7202  138.4946  155.9825 C   0  0  0  0  0  0  0  0  0  0  0  0
  147.2203  138.8424  155.9952 C   0  0  0  0  0  0  0  0  0  0  0  0
  146.9978  140.3545  155.8595 C   0  0  0  0  0  0  0  0  0  0  0  0
  147.6759  140.8956  154.5939 C   0  0  0  0  0  0  0  0  0  0  0  0
  149.1781  140.5619  154.5741 C   0  0  0  0  0  0  0  0  0  0  0  0
  151.5954  139.9575  156.7889 N   0  0  0  0  0  0  0  0  0  0  0  0
  151.4450  142.9007  157.6537 S   0  0  0  0  0  0  0  0  0  0  0  0
  152.0834  145.8884  159.8280 H   0  0  0  0  0  0  0  0  0  0  0  0
  150.6193  145.6148  158.8829 H   0  0  0  0  0  0  0  0  0  0  0  0
  152.1675  145.8417  158.0672 H   0  0  0  0  0  0  0  0  0  0  0  0
  152.8856  143.6225  160.9126 H   0  0  0  0  0  0  0  0  0  0  0  0
  153.0288  141.1163  160.4223 H   0  0  0  0  0  0  0  0  0  0  0  0
  152.8007  139.0769  159.7866 H   0  0  0  0  0  0  0  0  0  0  0  0
  152.6656  136.8831  158.7991 H   0  0  0  0  0  0  0  0  0  0  0  0
  151.5682  139.3875  154.2427 H   0  0  0  0  0  0  0  0  0  0  0  0
  151.1569  137.7248  154.3931 H   0  0  0  0  0  0  0  0  0  0  0  0
  149.1631  138.8498  152.8431 H   0  0  0  0  0  0  0  0  0  0  0  0
  148.8456  137.4128  156.0485 H   0  0  0  0  0  0  0  0  0  0  0  0
  149.1724  138.9040  156.8869 H   0  0  0  0  0  0  0  0  0  0  0  0
  146.7095  138.3217  155.1846 H   0  0  0  0  0  0  0  0  0  0  0  0
  146.7676  138.4844  156.9203 H   0  0  0  0  0  0  0  0  0  0  0  0
  145.9300  140.5737  155.8326 H   0  0  0  0  0  0  0  0  0  0  0  0
  147.3975  140.8647  156.7368 H   0  0  0  0  0  0  0  0  0  0  0  0
  147.1921  140.4776  153.7105 H   0  0  0  0  0  0  0  0  0  0  0  0
  147.5385  141.9756  154.5341 H   0  0  0  0  0  0  0  0  0  0  0  0
  149.6656  141.1114  155.3802 H   0  0  0  0  0  0  0  0  0  0  0  0
  149.6096  140.9345  153.6445 H   0  0  0  0  0  0  0  0  0  0  0  0
  1  2  1  0  0  0  0
  1 22  1  0  0  0  0
  1 23  1  0  0  0  0
  1 24  1  0  0  0  0
  2 21  1  0  0  0  0
  2  3  2  0  0  0  0
  3  4  1  0  0  0  0
  3 25  1  0  0  0  0
  4  5  2  0  0  0  0
  4 26  1  0  0  0  0
  5  6  1  0  0  0  0
  5 21  1  0  0  0  0
  6 20  2  0  0  0  0
  6  7  1  0  0  0  0
  7  8  2  0  0  0  0
  7 27  1  0  0  0  0
  8  9  1  0  0  0  0
  8 28  1  0  0  0  0
  9 10  2  0  0  0  0
  9 11  1  0  0  0  0
 11 12  1  0  0  0  0
 11 20  1  0  0  0  0
 12 13  1  0  0  0  0
 12 29  1  0  0  0  0
 12 30  1  0  0  0  0
 13 19  1  0  0  0  0
 13 14  1  0  0  0  0
 13 15  1  0  0  0  0
 14 31  1  0  0  0  0
 15 16  1  0  0  0  0
 15 32  1  0  0  0  0
 15 33  1  0  0  0  0
 16 17  1  0  0  0  0
 16 34  1  0  0  0  0
 16 35  1  0  0  0  0
 17 18  1  0  0  0  0
 17 36  1  0  0  0  0
 17 37  1  0  0  0  0
 18 19  1  0  0  0  0
 18 38  1  0  0  0  0
 18 39  1  0  0  0  0
 19 40  1  0  0  0  0
 19 41  1  0  0  0  0
M  END
> <s_m_source_file>
AV-unprocessed.smi

> <i_m_source_file_index>
860

> <i_lp_mmshare_version>
43012

> <i_f3d_flags>
0

> <s_epik_input>
W0NIM11jMVtjSF1bY0hdYyhzMSktYzJbY0hdW2NIXWMoPU8pbihuMilbQ0gyXUMzKFtPSF0pW0NIMl1bQ0gyXVtDSDJdW0NIMl1bQ0gyXTM=

> <s_epik_cmdline>
J2VwaWtfcHl0aG9uJywgJy1waCcsICc3LjAnLCAnLXRuJywgJzgnLCAnLW1hJywgJzIwMCcsICctbWV0YWxfYmluZGluZycsICctaW1hZScsICc8aW5maWxlLm1hZT4nLCAnLW9tYWUnLCAnPG91dGZpbGUubWFlPic=

> <r_lp_tautomer_probability>
1

> <r_epik_Ionization_Penalty>
5.74692e-07

> <r_epik_Ionization_Penalty_Charging>
1.87674e-07

> <r_epik_Ionization_Penalty_Neutral>
3.87018e-07

> <r_epik_State_Penalty>
-0

> <r_epik_Charging_Adjusted_Penalty>
1.87674e-07

> <i_epik_Tot_Q>
0

> <i_epik_Tot_abs_Q>
0

> <r_epik_Metal_State_Penalty>
-0

> <b_epik_Metal_Only>
0

> <s_lp_Force_Field>
OPLS_2005

> <r_lp_Energy>
34.3183

> <b_lp_Chiralities_Consistent>
1

> <s_lp_Variant>
AV-unprocessed.smi:860-1

> <Gold.Version>
5.8.1

> <Gold.Id.Protein>
6NUR|6NUR_protein|mol2

> <Gold.PLP.Fitness>
47.2521

> <Gold.PLP.PLP>
-42.5332

> <Gold.PLP.part.hbond>
-2.1244

> <Gold.PLP.part.metal>
0.0000

> <Gold.PLP.part.buried>
-2.8163

> <Gold.PLP.part.nonpolar>
-37.0103

> <Gold.PLP.part.repulsive>
0.0101

> <Gold.PLP.ligand.clash>
0.0000

> <Gold.PLP.ligand.torsion>
0.6445

> <Gold.PLP.Chemscore.Hbond>
2.0000

> <Gold.PLP.Chemscore.CHOScore>
0.0000

> <Gold.PLP.Chemscore.Metal>
0.0000

> <Gold.Chemscore.Hbonds>
donor molecule, donor type, donor heavy atom, donor atom, acceptor molecule, acceptor atom, score
      L1  H    14    31       P1  7957  0.83
      P1  H 10752 10763       L1    10  0.83

> <Gold.PLP.Chemscore.Internal.Correction>
0.0079

> <Gold.Rescore>
     Score         DG    S(hbond)    S(metal)    S(lipo)     H(rot)  DE(clash)    DE(int)     intcor
     19.88     -21.79       1.95        0.00     117.97       1.56       0.69       1.22       ----

> <Gold.Chemscore.Fitness>
19.8775

> <Gold.Chemscore.DG>
-21.7901

> <Gold.Chemscore.ZeroCoef>
-5.4800

> <Gold.Chemscore.Hbond>
1.9472

> <Gold.Chemscore.Metal>
0.0000

> <Gold.Chemscore.Lipo>
117.9693

> <Gold.Chemscore.Internal_Hbond>
0.0000

> <Gold.Chemscore.DEClash>
0.6945

> <Gold.Chemscore.DEInternal>
1.2182

> <Gold.Chemscore.Rot>
1.5609

> <Gold.Chemscore.Internal.Correction>
   9.000000E+99

> <Gold.Chemscore.Hbonds>
donor molecule, donor type, donor heavy atom, donor atom, acceptor molecule, acceptor atom, score
      L1  H    14    31       P1  7957  0.81
      P1  H 10752 10763       L1    10  0.82

> <Gold.Chemscore.Hbond.Weighted>
-6.5037

> <Gold.Chemscore.Metal.Weighted>
-0.0000

> <Gold.Chemscore.Lipo.Weighted>
-13.8024

> <Gold.Chemscore.Internal_Hbond.Weighted>
0.0000

> <Gold.Chemscore.DEClash.Weighted>
0.6945

> <Gold.Chemscore.DEInternal.Weighted>
1.2182

> <Gold.Chemscore.Rot.Weighted>
3.9960

> <Gold.Chemscore.Internal.Correction.Weighted>
   9.000000E+99

> <Gold.Protein.RotatedTorsions>
[ 6907 6896 6895 6894 ] final  127.60 input  -60.11 | X-H torsion
[ 7974 7965 7964 7962 ] final   -4.82 input  175.53 | X-H torsion
[ 8008 7997 7996 7995 ] final  -40.74 input   59.86 | X-H torsion
[ 10167 10162 10161 10158 ] final  -95.12 input  -65.29 | X-H torsion
[ 10718 10713 10712 10709 ] final  -45.53 input   66.30 | X-H torsion
[ 10763 10752 10751 10750 ] final   83.90 input  -60.55 | X-H torsion
[ 11005 11000 10999 10996 ] final   87.42 input  -57.11 | X-H torsion

> <Gold.Protein.ActiveResidues>
 VAL166  LYS551  ARG553  GLY616  TRP617  ASP618  TYR619  PRO620  LYS621  CYS622 
 ASP623  PHE694  ASN695  SER759  ASP760  ASP761  ALA762  ILE779  LEU786  VAL792 
 PHE793  MET794  SER795  GLU796  ALA797  LYS798  CYS799  TRP800  GLU811  SER814 

> <Gold.Protein.RotatedAtoms>
  152.3798  133.6530  159.6151 H   0  0  0  0  0  0  0  0  0  0  0  0  # atno 6907 bound_to 6896
  150.7732  133.9133  159.3385 H   0  0  0  0  0  0  0  0  0  0  0  0  # atno 6908 bound_to 6896
  151.6941  135.0943  160.0290 H   0  0  0  0  0  0  0  0  0  0  0  0  # atno 6909 bound_to 6896
  146.2365  140.1928  142.8333 H   0  0  0  0  0  0  0  0  0  0  0  0  # atno 7974 bound_to 7965
  154.4009  140.1517  156.3077 H   0  0  0  0  0  0  0  0  0  0  0  0  # atno 8008 bound_to 7997
  155.8644  140.3452  155.5756 H   0  0  0  0  0  0  0  0  0  0  0  0  # atno 8009 bound_to 7997
  155.7845  140.0848  157.2032 H   0  0  0  0  0  0  0  0  0  0  0  0  # atno 8010 bound_to 7997
  140.3074  143.3125  152.0185 H   0  0  0  0  0  0  0  0  0  0  0  0  # atno 10167 bound_to 10162
  156.2274  130.4170  149.8916 H   0  0  0  0  0  0  0  0  0  0  0  0  # atno 10718 bound_to 10713
  153.1333  135.4674  154.9382 H   0  0  0  0  0  0  0  0  0  0  0  0  # atno 10763 bound_to 10752
  154.7683  135.3151  154.8243 H   0  0  0  0  0  0  0  0  0  0  0  0  # atno 10764 bound_to 10752
  153.8781  135.6897  153.4823 H   0  0  0  0  0  0  0  0  0  0  0  0  # atno 10765 bound_to 10752
  139.8920  134.8421  156.2858 H   0  0  0  0  0  0  0  0  0  0  0  0  # atno 11005 bound_to 11000
  144.9844  140.8489  143.5377 LP  0  0  0  0  0  0  0  0  0  0  0  0  # atno 17320 bound_to 7965
  145.1925  139.2293  143.5235 LP  0  0  0  0  0  0  0  0  0  0  0  0  # atno 17321 bound_to 7965
  139.4901  144.6410  151.6876 LP  0  0  0  0  0  0  0  0  0  0  0  0  # atno 17342 bound_to 10162
  140.5598  144.0287  150.6164 LP  0  0  0  0  0  0  0  0  0  0  0  0  # atno 17343 bound_to 10162
  156.6542  130.8756  151.3536 LP  0  0  0  0  0  0  0  0  0  0  0  0  # atno 17370 bound_to 10713
  157.7117  130.9448  150.1112 LP  0  0  0  0  0  0  0  0  0  0  0  0  # atno 17371 bound_to 10713
  141.0009  133.7152  156.0958 LP  0  0  0  0  0  0  0  0  0  0  0  0  # atno 17394 bound_to 11000
  140.7499  134.4056  157.5543 LP  0  0  0  0  0  0  0  0  0  0  0  0  # atno 17395 bound_to 11000

$$$$
