#       Name:                AV-unprocessed.smi:1440
#       Creating user name   scv26
#       Creation time:       Fri Mar 27 05:55:04 2020


#       File generated by GOLD software.
#

@<TRIPOS>MOLECULE
AV-unprocessed.smi:1440
    47    48     1
SMALL
NO_CHARGES


@<TRIPOS>ATOM
      1 ****        -5.2607  -3.5905  -0.3034 C.3            1 S1                 0.0000
      2 ****        -3.7938  -3.1399  -0.3452 C.3            1 S1                 0.0000
      3 ****        -3.4303  -2.2835   0.8821 C.3            1 S1                 0.0000
      4 ****        -1.9602  -1.8366   0.8438 C.3            1 S1                 0.0000
      5 ****        -1.6316  -1.0777  -0.4589 C.3            1 S1                 0.0000
      6 ****        -0.2124  -0.7395  -0.5179 N.am           1 S1                 0.0000
      7 ****         0.3740   0.2764   0.1332 C.2            1 S1                 0.0000
      8 ****        -0.2399   1.0460   0.8740 O.2            1 S1                 0.0000
      9 ****         1.8858   0.4218  -0.0840 C.3            1 S1                 0.0000
     10 ****         2.4416   1.6325   0.5152 N.am           1 S1                 0.0000
     11 ****         2.4632   2.8453  -0.0605 C.2            1 S1                 0.0000
     12 ****         2.0229   3.0703  -1.1874 O.2            1 S1                 0.0000
     13 ****         3.0700   3.9809   0.7644 C.3            1 S1                 0.0000
     14 ****         4.5177   3.8861   0.8048 N.pl3          1 S1                 0.0000
     15 ****         5.4379   4.2813  -0.0771 C.2            1 S1                 0.0000
     16 ****         6.6835   4.0241   0.2974 N.2            1 S1                 0.0000
     17 ****         6.4410   3.4278   1.5029 C.2            1 S1                 0.0000
     18 ****         5.1597   3.3204   1.8547 N.2            1 S1                 0.0000
     19 ****        -2.0067  -1.9242  -1.6894 C.3            1 S1                 0.0000
     20 ****        -3.4761  -2.3733  -1.6429 C.3            1 S1                 0.0000
     21 ****        -5.9385  -2.7367  -0.3208 H              1 S1                 0.0000
     22 ****        -5.4698  -4.1637   0.6003 H              1 S1                 0.0000
     23 ****        -5.5006  -4.2239  -1.1579 H              1 S1                 0.0000
     24 ****        -3.1745  -4.0380  -0.3239 H              1 S1                 0.0000
     25 ****        -4.0755  -1.4047   0.9235 H              1 S1                 0.0000
     26 ****        -3.6160  -2.8453   1.7980 H              1 S1                 0.0000
     27 ****        -1.7506  -1.2094   1.7110 H              1 S1                 0.0000
     28 ****        -1.3150  -2.7117   0.9343 H              1 S1                 0.0000
     29 ****        -2.2157  -0.1557  -0.4885 H              1 S1                 0.0000
     30 ****         0.3685  -1.3231  -1.1022 H              1 S1                 0.0000
     31 ****         2.3857  -0.4380   0.3627 H              1 S1                 0.0000
     32 ****         2.1079   0.3921  -1.1523 H              1 S1                 0.0000
     33 ****         2.8244   1.5443   1.4455 H              1 S1                 0.0000
     34 ****         2.7948   4.9439   0.3320 H              1 S1                 0.0000
     35 ****         2.6737   3.9598   1.7810 H              1 S1                 0.0000
     36 ****         5.1910   4.7639  -1.0115 H              1 S1                 0.0000
     37 ****         7.2325   3.0616   2.1402 H              1 S1                 0.0000
     38 ****        -1.8269  -1.3559  -2.6028 H              1 S1                 0.0000
     39 ****        -1.3644  -2.8046  -1.7422 H              1 S1                 0.0000
     40 ****        -3.6925  -3.0005  -2.5083 H              1 S1                 0.0000
     41 ****        -4.1252  -1.5004  -1.7245 H              1 S1                 0.0000
     42 ****        -1.2232   0.9284   1.0128 LP             1 S1                 0.0000
     43 ****         0.2452   1.7882   1.3365 LP             1 S1                 0.0000
     44 ****         1.6222   2.3284  -1.7250 LP             1 S1                 0.0000
     45 ****         2.0659   3.9950  -1.5655 LP             1 S1                 0.0000
     46 ****         7.5489   4.2118  -0.1672 LP             1 S1                 0.0000
     47 ****         4.7703   2.9221   2.6852 LP             1 S1                 0.0000
@<TRIPOS>BOND
    1    1    2 1     
    2    1   21 1     
    3    1   22 1     
    4    1   23 1     
    5    2   20 1     
    6    2    3 1     
    7    2   24 1     
    8    3    4 1     
    9    3   25 1     
   10    3   26 1     
   11    4    5 1     
   12    4   27 1     
   13    4   28 1     
   14    5    6 1     
   15    5   19 1     
   16    5   29 1     
   17    6    7 am    
   18    6   30 1     
   19    7    8 2     
   20    7    9 1     
   21    9   10 1     
   22    9   31 1     
   23    9   32 1     
   24   10   11 am    
   25   10   33 1     
   26   11   12 2     
   27   11   13 1     
   28   13   14 1     
   29   13   34 1     
   30   13   35 1     
   31   14   18 1     
   32   14   15 1     
   33   15   16 2     
   34   15   36 1     
   35   16   17 1     
   36   17   18 2     
   37   17   37 1     
   38   19   20 1     
   39   19   38 1     
   40   19   39 1     
   41   20   40 1     
   42   20   41 1     
   43    8   42 1     
   44    8   43 1     
   45   12   44 1     
   46   12   45 1     
   47   16   46 1     
   48   18   47 1     
@<TRIPOS>SUBSTRUCTURE
      1 S1             1
@<TRIPOS>SET
LONE_PAIRS      STATIC     ATOMS    <user>   **** ""
6 42 43 44 45 46 47
DONOR_HYDROGENS      STATIC     ATOMS    <user>   **** ""
2 30 33
ATOM$BLUE        STATIC     ATOMS    COLORGROUP SYSTEM
6 42 43 44 45 46 47
ATOM$RED        STATIC     ATOMS    COLORGROUP SYSTEM
2 30 33
