AV-unprocessed.smi:3215|AV-procd|sdf|12285|dock4
  -GOLD-   2272018123D 1   1.00000     0.00000
 Structure written by MMmdl.
 38 39  0  0  0  0  0  0  0  0  2 V2000
  153.5927  142.5043  163.2969 C   0  0  0  0  0  0  0  0  0  0  0  0
  153.1040  142.9457  161.9473 C   0  0  0  0  0  0  0  0  0  0  0  0
  152.2662  144.0550  161.6392 C   0  0  0  0  0  0  0  0  0  0  0  0
  152.0225  144.1700  160.3439 N   0  0  0  0  0  0  0  0  0  0  0  0
  152.6977  143.1461  159.7802 N   0  0  0  0  0  0  0  0  0  0  0  0
  152.6547  142.9546  158.3409 C   0  0  0  0  0  0  0  0  0  0  0  0
  151.6861  143.9245  157.6425 C   0  0  0  0  0  0  0  0  0  0  0  0
  150.9368  143.2528  156.5620 N   0  3  0  0  0  0  0  0  0  0  0  0
  150.3962  141.9281  156.9281 C   0  0  0  0  0  0  0  0  0  0  0  0
  149.9077  141.1417  155.7032 C   0  0  0  0  0  0  0  0  0  0  0  0
  148.9297  141.5445  155.0710 O   0  0  0  0  0  0  0  0  0  0  0  0
  150.5736  140.0211  155.3564 N   0  0  0  0  0  0  0  0  0  0  0  0
  151.7461  139.5246  156.0744 C   0  0  0  0  0  0  0  0  0  0  0  0
  152.3213  138.4074  155.2041 C   0  0  0  0  0  0  0  0  0  0  0  0
  151.1255  137.9057  154.4069 C   0  0  0  0  0  0  0  0  0  0  0  0
  150.2455  139.1442  154.2327 C   0  0  0  0  0  0  0  0  0  0  0  0
  153.3497  142.3840  160.7265 C   0  0  0  0  0  0  0  0  0  0  0  0
  153.2360  143.1594  164.0921 H   0  0  0  0  0  0  0  0  0  0  0  0
  154.6816  142.5003  163.3488 H   0  0  0  0  0  0  0  0  0  0  0  0
  153.2554  141.4958  163.5363 H   0  0  0  0  0  0  0  0  0  0  0  0
  151.8309  144.7761  162.3152 H   0  0  0  0  0  0  0  0  0  0  0  0
  153.6626  143.0749  157.9411 H   0  0  0  0  0  0  0  0  0  0  0  0
  152.3605  141.9233  158.1424 H   0  0  0  0  0  0  0  0  0  0  0  0
  150.9798  144.3233  158.3714 H   0  0  0  0  0  0  0  0  0  0  0  0
  152.2318  144.7754  157.2320 H   0  0  0  0  0  0  0  0  0  0  0  0
  150.1634  143.8456  156.2946 H   0  0  0  0  0  0  0  0  0  0  0  0
  151.1725  141.3578  157.4395 H   0  0  0  0  0  0  0  0  0  0  0  0
  149.5665  142.0612  157.6238 H   0  0  0  0  0  0  0  0  0  0  0  0
  152.4840  140.3090  156.2507 H   0  0  0  0  0  0  0  0  0  0  0  0
  151.4300  139.1322  157.0420 H   0  0  0  0  0  0  0  0  0  0  0  0
  153.0654  138.8217  154.5224 H   0  0  0  0  0  0  0  0  0  0  0  0
  152.8032  137.6218  155.7867 H   0  0  0  0  0  0  0  0  0  0  0  0
  151.4100  137.4506  153.4578 H   0  0  0  0  0  0  0  0  0  0  0  0
  150.5897  137.1555  154.9902 H   0  0  0  0  0  0  0  0  0  0  0  0
  149.1898  138.8709  154.2096 H   0  0  0  0  0  0  0  0  0  0  0  0
  150.4877  139.6547  153.2994 H   0  0  0  0  0  0  0  0  0  0  0  0
  153.9338  141.5160  160.4569 H   0  0  0  0  0  0  0  0  0  0  0  0
  151.5442  143.1403  155.7628 H   0  0  0  0  0  0  0  0  0  0  0  0
  1  2  1  0  0  0  0
  1 18  1  0  0  0  0
  1 19  1  0  0  0  0
  1 20  1  0  0  0  0
  2 17  2  0  0  0  0
  2  3  1  0  0  0  0
  3  4  2  0  0  0  0
  3 21  1  0  0  0  0
  4  5  1  0  0  0  0
  5  6  1  0  0  0  0
  5 17  1  0  0  0  0
  6  7  1  0  0  0  0
  6 22  1  0  0  0  0
  6 23  1  0  0  0  0
  7  8  1  0  0  0  0
  7 24  1  0  0  0  0
  7 25  1  0  0  0  0
  8  9  1  0  0  0  0
  8 26  1  0  0  0  0
  8 38  1  0  0  0  0
  9 10  1  0  0  0  0
  9 27  1  0  0  0  0
  9 28  1  0  0  0  0
 10 11  2  0  0  0  0
 10 12  1  0  0  0  0
 12 16  1  0  0  0  0
 12 13  1  0  0  0  0
 13 14  1  0  0  0  0
 13 29  1  0  0  0  0
 13 30  1  0  0  0  0
 14 15  1  0  0  0  0
 14 31  1  0  0  0  0
 14 32  1  0  0  0  0
 15 16  1  0  0  0  0
 15 33  1  0  0  0  0
 15 34  1  0  0  0  0
 16 35  1  0  0  0  0
 16 36  1  0  0  0  0
 17 37  1  0  0  0  0
M  CHG  1   8   1
M  END
> <s_m_source_file>
AV-unprocessed.smi

> <i_m_source_file_index>
3215

> <i_lp_mmshare_version>
43012

> <i_f3d_flags>
0

> <s_epik_input>
W0NIM11jMVtjSF1ubihbY0hdMSlbQ0gyXVtDSDJdW05IXVtDSDJdQyg9TylOMltDSDJdW0NIMl1bQ0gyXVtDSDJdMg==

> <s_epik_cmdline>
J2VwaWtfcHl0aG9uJywgJy1waCcsICc3LjAnLCAnLXRuJywgJzgnLCAnLW1hJywgJzIwMCcsICctbWV0YWxfYmluZGluZycsICctaW1hZScsICc8aW5maWxlLm1hZT4nLCAnLW9tYWUnLCAnPG91dGZpbGUubWFlPic=

> <r_lp_tautomer_probability>
1

> <r_epik_Ionization_Penalty>
0.203173

> <r_epik_Ionization_Penalty_Charging>
0.203168

> <r_epik_Ionization_Penalty_Neutral>
4.79177e-06

> <r_epik_State_Penalty>
0.193773

> <r_epik_Charging_Adjusted_Penalty>
0.396942

> <i_epik_Tot_Q>
1

> <i_epik_Tot_abs_Q>
1

> <r_epik_Metal_State_Penalty>
0.194058

> <b_epik_Metal_Only>
0

> <s_lp_Force_Field>
OPLS_2005

> <r_lp_Energy>
25.9096

> <b_lp_Chiralities_Consistent>
1

> <s_lp_Variant>
AV-unprocessed.smi:3215-1

> <Gold.Version>
5.8.1

> <Gold.Id.Protein>
6NUR|6NUR_protein|mol2

> <Gold.PLP.Fitness>
52.0028

> <Gold.PLP.PLP>
-46.8419

> <Gold.PLP.part.hbond>
-1.0000

> <Gold.PLP.part.metal>
0.0000

> <Gold.PLP.part.buried>
-4.2668

> <Gold.PLP.part.nonpolar>
-40.1541

> <Gold.PLP.part.repulsive>
0.2748

> <Gold.PLP.ligand.clash>
0.0000

> <Gold.PLP.ligand.torsion>
0.4570

> <Gold.PLP.Chemscore.Hbond>
2.0000

> <Gold.PLP.Chemscore.CHOScore>
0.0000

> <Gold.PLP.Chemscore.Metal>
0.0000

> <Gold.Chemscore.Hbonds>
donor molecule, donor type, donor heavy atom, donor atom, acceptor molecule, acceptor atom, score
      L1  H     8    26       P1  8028  2.00

> <Gold.PLP.Chemscore.Internal.Correction>
0.0749

> <Gold.Rescore>
     Score         DG    S(hbond)    S(metal)    S(lipo)     H(rot)  DE(clash)    DE(int)     intcor
     16.59     -17.13       1.00        0.00     110.79       1.81       0.10       0.43       ----

> <Gold.Chemscore.Fitness>
16.5950

> <Gold.Chemscore.DG>
-17.1278

> <Gold.Chemscore.ZeroCoef>
-5.4800

> <Gold.Chemscore.Hbond>
0.9966

> <Gold.Chemscore.Metal>
0.0000

> <Gold.Chemscore.Lipo>
110.7897

> <Gold.Chemscore.Internal_Hbond>
0.0000

> <Gold.Chemscore.DEClash>
0.1028

> <Gold.Chemscore.DEInternal>
0.4300

> <Gold.Chemscore.Rot>
1.8137

> <Gold.Chemscore.Internal.Correction>
   9.000000E+99

> <Gold.Chemscore.Hbonds>
donor molecule, donor type, donor heavy atom, donor atom, acceptor molecule, acceptor atom, score
      L1  H     8    26       P1  8028  1.00

> <Gold.Chemscore.Hbond.Weighted>
-3.3285

> <Gold.Chemscore.Metal.Weighted>
-0.0000

> <Gold.Chemscore.Lipo.Weighted>
-12.9624

> <Gold.Chemscore.Internal_Hbond.Weighted>
0.0000

> <Gold.Chemscore.DEClash.Weighted>
0.1028

> <Gold.Chemscore.DEInternal.Weighted>
0.4300

> <Gold.Chemscore.Rot.Weighted>
4.6431

> <Gold.Chemscore.Internal.Correction.Weighted>
   9.000000E+99

> <Gold.Protein.RotatedTorsions>
[ 6907 6896 6895 6894 ] final  -94.54 input  -60.11 | X-H torsion
[ 7974 7965 7964 7962 ] final  -76.86 input  175.53 | X-H torsion
[ 8008 7997 7996 7995 ] final  -79.47 input   59.86 | X-H torsion
[ 10167 10162 10161 10158 ] final  -13.23 input  -65.29 | X-H torsion
[ 10718 10713 10712 10709 ] final  -94.26 input   66.30 | X-H torsion
[ 10763 10752 10751 10750 ] final -103.17 input  -60.55 | X-H torsion
[ 11005 11000 10999 10996 ] final   -8.19 input  -57.11 | X-H torsion

> <Gold.Protein.ActiveResidues>
 VAL166  LYS551  ARG553  GLY616  TRP617  ASP618  TYR619  PRO620  LYS621  CYS622 
 ASP623  PHE694  ASN695  SER759  ASP760  ASP761  ALA762  ILE779  LEU786  VAL792 
 PHE793  MET794  SER795  GLU796  ALA797  LYS798  CYS799  TRP800  GLU811  SER814 

> <Gold.Protein.RotatedAtoms>
  150.6944  134.1796  159.4243 H   0  0  0  0  0  0  0  0  0  0  0  0  # atno 6907 bound_to 6896
  151.9771  135.0045  160.0565 H   0  0  0  0  0  0  0  0  0  0  0  0  # atno 6908 bound_to 6896
  152.1789  133.4659  159.4985 H   0  0  0  0  0  0  0  0  0  0  0  0  # atno 6909 bound_to 6896
  145.6073  140.9395  143.1209 H   0  0  0  0  0  0  0  0  0  0  0  0  # atno 7974 bound_to 7965
  154.5789  140.0678  156.9074 H   0  0  0  0  0  0  0  0  0  0  0  0  # atno 8008 bound_to 7997
  155.2499  140.3351  155.4265 H   0  0  0  0  0  0  0  0  0  0  0  0  # atno 8009 bound_to 7997
  156.2174  140.1784  156.7541 H   0  0  0  0  0  0  0  0  0  0  0  0  # atno 8010 bound_to 7997
  140.7178  143.5448  150.9368 H   0  0  0  0  0  0  0  0  0  0  0  0  # atno 10167 bound_to 10162
  156.0024  130.5060  150.5900 H   0  0  0  0  0  0  0  0  0  0  0  0  # atno 10718 bound_to 10713
  154.7788  135.4833  153.9800 H   0  0  0  0  0  0  0  0  0  0  0  0  # atno 10763 bound_to 10752
  153.1465  135.6783  153.8955 H   0  0  0  0  0  0  0  0  0  0  0  0  # atno 10764 bound_to 10752
  153.8613  135.3155  155.3416 H   0  0  0  0  0  0  0  0  0  0  0  0  # atno 10765 bound_to 10752
  140.7208  133.8830  155.8819 H   0  0  0  0  0  0  0  0  0  0  0  0  # atno 11005 bound_to 11000
  144.7285  139.7800  143.7356 LP  0  0  0  0  0  0  0  0  0  0  0  0  # atno 17320 bound_to 7965
  146.1531  139.4621  143.0036 LP  0  0  0  0  0  0  0  0  0  0  0  0  # atno 17321 bound_to 7965
  139.9171  143.6650  152.3104 LP  0  0  0  0  0  0  0  0  0  0  0  0  # atno 17342 bound_to 10162
  139.7054  144.7629  151.1202 LP  0  0  0  0  0  0  0  0  0  0  0  0  # atno 17343 bound_to 10162
  157.3767  131.0774  151.1512 LP  0  0  0  0  0  0  0  0  0  0  0  0  # atno 17370 bound_to 10713
  157.2248  130.6498  149.5825 LP  0  0  0  0  0  0  0  0  0  0  0  0  # atno 17371 bound_to 10713
  141.0005  134.1156  157.4322 LP  0  0  0  0  0  0  0  0  0  0  0  0  # atno 17394 bound_to 11000
  139.8849  135.0067  156.6397 LP  0  0  0  0  0  0  0  0  0  0  0  0  # atno 17395 bound_to 11000

$$$$
