AV-unprocessed.smi:241|AV-procd|sdf|1840|dock10
  -GOLD-   2262020453D 1   1.00000     0.00000
 Structure written by MMmdl.
 54 57  0  0  0  0  0  0  0  0  1 V2000
  152.0074  139.6106  153.8952 C   0  0  0  0  0  0  0  0  0  0  0  0
  151.4350  139.4526  155.1807 O   0  0  0  0  0  0  0  0  0  0  0  0
  150.4140  138.4677  155.2044 C   0  0  0  0  0  0  0  0  0  0  0  0
  149.0529  139.1121  154.8803 C   0  0  2  0  0  0  0  0  0  0  0  0
  148.9343  140.5852  155.2962 C   0  0  0  0  0  0  0  0  0  0  0  0
  147.4583  140.7681  155.6790 C   0  0  1  0  0  0  0  0  0  0  0  0
  146.8687  141.8021  154.9037 O   0  0  0  0  0  0  0  0  0  0  0  0
  145.5603  142.1506  155.3265 C   0  0  0  0  0  0  0  0  0  0  0  0
  146.8217  139.3987  155.4045 C   0  0  0  0  0  0  0  0  0  0  0  0
  147.9152  138.4436  155.4992 N   0  0  0  0  0  0  0  0  0  0  0  0
  147.6654  137.1872  155.0615 C   0  0  0  0  0  0  0  0  0  0  0  0
  148.4841  136.1586  155.4075 N   0  0  0  0  0  0  0  0  0  0  0  0
  148.2152  134.9193  154.9854 C   0  0  0  0  0  0  0  0  0  0  0  0
  147.2000  134.4962  154.2284 N   0  0  0  0  0  0  0  0  0  0  0  0
  146.3754  135.5266  153.8823 C   0  0  0  0  0  0  0  0  0  0  0  0
  146.5342  136.8902  154.2560 C   0  0  0  0  0  0  0  0  0  0  0  0
  145.4988  137.6517  153.7316 N   0  0  0  0  0  0  0  0  0  0  0  0
  144.7625  136.7858  153.0907 C   0  0  0  0  0  0  0  0  0  0  0  0
  145.2245  135.4875  153.1125 N   0  0  0  0  0  0  0  0  0  0  0  0
  144.6096  134.3372  152.5117 C   0  0  0  0  0  0  0  0  0  0  0  0
  145.3931  133.0539  152.2191 C   0  0  0  0  0  0  0  0  0  0  0  0
  144.5122  132.8128  150.9721 C   0  0  0  0  0  0  0  0  0  0  0  0
  145.2624  132.3196  149.7232 C   0  0  0  0  0  0  0  0  0  0  0  0
  146.4767  133.0194  149.5403 O   0  0  0  0  0  0  0  0  0  0  0  0
  143.2768  131.9193  151.2062 C   0  0  0  0  0  0  0  0  0  0  0  0
  142.4995  131.7933  150.0327 O   0  0  0  0  0  0  0  0  0  0  0  0
  144.2451  134.3353  151.0277 C   0  0  0  0  0  0  0  0  0  0  0  0
  148.9078  139.0615  153.7996 H   0  0  0  0  0  0  0  0  0  0  0  0
  147.4015  141.0047  156.7431 H   0  0  0  0  0  0  0  0  0  0  0  0
  152.7783  140.3802  153.9301 H   0  0  0  0  0  0  0  0  0  0  0  0
  151.2579  139.9161  153.1641 H   0  0  0  0  0  0  0  0  0  0  0  0
  152.4730  138.6842  153.5560 H   0  0  0  0  0  0  0  0  0  0  0  0
  150.6366  137.6927  154.4698 H   0  0  0  0  0  0  0  0  0  0  0  0
  150.3809  137.9795  156.1796 H   0  0  0  0  0  0  0  0  0  0  0  0
  149.5631  140.8083  156.1589 H   0  0  0  0  0  0  0  0  0  0  0  0
  149.2444  141.2481  154.4876 H   0  0  0  0  0  0  0  0  0  0  0  0
  145.1820  142.9632  154.7066 H   0  0  0  0  0  0  0  0  0  0  0  0
  145.5579  142.4912  156.3624 H   0  0  0  0  0  0  0  0  0  0  0  0
  144.8709  141.3110  155.2326 H   0  0  0  0  0  0  0  0  0  0  0  0
  146.0304  139.1699  156.1187 H   0  0  0  0  0  0  0  0  0  0  0  0
  146.3876  139.3889  154.4035 H   0  0  0  0  0  0  0  0  0  0  0  0
  148.9122  134.1570  155.3012 H   0  0  0  0  0  0  0  0  0  0  0  0
  143.8554  137.0795  152.5836 H   0  0  0  0  0  0  0  0  0  0  0  0
  143.7329  134.1020  153.1175 H   0  0  0  0  0  0  0  0  0  0  0  0
  146.4386  133.2325  151.9649 H   0  0  0  0  0  0  0  0  0  0  0  0
  145.3084  132.2894  152.9920 H   0  0  0  0  0  0  0  0  0  0  0  0
  145.4745  131.2517  149.7776 H   0  0  0  0  0  0  0  0  0  0  0  0
  144.6584  132.4642  148.8270 H   0  0  0  0  0  0  0  0  0  0  0  0
  147.1912  132.4041  149.6018 H   0  0  0  0  0  0  0  0  0  0  0  0
  143.5630  130.9234  151.5452 H   0  0  0  0  0  0  0  0  0  0  0  0
  142.6356  132.3293  151.9867 H   0  0  0  0  0  0  0  0  0  0  0  0
  141.7105  132.3026  150.1390 H   0  0  0  0  0  0  0  0  0  0  0  0
  143.2173  134.6339  150.8189 H   0  0  0  0  0  0  0  0  0  0  0  0
  144.9476  134.9155  150.4264 H   0  0  0  0  0  0  0  0  0  0  0  0
  1  2  1  0  0  0  0
  1 30  1  0  0  0  0
  1 31  1  0  0  0  0
  1 32  1  0  0  0  0
  2  3  1  0  0  0  0
  3  4  1  0  0  0  0
  3 33  1  0  0  0  0
  3 34  1  0  0  0  0
  4 28  1  0  0  0  0
  4 10  1  0  0  0  0
  4  5  1  0  0  0  0
  5  6  1  0  0  0  0
  5 35  1  0  0  0  0
  5 36  1  0  0  0  0
  6 29  1  0  0  0  0
  6  7  1  0  0  0  0
  6  9  1  0  0  0  0
  7  8  1  0  0  0  0
  8 37  1  0  0  0  0
  8 38  1  0  0  0  0
  8 39  1  0  0  0  0
  9 10  1  0  0  0  0
  9 40  1  0  0  0  0
  9 41  1  0  0  0  0
 10 11  1  0  0  0  0
 11 16  1  0  0  0  0
 11 12  2  0  0  0  0
 12 13  1  0  0  0  0
 13 14  2  0  0  0  0
 13 42  1  0  0  0  0
 14 15  1  0  0  0  0
 15 19  1  0  0  0  0
 15 16  2  0  0  0  0
 16 17  1  0  0  0  0
 17 18  2  0  0  0  0
 18 19  1  0  0  0  0
 18 43  1  0  0  0  0
 19 20  1  0  0  0  0
 20 27  1  0  0  0  0
 20 21  1  0  0  0  0
 20 44  1  0  0  0  0
 21 22  1  0  0  0  0
 21 45  1  0  0  0  0
 21 46  1  0  0  0  0
 22 23  1  0  0  0  0
 22 25  1  0  0  0  0
 22 27  1  0  0  0  0
 23 24  1  0  0  0  0
 23 47  1  0  0  0  0
 23 48  1  0  0  0  0
 24 49  1  0  0  0  0
 25 26  1  0  0  0  0
 25 50  1  0  0  0  0
 25 51  1  0  0  0  0
 26 52  1  0  0  0  0
 27 53  1  0  0  0  0
 27 54  1  0  0  0  0
M  END
> <s_m_source_file>
AV-unprocessed.smi

> <i_m_source_file_index>
241

> <i_lp_mmshare_version>
43012

> <i_f3d_flags>
0

> <s_epik_input>
W0NIM11PW0NIMl1bQ0BASF0xW0NIMl1bQ0BASF0oT1tDSDNdKVtDSDJdTjFjKG5bY0hdbjIpYyhjMjMpbltjSF1uM1tDSF0oW0NIMl00KVtDSDJdQzQoW0NIMl1bT0hdKVtDSDJdW09IXQ==

> <s_epik_cmdline>
J2VwaWtfcHl0aG9uJywgJy1waCcsICc3LjAnLCAnLXRuJywgJzgnLCAnLW1hJywgJzIwMCcsICctbWV0YWxfYmluZGluZycsICctaW1hZScsICc8aW5maWxlLm1hZT4nLCAnLW9tYWUnLCAnPG91dGZpbGUubWFlPic=

> <r_lp_tautomer_probability>
1

> <r_epik_Ionization_Penalty>
0.00568677

> <r_epik_Ionization_Penalty_Charging>
0

> <r_epik_Ionization_Penalty_Neutral>
0.00568677

> <r_epik_State_Penalty>
0.00400877

> <r_epik_Charging_Adjusted_Penalty>
0.00400877

> <i_epik_Tot_Q>
0

> <i_epik_Tot_abs_Q>
0

> <r_epik_Metal_State_Penalty>
-0

> <b_epik_Metal_Only>
0

> <s_lp_Force_Field>
OPLS_2005

> <r_lp_Energy>
60.5945

> <b_lp_Chiralities_Consistent>
1

> <s_lp_Variant>
AV-unprocessed.smi:241-1

> <Gold.Version>
5.8.1

> <Gold.Id.Protein>
6NUR|6NUR_protein|mol2

> <Gold.PLP.Fitness>
46.7076

> <Gold.PLP.PLP>
-38.0137

> <Gold.PLP.part.hbond>
-5.4573

> <Gold.PLP.part.metal>
0.0000

> <Gold.PLP.part.buried>
-5.4883

> <Gold.PLP.part.nonpolar>
-28.8598

> <Gold.PLP.part.repulsive>
0.5908

> <Gold.PLP.ligand.clash>
0.0000

> <Gold.PLP.ligand.torsion>
1.5005

> <Gold.PLP.Chemscore.Hbond>
2.7063

> <Gold.PLP.Chemscore.CHOScore>
1.0000

> <Gold.PLP.Chemscore.Metal>
0.0000

> <Gold.Chemscore.Hbonds>
donor molecule, donor type, donor heavy atom, donor atom, acceptor molecule, acceptor atom, score
      L1  H    26    52       P1 10186  0.26
      P1  H 10785 10796       L1    26  0.57

> <Gold.PLP.Chemscore.Internal.Correction>
0.5762

> <Gold.Rescore>
     Score         DG    S(hbond)    S(metal)    S(lipo)     H(rot)  DE(clash)    DE(int)     intcor
      9.44     -14.10       2.63        0.00      85.47       3.97       0.05       4.61       ----

> <Gold.Chemscore.Fitness>
9.4379

> <Gold.Chemscore.DG>
-14.0982

> <Gold.Chemscore.ZeroCoef>
-5.4800

> <Gold.Chemscore.Hbond>
2.6314

> <Gold.Chemscore.Metal>
0.0000

> <Gold.Chemscore.Lipo>
85.4652

> <Gold.Chemscore.Internal_Hbond>
0.0000

> <Gold.Chemscore.DEClash>
0.0491

> <Gold.Chemscore.DEInternal>
4.6112

> <Gold.Chemscore.Rot>
3.9727

> <Gold.Chemscore.Internal.Correction>
   9.000000E+99

> <Gold.Chemscore.Hbonds>
donor molecule, donor type, donor heavy atom, donor atom, acceptor molecule, acceptor atom, score
      L1  H    24    49       P1 10747  0.06
      L1  H    26    52       P1 10186  0.26
      P1  H 10785 10796       L1    26  0.46

> <Gold.Chemscore.Hbond.Weighted>
-8.7890

> <Gold.Chemscore.Metal.Weighted>
-0.0000

> <Gold.Chemscore.Lipo.Weighted>
-9.9994

> <Gold.Chemscore.Internal_Hbond.Weighted>
0.0000

> <Gold.Chemscore.DEClash.Weighted>
0.0491

> <Gold.Chemscore.DEInternal.Weighted>
4.6112

> <Gold.Chemscore.Rot.Weighted>
10.1702

> <Gold.Chemscore.Internal.Correction.Weighted>
   9.000000E+99

> <Gold.Protein.RotatedTorsions>
[ 6907 6896 6895 6894 ] final  153.28 input  -60.11 | X-H torsion
[ 7974 7965 7964 7962 ] final   17.21 input  175.53 | X-H torsion
[ 8008 7997 7996 7995 ] final  168.72 input   59.86 | X-H torsion
[ 10167 10162 10161 10158 ] final  148.27 input  -65.29 | X-H torsion
[ 10718 10713 10712 10709 ] final  106.48 input   66.30 | X-H torsion
[ 10763 10752 10751 10750 ] final  122.09 input  -60.55 | X-H torsion
[ 11005 11000 10999 10996 ] final -101.50 input  -57.11 | X-H torsion

> <Gold.Protein.ActiveResidues>
 VAL166  LYS551  ARG553  GLY616  TRP617  ASP618  TYR619  PRO620  LYS621  CYS622 
 ASP623  PHE694  ASN695  SER759  ASP760  ASP761  ALA762  ILE779  LEU786  VAL792 
 PHE793  MET794  SER795  GLU796  ALA797  LYS798  CYS799  TRP800  GLU811  SER814 

> <Gold.Protein.RotatedAtoms>
  152.0748  133.4124  159.4475 H   0  0  0  0  0  0  0  0  0  0  0  0  # atno 6907 bound_to 6896
  150.6863  134.3049  159.4731 H   0  0  0  0  0  0  0  0  0  0  0  0  # atno 6908 bound_to 6896
  152.0885  134.9423  160.0623 H   0  0  0  0  0  0  0  0  0  0  0  0  # atno 6909 bound_to 6896
  146.2225  139.8635  142.8600 H   0  0  0  0  0  0  0  0  0  0  0  0  # atno 7974 bound_to 7965
  156.1522  140.1583  156.8751 H   0  0  0  0  0  0  0  0  0  0  0  0  # atno 8008 bound_to 7997
  154.5081  140.0808  156.7972 H   0  0  0  0  0  0  0  0  0  0  0  0  # atno 8009 bound_to 7997
  155.3874  140.3408  155.4252 H   0  0  0  0  0  0  0  0  0  0  0  0  # atno 8010 bound_to 7997
  139.4877  144.5692  151.7086 H   0  0  0  0  0  0  0  0  0  0  0  0  # atno 10167 bound_to 10162
  157.6666  131.0851  150.6012 H   0  0  0  0  0  0  0  0  0  0  0  0  # atno 10718 bound_to 10713
  153.6242  135.3407  155.3021 H   0  0  0  0  0  0  0  0  0  0  0  0  # atno 10763 bound_to 10752
  154.8593  135.4280  154.2174 H   0  0  0  0  0  0  0  0  0  0  0  0  # atno 10764 bound_to 10752
  153.3055  135.7028  153.7237 H   0  0  0  0  0  0  0  0  0  0  0  0  # atno 10765 bound_to 10752
  141.1228  133.8483  157.1239 H   0  0  0  0  0  0  0  0  0  0  0  0  # atno 11005 bound_to 11000
  145.2680  141.0099  143.3788 LP  0  0  0  0  0  0  0  0  0  0  0  0  # atno 17320 bound_to 7965
  144.9245  139.4371  143.6525 LP  0  0  0  0  0  0  0  0  0  0  0  0  # atno 17321 bound_to 7965
  140.5276  144.0781  150.6043 LP  0  0  0  0  0  0  0  0  0  0  0  0  # atno 17342 bound_to 10162
  140.3760  143.2828  152.0225 LP  0  0  0  0  0  0  0  0  0  0  0  0  # atno 17343 bound_to 10162
  156.6313  130.4433  149.5785 LP  0  0  0  0  0  0  0  0  0  0  0  0  # atno 17370 bound_to 10713
  156.2280  130.6777  151.1435 LP  0  0  0  0  0  0  0  0  0  0  0  0  # atno 17371 bound_to 10713
  140.0200  134.9950  157.0572 LP  0  0  0  0  0  0  0  0  0  0  0  0  # atno 17394 bound_to 11000
  140.4455  134.1636  155.7177 LP  0  0  0  0  0  0  0  0  0  0  0  0  # atno 17395 bound_to 11000

$$$$
