AV-unprocessed.smi:763|AV-procd|sdf|3636|dock5
  -GOLD-   22720 1 33D 1   1.00000     0.00000
 Structure written by MMmdl.
 44 45  0  0  0  0  0  0  0  0  1 V2000
  144.3906  133.6931  150.0113 C   0  0  0  0  0  0  0  0  0  0  0  0
  145.3758  132.9454  150.7022 O   0  0  0  0  0  0  0  0  0  0  0  0
  146.2364  133.7658  151.4743 C   0  0  0  0  0  0  0  0  0  0  0  0
  147.0872  132.8749  152.3932 C   0  0  0  0  0  0  0  0  0  0  0  0
  147.9783  133.6482  153.1976 O   0  0  0  0  0  0  0  0  0  0  0  0
  148.8391  133.0190  154.0786 C   0  0  0  0  0  0  0  0  0  0  0  0
  148.8729  131.6627  154.1014 N   0  0  0  0  0  0  0  0  0  0  0  0
  149.7188  131.0541  154.9576 C   0  0  0  0  0  0  0  0  0  0  0  0
  150.5741  131.7574  155.8255 C   0  0  0  0  0  0  0  0  0  0  0  0
  150.5427  133.1637  155.8003 C   0  0  0  0  0  0  0  0  0  0  0  0
  149.6590  133.8152  154.9113 C   0  0  0  0  0  0  0  0  0  0  0  0
  149.5756  135.2106  154.8293 N   0  0  0  0  0  0  0  0  0  0  0  0
  150.4462  136.4244  155.7142 S   0  0  0  0  0  0  0  0  0  0  0  0
  149.4536  136.9959  156.6362 O   0  0  0  0  0  0  0  0  0  0  0  0
  151.6479  135.7561  156.2379 O   0  0  0  0  0  0  0  0  0  0  0  0
  150.9078  137.6477  154.3753 C   0  0  2  0  0  0  0  0  0  0  0  0
  152.2211  138.3773  154.7262 C   0  0  0  0  0  0  0  0  0  0  0  0
  152.0316  139.3849  155.8741 C   0  0  0  0  0  0  0  0  0  0  0  0
  150.9411  140.4134  155.5327 C   0  0  0  0  0  0  0  0  0  0  0  0
  149.6112  139.7290  155.1769 C   0  0  0  0  0  0  0  0  0  0  0  0
  149.8047  138.6877  154.0558 C   0  0  2  0  0  0  0  0  0  0  0  0
  148.5788  138.0598  153.7398 O   0  0  0  0  0  0  0  0  0  0  0  0
  143.7594  133.0197  149.4316 H   0  0  0  0  0  0  0  0  0  0  0  0
  144.8466  134.4041  149.3213 H   0  0  0  0  0  0  0  0  0  0  0  0
  143.7510  134.2394  150.7057 H   0  0  0  0  0  0  0  0  0  0  0  0
  146.8602  134.3855  150.8295 H   0  0  0  0  0  0  0  0  0  0  0  0
  145.6339  134.4395  152.0855 H   0  0  0  0  0  0  0  0  0  0  0  0
  146.4561  132.2327  153.0092 H   0  0  0  0  0  0  0  0  0  0  0  0
  147.6846  132.1958  151.7847 H   0  0  0  0  0  0  0  0  0  0  0  0
  149.7156  129.9741  154.9484 H   0  0  0  0  0  0  0  0  0  0  0  0
  151.2385  131.2312  156.4946 H   0  0  0  0  0  0  0  0  0  0  0  0
  151.1952  133.7184  156.4564 H   0  0  0  0  0  0  0  0  0  0  0  0
  148.9386  135.5568  154.1259 H   0  0  0  0  0  0  0  0  0  0  0  0
  151.0938  137.0599  153.4768 H   0  0  0  0  0  0  0  0  0  0  0  0
  153.0029  137.6612  154.9793 H   0  0  0  0  0  0  0  0  0  0  0  0
  152.5811  138.9090  153.8444 H   0  0  0  0  0  0  0  0  0  0  0  0
  151.7684  138.8613  156.7938 H   0  0  0  0  0  0  0  0  0  0  0  0
  152.9726  139.8984  156.0729 H   0  0  0  0  0  0  0  0  0  0  0  0
  150.7955  141.0947  156.3714 H   0  0  0  0  0  0  0  0  0  0  0  0
  151.2707  141.0256  154.6923 H   0  0  0  0  0  0  0  0  0  0  0  0
  149.1918  139.2710  156.0712 H   0  0  0  0  0  0  0  0  0  0  0  0
  148.8886  140.4823  154.8606 H   0  0  0  0  0  0  0  0  0  0  0  0
  150.1076  139.2261  153.1567 H   0  0  0  0  0  0  0  0  0  0  0  0
  148.6713  137.6149  152.9113 H   0  0  0  0  0  0  0  0  0  0  0  0
  1  2  1  0  0  0  0
  1 23  1  0  0  0  0
  1 24  1  0  0  0  0
  1 25  1  0  0  0  0
  2  3  1  0  0  0  0
  3  4  1  0  0  0  0
  3 26  1  0  0  0  0
  3 27  1  0  0  0  0
  4  5  1  0  0  0  0
  4 28  1  0  0  0  0
  4 29  1  0  0  0  0
  5  6  1  0  0  0  0
  6 11  1  0  0  0  0
  6  7  2  0  0  0  0
  7  8  1  0  0  0  0
  8  9  2  0  0  0  0
  8 30  1  0  0  0  0
  9 10  1  0  0  0  0
  9 31  1  0  0  0  0
 10 11  2  0  0  0  0
 10 32  1  0  0  0  0
 11 12  1  0  0  0  0
 12 13  1  0  0  0  0
 12 33  1  0  0  0  0
 13 14  2  0  0  0  0
 13 15  2  0  0  0  0
 13 16  1  0  0  0  0
 16 21  1  0  0  0  0
 16 17  1  0  0  0  0
 16 34  1  0  0  0  0
 17 18  1  0  0  0  0
 17 35  1  0  0  0  0
 17 36  1  0  0  0  0
 18 19  1  0  0  0  0
 18 37  1  0  0  0  0
 18 38  1  0  0  0  0
 19 20  1  0  0  0  0
 19 39  1  0  0  0  0
 19 40  1  0  0  0  0
 20 21  1  0  0  0  0
 20 41  1  0  0  0  0
 20 42  1  0  0  0  0
 21 22  1  0  0  0  0
 21 43  1  0  0  0  0
 22 44  1  0  0  0  0
M  END
> <s_m_source_file>
AV-unprocessed.smi

> <i_m_source_file_index>
763

> <i_lp_mmshare_version>
43012

> <i_f3d_flags>
0

> <s_epik_input>
W0NIM11PW0NIMl1bQ0gyXU9jMW5bY0hdW2NIXVtjSF1jMVtOSF1TKD1PKSg9TylbQ0BASF0yW0NIMl1bQ0gyXVtDSDJdW0NIMl1bQ0BIXTJbT0hd

> <s_epik_cmdline>
J2VwaWtfcHl0aG9uJywgJy1waCcsICc3LjAnLCAnLXRuJywgJzgnLCAnLW1hJywgJzIwMCcsICctbWV0YWxfYmluZGluZycsICctaW1hZScsICc8aW5maWxlLm1hZT4nLCAnLW9tYWUnLCAnPG91dGZpbGUubWFlPic=

> <r_epik_Ionization_Penalty>
0.124685

> <r_epik_Ionization_Penalty_Charging>
0

> <r_epik_Ionization_Penalty_Neutral>
0.124685

> <r_epik_State_Penalty>
0.114154

> <r_epik_Charging_Adjusted_Penalty>
0.114154

> <i_epik_Tot_Q>
0

> <i_epik_Tot_abs_Q>
0

> <r_epik_Metal_State_Penalty>
0.443785

> <b_epik_Metal_Only>
0

> <s_lp_Force_Field>
OPLS_2005

> <r_lp_Energy>
4.78457

> <b_lp_Chiralities_Consistent>
1

> <s_lp_Variant>
AV-unprocessed.smi:763-3

> <Gold.Version>
5.8.1

> <Gold.Id.Protein>
6NUR|6NUR_protein|mol2

> <Gold.PLP.Fitness>
44.7083

> <Gold.PLP.PLP>
-39.7025

> <Gold.PLP.part.hbond>
-2.7035

> <Gold.PLP.part.metal>
0.0000

> <Gold.PLP.part.buried>
-4.7307

> <Gold.PLP.part.nonpolar>
-33.3289

> <Gold.PLP.part.repulsive>
1.7055

> <Gold.PLP.ligand.clash>
0.0000

> <Gold.PLP.ligand.torsion>
1.5755

> <Gold.PLP.Chemscore.Hbond>
2.2746

> <Gold.PLP.Chemscore.CHOScore>
0.0000

> <Gold.PLP.Chemscore.Metal>
0.0000

> <Gold.Chemscore.Hbonds>
donor molecule, donor type, donor heavy atom, donor atom, acceptor molecule, acceptor atom, score
      L1  H    12    33       P1  7948  0.17
      L1  H    22    44       P1  7948  1.00
      P1  H 10752 10765       L1    15  1.00

> <Gold.PLP.Chemscore.Internal.Correction>
1.3331

> <Gold.Rescore>
     Score         DG    S(hbond)    S(metal)    S(lipo)     H(rot)  DE(clash)    DE(int)     intcor
     13.14     -16.19       2.02        0.00      86.61       2.41       0.10       2.95       ----

> <Gold.Chemscore.Fitness>
13.1377

> <Gold.Chemscore.DG>
-16.1882

> <Gold.Chemscore.ZeroCoef>
-5.4800

> <Gold.Chemscore.Hbond>
2.0158

> <Gold.Chemscore.Metal>
0.0000

> <Gold.Chemscore.Lipo>
86.6061

> <Gold.Chemscore.Internal_Hbond>
0.0000

> <Gold.Chemscore.DEClash>
0.0958

> <Gold.Chemscore.DEInternal>
2.9547

> <Gold.Chemscore.Rot>
2.4052

> <Gold.Chemscore.Internal.Correction>
   9.000000E+99

> <Gold.Chemscore.Hbonds>
donor molecule, donor type, donor heavy atom, donor atom, acceptor molecule, acceptor atom, score
      L1  H    12    33       P1  7948  0.16
      L1  H    22    44       P1  7948  0.99
      P1  H 10752 10765       L1    15  0.97

> <Gold.Chemscore.Hbond.Weighted>
-6.7327

> <Gold.Chemscore.Metal.Weighted>
-0.0000

> <Gold.Chemscore.Lipo.Weighted>
-10.1329

> <Gold.Chemscore.Internal_Hbond.Weighted>
0.0000

> <Gold.Chemscore.DEClash.Weighted>
0.0958

> <Gold.Chemscore.DEInternal.Weighted>
2.9547

> <Gold.Chemscore.Rot.Weighted>
6.1574

> <Gold.Chemscore.Internal.Correction.Weighted>
   9.000000E+99

> <Gold.Protein.RotatedTorsions>
[ 6907 6896 6895 6894 ] final -177.64 input  -60.11 | X-H torsion
[ 7974 7965 7964 7962 ] final   51.51 input  175.53 | X-H torsion
[ 8008 7997 7996 7995 ] final -100.45 input   59.86 | X-H torsion
[ 10167 10162 10161 10158 ] final  -52.66 input  -65.29 | X-H torsion
[ 10718 10713 10712 10709 ] final   78.63 input   66.30 | X-H torsion
[ 10763 10752 10751 10750 ] final -138.79 input  -60.55 | X-H torsion
[ 11005 11000 10999 10996 ] final  -26.70 input  -57.11 | X-H torsion

> <Gold.Protein.ActiveResidues>
 VAL166  LYS551  ARG553  GLY616  TRP617  ASP618  TYR619  PRO620  LYS621  CYS622 
 ASP623  PHE694  ASN695  SER759  ASP760  ASP761  ALA762  ILE779  LEU786  VAL792 
 PHE793  MET794  SER795  GLU796  ALA797  LYS798  CYS799  TRP800  GLU811  SER814 

> <Gold.Protein.RotatedAtoms>
  151.6243  133.3336  159.3094 H   0  0  0  0  0  0  0  0  0  0  0  0  # atno 6907 bound_to 6896
  150.8089  134.7236  159.6682 H   0  0  0  0  0  0  0  0  0  0  0  0  # atno 6908 bound_to 6896
  152.4186  134.6002  160.0049 H   0  0  0  0  0  0  0  0  0  0  0  0  # atno 6909 bound_to 6896
  145.9906  139.4335  143.0076 H   0  0  0  0  0  0  0  0  0  0  0  0  # atno 7974 bound_to 7965
  154.8287  140.0441  157.1462 H   0  0  0  0  0  0  0  0  0  0  0  0  # atno 8008 bound_to 7997
  154.9177  140.3022  155.5213 H   0  0  0  0  0  0  0  0  0  0  0  0  # atno 8009 bound_to 7997
  156.2985  140.2346  156.4223 H   0  0  0  0  0  0  0  0  0  0  0  0  # atno 8010 bound_to 7997
  140.6526  143.2576  151.4680 H   0  0  0  0  0  0  0  0  0  0  0  0  # atno 10167 bound_to 10162
  157.6751  130.9877  150.1814 H   0  0  0  0  0  0  0  0  0  0  0  0  # atno 10718 bound_to 10713
  154.8627  135.3602  154.5441 H   0  0  0  0  0  0  0  0  0  0  0  0  # atno 10763 bound_to 10752
  153.6062  135.7011  153.5369 H   0  0  0  0  0  0  0  0  0  0  0  0  # atno 10764 bound_to 10752
  153.3248  135.4141  155.1408 H   0  0  0  0  0  0  0  0  0  0  0  0  # atno 10765 bound_to 10752
  140.9053  133.7497  156.0597 H   0  0  0  0  0  0  0  0  0  0  0  0  # atno 11005 bound_to 11000
  145.7636  140.9925  143.1187 LP  0  0  0  0  0  0  0  0  0  0  0  0  # atno 17320 bound_to 7965
  144.6888  139.9360  143.7473 LP  0  0  0  0  0  0  0  0  0  0  0  0  # atno 17321 bound_to 7965
  139.5743  144.1855  152.1881 LP  0  0  0  0  0  0  0  0  0  0  0  0  # atno 17342 bound_to 10162
  140.1161  144.5414  150.6893 LP  0  0  0  0  0  0  0  0  0  0  0  0  # atno 17343 bound_to 10162
  156.2545  130.3704  149.8196 LP  0  0  0  0  0  0  0  0  0  0  0  0  # atno 17370 bound_to 10713
  156.5959  130.8526  151.3420 LP  0  0  0  0  0  0  0  0  0  0  0  0  # atno 17371 bound_to 10713
  140.8179  134.3323  157.5391 LP  0  0  0  0  0  0  0  0  0  0  0  0  # atno 17394 bound_to 11000
  139.8748  134.9292  156.3470 LP  0  0  0  0  0  0  0  0  0  0  0  0  # atno 17395 bound_to 11000

$$$$
