AV-unprocessed.smi:3126|AV-procd|sdf|11911|dock4
  -GOLD-   2272017293D 1   1.00000     0.00000
 Structure written by MMmdl.
 42 43  0  0  0  0  0  0  0  0  2 V2000
  154.0882  141.3825  160.4633 C   0  0  0  0  0  0  0  0  0  0  0  0
  152.8358  141.9854  161.1150 C   0  0  0  0  0  0  0  0  0  0  0  0
  152.0429  142.9372  160.1960 C   0  0  1  0  0  0  0  0  0  0  0  0
  152.8968  144.1614  159.8101 C   0  0  0  0  0  0  0  0  0  0  0  0
  152.1237  145.1290  158.9020 C   0  0  0  0  0  0  0  0  0  0  0  0
  151.6124  144.4156  157.6426 C   0  0  0  0  0  0  0  0  0  0  0  0
  150.7427  143.1977  158.0023 C   0  0  1  0  0  0  0  0  0  0  0  0
  150.2912  142.5256  156.7631 N   0  3  0  0  0  0  0  0  0  0  0  0
  149.4972  141.2954  156.9636 C   0  0  0  0  0  0  0  0  0  0  0  0
  149.3464  140.5195  155.6490 C   0  0  0  0  0  0  0  0  0  0  0  0
  150.6006  139.7422  155.3016 C   0  0  0  0  0  0  0  0  0  0  0  0
  150.5557  138.6606  154.3977 C   0  0  0  0  0  0  0  0  0  0  0  0
  151.7491  137.9744  154.1011 C   0  0  0  0  0  0  0  0  0  0  0  0
  152.9399  138.3999  154.7230 C   0  0  0  0  0  0  0  0  0  0  0  0
  152.9945  139.4346  155.5894 N   0  0  0  0  0  0  0  0  0  0  0  0
  151.8460  140.0866  155.8691 C   0  0  0  0  0  0  0  0  0  0  0  0
  151.5220  142.2328  158.9234 C   0  0  0  0  0  0  0  0  0  0  0  0
  154.5644  140.6686  161.1356 H   0  0  0  0  0  0  0  0  0  0  0  0
  154.8283  142.1449  160.2227 H   0  0  0  0  0  0  0  0  0  0  0  0
  153.8375  140.8526  159.5440 H   0  0  0  0  0  0  0  0  0  0  0  0
  152.1881  141.1619  161.4182 H   0  0  0  0  0  0  0  0  0  0  0  0
  153.1140  142.5015  162.0346 H   0  0  0  0  0  0  0  0  0  0  0  0
  151.1819  143.3021  160.7583 H   0  0  0  0  0  0  0  0  0  0  0  0
  153.2197  144.6898  160.7080 H   0  0  0  0  0  0  0  0  0  0  0  0
  153.8053  143.8332  159.3030 H   0  0  0  0  0  0  0  0  0  0  0  0
  151.2826  145.5552  159.4506 H   0  0  0  0  0  0  0  0  0  0  0  0
  152.7643  145.9654  158.6208 H   0  0  0  0  0  0  0  0  0  0  0  0
  151.0413  145.1171  157.0332 H   0  0  0  0  0  0  0  0  0  0  0  0
  152.4625  144.0998  157.0358 H   0  0  0  0  0  0  0  0  0  0  0  0
  149.8606  143.5604  158.5325 H   0  0  0  0  0  0  0  0  0  0  0  0
  149.7081  143.1785  156.2591 H   0  0  0  0  0  0  0  0  0  0  0  0
  149.9785  140.6610  157.7081 H   0  0  0  0  0  0  0  0  0  0  0  0
  148.5130  141.5609  157.3519 H   0  0  0  0  0  0  0  0  0  0  0  0
  148.5068  139.8259  155.7165 H   0  0  0  0  0  0  0  0  0  0  0  0
  149.1160  141.2045  154.8318 H   0  0  0  0  0  0  0  0  0  0  0  0
  149.6254  138.3620  153.9369 H   0  0  0  0  0  0  0  0  0  0  0  0
  151.7527  137.1420  153.4129 H   0  0  0  0  0  0  0  0  0  0  0  0
  153.8736  137.8976  154.5172 H   0  0  0  0  0  0  0  0  0  0  0  0
  151.9242  140.9105  156.5632 H   0  0  0  0  0  0  0  0  0  0  0  0
  152.3606  141.7998  158.3757 H   0  0  0  0  0  0  0  0  0  0  0  0
  150.8793  141.4018  159.2098 H   0  0  0  0  0  0  0  0  0  0  0  0
  151.0980  142.3129  156.1940 H   0  0  0  0  0  0  0  0  0  0  0  0
  1  2  1  0  0  0  0
  1 18  1  0  0  0  0
  1 19  1  0  0  0  0
  1 20  1  0  0  0  0
  2  3  1  0  0  0  0
  2 21  1  0  0  0  0
  2 22  1  0  0  0  0
  3 17  1  0  0  0  0
  3  4  1  0  0  0  0
  3 23  1  0  0  0  0
  4  5  1  0  0  0  0
  4 24  1  0  0  0  0
  4 25  1  0  0  0  0
  5  6  1  0  0  0  0
  5 26  1  0  0  0  0
  5 27  1  0  0  0  0
  6  7  1  0  0  0  0
  6 28  1  0  0  0  0
  6 29  1  0  0  0  0
  7  8  1  0  0  0  0
  7 17  1  0  0  0  0
  7 30  1  0  0  0  0
  8  9  1  0  0  0  0
  8 31  1  0  0  0  0
  8 42  1  0  0  0  0
  9 10  1  0  0  0  0
  9 32  1  0  0  0  0
  9 33  1  0  0  0  0
 10 11  1  0  0  0  0
 10 34  1  0  0  0  0
 10 35  1  0  0  0  0
 11 16  1  0  0  0  0
 11 12  2  0  0  0  0
 12 13  1  0  0  0  0
 12 36  1  0  0  0  0
 13 14  2  0  0  0  0
 13 37  1  0  0  0  0
 14 15  1  0  0  0  0
 14 38  1  0  0  0  0
 15 16  2  0  0  0  0
 16 39  1  0  0  0  0
 17 40  1  0  0  0  0
 17 41  1  0  0  0  0
M  CHG  1   8   1
M  END
> <s_m_source_file>
AV-unprocessed.smi

> <i_m_source_file_index>
3126

> <i_lp_mmshare_version>
43012

> <i_f3d_flags>
0

> <s_epik_input>
W0NIM11bQ0gyXVtDQEBIXTFbQ0gyXVtDSDJdW0NIMl1bQ0BIXShbQ0gyXTEpW05IXVtDSDJdW0NIMl1jMltjSF1bY0hdW2NIXW5bY0hdMg==

> <s_epik_cmdline>
J2VwaWtfcHl0aG9uJywgJy1waCcsICc3LjAnLCAnLXRuJywgJzgnLCAnLW1hJywgJzIwMCcsICctbWV0YWxfYmluZGluZycsICctaW1hZScsICc8aW5maWxlLm1hZT4nLCAnLW9tYWUnLCAnPG91dGZpbGUubWFlPic=

> <r_lp_tautomer_probability>
1

> <r_epik_Ionization_Penalty>
0.000947364

> <r_epik_Ionization_Penalty_Charging>
0.000286103

> <r_epik_Ionization_Penalty_Neutral>
0.000661261

> <r_epik_State_Penalty>
-0

> <r_epik_Charging_Adjusted_Penalty>
0.000286103

> <i_epik_Tot_Q>
1

> <i_epik_Tot_abs_Q>
1

> <r_epik_Metal_State_Penalty>
-0

> <b_epik_Metal_Only>
0

> <s_lp_Force_Field>
OPLS_2005

> <r_lp_Energy>
13.7456

> <b_lp_Chiralities_Consistent>
1

> <s_lp_Variant>
AV-unprocessed.smi:3126-2

> <Gold.Version>
5.8.1

> <Gold.Id.Protein>
6NUR|6NUR_protein|mol2

> <Gold.PLP.Fitness>
53.0259

> <Gold.PLP.PLP>
-44.8340

> <Gold.PLP.part.hbond>
-2.0000

> <Gold.PLP.part.metal>
0.0000

> <Gold.PLP.part.buried>
-6.3752

> <Gold.PLP.part.nonpolar>
-37.8147

> <Gold.PLP.part.repulsive>
0.0419

> <Gold.PLP.ligand.clash>
0.0000

> <Gold.PLP.ligand.torsion>
0.4089

> <Gold.PLP.Chemscore.Hbond>
3.0000

> <Gold.PLP.Chemscore.CHOScore>
0.0000

> <Gold.PLP.Chemscore.Metal>
0.0000

> <Gold.Chemscore.Hbonds>
donor molecule, donor type, donor heavy atom, donor atom, acceptor molecule, acceptor atom, score
      L1  H     8    31       P1  8028  2.00
      P1  H  7997  8008       L1    15  1.00

> <Gold.PLP.Chemscore.Internal.Correction>
0.0097

> <Gold.Rescore>
     Score         DG    S(hbond)    S(metal)    S(lipo)     H(rot)  DE(clash)    DE(int)     intcor
     23.85     -24.23       1.81        0.00     138.06       1.35       0.02       0.36       ----

> <Gold.Chemscore.Fitness>
23.8515

> <Gold.Chemscore.DG>
-24.2349

> <Gold.Chemscore.ZeroCoef>
-5.4800

> <Gold.Chemscore.Hbond>
1.8143

> <Gold.Chemscore.Metal>
0.0000

> <Gold.Chemscore.Lipo>
138.0595

> <Gold.Chemscore.Internal_Hbond>
0.0000

> <Gold.Chemscore.DEClash>
0.0199

> <Gold.Chemscore.DEInternal>
0.3634

> <Gold.Chemscore.Rot>
1.3507

> <Gold.Chemscore.Internal.Correction>
   9.000000E+99

> <Gold.Chemscore.Hbonds>
donor molecule, donor type, donor heavy atom, donor atom, acceptor molecule, acceptor atom, score
      L1  H     8    31       P1  8028  1.00
      P1  H  7997  8008       L1    15  0.92

> <Gold.Chemscore.Hbond.Weighted>
-6.0598

> <Gold.Chemscore.Metal.Weighted>
-0.0000

> <Gold.Chemscore.Lipo.Weighted>
-16.1530

> <Gold.Chemscore.Internal_Hbond.Weighted>
0.0000

> <Gold.Chemscore.DEClash.Weighted>
0.0199

> <Gold.Chemscore.DEInternal.Weighted>
0.3634

> <Gold.Chemscore.Rot.Weighted>
3.4579

> <Gold.Chemscore.Internal.Correction.Weighted>
   9.000000E+99

> <Gold.Protein.RotatedTorsions>
[ 6907 6896 6895 6894 ] final   18.46 input  -60.11 | X-H torsion
[ 7974 7965 7964 7962 ] final  -63.50 input  175.53 | X-H torsion
[ 8008 7997 7996 7995 ] final  -28.06 input   59.86 | X-H torsion
[ 10167 10162 10161 10158 ] final   26.94 input  -65.29 | X-H torsion
[ 10718 10713 10712 10709 ] final   48.52 input   66.30 | X-H torsion
[ 10763 10752 10751 10750 ] final -160.15 input  -60.55 | X-H torsion
[ 11005 11000 10999 10996 ] final  112.01 input  -57.11 | X-H torsion

> <Gold.Protein.ActiveResidues>
 VAL166  LYS551  ARG553  GLY616  TRP617  ASP618  TYR619  PRO620  LYS621  CYS622 
 ASP623  PHE694  ASN695  SER759  ASP760  ASP761  ALA762  ILE779  LEU786  VAL792 
 PHE793  MET794  SER795  GLU796  ALA797  LYS798  CYS799  TRP800  GLU811  SER814 

> <Gold.Protein.RotatedAtoms>
  151.8657  135.0508  160.0473 H   0  0  0  0  0  0  0  0  0  0  0  0  # atno 6907 bound_to 6896
  152.2628  133.5308  159.5400 H   0  0  0  0  0  0  0  0  0  0  0  0  # atno 6908 bound_to 6896
  150.7123  134.0722  159.3911 H   0  0  0  0  0  0  0  0  0  0  0  0  # atno 6909 bound_to 6896
  145.7783  140.8776  143.0344 H   0  0  0  0  0  0  0  0  0  0  0  0  # atno 7974 bound_to 7965
  154.4349  140.1855  156.1030 H   0  0  0  0  0  0  0  0  0  0  0  0  # atno 8008 bound_to 7997
  156.0277  140.3334  155.7080 H   0  0  0  0  0  0  0  0  0  0  0  0  # atno 8009 bound_to 7997
  155.5885  140.0628  157.2755 H   0  0  0  0  0  0  0  0  0  0  0  0  # atno 8010 bound_to 7997
  140.4980  144.0361  150.6322 H   0  0  0  0  0  0  0  0  0  0  0  0  # atno 10167 bound_to 10162
  157.4695  130.8246  149.7972 H   0  0  0  0  0  0  0  0  0  0  0  0  # atno 10718 bound_to 10713
  154.7415  135.3070  154.8720 H   0  0  0  0  0  0  0  0  0  0  0  0  # atno 10763 bound_to 10752
  153.9533  135.6761  153.4748 H   0  0  0  0  0  0  0  0  0  0  0  0  # atno 10764 bound_to 10752
  153.1013  135.4910  154.8797 H   0  0  0  0  0  0  0  0  0  0  0  0  # atno 10765 bound_to 10752
  139.8917  134.9520  156.6520 H   0  0  0  0  0  0  0  0  0  0  0  0  # atno 11005 bound_to 11000
  144.6800  139.9953  143.7484 LP  0  0  0  0  0  0  0  0  0  0  0  0  # atno 17320 bound_to 7965
  146.0100  139.3161  143.0876 LP  0  0  0  0  0  0  0  0  0  0  0  0  # atno 17321 bound_to 7965
  140.3649  143.2887  152.0343 LP  0  0  0  0  0  0  0  0  0  0  0  0  # atno 17342 bound_to 10162
  139.4865  144.6275  151.7136 LP  0  0  0  0  0  0  0  0  0  0  0  0  # atno 17343 bound_to 10162
  156.0066  130.3852  150.2409 LP  0  0  0  0  0  0  0  0  0  0  0  0  # atno 17370 bound_to 10713
  157.0590  131.0084  151.3229 LP  0  0  0  0  0  0  0  0  0  0  0  0  # atno 17371 bound_to 10713
  140.7513  133.8895  155.8349 LP  0  0  0  0  0  0  0  0  0  0  0  0  # atno 17394 bound_to 11000
  140.9998  134.1166  157.4328 LP  0  0  0  0  0  0  0  0  0  0  0  0  # atno 17395 bound_to 11000

$$$$
