AV-unprocessed.smi:1382|AV-procd|sdf|5621|dock7
  -GOLD-   22720 5233D 1   1.00000     0.00000
 Structure written by MMmdl.
 44 45  0  0  0  0  0  0  0  0  1 V2000
  152.4415  144.4880  158.4506 C   0  0  0  0  0  0  0  0  0  0  0  0
  151.4201  143.6980  157.6257 C   0  0  0  0  0  0  0  0  0  0  0  0
  151.6591  142.1808  157.6892 C   0  0  0  0  0  0  0  0  0  0  0  0
  150.6290  141.3466  156.8998 C   0  0  0  0  0  0  0  0  0  0  0  0
  150.5325  139.9620  157.3268 N   0  0  0  0  0  0  0  0  0  0  0  0
  149.3744  139.3804  157.8548 C   0  0  0  0  0  0  0  0  0  0  0  0
  148.2444  140.1740  157.9886 N   0  0  0  0  0  0  0  0  0  0  0  0
  149.3365  138.0647  158.2242 C   0  0  0  0  0  0  0  0  0  0  0  0
  148.1837  137.4920  158.7917 N   0  0  0  0  0  0  0  0  0  0  0  0
  146.9797  137.4489  157.9571 C   0  0  0  0  0  0  0  0  0  0  0  0
  148.1675  136.9410  160.0332 C   0  0  0  0  0  0  0  0  0  0  0  0
  149.1891  136.8690  160.7190 O   0  0  0  0  0  0  0  0  0  0  0  0
  146.8304  136.4162  160.6193 C   0  0  1  0  0  0  0  0  0  0  0  0
  146.9359  135.0944  161.3905 C   0  0  0  0  0  0  0  0  0  0  0  0
  147.3888  135.5112  162.7829 C   0  0  0  0  0  0  0  0  0  0  0  0
  147.0334  136.9992  162.8605 C   0  0  0  0  0  0  0  0  0  0  0  0
  146.3584  137.2907  161.6402 O   0  0  0  0  0  0  0  0  0  0  0  0
  150.5377  137.2250  158.1235 C   0  0  0  0  0  0  0  0  0  0  0  0
  150.6191  136.0444  158.4607 O   0  0  0  0  0  0  0  0  0  0  0  0
  151.6586  137.8661  157.6038 N   0  0  0  0  0  0  0  0  0  0  0  0
  151.7154  139.1947  157.1990 C   0  0  0  0  0  0  0  0  0  0  0  0
  152.7733  139.6459  156.7586 O   0  0  0  0  0  0  0  0  0  0  0  0
  152.5042  137.3213  157.5184 H   0  0  0  0  0  0  0  0  0  0  0  0
  152.2461  145.5586  158.3886 H   0  0  0  0  0  0  0  0  0  0  0  0
  153.4564  144.3136  158.0925 H   0  0  0  0  0  0  0  0  0  0  0  0
  152.4028  144.2031  159.5024 H   0  0  0  0  0  0  0  0  0  0  0  0
  150.4182  143.9322  157.9864 H   0  0  0  0  0  0  0  0  0  0  0  0
  151.4628  144.0318  156.5885 H   0  0  0  0  0  0  0  0  0  0  0  0
  152.6522  141.9620  157.2954 H   0  0  0  0  0  0  0  0  0  0  0  0
  151.6754  141.8608  158.7314 H   0  0  0  0  0  0  0  0  0  0  0  0
  149.6341  141.7838  156.9668 H   0  0  0  0  0  0  0  0  0  0  0  0
  150.8561  141.3391  155.8319 H   0  0  0  0  0  0  0  0  0  0  0  0
  148.2427  141.1468  157.7166 H   0  0  0  0  0  0  0  0  0  0  0  0
  147.3672  139.8001  158.3209 H   0  0  0  0  0  0  0  0  0  0  0  0
  146.6883  136.4177  157.7524 H   0  0  0  0  0  0  0  0  0  0  0  0
  147.1357  137.9460  156.9984 H   0  0  0  0  0  0  0  0  0  0  0  0
  146.1469  137.9511  158.4518 H   0  0  0  0  0  0  0  0  0  0  0  0
  146.0952  136.3277  159.8199 H   0  0  0  0  0  0  0  0  0  0  0  0
  145.9477  134.6368  161.4516 H   0  0  0  0  0  0  0  0  0  0  0  0
  147.5991  134.3606  160.9306 H   0  0  0  0  0  0  0  0  0  0  0  0
  146.8877  134.9274  163.5556 H   0  0  0  0  0  0  0  0  0  0  0  0
  148.4642  135.3726  162.9015 H   0  0  0  0  0  0  0  0  0  0  0  0
  146.3969  137.2310  163.7144 H   0  0  0  0  0  0  0  0  0  0  0  0
  147.9349  137.6089  162.9354 H   0  0  0  0  0  0  0  0  0  0  0  0
  1  2  1  0  0  0  0
  1 24  1  0  0  0  0
  1 25  1  0  0  0  0
  1 26  1  0  0  0  0
  2  3  1  0  0  0  0
  2 27  1  0  0  0  0
  2 28  1  0  0  0  0
  3  4  1  0  0  0  0
  3 29  1  0  0  0  0
  3 30  1  0  0  0  0
  4  5  1  0  0  0  0
  4 31  1  0  0  0  0
  4 32  1  0  0  0  0
  5 21  1  0  0  0  0
  5  6  1  0  0  0  0
  6  7  1  0  0  0  0
  6  8  2  0  0  0  0
  7 33  1  0  0  0  0
  7 34  1  0  0  0  0
  8  9  1  0  0  0  0
  8 18  1  0  0  0  0
  9 10  1  0  0  0  0
  9 11  1  0  0  0  0
 10 35  1  0  0  0  0
 10 36  1  0  0  0  0
 10 37  1  0  0  0  0
 11 12  2  0  0  0  0
 11 13  1  0  0  0  0
 13 17  1  0  0  0  0
 13 14  1  0  0  0  0
 13 38  1  0  0  0  0
 14 15  1  0  0  0  0
 14 39  1  0  0  0  0
 14 40  1  0  0  0  0
 15 16  1  0  0  0  0
 15 41  1  0  0  0  0
 15 42  1  0  0  0  0
 16 17  1  0  0  0  0
 16 43  1  0  0  0  0
 16 44  1  0  0  0  0
 18 19  2  0  0  0  0
 18 20  1  0  0  0  0
 20 23  1  0  0  0  0
 20 21  1  0  0  0  0
 21 22  2  0  0  0  0
M  END
> <s_m_source_file>
AV-unprocessed.smi

> <i_m_source_file_index>
1382

> <i_lp_mmshare_version>
43012

> <i_f3d_flags>
0

> <s_epik_input>
W0NIM11bQ0gyXVtDSDJdW0NIMl1uMWMoW05IMl0pYyhjKD1PKVtuSF1jMT1PKU4oW0NIM10pQyg9TylbQ0BASF0yW0NIMl1bQ0gyXVtDSDJdTzI=

> <s_epik_cmdline>
J2VwaWtfcHl0aG9uJywgJy1waCcsICc3LjAnLCAnLXRuJywgJzgnLCAnLW1hJywgJzIwMCcsICctbWV0YWxfYmluZGluZycsICctaW1hZScsICc8aW5maWxlLm1hZT4nLCAnLW9tYWUnLCAnPG91dGZpbGUubWFlPic=

> <r_lp_tautomer_probability>
1

> <r_epik_Ionization_Penalty>
1.19634e-05

> <r_epik_Ionization_Penalty_Charging>
6.01811e-06

> <r_epik_Ionization_Penalty_Neutral>
5.94533e-06

> <r_epik_State_Penalty>
-0

> <r_epik_Charging_Adjusted_Penalty>
6.01811e-06

> <i_epik_Tot_Q>
0

> <i_epik_Tot_abs_Q>
0

> <r_epik_Metal_State_Penalty>
-0

> <b_epik_Metal_Only>
0

> <s_epik_Chemistry_Notes>
This compound has an imine and may undergo hydrolysis.

> <s_lp_Force_Field>
OPLS_2005

> <r_lp_Energy>
42.8449

> <b_lp_Chiralities_Consistent>
1

> <s_lp_Variant>
AV-unprocessed.smi:1382-2

> <Gold.Version>
5.8.1

> <Gold.Id.Protein>
6NUR|6NUR_protein|mol2

> <Gold.PLP.Fitness>
43.6166

> <Gold.PLP.PLP>
-34.1296

> <Gold.PLP.part.hbond>
-4.0000

> <Gold.PLP.part.metal>
0.0000

> <Gold.PLP.part.buried>
-4.3161

> <Gold.PLP.part.nonpolar>
-27.8856

> <Gold.PLP.part.repulsive>
0.2371

> <Gold.PLP.ligand.clash>
0.0000

> <Gold.PLP.ligand.torsion>
1.6343

> <Gold.PLP.Chemscore.Hbond>
3.5040

> <Gold.PLP.Chemscore.CHOScore>
0.0000

> <Gold.PLP.Chemscore.Metal>
0.0000

> <Gold.Chemscore.Hbonds>
donor molecule, donor type, donor heavy atom, donor atom, acceptor molecule, acceptor atom, score
      P1  H  6896  6908       L1    19  0.80
      P1  H  6931  6943       L1    12  0.75
      P1  H  6934  6947       L1    17  0.94
      P1  H  7997  8010       L1    22  1.00

> <Gold.PLP.Chemscore.Internal.Correction>
2.2436

> <Gold.Rescore>
     Score         DG    S(hbond)    S(metal)    S(lipo)     H(rot)  DE(clash)    DE(int)     intcor
     13.20     -18.03       2.58        0.00      70.84       1.69       0.14       4.69       ----

> <Gold.Chemscore.Fitness>
13.1958

> <Gold.Chemscore.DG>
-18.0334

> <Gold.Chemscore.ZeroCoef>
-5.4800

> <Gold.Chemscore.Hbond>
2.5755

> <Gold.Chemscore.Metal>
0.0000

> <Gold.Chemscore.Lipo>
70.8415

> <Gold.Chemscore.Internal_Hbond>
0.0000

> <Gold.Chemscore.DEClash>
0.1431

> <Gold.Chemscore.DEInternal>
4.6945

> <Gold.Chemscore.Rot>
1.6942

> <Gold.Chemscore.Internal.Correction>
   9.000000E+99

> <Gold.Chemscore.Hbonds>
donor molecule, donor type, donor heavy atom, donor atom, acceptor molecule, acceptor atom, score
      P1  H  6896  6908       L1    19  0.80
      P1  H  6931  6943       L1    12  0.38
      P1  H  6934  6947       L1    17  0.11
      P1  H  7997  8010       L1    22  1.00

> <Gold.Chemscore.Hbond.Weighted>
-8.6022

> <Gold.Chemscore.Metal.Weighted>
-0.0000

> <Gold.Chemscore.Lipo.Weighted>
-8.2885

> <Gold.Chemscore.Internal_Hbond.Weighted>
0.0000

> <Gold.Chemscore.DEClash.Weighted>
0.1431

> <Gold.Chemscore.DEInternal.Weighted>
4.6945

> <Gold.Chemscore.Rot.Weighted>
4.3372

> <Gold.Chemscore.Internal.Correction.Weighted>
   9.000000E+99

> <Gold.Protein.RotatedTorsions>
[ 6907 6896 6895 6894 ] final -166.30 input  -60.11 | X-H torsion
[ 7974 7965 7964 7962 ] final  -75.83 input  175.53 | X-H torsion
[ 8008 7997 7996 7995 ] final   59.88 input   59.86 | X-H torsion
[ 10167 10162 10161 10158 ] final -105.97 input  -65.29 | X-H torsion
[ 10718 10713 10712 10709 ] final -171.08 input   66.30 | X-H torsion
[ 10763 10752 10751 10750 ] final -147.93 input  -60.55 | X-H torsion
[ 11005 11000 10999 10996 ] final  109.61 input  -57.11 | X-H torsion

> <Gold.Protein.ActiveResidues>
 VAL166  LYS551  ARG553  GLY616  TRP617  ASP618  TYR619  PRO620  LYS621  CYS622 
 ASP623  PHE694  ASN695  SER759  ASP760  ASP761  ALA762  ILE779  LEU786  VAL792 
 PHE793  MET794  SER795  GLU796  ALA797  LYS798  CYS799  TRP800  GLU811  SER814 

> <Gold.Protein.RotatedAtoms>
  151.4414  133.3642  159.2782 H   0  0  0  0  0  0  0  0  0  0  0  0  # atno 6907 bound_to 6896
  150.9155  134.8574  159.7465 H   0  0  0  0  0  0  0  0  0  0  0  0  # atno 6908 bound_to 6896
  152.4955  134.4347  159.9576 H   0  0  0  0  0  0  0  0  0  0  0  0  # atno 6909 bound_to 6896
  145.6209  140.9363  143.1139 H   0  0  0  0  0  0  0  0  0  0  0  0  # atno 7974 bound_to 7965
  155.5733  140.3490  155.4521 H   0  0  0  0  0  0  0  0  0  0  0  0  # atno 8008 bound_to 7997
  156.0428  140.1300  157.0162 H   0  0  0  0  0  0  0  0  0  0  0  0  # atno 8009 bound_to 7997
  154.4399  140.1020  156.6247 H   0  0  0  0  0  0  0  0  0  0  0  0  # atno 8010 bound_to 7997
  140.1928  143.3878  152.1192 H   0  0  0  0  0  0  0  0  0  0  0  0  # atno 10167 bound_to 10162
  156.7356  130.9323  151.3107 H   0  0  0  0  0  0  0  0  0  0  0  0  # atno 10718 bound_to 10713
  154.8260  135.3347  154.6895 H   0  0  0  0  0  0  0  0  0  0  0  0  # atno 10763 bound_to 10752
  153.7521  135.6938  153.4948 H   0  0  0  0  0  0  0  0  0  0  0  0  # atno 10764 bound_to 10752
  153.2169  135.4462  155.0395 H   0  0  0  0  0  0  0  0  0  0  0  0  # atno 10765 bound_to 10752
  139.8865  134.9462  156.6151 H   0  0  0  0  0  0  0  0  0  0  0  0  # atno 11005 bound_to 11000
  144.7231  139.7963  143.7374 LP  0  0  0  0  0  0  0  0  0  0  0  0  # atno 17320 bound_to 7965
  146.1432  139.4494  143.0096 LP  0  0  0  0  0  0  0  0  0  0  0  0  # atno 17321 bound_to 7965
  139.5249  144.7089  151.5268 LP  0  0  0  0  0  0  0  0  0  0  0  0  # atno 17342 bound_to 10162
  140.6444  143.8824  150.6723 LP  0  0  0  0  0  0  0  0  0  0  0  0  # atno 17343 bound_to 10162
  157.6840  130.9168  150.0340 LP  0  0  0  0  0  0  0  0  0  0  0  0  # atno 17370 bound_to 10713
  156.1499  130.3642  149.9453 LP  0  0  0  0  0  0  0  0  0  0  0  0  # atno 17371 bound_to 10713
  140.7782  133.8682  155.8546 LP  0  0  0  0  0  0  0  0  0  0  0  0  # atno 17394 bound_to 11000
  140.9784  134.1439  157.4516 LP  0  0  0  0  0  0  0  0  0  0  0  0  # atno 17395 bound_to 11000

$$$$
