AV-unprocessed.smi:1524|AV-procd|sdf|6140|dock1
  -GOLD-   22720 6283D 1   1.00000     0.00000
 Structure written by MMmdl.
 34 35  0  0  0  0  0  0  0  0  2 V2000
  154.1050  140.6652  161.9231 O   0  0  0  0  0  0  0  0  0  0  0  0
  154.3208  139.9089  160.9786 C   0  0  0  0  0  0  0  0  0  0  0  0
  153.8727  140.0857  159.7188 N   0  0  0  0  0  0  0  0  0  0  0  0
  153.0359  141.0849  159.1946 C   0  0  0  0  0  0  0  0  0  0  0  0
  152.7935  142.2873  159.7866 C   0  0  0  0  0  0  0  0  0  0  0  0
  151.8986  143.2770  159.1993 C   0  0  0  0  0  0  0  0  0  0  0  0
  151.5978  144.6315  159.8145 C   0  0  0  0  0  0  0  0  0  0  0  0
  150.2828  144.7870  159.9636 F   0  0  0  0  0  0  0  0  0  0  0  0
  152.1631  144.7279  161.0174 F   0  0  0  0  0  0  0  0  0  0  0  0
  152.0554  145.6258  159.0536 F   0  0  0  0  0  0  0  0  0  0  0  0
  151.3378  142.8423  158.0151 C   0  0  0  0  0  0  0  0  0  0  0  0
  151.5167  141.6693  157.3690 N   0  5  0  0  0  0  0  0  0  0  0  0
  152.3600  140.7528  157.9230 C   0  0  0  0  0  0  0  0  0  0  0  0
  152.5670  139.6624  157.3889 O   0  0  0  0  0  0  0  0  0  0  0  0
  155.0782  138.8079  161.1382 N   0  0  0  0  0  0  0  0  0  0  0  0
  155.7218  138.3140  162.3583 C   0  0  0  0  0  0  0  0  0  0  0  0
  154.7130  137.5715  163.2538 C   0  0  0  0  0  0  0  0  0  0  0  0
  155.3460  137.2118  164.6077 C   0  0  0  0  0  0  0  0  0  0  0  0
  155.8404  138.3856  165.2440 O   0  0  0  0  0  0  0  0  0  0  0  0
  156.8684  139.0272  164.4974 C   0  0  0  0  0  0  0  0  0  0  0  0
  156.3181  139.4944  163.1401 C   0  0  0  0  0  0  0  0  0  0  0  0
  154.1989  139.4198  159.0335 H   0  0  0  0  0  0  0  0  0  0  0  0
  153.2469  142.5384  160.7309 H   0  0  0  0  0  0  0  0  0  0  0  0
  150.6394  143.5456  157.5130 H   0  0  0  0  0  0  0  0  0  0  0  0
  155.2521  138.2644  160.3053 H   0  0  0  0  0  0  0  0  0  0  0  0
  156.5394  137.6389  162.0987 H   0  0  0  0  0  0  0  0  0  0  0  0
  153.8375  138.1997  163.4243 H   0  0  0  0  0  0  0  0  0  0  0  0
  154.3555  136.6660  162.7624 H   0  0  0  0  0  0  0  0  0  0  0  0
  154.6029  136.7469  165.2558 H   0  0  0  0  0  0  0  0  0  0  0  0
  156.1523  136.4881  164.4790 H   0  0  0  0  0  0  0  0  0  0  0  0
  157.2356  139.8814  165.0665 H   0  0  0  0  0  0  0  0  0  0  0  0
  157.7125  138.3490  164.3626 H   0  0  0  0  0  0  0  0  0  0  0  0
  157.1098  139.9709  162.5607 H   0  0  0  0  0  0  0  0  0  0  0  0
  155.5533  140.2544  163.3079 H   0  0  0  0  0  0  0  0  0  0  0  0
  1  2  2  0  0  0  0
  2  3  1  0  0  0  0
  2 15  1  0  0  0  0
  3  4  1  0  0  0  0
  3 22  1  0  0  0  0
  4 13  1  0  0  0  0
  4  5  2  0  0  0  0
  5  6  1  0  0  0  0
  5 23  1  0  0  0  0
  6  7  1  0  0  0  0
  6 11  2  0  0  0  0
  7  8  1  0  0  0  0
  7  9  1  0  0  0  0
  7 10  1  0  0  0  0
 11 12  1  0  0  0  0
 11 24  1  0  0  0  0
 12 13  1  0  0  0  0
 13 14  2  0  0  0  0
 15 16  1  0  0  0  0
 15 25  1  0  0  0  0
 16 21  1  0  0  0  0
 16 17  1  0  0  0  0
 16 26  1  0  0  0  0
 17 18  1  0  0  0  0
 17 27  1  0  0  0  0
 17 28  1  0  0  0  0
 18 19  1  0  0  0  0
 18 29  1  0  0  0  0
 18 30  1  0  0  0  0
 19 20  1  0  0  0  0
 20 21  1  0  0  0  0
 20 31  1  0  0  0  0
 20 32  1  0  0  0  0
 21 33  1  0  0  0  0
 21 34  1  0  0  0  0
M  CHG  1  12  -1
M  END
> <s_m_source_file>
AV-unprocessed.smi

> <i_m_source_file_index>
1524

> <i_lp_mmshare_version>
43012

> <i_f3d_flags>
0

> <s_epik_input>
W0NIMl0xW0NIMl1PW0NIMl1bQ0gyXVtDSF0xW05IXUMoPU8pW05IXWMyW2NIXWMoQyhGKShGKUYpW2NIXVtuSF1jMj1P

> <s_epik_cmdline>
J2VwaWtfcHl0aG9uJywgJy1waCcsICc3LjAnLCAnLXRuJywgJzgnLCAnLW1hJywgJzIwMCcsICctbWV0YWxfYmluZGluZycsICctaW1hZScsICc8aW5maWxlLm1hZT4nLCAnLW9tYWUnLCAnPG91dGZpbGUubWFlPic=

> <r_lp_tautomer_probability>
1

> <r_epik_Ionization_Penalty>
3.17101

> <r_epik_Ionization_Penalty_Charging>
0.175581

> <r_epik_Ionization_Penalty_Neutral>
2.99543

> <r_epik_State_Penalty>
2.99161

> <r_epik_Charging_Adjusted_Penalty>
3.16719

> <i_epik_Tot_Q>
-1

> <i_epik_Tot_abs_Q>
1

> <r_epik_Metal_State_Penalty>
0.453119

> <b_epik_Metal_Only>
1

> <s_lp_Force_Field>
OPLS_2005

> <r_lp_Energy>
32.5819

> <b_lp_Chiralities_Consistent>
1

> <s_lp_Variant>
AV-unprocessed.smi:1524-2

> <Gold.Version>
5.8.1

> <Gold.Id.Protein>
6NUR|6NUR_protein|mol2

> <Gold.PLP.Fitness>
38.4325

> <Gold.PLP.PLP>
-36.4898

> <Gold.PLP.part.hbond>
-1.0000

> <Gold.PLP.part.metal>
0.0000

> <Gold.PLP.part.buried>
-2.9800

> <Gold.PLP.part.nonpolar>
-31.2600

> <Gold.PLP.part.repulsive>
0.1738

> <Gold.PLP.ligand.clash>
0.0000

> <Gold.PLP.ligand.torsion>
0.4584

> <Gold.PLP.Chemscore.Hbond>
0.9500

> <Gold.PLP.Chemscore.CHOScore>
0.0000

> <Gold.PLP.Chemscore.Metal>
0.0000

> <Gold.Chemscore.Hbonds>
donor molecule, donor type, donor heavy atom, donor atom, acceptor molecule, acceptor atom, score
      P1  H  7997  8008       L1    14  0.74

> <Gold.PLP.Chemscore.Internal.Correction>
0.0094

> <Gold.Rescore>
     Score         DG    S(hbond)    S(metal)    S(lipo)     H(rot)  DE(clash)    DE(int)     intcor
     11.10     -14.37       0.69        0.00      78.18       1.00       0.44       2.83       ----

> <Gold.Chemscore.Fitness>
11.0959

> <Gold.Chemscore.DG>
-14.3666

> <Gold.Chemscore.ZeroCoef>
-5.4800

> <Gold.Chemscore.Hbond>
0.6885

> <Gold.Chemscore.Metal>
0.0000

> <Gold.Chemscore.Lipo>
78.1785

> <Gold.Chemscore.Internal_Hbond>
0.0000

> <Gold.Chemscore.DEClash>
0.4421

> <Gold.Chemscore.DEInternal>
2.8286

> <Gold.Chemscore.Rot>
1.0000

> <Gold.Chemscore.Internal.Correction>
   9.000000E+99

> <Gold.Chemscore.Hbonds>
donor molecule, donor type, donor heavy atom, donor atom, acceptor molecule, acceptor atom, score
      P1  H  7997  8008       L1    14  0.09

> <Gold.Chemscore.Hbond.Weighted>
-2.2997

> <Gold.Chemscore.Metal.Weighted>
-0.0000

> <Gold.Chemscore.Lipo.Weighted>
-9.1469

> <Gold.Chemscore.Internal_Hbond.Weighted>
0.0000

> <Gold.Chemscore.DEClash.Weighted>
0.4421

> <Gold.Chemscore.DEInternal.Weighted>
2.8286

> <Gold.Chemscore.Rot.Weighted>
2.5600

> <Gold.Chemscore.Internal.Correction.Weighted>
   9.000000E+99

> <Gold.Protein.RotatedTorsions>
[ 6907 6896 6895 6894 ] final   37.88 input  -60.11 | X-H torsion
[ 7974 7965 7964 7962 ] final -176.22 input  175.53 | X-H torsion
[ 8008 7997 7996 7995 ] final  -78.53 input   59.86 | X-H torsion
[ 10167 10162 10161 10158 ] final  123.51 input  -65.29 | X-H torsion
[ 10718 10713 10712 10709 ] final   73.85 input   66.30 | X-H torsion
[ 10763 10752 10751 10750 ] final  -72.17 input  -60.55 | X-H torsion
[ 11005 11000 10999 10996 ] final -110.89 input  -57.11 | X-H torsion

> <Gold.Protein.ActiveResidues>
 VAL166  LYS551  ARG553  GLY616  TRP617  ASP618  TYR619  PRO620  LYS621  CYS622 
 ASP623  PHE694  ASN695  SER759  ASP760  ASP761  ALA762  ILE779  LEU786  VAL792 
 PHE793  MET794  SER795  GLU796  ALA797  LYS798  CYS799  TRP800  GLU811  SER814 

> <Gold.Protein.RotatedAtoms>
  152.1491  134.9002  160.0548 H   0  0  0  0  0  0  0  0  0  0  0  0  # atno 6907 bound_to 6896
  152.0041  133.3831  159.4201 H   0  0  0  0  0  0  0  0  0  0  0  0  # atno 6908 bound_to 6896
  150.6873  134.3724  159.5042 H   0  0  0  0  0  0  0  0  0  0  0  0  # atno 6909 bound_to 6896
  144.7127  140.1204  143.6405 H   0  0  0  0  0  0  0  0  0  0  0  0  # atno 7974 bound_to 7965
  154.5698  140.0693  156.8947 H   0  0  0  0  0  0  0  0  0  0  0  0  # atno 8008 bound_to 7997
  155.2655  140.3361  155.4251 H   0  0  0  0  0  0  0  0  0  0  0  0  # atno 8009 bound_to 7997
  156.2109  140.1759  156.7682 H   0  0  0  0  0  0  0  0  0  0  0  0  # atno 8010 bound_to 7997
  139.5795  144.6979  151.3565 H   0  0  0  0  0  0  0  0  0  0  0  0  # atno 10167 bound_to 10162
  157.6566  130.9649  150.1128 H   0  0  0  0  0  0  0  0  0  0  0  0  # atno 10718 bound_to 10713
  154.4419  135.5938  153.6135 H   0  0  0  0  0  0  0  0  0  0  0  0  # atno 10763 bound_to 10752
  152.9806  135.6000  154.3712 H   0  0  0  0  0  0  0  0  0  0  0  0  # atno 10764 bound_to 10752
  154.3563  135.2841  155.2323 H   0  0  0  0  0  0  0  0  0  0  0  0  # atno 10765 bound_to 10752
  141.0766  133.9291  157.2377 H   0  0  0  0  0  0  0  0  0  0  0  0  # atno 11005 bound_to 11000
  145.9376  139.2647  143.1288 LP  0  0  0  0  0  0  0  0  0  0  0  0  # atno 17320 bound_to 7965
  145.9457  140.8946  143.0285 LP  0  0  0  0  0  0  0  0  0  0  0  0  # atno 17321 bound_to 7965
  140.7075  143.7476  150.7507 LP  0  0  0  0  0  0  0  0  0  0  0  0  # atno 17342 bound_to 10162
  140.1005  143.4792  152.2428 LP  0  0  0  0  0  0  0  0  0  0  0  0  # atno 17343 bound_to 10162
  156.2020  130.3661  149.8776 LP  0  0  0  0  0  0  0  0  0  0  0  0  # atno 17370 bound_to 10713
  156.6677  130.8808  151.3557 LP  0  0  0  0  0  0  0  0  0  0  0  0  # atno 17371 bound_to 10713
  139.9578  135.0161  156.9178 LP  0  0  0  0  0  0  0  0  0  0  0  0  # atno 17394 bound_to 11000
  140.5560  134.0581  155.7384 LP  0  0  0  0  0  0  0  0  0  0  0  0  # atno 17395 bound_to 11000

$$$$
