AV-unprocessed.smi:2439|AV-procd|sdf|9610|dock9
  -GOLD-   2272013243D 1   1.00000     0.00000
 Structure written by MMmdl.
 41 43  0  0  0  0  0  0  0  0  2 V2000
  148.9420  132.8843  153.2107 N   0  0  0  0  0  0  0  0  0  0  0  0
  147.9180  133.0648  152.7034 C   0  0  0  0  0  0  0  0  0  0  0  0
  146.6272  133.2932  152.0652 C   0  0  0  0  0  0  0  0  0  0  0  0
  145.9679  132.2083  151.4502 C   0  0  0  0  0  0  0  0  0  0  0  0
  144.7242  132.4245  150.8294 C   0  0  0  0  0  0  0  0  0  0  0  0
  144.1865  133.7239  150.8504 C   0  0  0  0  0  0  0  0  0  0  0  0
  144.8064  134.7705  151.4346 N   0  0  0  0  0  0  0  0  0  0  0  0
  146.0056  134.5708  152.0350 C   0  0  0  0  0  0  0  0  0  0  0  0
  146.6275  135.6795  152.6393 N   0  0  0  0  0  0  0  0  0  0  0  0
  146.0224  136.3939  153.7573 C   0  0  0  0  0  0  0  0  0  0  0  0
  146.0010  137.9163  153.5399 C   0  0  1  0  0  0  0  0  0  0  0  0
  145.3060  138.6441  154.7042 C   0  0  0  0  0  0  0  0  0  0  0  0
  145.3591  140.1110  154.5060 N   0  3  1  0  0  0  0  0  0  0  0  0
  144.6600  140.8535  155.5849 C   0  0  0  0  0  0  0  0  0  0  0  0
  144.6514  142.3639  155.3000 C   0  0  0  0  0  0  0  0  0  0  0  0
  146.0788  142.8901  155.1032 C   0  0  0  0  0  0  0  0  0  0  0  0
  146.7878  142.0884  154.0033 C   0  0  0  0  0  0  0  0  0  0  0  0
  146.7584  140.5769  154.3054 C   0  0  2  0  0  0  0  0  0  0  0  0
  147.4249  139.7664  153.1762 C   0  0  0  0  0  0  0  0  0  0  0  0
  147.3462  138.3767  153.4666 O   0  0  0  0  0  0  0  0  0  0  0  0
  146.4057  131.2202  151.4510 H   0  0  0  0  0  0  0  0  0  0  0  0
  144.1955  131.6141  150.3499 H   0  0  0  0  0  0  0  0  0  0  0  0
  143.2341  133.9296  150.3847 H   0  0  0  0  0  0  0  0  0  0  0  0
  147.4656  136.0618  152.2245 H   0  0  0  0  0  0  0  0  0  0  0  0
  145.0118  136.0180  153.9214 H   0  0  0  0  0  0  0  0  0  0  0  0
  146.5826  136.1572  154.6622 H   0  0  0  0  0  0  0  0  0  0  0  0
  145.4804  138.1495  152.6096 H   0  0  0  0  0  0  0  0  0  0  0  0
  144.2653  138.3243  154.7720 H   0  0  0  0  0  0  0  0  0  0  0  0
  145.7843  138.3848  155.6503 H   0  0  0  0  0  0  0  0  0  0  0  0
  143.6341  140.4928  155.6699 H   0  0  0  0  0  0  0  0  0  0  0  0
  145.1467  140.6549  156.5412 H   0  0  0  0  0  0  0  0  0  0  0  0
  144.0585  142.5658  154.4069 H   0  0  0  0  0  0  0  0  0  0  0  0
  144.1678  142.8953  156.1201 H   0  0  0  0  0  0  0  0  0  0  0  0
  146.0578  143.9490  154.8438 H   0  0  0  0  0  0  0  0  0  0  0  0
  146.6354  142.8074  156.0376 H   0  0  0  0  0  0  0  0  0  0  0  0
  146.3054  142.2836  153.0443 H   0  0  0  0  0  0  0  0  0  0  0  0
  147.8185  142.4310  153.9053 H   0  0  0  0  0  0  0  0  0  0  0  0
  147.3109  140.3949  155.2292 H   0  0  0  0  0  0  0  0  0  0  0  0
  146.9563  139.9729  152.2125 H   0  0  0  0  0  0  0  0  0  0  0  0
  148.4753  140.0432  153.0833 H   0  0  0  0  0  0  0  0  0  0  0  0
  144.8623  140.3064  153.6486 H   0  0  0  0  0  0  0  0  0  0  0  0
  1  2  3  0  0  0  0
  2  3  1  0  0  0  0
  3  8  1  0  0  0  0
  3  4  2  0  0  0  0
  4  5  1  0  0  0  0
  4 21  1  0  0  0  0
  5  6  2  0  0  0  0
  5 22  1  0  0  0  0
  6  7  1  0  0  0  0
  6 23  1  0  0  0  0
  7  8  2  0  0  0  0
  8  9  1  0  0  0  0
  9 10  1  0  0  0  0
  9 24  1  0  0  0  0
 10 11  1  0  0  0  0
 10 25  1  0  0  0  0
 10 26  1  0  0  0  0
 11 20  1  0  0  0  0
 11 12  1  0  0  0  0
 11 27  1  0  0  0  0
 12 13  1  0  0  0  0
 12 28  1  0  0  0  0
 12 29  1  0  0  0  0
 13 18  1  0  0  0  0
 13 14  1  0  0  0  0
 13 41  1  0  0  0  0
 14 15  1  0  0  0  0
 14 30  1  0  0  0  0
 14 31  1  0  0  0  0
 15 16  1  0  0  0  0
 15 32  1  0  0  0  0
 15 33  1  0  0  0  0
 16 17  1  0  0  0  0
 16 34  1  0  0  0  0
 16 35  1  0  0  0  0
 17 18  1  0  0  0  0
 17 36  1  0  0  0  0
 17 37  1  0  0  0  0
 18 19  1  0  0  0  0
 18 38  1  0  0  0  0
 19 20  1  0  0  0  0
 19 39  1  0  0  0  0
 19 40  1  0  0  0  0
M  CHG  1  13   1
M  END
> <s_m_source_file>
AV-unprocessed.smi

> <i_m_source_file_index>
2439

> <i_lp_mmshare_version>
43012

> <i_f3d_flags>
0

> <s_epik_input>
TiNDYzFbY0hdW2NIXVtjSF1uYzFbTkhdW0NIMl1bQ0BIXShbQ0gyXTIpT1tDSDJdW0NAQEhdKE4yMylbQ0gyXVtDSDJdW0NIMl1bQ0gyXTM=

> <s_epik_cmdline>
J2VwaWtfcHl0aG9uJywgJy1waCcsICc3LjAnLCAnLXRuJywgJzgnLCAnLW1hJywgJzIwMCcsICctbWV0YWxfYmluZGluZycsICctaW1hZScsICc8aW5maWxlLm1hZT4nLCAnLW9tYWUnLCAnPG91dGZpbGUubWFlPic=

> <r_epik_Ionization_Penalty>
0.0803594

> <r_epik_Ionization_Penalty_Charging>
0.0803403

> <r_epik_Ionization_Penalty_Neutral>
1.90988e-05

> <r_epik_State_Penalty>
0.0711481

> <r_epik_Charging_Adjusted_Penalty>
0.151488

> <i_epik_Tot_Q>
1

> <i_epik_Tot_abs_Q>
1

> <r_epik_Metal_State_Penalty>
0.0711482

> <b_epik_Metal_Only>
0

> <s_lp_Force_Field>
OPLS_2005

> <r_lp_Energy>
27.3027

> <b_lp_Chiralities_Consistent>
1

> <s_lp_Variant>
AV-unprocessed.smi:2439-8

> <Gold.Version>
5.8.1

> <Gold.Id.Protein>
6NUR|6NUR_protein|mol2

> <Gold.PLP.Fitness>
40.2368

> <Gold.PLP.PLP>
-29.5292

> <Gold.PLP.part.hbond>
-1.9655

> <Gold.PLP.part.metal>
0.0000

> <Gold.PLP.part.buried>
-4.6207

> <Gold.PLP.part.nonpolar>
-23.7952

> <Gold.PLP.part.repulsive>
0.6717

> <Gold.PLP.ligand.clash>
0.0000

> <Gold.PLP.ligand.torsion>
0.6467

> <Gold.PLP.Chemscore.Hbond>
3.0000

> <Gold.PLP.Chemscore.CHOScore>
1.0000

> <Gold.PLP.Chemscore.Metal>
0.0000

> <Gold.Chemscore.Hbonds>
donor molecule, donor type, donor heavy atom, donor atom, acceptor molecule, acceptor atom, score
      L1  H     9    24       P1  7948  0.99
      L1  H    13    41       P1 10175  2.00
      L1  C     6    23       P1 10186  1.00

> <Gold.PLP.Chemscore.Internal.Correction>
0.0010

> <Gold.Rescore>
     Score         DG    S(hbond)    S(metal)    S(lipo)     H(rot)  DE(clash)    DE(int)     intcor
     15.28     -15.94       1.99        0.00      60.24       1.27       0.08       0.59       ----

> <Gold.Chemscore.Fitness>
15.2760

> <Gold.Chemscore.DG>
-15.9384

> <Gold.Chemscore.ZeroCoef>
-5.4800

> <Gold.Chemscore.Hbond>
1.9913

> <Gold.Chemscore.Metal>
0.0000

> <Gold.Chemscore.Lipo>
60.2398

> <Gold.Chemscore.Internal_Hbond>
0.0000

> <Gold.Chemscore.DEClash>
0.0763

> <Gold.Chemscore.DEInternal>
0.5861

> <Gold.Chemscore.Rot>
1.2659

> <Gold.Chemscore.Internal.Correction>
   9.000000E+99

> <Gold.Chemscore.Hbonds>
donor molecule, donor type, donor heavy atom, donor atom, acceptor molecule, acceptor atom, score
      L1  H     9    24       P1  7948  0.92
      L1  H    13    41       P1 10175  1.00

> <Gold.Chemscore.Hbond.Weighted>
-6.6511

> <Gold.Chemscore.Metal.Weighted>
-0.0000

> <Gold.Chemscore.Lipo.Weighted>
-7.0481

> <Gold.Chemscore.Internal_Hbond.Weighted>
0.0000

> <Gold.Chemscore.DEClash.Weighted>
0.0763

> <Gold.Chemscore.DEInternal.Weighted>
0.5861

> <Gold.Chemscore.Rot.Weighted>
3.2408

> <Gold.Chemscore.Internal.Correction.Weighted>
   9.000000E+99

> <Gold.Protein.RotatedTorsions>
[ 6907 6896 6895 6894 ] final -108.82 input  -60.11 | X-H torsion
[ 7974 7965 7964 7962 ] final -170.02 input  175.53 | X-H torsion
[ 8008 7997 7996 7995 ] final   51.20 input   59.86 | X-H torsion
[ 10167 10162 10161 10158 ] final -159.70 input  -65.29 | X-H torsion
[ 10718 10713 10712 10709 ] final  108.32 input   66.30 | X-H torsion
[ 10763 10752 10751 10750 ] final -117.34 input  -60.55 | X-H torsion
[ 11005 11000 10999 10996 ] final  119.34 input  -57.11 | X-H torsion

> <Gold.Protein.ActiveResidues>
 VAL166  LYS551  ARG553  GLY616  TRP617  ASP618  TYR619  PRO620  LYS621  CYS622 
 ASP623  PHE694  ASN695  SER759  ASP760  ASP761  ALA762  ILE779  LEU786  VAL792 
 PHE793  MET794  SER795  GLU796  ALA797  LYS798  CYS799  TRP800  GLU811  SER814 

> <Gold.Protein.RotatedAtoms>
  150.7524  133.9621  159.3518 H   0  0  0  0  0  0  0  0  0  0  0  0  # atno 6907 bound_to 6896
  151.7548  135.0822  160.0346 H   0  0  0  0  0  0  0  0  0  0  0  0  # atno 6908 bound_to 6896
  152.3442  133.6066  159.5934 H   0  0  0  0  0  0  0  0  0  0  0  0  # atno 6909 bound_to 6896
  144.7176  140.2134  143.6324 H   0  0  0  0  0  0  0  0  0  0  0  0  # atno 7974 bound_to 7965
  155.4313  140.3450  155.4280 H   0  0  0  0  0  0  0  0  0  0  0  0  # atno 8008 bound_to 7997
  156.1334  140.1521  156.9061 H   0  0  0  0  0  0  0  0  0  0  0  0  # atno 8009 bound_to 7997
  154.4913  140.0840  156.7580 H   0  0  0  0  0  0  0  0  0  0  0  0  # atno 8010 bound_to 7997
  139.6595  143.9938  152.2216 H   0  0  0  0  0  0  0  0  0  0  0  0  # atno 10167 bound_to 10162
  157.6591  131.0891  150.6288 H   0  0  0  0  0  0  0  0  0  0  0  0  # atno 10718 bound_to 10713
  154.8551  135.4313  154.1964 H   0  0  0  0  0  0  0  0  0  0  0  0  # atno 10763 bound_to 10752
  153.3021  135.6969  153.7199 H   0  0  0  0  0  0  0  0  0  0  0  0  # atno 10764 bound_to 10752
  153.6325  135.3482  155.3020 H   0  0  0  0  0  0  0  0  0  0  0  0  # atno 10765 bound_to 10752
  139.9143  134.9627  156.7640 H   0  0  0  0  0  0  0  0  0  0  0  0  # atno 11005 bound_to 11000
  145.8569  139.2203  143.1739 LP  0  0  0  0  0  0  0  0  0  0  0  0  # atno 17320 bound_to 7965
  146.0209  140.8348  142.9923 LP  0  0  0  0  0  0  0  0  0  0  0  0  # atno 17321 bound_to 7965
  139.9673  144.6517  150.8022 LP  0  0  0  0  0  0  0  0  0  0  0  0  # atno 17342 bound_to 10162
  140.7574  143.3085  151.2903 LP  0  0  0  0  0  0  0  0  0  0  0  0  # atno 17343 bound_to 10162
  156.6592  130.4507  149.5693 LP  0  0  0  0  0  0  0  0  0  0  0  0  # atno 17370 bound_to 10713
  156.2080  130.6661  151.1239 LP  0  0  0  0  0  0  0  0  0  0  0  0  # atno 17371 bound_to 10713
  140.6674  133.9590  155.7838 LP  0  0  0  0  0  0  0  0  0  0  0  0  # atno 17394 bound_to 11000
  141.0601  134.0359  157.3670 LP  0  0  0  0  0  0  0  0  0  0  0  0  # atno 17395 bound_to 11000

$$$$
