AV-unprocessed.smi:3311|AV-procd|sdf|12724|dock1
  -GOLD-   2272019 63D 1   1.00000     0.00000
 Structure written by MMmdl.
 43 44  0  0  0  0  0  0  0  0  1 V2000
  146.6803  139.0489  151.5950 C   0  0  0  0  0  0  0  0  0  0  0  0
  146.1258  138.1184  152.6961 C   0  0  1  0  0  0  0  0  0  0  0  0
  146.3657  136.7062  152.3769 N   0  0  0  0  0  0  0  0  0  0  0  0
  145.7045  136.1938  151.1743 C   0  0  0  0  0  0  0  0  0  0  0  0
  145.4766  134.6662  151.2343 C   0  0  0  0  0  0  0  0  0  0  0  0
  144.7638  134.3998  152.4295 O   0  0  0  0  0  0  0  0  0  0  0  0
  144.6792  134.1332  150.0162 C   0  0  0  0  0  0  0  0  0  0  0  0
  144.5749  132.5977  149.9904 C   0  0  0  0  0  0  0  0  0  0  0  0
  145.9590  131.9391  150.0630 C   0  0  0  0  0  0  0  0  0  0  0  0
  146.7251  132.4129  151.3054 C   0  0  0  0  0  0  0  0  0  0  0  0
  146.8432  133.9475  151.3363 C   0  0  0  0  0  0  0  0  0  0  0  0
  146.6866  138.4303  154.1101 C   0  0  2  0  0  0  0  0  0  0  0  0
  146.1001  137.5051  155.1923 C   0  0  0  0  0  0  0  0  0  0  0  0
  146.5485  139.8373  154.4810 N   0  0  0  0  0  0  0  0  0  0  0  0
  147.0827  140.9610  153.8783 C   0  0  0  0  0  0  0  0  0  0  0  0
  146.6989  142.0451  154.6141 C   0  0  0  0  0  0  0  0  0  0  0  0
  145.9304  141.4811  155.6692 C   0  0  0  0  0  0  0  0  0  0  0  0
  145.8478  140.1634  155.5905 N   0  0  0  0  0  0  0  0  0  0  0  0
  146.6039  140.0967  151.8839 H   0  0  0  0  0  0  0  0  0  0  0  0
  146.1246  138.9449  150.6637 H   0  0  0  0  0  0  0  0  0  0  0  0
  147.7286  138.8402  151.3792 H   0  0  0  0  0  0  0  0  0  0  0  0
  145.0469  138.2715  152.7398 H   0  0  0  0  0  0  0  0  0  0  0  0
  147.3645  136.5332  152.3138 H   0  0  0  0  0  0  0  0  0  0  0  0
  144.7450  136.6976  151.0514 H   0  0  0  0  0  0  0  0  0  0  0  0
  146.2906  136.4262  150.2851 H   0  0  0  0  0  0  0  0  0  0  0  0
  144.6994  135.2027  152.9235 H   0  0  0  0  0  0  0  0  0  0  0  0
  143.6741  134.5563  149.9976 H   0  0  0  0  0  0  0  0  0  0  0  0
  145.1644  134.4670  149.0979 H   0  0  0  0  0  0  0  0  0  0  0  0
  143.9625  132.2557  150.8256 H   0  0  0  0  0  0  0  0  0  0  0  0
  144.0605  132.2781  149.0837 H   0  0  0  0  0  0  0  0  0  0  0  0
  145.8548  130.8539  150.0805 H   0  0  0  0  0  0  0  0  0  0  0  0
  146.5291  132.1818  149.1653 H   0  0  0  0  0  0  0  0  0  0  0  0
  146.2199  132.0609  152.2055 H   0  0  0  0  0  0  0  0  0  0  0  0
  147.7195  131.9662  151.3183 H   0  0  0  0  0  0  0  0  0  0  0  0
  147.4753  134.2602  150.5040 H   0  0  0  0  0  0  0  0  0  0  0  0
  147.3668  134.2562  152.2424 H   0  0  0  0  0  0  0  0  0  0  0  0
  147.7563  138.2099  154.0947 H   0  0  0  0  0  0  0  0  0  0  0  0
  146.2970  136.4588  154.9574 H   0  0  0  0  0  0  0  0  0  0  0  0
  145.0213  137.6204  155.2935 H   0  0  0  0  0  0  0  0  0  0  0  0
  146.5480  137.7098  156.1651 H   0  0  0  0  0  0  0  0  0  0  0  0
  147.6886  140.9001  152.9866 H   0  0  0  0  0  0  0  0  0  0  0  0
  146.9357  143.0823  154.4295 H   0  0  0  0  0  0  0  0  0  0  0  0
  145.4363  141.9857  156.4865 H   0  0  0  0  0  0  0  0  0  0  0  0
  1  2  1  0  0  0  0
  1 19  1  0  0  0  0
  1 20  1  0  0  0  0
  1 21  1  0  0  0  0
  2  3  1  0  0  0  0
  2 12  1  0  0  0  0
  2 22  1  0  0  0  0
  3  4  1  0  0  0  0
  3 23  1  0  0  0  0
  4  5  1  0  0  0  0
  4 24  1  0  0  0  0
  4 25  1  0  0  0  0
  5 11  1  0  0  0  0
  5  6  1  0  0  0  0
  5  7  1  0  0  0  0
  6 26  1  0  0  0  0
  7  8  1  0  0  0  0
  7 27  1  0  0  0  0
  7 28  1  0  0  0  0
  8  9  1  0  0  0  0
  8 29  1  0  0  0  0
  8 30  1  0  0  0  0
  9 10  1  0  0  0  0
  9 31  1  0  0  0  0
  9 32  1  0  0  0  0
 10 11  1  0  0  0  0
 10 33  1  0  0  0  0
 10 34  1  0  0  0  0
 11 35  1  0  0  0  0
 11 36  1  0  0  0  0
 12 13  1  0  0  0  0
 12 14  1  0  0  0  0
 12 37  1  0  0  0  0
 13 38  1  0  0  0  0
 13 39  1  0  0  0  0
 13 40  1  0  0  0  0
 14 18  1  0  0  0  0
 14 15  1  0  0  0  0
 15 16  2  0  0  0  0
 15 41  1  0  0  0  0
 16 17  1  0  0  0  0
 16 42  1  0  0  0  0
 17 18  2  0  0  0  0
 17 43  1  0  0  0  0
M  END
> <s_m_source_file>
AV-unprocessed.smi

> <i_m_source_file_index>
3311

> <i_lp_mmshare_version>
43012

> <i_f3d_flags>
0

> <s_epik_input>
bjFbY0hdW2NIXVtjSF1uMVtDQEBIXShbQ0gzXSlbQ0BIXShbQ0gzXSlbTkhdW0NIMl1DMihbT0hdKVtDSDJdW0NIMl1bQ0gyXVtDSDJdW0NIMl0y

> <s_epik_cmdline>
J2VwaWtfcHl0aG9uJywgJy1waCcsICc3LjAnLCAnLXRuJywgJzgnLCAnLW1hJywgJzIwMCcsICctbWV0YWxfYmluZGluZycsICctaW1hZScsICc8aW5maWxlLm1hZT4nLCAnLW9tYWUnLCAnPG91dGZpbGUubWFlPic=

> <r_lp_tautomer_probability>
1

> <r_epik_Ionization_Penalty>
2.222

> <r_epik_Ionization_Penalty_Charging>
0

> <r_epik_Ionization_Penalty_Neutral>
2.222

> <r_epik_State_Penalty>
2.36562

> <r_epik_Charging_Adjusted_Penalty>
2.36562

> <i_epik_Tot_Q>
0

> <i_epik_Tot_abs_Q>
0

> <r_epik_Metal_State_Penalty>
2.36435

> <b_epik_Metal_Only>
0

> <s_lp_Force_Field>
OPLS_2005

> <r_lp_Energy>
28.1428

> <b_lp_Chiralities_Consistent>
1

> <s_lp_Variant>
AV-unprocessed.smi:3311-6

> <Gold.Version>
5.8.1

> <Gold.Id.Protein>
6NUR|6NUR_protein|mol2

> <Gold.PLP.Fitness>
41.3152

> <Gold.PLP.PLP>
-35.6787

> <Gold.PLP.part.hbond>
-1.0000

> <Gold.PLP.part.metal>
0.0000

> <Gold.PLP.part.buried>
-3.0166

> <Gold.PLP.part.nonpolar>
-31.7553

> <Gold.PLP.part.repulsive>
0.0657

> <Gold.PLP.ligand.clash>
0.0000

> <Gold.PLP.ligand.torsion>
0.2637

> <Gold.PLP.Chemscore.Hbond>
1.0000

> <Gold.PLP.Chemscore.CHOScore>
1.0000

> <Gold.PLP.Chemscore.Metal>
0.0000

> <Gold.Chemscore.Hbonds>
donor molecule, donor type, donor heavy atom, donor atom, acceptor molecule, acceptor atom, score
      L1  H     3    23       P1  7948  1.00
      L1  C    15    41       P1  7957  0.40

> <Gold.PLP.Chemscore.Internal.Correction>
0.1638

> <Gold.Rescore>
     Score         DG    S(hbond)    S(metal)    S(lipo)     H(rot)  DE(clash)    DE(int)     intcor
     13.56     -14.01       1.00        0.00      89.64       2.07       0.10       0.35       ----

> <Gold.Chemscore.Fitness>
13.5617

> <Gold.Chemscore.DG>
-14.0090

> <Gold.Chemscore.ZeroCoef>
-5.4800

> <Gold.Chemscore.Hbond>
0.9991

> <Gold.Chemscore.Metal>
0.0000

> <Gold.Chemscore.Lipo>
89.6388

> <Gold.Chemscore.Internal_Hbond>
0.0000

> <Gold.Chemscore.DEClash>
0.0993

> <Gold.Chemscore.DEInternal>
0.3480

> <Gold.Chemscore.Rot>
2.0686

> <Gold.Chemscore.Internal.Correction>
   9.000000E+99

> <Gold.Chemscore.Hbonds>
donor molecule, donor type, donor heavy atom, donor atom, acceptor molecule, acceptor atom, score
      L1  H     3    23       P1  7948  1.00

> <Gold.Chemscore.Hbond.Weighted>
-3.3369

> <Gold.Chemscore.Metal.Weighted>
-0.0000

> <Gold.Chemscore.Lipo.Weighted>
-10.4877

> <Gold.Chemscore.Internal_Hbond.Weighted>
0.0000

> <Gold.Chemscore.DEClash.Weighted>
0.0993

> <Gold.Chemscore.DEInternal.Weighted>
0.3480

> <Gold.Chemscore.Rot.Weighted>
5.2957

> <Gold.Chemscore.Internal.Correction.Weighted>
   9.000000E+99

> <Gold.Protein.RotatedTorsions>
[ 6907 6896 6895 6894 ] final -174.57 input  -60.11 | X-H torsion
[ 7974 7965 7964 7962 ] final   76.48 input  175.53 | X-H torsion
[ 8008 7997 7996 7995 ] final  -55.01 input   59.86 | X-H torsion
[ 10167 10162 10161 10158 ] final  -74.96 input  -65.29 | X-H torsion
[ 10718 10713 10712 10709 ] final  165.45 input   66.30 | X-H torsion
[ 10763 10752 10751 10750 ] final  -94.73 input  -60.55 | X-H torsion
[ 11005 11000 10999 10996 ] final  109.84 input  -57.11 | X-H torsion

> <Gold.Protein.ActiveResidues>
 VAL166  LYS551  ARG553  GLY616  TRP617  ASP618  TYR619  PRO620  LYS621  CYS622 
 ASP623  PHE694  ASN695  SER759  ASP760  ASP761  ALA762  ILE779  LEU786  VAL792 
 PHE793  MET794  SER795  GLU796  ALA797  LYS798  CYS799  TRP800  GLU811  SER814 

> <Gold.Protein.RotatedAtoms>
  151.5746  133.3385  159.2995 H   0  0  0  0  0  0  0  0  0  0  0  0  # atno 6907 bound_to 6896
  150.8348  134.7620  159.6895 H   0  0  0  0  0  0  0  0  0  0  0  0  # atno 6908 bound_to 6896
  152.4426  134.5566  159.9934 H   0  0  0  0  0  0  0  0  0  0  0  0  # atno 6909 bound_to 6896
  145.7023  139.2587  143.1698 H   0  0  0  0  0  0  0  0  0  0  0  0  # atno 7974 bound_to 7965
  154.4181  140.1163  156.5408 H   0  0  0  0  0  0  0  0  0  0  0  0  # atno 8008 bound_to 7997
  155.6510  140.3496  155.4729 H   0  0  0  0  0  0  0  0  0  0  0  0  # atno 8009 bound_to 7997
  155.9792  140.1157  157.0731 H   0  0  0  0  0  0  0  0  0  0  0  0  # atno 8010 bound_to 7997
  140.4983  143.2366  151.7794 H   0  0  0  0  0  0  0  0  0  0  0  0  # atno 10167 bound_to 10162
  157.0800  131.0389  151.2579 H   0  0  0  0  0  0  0  0  0  0  0  0  # atno 10718 bound_to 10713
  154.7082  135.5147  153.8627 H   0  0  0  0  0  0  0  0  0  0  0  0  # atno 10763 bound_to 10752
  153.0758  135.6616  154.0157 H   0  0  0  0  0  0  0  0  0  0  0  0  # atno 10764 bound_to 10752
  154.0004  135.3011  155.3383 H   0  0  0  0  0  0  0  0  0  0  0  0  # atno 10765 bound_to 10752
  139.8870  134.9469  156.6188 H   0  0  0  0  0  0  0  0  0  0  0  0  # atno 11005 bound_to 11000
  146.0787  140.7789  142.9652 LP  0  0  0  0  0  0  0  0  0  0  0  0  # atno 17320 bound_to 7965
  144.6965  140.3454  143.7191 LP  0  0  0  0  0  0  0  0  0  0  0  0  # atno 17321 bound_to 7965
  139.4866  144.4556  151.9602 LP  0  0  0  0  0  0  0  0  0  0  0  0  # atno 17342 bound_to 10162
  140.3644  144.2932  150.5928 LP  0  0  0  0  0  0  0  0  0  0  0  0  # atno 17343 bound_to 10162
  157.4808  130.7764  149.7412 LP  0  0  0  0  0  0  0  0  0  0  0  0  # atno 17370 bound_to 10713
  155.9926  130.3929  150.2934 LP  0  0  0  0  0  0  0  0  0  0  0  0  # atno 17371 bound_to 10713
  140.7755  133.8703  155.8526 LP  0  0  0  0  0  0  0  0  0  0  0  0  # atno 17394 bound_to 11000
  140.9805  134.1411  157.4498 LP  0  0  0  0  0  0  0  0  0  0  0  0  # atno 17395 bound_to 11000

$$$$
