AV-unprocessed.smi:50|AV-procd|sdf|493|dock1
  -GOLD-   2262016353D 1   1.00000     0.00000
 Structure written by MMmdl.
 43 44  0  0  0  0  0  0  0  0  1 V2000
  150.0673  140.4677  158.0645 C   0  0  0  0  0  0  0  0  0  0  0  0
  150.7780  141.3886  157.0572 C   0  0  0  0  0  0  0  0  0  0  0  0
  151.2305  142.6902  157.7484 C   0  0  0  0  0  0  0  0  0  0  0  0
  149.9343  141.5966  155.7684 C   0  0  2  0  0  0  0  0  0  0  0  0
  148.5967  142.0930  156.0954 N   0  0  0  0  0  0  0  0  0  0  0  0
  149.9050  140.3760  154.8280 C   0  0  0  0  0  0  0  0  0  0  0  0
  150.9075  139.7248  154.5326 O   0  0  0  0  0  0  0  0  0  0  0  0
  148.6570  140.1131  154.3953 O   0  0  0  0  0  0  0  0  0  0  0  0
  148.4255  138.9988  153.5500 C   0  0  0  0  0  0  0  0  0  0  0  0
  147.0665  139.1598  152.8642 C   0  0  0  0  0  0  0  0  0  0  0  0
  146.2733  138.0199  153.1515 O   0  0  0  0  0  0  0  0  0  0  0  0
  145.9456  137.2831  152.0208 C   0  0  0  0  0  0  0  0  0  0  0  0
  144.9071  136.3441  152.3969 N   0  0  0  0  0  0  0  0  0  0  0  0
  144.9807  134.9768  152.4919 C   0  0  0  0  0  0  0  0  0  0  0  0
  143.8631  134.4106  152.8541 N   0  0  0  0  0  0  0  0  0  0  0  0
  142.9773  135.4731  153.0093 C   0  0  0  0  0  0  0  0  0  0  0  0
  141.5942  135.4762  153.3937 C   0  0  0  0  0  0  0  0  0  0  0  0
  140.8797  134.5167  153.6756 O   0  0  0  0  0  0  0  0  0  0  0  0
  141.0593  136.7704  153.4297 N   0  0  0  0  0  0  0  0  0  0  0  0
  141.7803  137.9237  153.1286 C   0  0  0  0  0  0  0  0  0  0  0  0
  141.1188  139.0856  153.2104 N   0  0  0  0  0  0  0  0  0  0  0  0
  143.0539  137.9198  152.7753 N   0  0  0  0  0  0  0  0  0  0  0  0
  143.6099  136.6690  152.7302 C   0  0  0  0  0  0  0  0  0  0  0  0
  150.4181  142.4018  155.2146 H   0  0  0  0  0  0  0  0  0  0  0  0
  140.0881  136.8553  153.6916 H   0  0  0  0  0  0  0  0  0  0  0  0
  149.1604  140.9259  158.4598 H   0  0  0  0  0  0  0  0  0  0  0  0
  150.7156  140.2396  158.9111 H   0  0  0  0  0  0  0  0  0  0  0  0
  149.7877  139.5204  157.6026 H   0  0  0  0  0  0  0  0  0  0  0  0
  151.6857  140.8632  156.7563 H   0  0  0  0  0  0  0  0  0  0  0  0
  150.3923  143.2304  158.1891 H   0  0  0  0  0  0  0  0  0  0  0  0
  151.7314  143.3601  157.0494 H   0  0  0  0  0  0  0  0  0  0  0  0
  151.9339  142.4758  158.5532 H   0  0  0  0  0  0  0  0  0  0  0  0
  148.3810  141.9611  157.0732 H   0  0  0  0  0  0  0  0  0  0  0  0
  148.5179  143.0843  155.9186 H   0  0  0  0  0  0  0  0  0  0  0  0
  149.2171  138.9273  152.8026 H   0  0  0  0  0  0  0  0  0  0  0  0
  148.4428  138.0810  154.1394 H   0  0  0  0  0  0  0  0  0  0  0  0
  146.5704  140.0620  153.2254 H   0  0  0  0  0  0  0  0  0  0  0  0
  147.2026  139.2635  151.7866 H   0  0  0  0  0  0  0  0  0  0  0  0
  145.5578  137.9300  151.2316 H   0  0  0  0  0  0  0  0  0  0  0  0
  146.8110  136.7345  151.6446 H   0  0  0  0  0  0  0  0  0  0  0  0
  145.8805  134.4158  152.2846 H   0  0  0  0  0  0  0  0  0  0  0  0
  140.1456  139.0902  153.4800 H   0  0  0  0  0  0  0  0  0  0  0  0
  141.5888  139.9551  153.0038 H   0  0  0  0  0  0  0  0  0  0  0  0
  1  2  1  0  0  0  0
  1 26  1  0  0  0  0
  1 27  1  0  0  0  0
  1 28  1  0  0  0  0
  2  3  1  0  0  0  0
  2  4  1  0  0  0  0
  2 29  1  0  0  0  0
  3 30  1  0  0  0  0
  3 31  1  0  0  0  0
  3 32  1  0  0  0  0
  4 24  1  0  0  0  0
  4  5  1  0  0  0  0
  4  6  1  0  0  0  0
  5 33  1  0  0  0  0
  5 34  1  0  0  0  0
  6  7  2  0  0  0  0
  6  8  1  0  0  0  0
  8  9  1  0  0  0  0
  9 10  1  0  0  0  0
  9 35  1  0  0  0  0
  9 36  1  0  0  0  0
 10 11  1  0  0  0  0
 10 37  1  0  0  0  0
 10 38  1  0  0  0  0
 11 12  1  0  0  0  0
 12 13  1  0  0  0  0
 12 39  1  0  0  0  0
 12 40  1  0  0  0  0
 13 23  1  0  0  0  0
 13 14  1  0  0  0  0
 14 15  2  0  0  0  0
 14 41  1  0  0  0  0
 15 16  1  0  0  0  0
 16 23  2  0  0  0  0
 16 17  1  0  0  0  0
 17 18  2  0  0  0  0
 17 19  1  0  0  0  0
 19 25  1  0  0  0  0
 19 20  1  0  0  0  0
 20 21  1  0  0  0  0
 20 22  2  0  0  0  0
 21 42  1  0  0  0  0
 21 43  1  0  0  0  0
 22 23  1  0  0  0  0
M  END
> <s_m_source_file>
AV-unprocessed.smi

> <i_m_source_file_index>
50

> <i_lp_mmshare_version>
43012

> <i_f3d_flags>
0

> <s_epik_input>
W0NIM11bQ0hdKFtDSDNdKVtDQEhdKFtOSDJdKUMoPU8pT1tDSDJdW0NIMl1PW0NIMl1uKFtjSF1uMSljKGMxMiluYyhbTkgyXSlbbkhdYzI9Tw==

> <s_epik_cmdline>
J2VwaWtfcHl0aG9uJywgJy1waCcsICc3LjAnLCAnLXRuJywgJzgnLCAnLW1hJywgJzIwMCcsICctbWV0YWxfYmluZGluZycsICctaW1hZScsICc8aW5maWxlLm1hZT4nLCAnLW9tYWUnLCAnPG91dGZpbGUubWFlPic=

> <r_lp_tautomer_probability>
0.99994

> <r_epik_Ionization_Penalty>
0.704142

> <r_epik_Ionization_Penalty_Charging>
0.00148332

> <r_epik_Ionization_Penalty_Neutral>
0.702658

> <r_epik_State_Penalty>
0.725442

> <r_epik_Charging_Adjusted_Penalty>
0.726926

> <i_epik_Tot_Q>
0

> <i_epik_Tot_abs_Q>
0

> <r_epik_Metal_State_Penalty>
1.04557

> <b_epik_Metal_Only>
0

> <s_epik_Chemistry_Notes>
This compound has an ester and may undergo hydrolysis at high or low pH. This compound contains an acetal/aminal-like group ( X-CH(R)-Y where X, Y are N, S, or O) that may be acid/base labile, releasing an aldehyde.

> <s_lp_Force_Field>
OPLS_2005

> <r_lp_Energy>
11.3413

> <b_lp_Chiralities_Consistent>
1

> <s_lp_Variant>
AV-unprocessed.smi:50-3

> <Gold.Version>
5.8.1

> <Gold.Id.Protein>
6NUR|6NUR_protein|mol2

> <Gold.PLP.Fitness>
41.2239

> <Gold.PLP.PLP>
-32.9663

> <Gold.PLP.part.hbond>
-6.0000

> <Gold.PLP.part.metal>
0.0000

> <Gold.PLP.part.buried>
-1.8824

> <Gold.PLP.part.nonpolar>
-28.0079

> <Gold.PLP.part.repulsive>
4.5750

> <Gold.PLP.ligand.clash>
0.0000

> <Gold.PLP.ligand.torsion>
1.3460

> <Gold.PLP.Chemscore.Hbond>
3.3997

> <Gold.PLP.Chemscore.CHOScore>
0.0000

> <Gold.PLP.Chemscore.Metal>
0.0000

> <Gold.Chemscore.Hbonds>
donor molecule, donor type, donor heavy atom, donor atom, acceptor molecule, acceptor atom, score
      L1  H     5    34       P1  8028  1.00
      L1  H    21    43       P1 10175  0.47
      P1  H  7989  7998       L1     7  0.90
      P1  H 11000 11005       L1    18  0.68

> <Gold.PLP.Chemscore.Internal.Correction>
0.7506

> <Gold.Rescore>
     Score         DG    S(hbond)    S(metal)    S(lipo)     H(rot)  DE(clash)    DE(int)     intcor
      4.55      -7.52       2.85        0.00      40.07       4.75       1.67       1.30       ----

> <Gold.Chemscore.Fitness>
4.5537

> <Gold.Chemscore.DG>
-7.5229

> <Gold.Chemscore.ZeroCoef>
-5.4800

> <Gold.Chemscore.Hbond>
2.8488

> <Gold.Chemscore.Metal>
0.0000

> <Gold.Chemscore.Lipo>
40.0699

> <Gold.Chemscore.Internal_Hbond>
0.0000

> <Gold.Chemscore.DEClash>
1.6697

> <Gold.Chemscore.DEInternal>
1.2995

> <Gold.Chemscore.Rot>
4.7501

> <Gold.Chemscore.Internal.Correction>
   9.000000E+99

> <Gold.Chemscore.Hbonds>
donor molecule, donor type, donor heavy atom, donor atom, acceptor molecule, acceptor atom, score
      L1  H     5    34       P1  8028  0.98
      L1  H    21    43       P1 10175  0.08
      P1  H  7989  7998       L1     7  0.18
      P1  H 10995 11001       L1    18  0.02
      P1  H 11000 11005       L1    18  0.66

> <Gold.Chemscore.Hbond.Weighted>
-9.5150

> <Gold.Chemscore.Metal.Weighted>
-0.0000

> <Gold.Chemscore.Lipo.Weighted>
-4.6882

> <Gold.Chemscore.Internal_Hbond.Weighted>
0.0000

> <Gold.Chemscore.DEClash.Weighted>
1.6697

> <Gold.Chemscore.DEInternal.Weighted>
1.2995

> <Gold.Chemscore.Rot.Weighted>
12.1603

> <Gold.Chemscore.Internal.Correction.Weighted>
   9.000000E+99

> <Gold.Protein.RotatedTorsions>
[ 6907 6896 6895 6894 ] final -169.33 input  -60.11 | X-H torsion
[ 7974 7965 7964 7962 ] final  -21.01 input  175.53 | X-H torsion
[ 8008 7997 7996 7995 ] final -111.40 input   59.86 | X-H torsion
[ 10167 10162 10161 10158 ] final -171.91 input  -65.29 | X-H torsion
[ 10718 10713 10712 10709 ] final   48.89 input   66.30 | X-H torsion
[ 10763 10752 10751 10750 ] final  -18.56 input  -60.55 | X-H torsion
[ 11005 11000 10999 10996 ] final    2.16 input  -57.11 | X-H torsion

> <Gold.Protein.ActiveResidues>
 VAL166  LYS551  ARG553  GLY616  TRP617  ASP618  TYR619  PRO620  LYS621  CYS622 
 ASP623  PHE694  ASN695  SER759  ASP760  ASP761  ALA762  ILE779  LEU786  VAL792 
 PHE793  MET794  SER795  GLU796  ALA797  LYS798  CYS799  TRP800  GLU811  SER814 

> <Gold.Protein.RotatedAtoms>
  151.4898  133.3527  159.2851 H   0  0  0  0  0  0  0  0  0  0  0  0  # atno 6907 bound_to 6896
  150.8842  134.8239  159.7258 H   0  0  0  0  0  0  0  0  0  0  0  0  # atno 6908 bound_to 6896
  152.4782  134.4800  159.9714 H   0  0  0  0  0  0  0  0  0  0  0  0  # atno 6909 bound_to 6896
  146.1757  140.4282  142.8514 H   0  0  0  0  0  0  0  0  0  0  0  0  # atno 7974 bound_to 7965
  154.9892  140.0395  157.2312 H   0  0  0  0  0  0  0  0  0  0  0  0  # atno 8008 bound_to 7997
  154.7644  140.2790  155.6165 H   0  0  0  0  0  0  0  0  0  0  0  0  # atno 8009 bound_to 7997
  156.2910  140.2622  156.2430 H   0  0  0  0  0  0  0  0  0  0  0  0  # atno 8010 bound_to 7997
  139.5775  144.1500  152.1470 H   0  0  0  0  0  0  0  0  0  0  0  0  # atno 10167 bound_to 10162
  157.4732  130.8269  149.8011 H   0  0  0  0  0  0  0  0  0  0  0  0  # atno 10718 bound_to 10713
  153.5912  135.7002  153.5422 H   0  0  0  0  0  0  0  0  0  0  0  0  # atno 10763 bound_to 10752
  153.3177  135.4083  155.1390 H   0  0  0  0  0  0  0  0  0  0  0  0  # atno 10764 bound_to 10752
  154.8600  135.3688  154.5443 H   0  0  0  0  0  0  0  0  0  0  0  0  # atno 10765 bound_to 10752
  140.6074  133.9780  155.8161 H   0  0  0  0  0  0  0  0  0  0  0  0  # atno 11005 bound_to 11000
  144.8232  140.6584  143.6339 LP  0  0  0  0  0  0  0  0  0  0  0  0  # atno 17320 bound_to 7965
  145.4219  139.1562  143.4069 LP  0  0  0  0  0  0  0  0  0  0  0  0  # atno 17321 bound_to 7965
  140.1045  144.5510  150.6966 LP  0  0  0  0  0  0  0  0  0  0  0  0  # atno 17342 bound_to 10162
  140.7056  143.2466  151.4736 LP  0  0  0  0  0  0  0  0  0  0  0  0  # atno 17343 bound_to 10162
  156.0084  130.3844  150.2350 LP  0  0  0  0  0  0  0  0  0  0  0  0  # atno 17370 bound_to 10713
  157.0533  131.0069  151.3246 LP  0  0  0  0  0  0  0  0  0  0  0  0  # atno 17371 bound_to 10713
  141.0831  134.0031  157.3355 LP  0  0  0  0  0  0  0  0  0  0  0  0  # atno 17394 bound_to 11000
  139.9207  135.0200  156.8051 LP  0  0  0  0  0  0  0  0  0  0  0  0  # atno 17395 bound_to 11000

$$$$
