#       Name:                AV-unprocessed.smi:2061
#       Creating user name   scv26
#       Creation time:       Fri Mar 27 11:03:17 2020


#       File generated by GOLD software.
#

@<TRIPOS>MOLECULE
AV-unprocessed.smi:2061
    53    54     1
SMALL
NO_CHARGES


@<TRIPOS>ATOM
      1 ****        -4.7960   6.7597  -2.3286 C.3            1 S1                 0.0000
      2 ****        -4.1690   5.4337  -2.0652 C.2            1 S1                 0.0000
      3 ****        -3.4212   4.9462  -1.0302 C.2            1 S1                 0.0000
      4 ****        -3.1546   3.6095  -1.4299 C.2            1 S1                 0.0000
      5 ****        -2.3867   2.7434  -0.6099 N.am           1 S1                 0.0000
      6 ****        -2.0455   1.4677  -0.8606 C.2            1 S1                 0.0000
      7 ****        -2.3550   0.8391  -1.8731 O.2            1 S1                 0.0000
      8 ****        -1.3108   0.9550   0.1383 N.am           1 S1                 0.0000
      9 ****        -0.7729  -0.4034   0.1862 C.3            1 S1                 0.0000
     10 ****         0.7818  -0.4447   0.1952 C.3            1 S1                 0.0000
     11 ****         1.3179   0.3228  -1.0404 C.3            1 S1                 0.0000
     12 ****         1.3246  -1.8205   0.2957 N.3            1 S1                 0.0000
     13 ****         0.8522  -2.5328   1.4882 C.3            1 S1                 0.0000
     14 ****         1.4297  -3.9566   1.6075 C.3            1 S1                 0.0000
     15 ****         0.9930  -4.6525   2.9009 C.3            1 S1                 0.0000
     16 ****         2.8499  -3.8885   1.5981 O.3            1 S1                 0.0000
     17 ****         3.3597  -3.2789   0.4194 C.3            1 S1                 0.0000
     18 ****         4.8902  -3.2901   0.4950 C.3            1 S1                 0.0000
     19 ****         2.7912  -1.8519   0.3040 C.3            1 S1                 0.0000
     20 ****        -3.6918   3.3084  -2.6022 N.2            1 S1                 0.0000
     21 ****        -4.3446   4.4757  -3.0152 O.3            1 S1                 0.0000
     22 ****        -4.5620   7.4668  -1.5327 H              1 S1                 0.0000
     23 ****        -5.8804   6.6684  -2.3915 H              1 S1                 0.0000
     24 ****        -4.4362   7.1775  -3.2690 H              1 S1                 0.0000
     25 ****        -3.1152   5.4649  -0.1338 H              1 S1                 0.0000
     26 ****        -2.0618   3.1383   0.2598 H              1 S1                 0.0000
     27 ****        -1.1053   1.5486   0.9284 H              1 S1                 0.0000
     28 ****        -1.1836  -0.8267   1.1009 H              1 S1                 0.0000
     29 ****        -1.1548  -1.0156  -0.6325 H              1 S1                 0.0000
     30 ****         1.1086   0.1092   1.0767 H              1 S1                 0.0000
     31 ****         0.8959   1.3233  -1.1237 H              1 S1                 0.0000
     32 ****         1.0879  -0.2084  -1.9645 H              1 S1                 0.0000
     33 ****         2.3949   0.4786  -0.9988 H              1 S1                 0.0000
     34 ****         1.1045  -1.9606   2.3824 H              1 S1                 0.0000
     35 ****        -0.2310  -2.6335   1.4706 H              1 S1                 0.0000
     36 ****         1.0975  -4.5571   0.7587 H              1 S1                 0.0000
     37 ****        -0.0923  -4.7441   2.9502 H              1 S1                 0.0000
     38 ****         1.3228  -4.0966   3.7791 H              1 S1                 0.0000
     39 ****         1.4140  -5.6562   2.9641 H              1 S1                 0.0000
     40 ****         3.0500  -3.8665  -0.4468 H              1 S1                 0.0000
     41 ****         5.3301  -2.8421  -0.3964 H              1 S1                 0.0000
     42 ****         5.2688  -4.3093   0.5750 H              1 S1                 0.0000
     43 ****         5.2475  -2.7329   1.3613 H              1 S1                 0.0000
     44 ****         3.1880  -1.4273  -0.6160 H              1 S1                 0.0000
     45 ****         3.1681  -1.2400   1.1251 H              1 S1                 0.0000
     46 ****        -2.9018   1.2777  -2.5863 LP             1 S1                 0.0000
     47 ****        -2.0595  -0.1100  -1.9822 LP             1 S1                 0.0000
     48 ****         0.9842  -2.2806  -0.5243 LP             1 S1                 0.0000
     49 ****         3.2156  -4.8170   1.6624 LP             1 S1                 0.0000
     50 ****         3.1504  -3.3564   2.3896 LP             1 S1                 0.0000
     51 ****        -3.6418   2.4355  -3.0876 LP             1 S1                 0.0000
     52 ****        -3.9585   4.7879  -3.8832 LP             1 S1                 0.0000
     53 ****        -5.3207   4.2921  -3.1314 LP             1 S1                 0.0000
@<TRIPOS>BOND
    1    1    2 1     
    2    1   22 1     
    3    1   23 1     
    4    1   24 1     
    5    2   21 1     
    6    2    3 2     
    7    3    4 1     
    8    3   25 1     
    9    4    5 1     
   10    4   20 2     
   11    5    6 am    
   12    5   26 1     
   13    6    7 2     
   14    6    8 am    
   15    8    9 1     
   16    8   27 1     
   17    9   10 1     
   18    9   28 1     
   19    9   29 1     
   20   10   11 1     
   21   10   12 1     
   22   10   30 1     
   23   11   31 1     
   24   11   32 1     
   25   11   33 1     
   26   12   19 1     
   27   12   13 1     
   28   13   14 1     
   29   13   34 1     
   30   13   35 1     
   31   14   15 1     
   32   14   16 1     
   33   14   36 1     
   34   15   37 1     
   35   15   38 1     
   36   15   39 1     
   37   16   17 1     
   38   17   18 1     
   39   17   19 1     
   40   17   40 1     
   41   18   41 1     
   42   18   42 1     
   43   18   43 1     
   44   19   44 1     
   45   19   45 1     
   46   20   21 1     
   47    7   46 1     
   48    7   47 1     
   49   12   48 1     
   50   16   49 1     
   51   16   50 1     
   52   20   51 1     
   53   21   52 1     
   54   21   53 1     
@<TRIPOS>SUBSTRUCTURE
      1 S1             1
@<TRIPOS>SET
LONE_PAIRS      STATIC     ATOMS    <user>   **** ""
8 46 47 48 49 50 51 52 53
DONOR_HYDROGENS      STATIC     ATOMS    <user>   **** ""
2 26 27
ATOM$BLUE        STATIC     ATOMS    COLORGROUP SYSTEM
8 46 47 48 49 50 51 52 53
ATOM$RED        STATIC     ATOMS    COLORGROUP SYSTEM
2 26 27
