AV-unprocessed.smi:1136|AV-procd|sdf|4862|dock6
  -GOLD-   22720 3433D 1   1.00000     0.00000
 Structure written by MMmdl.
 42 43  0  0  0  0  0  0  0  0  1 V2000
  154.2251  141.4041  161.4754 C   0  0  0  0  0  0  0  0  0  0  0  0
  153.3783  142.4261  160.7762 C   0  0  0  0  0  0  0  0  0  0  0  0
  152.6389  143.4997  161.3468 C   0  0  0  0  0  0  0  0  0  0  0  0
  152.0540  144.1141  160.2755 C   0  0  0  0  0  0  0  0  0  0  0  0
  151.1533  145.3043  160.2209 C   0  0  0  0  0  0  0  0  0  0  0  0
  152.4468  143.4146  159.1478 N   0  0  0  0  0  0  0  0  0  0  0  0
  152.1015  143.6494  157.7524 C   0  0  0  0  0  0  0  0  0  0  0  0
  151.5538  142.3909  157.0717 C   0  0  0  0  0  0  0  0  0  0  0  0
  152.1935  141.3408  157.1225 O   0  0  0  0  0  0  0  0  0  0  0  0
  150.3691  142.5029  156.4493 N   0  0  0  0  0  0  0  0  0  0  0  0
  149.6721  141.4251  155.7515 C   0  0  0  0  0  0  0  0  0  0  0  0
  149.1271  141.8399  154.3717 C   0  0  0  0  0  0  0  0  0  0  0  0
  149.9172  142.2090  153.5004 O   0  0  0  0  0  0  0  0  0  0  0  0
  147.7911  141.7747  154.1513 N   0  0  0  0  0  0  0  0  0  0  0  0
  147.1095  142.1758  152.9127 C   0  0  0  0  0  0  0  0  0  0  0  0
  146.3295  143.4764  153.1775 C   0  0  0  0  0  0  0  0  0  0  0  0
  145.3438  143.2971  154.3482 C   0  0  0  0  0  0  0  0  0  0  0  0
  146.0314  142.6853  155.5841 C   0  0  0  0  0  0  0  0  0  0  0  0
  146.8298  141.4239  155.2050 C   0  0  0  0  0  0  0  0  0  0  0  0
  153.2592  142.3807  159.4596 N   0  0  0  0  0  0  0  0  0  0  0  0
  154.3016  141.6179  162.5417 H   0  0  0  0  0  0  0  0  0  0  0  0
  155.2365  141.3861  161.0684 H   0  0  0  0  0  0  0  0  0  0  0  0
  153.8032  140.4048  161.3665 H   0  0  0  0  0  0  0  0  0  0  0  0
  152.5511  143.7763  162.3871 H   0  0  0  0  0  0  0  0  0  0  0  0
  150.9395  145.6769  161.2228 H   0  0  0  0  0  0  0  0  0  0  0  0
  150.2031  145.0539  159.7491 H   0  0  0  0  0  0  0  0  0  0  0  0
  151.6126  146.1132  159.6526 H   0  0  0  0  0  0  0  0  0  0  0  0
  151.3639  144.4515  157.7049 H   0  0  0  0  0  0  0  0  0  0  0  0
  152.9828  143.9966  157.2107 H   0  0  0  0  0  0  0  0  0  0  0  0
  149.9127  143.4036  156.4662 H   0  0  0  0  0  0  0  0  0  0  0  0
  150.3842  140.6099  155.6216 H   0  0  0  0  0  0  0  0  0  0  0  0
  148.8578  141.0454  156.3709 H   0  0  0  0  0  0  0  0  0  0  0  0
  147.7787  142.3109  152.0648 H   0  0  0  0  0  0  0  0  0  0  0  0
  146.4212  141.3848  152.6116 H   0  0  0  0  0  0  0  0  0  0  0  0
  147.0301  144.2805  153.4078 H   0  0  0  0  0  0  0  0  0  0  0  0
  145.7910  143.7813  152.2799 H   0  0  0  0  0  0  0  0  0  0  0  0
  144.8847  144.2520  154.6050 H   0  0  0  0  0  0  0  0  0  0  0  0
  144.5324  142.6405  154.0316 H   0  0  0  0  0  0  0  0  0  0  0  0
  146.7045  143.4200  156.0283 H   0  0  0  0  0  0  0  0  0  0  0  0
  145.2883  142.4461  156.3451 H   0  0  0  0  0  0  0  0  0  0  0  0
  146.1562  140.6482  154.8379 H   0  0  0  0  0  0  0  0  0  0  0  0
  147.3058  141.0058  156.0928 H   0  0  0  0  0  0  0  0  0  0  0  0
  1  2  1  0  0  0  0
  1 21  1  0  0  0  0
  1 22  1  0  0  0  0
  1 23  1  0  0  0  0
  2 20  2  0  0  0  0
  2  3  1  0  0  0  0
  3  4  2  0  0  0  0
  3 24  1  0  0  0  0
  4  5  1  0  0  0  0
  4  6  1  0  0  0  0
  5 25  1  0  0  0  0
  5 26  1  0  0  0  0
  5 27  1  0  0  0  0
  6  7  1  0  0  0  0
  6 20  1  0  0  0  0
  7  8  1  0  0  0  0
  7 28  1  0  0  0  0
  7 29  1  0  0  0  0
  8  9  2  0  0  0  0
  8 10  1  0  0  0  0
 10 11  1  0  0  0  0
 10 30  1  0  0  0  0
 11 12  1  0  0  0  0
 11 31  1  0  0  0  0
 11 32  1  0  0  0  0
 12 13  2  0  0  0  0
 12 14  1  0  0  0  0
 14 19  1  0  0  0  0
 14 15  1  0  0  0  0
 15 16  1  0  0  0  0
 15 33  1  0  0  0  0
 15 34  1  0  0  0  0
 16 17  1  0  0  0  0
 16 35  1  0  0  0  0
 16 36  1  0  0  0  0
 17 18  1  0  0  0  0
 17 37  1  0  0  0  0
 17 38  1  0  0  0  0
 18 19  1  0  0  0  0
 18 39  1  0  0  0  0
 18 40  1  0  0  0  0
 19 41  1  0  0  0  0
 19 42  1  0  0  0  0
M  END
> <s_m_source_file>
AV-unprocessed.smi

> <i_m_source_file_index>
1136

> <i_lp_mmshare_version>
43012

> <i_f3d_flags>
0

> <s_epik_input>
W0NIM11jMVtjSF1jKFtDSDNdKW4objEpW0NIMl1DKD1PKVtOSF1bQ0gyXUMoPU8pTjJbQ0gyXVtDSDJdW0NIMl1bQ0gyXVtDSDJdMg==

> <s_epik_cmdline>
J2VwaWtfcHl0aG9uJywgJy1waCcsICc3LjAnLCAnLXRuJywgJzgnLCAnLW1hJywgJzIwMCcsICctbWV0YWxfYmluZGluZycsICctaW1hZScsICc8aW5maWxlLm1hZT4nLCAnLW9tYWUnLCAnPG91dGZpbGUubWFlPic=

> <r_lp_tautomer_probability>
1

> <r_epik_Ionization_Penalty>
0.000263643

> <r_epik_Ionization_Penalty_Charging>
0

> <r_epik_Ionization_Penalty_Neutral>
0.000263643

> <r_epik_State_Penalty>
-0

> <r_epik_Charging_Adjusted_Penalty>
0

> <i_epik_Tot_Q>
0

> <i_epik_Tot_abs_Q>
0

> <r_epik_Metal_State_Penalty>
-0

> <b_epik_Metal_Only>
0

> <s_lp_Force_Field>
OPLS_2005

> <r_lp_Energy>
19.7074

> <b_lp_Chiralities_Consistent>
1

> <s_lp_Variant>
AV-unprocessed.smi:1136-1

> <Gold.Version>
5.8.1

> <Gold.Id.Protein>
6NUR|6NUR_protein|mol2

> <Gold.PLP.Fitness>
53.1551

> <Gold.PLP.PLP>
-48.7537

> <Gold.PLP.part.hbond>
-2.9793

> <Gold.PLP.part.metal>
0.0000

> <Gold.PLP.part.buried>
-6.5705

> <Gold.PLP.part.nonpolar>
-38.1212

> <Gold.PLP.part.repulsive>
0.2343

> <Gold.PLP.ligand.clash>
0.0000

> <Gold.PLP.ligand.torsion>
0.1997

> <Gold.PLP.Chemscore.Hbond>
1.5920

> <Gold.PLP.Chemscore.CHOScore>
0.0000

> <Gold.PLP.Chemscore.Metal>
0.0000

> <Gold.Chemscore.Hbonds>
donor molecule, donor type, donor heavy atom, donor atom, acceptor molecule, acceptor atom, score
      L1  H    10    30       P1  8028  1.00
      P1  H  8011  8017       L1    13  0.03

> <Gold.PLP.Chemscore.Internal.Correction>
0.0248

> <Gold.Rescore>
     Score         DG    S(hbond)    S(metal)    S(lipo)     H(rot)  DE(clash)    DE(int)     intcor
     16.69     -18.54       1.65        0.00      99.78       1.61       0.20       1.65       ----

> <Gold.Chemscore.Fitness>
16.6873

> <Gold.Chemscore.DG>
-18.5357

> <Gold.Chemscore.ZeroCoef>
-5.4800

> <Gold.Chemscore.Hbond>
1.6501

> <Gold.Chemscore.Metal>
0.0000

> <Gold.Chemscore.Lipo>
99.7820

> <Gold.Chemscore.Internal_Hbond>
0.0000

> <Gold.Chemscore.DEClash>
0.2003

> <Gold.Chemscore.DEInternal>
1.6480

> <Gold.Chemscore.Rot>
1.6134

> <Gold.Chemscore.Internal.Correction>
   9.000000E+99

> <Gold.Chemscore.Hbonds>
donor molecule, donor type, donor heavy atom, donor atom, acceptor molecule, acceptor atom, score
      L1  H    10    30       P1  8028  0.96
      P1  H  8011  8017       L1    13  0.04

> <Gold.Chemscore.Hbond.Weighted>
-5.5115

> <Gold.Chemscore.Metal.Weighted>
-0.0000

> <Gold.Chemscore.Lipo.Weighted>
-11.6745

> <Gold.Chemscore.Internal_Hbond.Weighted>
0.0000

> <Gold.Chemscore.DEClash.Weighted>
0.2003

> <Gold.Chemscore.DEInternal.Weighted>
1.6480

> <Gold.Chemscore.Rot.Weighted>
4.1303

> <Gold.Chemscore.Internal.Correction.Weighted>
   9.000000E+99

> <Gold.Protein.RotatedTorsions>
[ 6907 6896 6895 6894 ] final  106.98 input  -60.11 | X-H torsion
[ 7974 7965 7964 7962 ] final -107.52 input  175.53 | X-H torsion
[ 8008 7997 7996 7995 ] final  -72.15 input   59.86 | X-H torsion
[ 10167 10162 10161 10158 ] final  -61.64 input  -65.29 | X-H torsion
[ 10718 10713 10712 10709 ] final  -33.79 input   66.30 | X-H torsion
[ 10763 10752 10751 10750 ] final   77.16 input  -60.55 | X-H torsion
[ 11005 11000 10999 10996 ] final   68.96 input  -57.11 | X-H torsion

> <Gold.Protein.ActiveResidues>
 VAL166  LYS551  ARG553  GLY616  TRP617  ASP618  TYR619  PRO620  LYS621  CYS622 
 ASP623  PHE694  ASN695  SER759  ASP760  ASP761  ALA762  ILE779  LEU786  VAL792 
 PHE793  MET794  SER795  GLU796  ALA797  LYS798  CYS799  TRP800  GLU811  SER814 

> <Gold.Protein.RotatedAtoms>
  152.5172  133.9302  159.7576 H   0  0  0  0  0  0  0  0  0  0  0  0  # atno 6907 bound_to 6896
  150.9654  133.6392  159.2754 H   0  0  0  0  0  0  0  0  0  0  0  0  # atno 6908 bound_to 6896
  151.3622  135.0912  159.9491 H   0  0  0  0  0  0  0  0  0  0  0  0  # atno 6909 bound_to 6896
  145.2043  140.9069  143.3351 H   0  0  0  0  0  0  0  0  0  0  0  0  # atno 7974 bound_to 7965
  154.5144  140.0802  156.8052 H   0  0  0  0  0  0  0  0  0  0  0  0  # atno 8008 bound_to 7997
  155.3714  140.3423  155.4225 H   0  0  0  0  0  0  0  0  0  0  0  0  # atno 8009 bound_to 7997
  156.1610  140.1588  156.8599 H   0  0  0  0  0  0  0  0  0  0  0  0  # atno 8010 bound_to 7997
  140.5992  143.2357  151.5967 H   0  0  0  0  0  0  0  0  0  0  0  0  # atno 10167 bound_to 10162
  156.3583  130.4319  149.7645 H   0  0  0  0  0  0  0  0  0  0  0  0  # atno 10718 bound_to 10713
  153.0778  135.4924  154.8440 H   0  0  0  0  0  0  0  0  0  0  0  0  # atno 10763 bound_to 10752
  154.7110  135.3020  154.9199 H   0  0  0  0  0  0  0  0  0  0  0  0  # atno 10764 bound_to 10752
  153.9892  135.6780  153.4806 H   0  0  0  0  0  0  0  0  0  0  0  0  # atno 10765 bound_to 10752
  139.9681  134.6946  156.0503 H   0  0  0  0  0  0  0  0  0  0  0  0  # atno 11005 bound_to 11000
  144.9917  139.3683  143.6211 LP  0  0  0  0  0  0  0  0  0  0  0  0  # atno 17320 bound_to 7965
  146.3411  139.9103  142.8781 LP  0  0  0  0  0  0  0  0  0  0  0  0  # atno 17321 bound_to 7965
  139.5279  144.3003  152.1079 LP  0  0  0  0  0  0  0  0  0  0  0  0  # atno 17342 bound_to 10162
  140.2181  144.4494  150.6354 LP  0  0  0  0  0  0  0  0  0  0  0  0  # atno 17343 bound_to 10162
  156.4818  130.8045  151.3058 LP  0  0  0  0  0  0  0  0  0  0  0  0  # atno 17370 bound_to 10713
  157.7470  131.0003  150.2921 LP  0  0  0  0  0  0  0  0  0  0  0  0  # atno 17371 bound_to 10713
  141.1361  133.6575  156.3597 LP  0  0  0  0  0  0  0  0  0  0  0  0  # atno 17394 bound_to 11000
  140.5352  134.6173  157.5363 LP  0  0  0  0  0  0  0  0  0  0  0  0  # atno 17395 bound_to 11000

$$$$
