#       Name:                AV-unprocessed.smi:3141
#       Creating user name   scv26
#       Creation time:       Fri Mar 27 17:36:28 2020


#       File generated by GOLD software.
#

@<TRIPOS>MOLECULE
AV-unprocessed.smi:3141
    38    40     1
SMALL
NO_CHARGES


@<TRIPOS>ATOM
      1 ****        -0.4057   2.1026   0.3115 O.2            1 S1                 0.0000
      2 ****        -0.6212   1.0001   0.8155 C.2            1 S1                 0.0000
      3 ****        -1.8279   0.5738   1.2096 N.am           1 S1                 0.0000
      4 ****        -3.0417   1.3165   1.1019 C.3            1 S1                 0.0000
      5 ****        -4.0832   1.1228   2.1823 C.3            1 S1                 0.0000
      6 ****        -4.3116   0.5463   0.8125 C.3            1 S1                 0.0000
      7 ****         0.3238   0.0700   1.0159 N.am           1 S1                 0.0000
      8 ****         1.7461   0.2191   0.6984 C.3            1 S1                 0.0000
      9 ****         2.5892  -0.6080   1.6915 C.3            1 S1                 0.0000
     10 ****         3.2173  -1.7643   0.8967 C.3            1 S1                 0.0000
     11 ****         2.4661  -1.8106  -0.4334 C.3            1 S1                 0.0000
     12 ****         2.1210  -0.3418  -0.6919 C.3            1 S1                 0.0000
     13 ****         1.1369  -0.1020  -1.7637 N.pl3          1 S1                 0.0000
     14 ****         0.1183  -0.9171  -2.1964 C.2            1 S1                 0.0000
     15 ****        -0.5459  -0.2290  -3.1786 C.2            1 S1                 0.0000
     16 ****         0.0851   0.9788  -3.3001 N.pl3          1 S1                 1.0000
     17 ****         1.1035   1.0555  -2.4381 C.2            1 S1                 0.0000
     18 ****        -1.8974  -0.3492   1.6129 H              1 S1                 0.0000
     19 ****        -2.9806   2.3151   0.6716 H              1 S1                 0.0000
     20 ****        -3.8586   0.4270   2.9885 H              1 S1                 0.0000
     21 ****        -4.6758   1.9896   2.4679 H              1 S1                 0.0000
     22 ****        -5.0575   1.0277   0.1833 H              1 S1                 0.0000
     23 ****        -4.2397  -0.5343   0.7050 H              1 S1                 0.0000
     24 ****         0.0437  -0.8055   1.4338 H              1 S1                 0.0000
     25 ****         2.0260   1.2722   0.7655 H              1 S1                 0.0000
     26 ****         3.3707   0.0048   2.1426 H              1 S1                 0.0000
     27 ****         1.9816  -0.9935   2.5123 H              1 S1                 0.0000
     28 ****         4.2707  -1.5489   0.7125 H              1 S1                 0.0000
     29 ****         3.1667  -2.7127   1.4324 H              1 S1                 0.0000
     30 ****         3.0592  -2.2530  -1.2342 H              1 S1                 0.0000
     31 ****         1.5642  -2.4104  -0.3095 H              1 S1                 0.0000
     32 ****         3.0439   0.1488  -1.0081 H              1 S1                 0.0000
     33 ****        -0.0642  -1.8989  -1.7857 H              1 S1                 0.0000
     34 ****        -1.4024  -0.4985  -3.7793 H              1 S1                 0.0000
     35 ****         1.7634   1.8941  -2.3041 H              1 S1                 0.0000
     36 ****        -0.1838   1.7142  -3.9417 H              1 S1                 0.0000
     37 ****        -1.1593   2.7452   0.1737 LP             1 S1                 0.0000
     38 ****         0.5230   2.3553   0.0400 LP             1 S1                 0.0000
@<TRIPOS>BOND
    1    1    2 2     
    2    2    3 am    
    3    2    7 am    
    4    3    4 1     
    5    3   18 1     
    6    4    6 1     
    7    4    5 1     
    8    4   19 1     
    9    5    6 1     
   10    5   20 1     
   11    5   21 1     
   12    6   22 1     
   13    6   23 1     
   14    7    8 1     
   15    7   24 1     
   16    8   12 1     
   17    8    9 1     
   18    8   25 1     
   19    9   10 1     
   20    9   26 1     
   21    9   27 1     
   22   10   11 1     
   23   10   28 1     
   24   10   29 1     
   25   11   12 1     
   26   11   30 1     
   27   11   31 1     
   28   12   13 1     
   29   12   32 1     
   30   13   17 1     
   31   13   14 1     
   32   14   15 2     
   33   14   33 1     
   34   15   16 1     
   35   15   34 1     
   36   16   17 2     
   37   16   36 1     
   38   17   35 1     
   39    1   37 1     
   40    1   38 1     
@<TRIPOS>SUBSTRUCTURE
      1 S1             1
@<TRIPOS>SET
LONE_PAIRS      STATIC     ATOMS    <user>   **** ""
2 37 38
DONOR_HYDROGENS      STATIC     ATOMS    <user>   **** ""
3 18 24 36
ATOM$BLUE        STATIC     ATOMS    COLORGROUP SYSTEM
2 37 38
ATOM$RED        STATIC     ATOMS    COLORGROUP SYSTEM
3 18 24 36
