#       Name:                AV-unprocessed.smi:69
#       Creating user name   scv26
#       Creation time:       Thu Mar 26 16:53:55 2020


#       File generated by GOLD software.
#

@<TRIPOS>MOLECULE
AV-unprocessed.smi:69
    43    45     1
SMALL
NO_CHARGES


@<TRIPOS>ATOM
      1 ****        -5.1814   0.8285   0.2300 N.pl3          1 S1                 0.0000
      2 ****        -3.9401   1.3186   0.1086 C.ar           1 S1                 0.0000
      3 ****        -3.7907   2.6080  -0.2772 N.ar           1 S1                 0.0000
      4 ****        -2.5614   3.1191  -0.4067 C.ar           1 S1                 0.0000
      5 ****        -1.3820   2.5240  -0.2042 N.ar           1 S1                 0.0000
      6 ****        -1.5389   1.2253   0.1863 C.ar           1 S1                 0.0000
      7 ****        -2.7768   0.5498   0.3642 C.ar           1 S1                 0.0000
      8 ****        -2.5462  -0.7604   0.7619 N.2            1 S1                 0.0000
      9 ****        -1.2434  -0.8497   0.8124 C.2            1 S1                 0.0000
     10 ****        -0.5597   0.3013   0.4775 N.pl3          1 S1                 0.0000
     11 ****         0.9181   0.5525   0.4310 C.3            1 S1                 0.0000
     12 ****         1.5584  -0.4543   1.1571 O.3            1 S1                 0.0000
     13 ****         2.1374  -1.3996   0.2639 C.3            1 S1                 0.0000
     14 ****         3.2514  -2.1780   0.9795 C.3            1 S1                 0.0000
     15 ****         2.6924  -3.2369   1.7270 O.3            1 S1                 0.0000
     16 ****         2.6395  -0.4818  -0.8503 C.3            1 S1                 0.0000
     17 ****         2.9596  -1.1780  -2.0407 O.3            1 S1                 0.0000
     18 ****         1.4852   0.5052  -1.0091 C.3            1 S1                 0.0000
     19 ****         0.5447   0.0790  -1.9848 O.3            1 S1                 0.0000
     20 ****         1.0527   1.5141   0.9280 H              1 S1                 0.0000
     21 ****         1.3704  -2.0716  -0.1265 H              1 S1                 0.0000
     22 ****         3.5246   0.0562  -0.5071 H              1 S1                 0.0000
     23 ****         1.8472   1.4948  -1.2899 H              1 S1                 0.0000
     24 ****        -5.3153  -0.1308   0.5157 H              1 S1                 0.0000
     25 ****        -5.9782   1.4182   0.0374 H              1 S1                 0.0000
     26 ****        -2.5166   4.1525  -0.7174 H              1 S1                 0.0000
     27 ****        -0.7483  -1.7660   1.0987 H              1 S1                 0.0000
     28 ****         3.9328  -2.6168   0.2500 H              1 S1                 0.0000
     29 ****         3.8419  -1.5266   1.6246 H              1 S1                 0.0000
     30 ****         3.3941  -3.7151   2.1416 H              1 S1                 0.0000
     31 ****         3.1261  -0.5451  -2.7224 H              1 S1                 0.0000
     32 ****        -0.1981   0.6629  -1.9581 H              1 S1                 0.0000
     33 ****        -4.5936   3.1741  -0.4640 LP             1 S1                 0.0000
     34 ****        -0.4966   2.9732  -0.3237 LP             1 S1                 0.0000
     35 ****        -3.2206  -1.4708   0.9630 LP             1 S1                 0.0000
     36 ****         0.8923  -0.9159   1.7429 LP             1 S1                 0.0000
     37 ****         2.2765  -0.0497   1.7234 LP             1 S1                 0.0000
     38 ****         2.1823  -3.8458   1.1196 LP             1 S1                 0.0000
     39 ****         2.0769  -2.8693   2.4241 LP             1 S1                 0.0000
     40 ****         2.1940  -1.7647  -2.3047 LP             1 S1                 0.0000
     41 ****         3.7745  -1.7389  -1.8948 LP             1 S1                 0.0000
     42 ****         0.2480  -0.8544  -1.7829 LP             1 S1                 0.0000
     43 ****         0.9636   0.1066  -2.8925 LP             1 S1                 0.0000
@<TRIPOS>BOND
    1    1    2 1     
    2    1   24 1     
    3    1   25 1     
    4    2    7 ar    
    5    2    3 ar    
    6    3    4 ar    
    7    4    5 ar    
    8    4   26 1     
    9    5    6 ar    
   10    6   10 1     
   11    6    7 ar    
   12    7    8 1     
   13    8    9 2     
   14    9   10 1     
   15    9   27 1     
   16   10   11 1     
   17   11   20 1     
   18   11   18 1     
   19   11   12 1     
   20   12   13 1     
   21   13   21 1     
   22   13   14 1     
   23   13   16 1     
   24   14   15 1     
   25   14   28 1     
   26   14   29 1     
   27   15   30 1     
   28   16   22 1     
   29   16   17 1     
   30   16   18 1     
   31   17   31 1     
   32   18   23 1     
   33   18   19 1     
   34   19   32 1     
   35    3   33 1     
   36    5   34 1     
   37    8   35 1     
   38   12   36 1     
   39   12   37 1     
   40   15   38 1     
   41   15   39 1     
   42   17   40 1     
   43   17   41 1     
   44   19   42 1     
   45   19   43 1     
@<TRIPOS>SUBSTRUCTURE
      1 S1             1
@<TRIPOS>SET
LONE_PAIRS      STATIC     ATOMS    <user>   **** ""
11 33 34 35 36 37 38 39 40 41 42 43
DONOR_HYDROGENS      STATIC     ATOMS    <user>   **** ""
5 24 25 30 31 32
ATOM$BLUE        STATIC     ATOMS    COLORGROUP SYSTEM
11 33 34 35 36 37 38 39 40 41 42 43
ATOM$RED        STATIC     ATOMS    COLORGROUP SYSTEM
5 24 25 30 31 32
