#       Name:                AV-unprocessed.smi:2017
#       Creating user name   scv26
#       Creation time:       Fri Mar 27 10:41:34 2020


#       File generated by GOLD software.
#

@<TRIPOS>MOLECULE
AV-unprocessed.smi:2017
    53    54     1
SMALL
NO_CHARGES


@<TRIPOS>ATOM
      1 ****        -0.4132   2.4438  -2.0977 O.2            1 S1                 0.0000
      2 ****        -0.6913   2.8380  -0.9641 C.2            1 S1                 0.0000
      3 ****        -1.0593   4.3067  -0.7126 C.3            1 S1                 0.0000
      4 ****        -1.7280   4.9366  -1.8626 N.am           1 S1                 0.0000
      5 ****        -0.9406   5.7068  -2.7364 C.2            1 S1                 0.0000
      6 ****        -1.4661   6.3162  -3.8162 C.2            1 S1                 0.0000
      7 ****        -2.8932   6.1615  -4.0694 C.2            1 S1                 0.0000
      8 ****        -3.3916   6.7153  -5.0474 O.2            1 S1                 0.0000
      9 ****        -3.6140   5.3998  -3.1954 N.pl3          1 S1                -1.0000
     10 ****        -3.0652   4.7836  -2.1027 C.2            1 S1                 0.0000
     11 ****        -3.7337   4.0978  -1.3282 O.2            1 S1                 0.0000
     12 ****        -0.6657   2.0429   0.1162 N.am           1 S1                 0.0000
     13 ****        -0.3346   0.6230   0.1036 C.3            1 S1                 0.0000
     14 ****         1.1867   0.3963   0.0859 C.3            1 S1                 0.0000
     15 ****         1.5644  -1.0895   0.0721 C.3            1 S1                 0.0000
     16 ****         1.1648  -1.6844   1.2989 O.3            1 S1                 0.0000
     17 ****         1.4709  -3.0682   1.4119 C.3            1 S1                 0.0000
     18 ****         0.4337  -3.9275   0.6580 C.3            1 S1                 0.0000
     19 ****         0.6777  -5.4285   0.8866 C.3            1 S1                 0.0000
     20 ****         0.6919  -5.7717   2.3845 C.3            1 S1                 0.0000
     21 ****         1.7208  -4.9162   3.1400 C.3            1 S1                 0.0000
     22 ****         1.4709  -3.4169   2.9108 C.3            1 S1                 0.0000
     23 ****        -1.6897   4.3837   0.1755 H              1 S1                 0.0000
     24 ****        -0.1450   4.8462  -0.4620 H              1 S1                 0.0000
     25 ****         0.1072   5.7649  -2.4810 H              1 S1                 0.0000
     26 ****        -0.8470   6.9019  -4.4796 H              1 S1                 0.0000
     27 ****        -0.9045   2.4492   1.0092 H              1 S1                 0.0000
     28 ****        -0.7694   0.1692   0.9945 H              1 S1                 0.0000
     29 ****        -0.8051   0.1361  -0.7524 H              1 S1                 0.0000
     30 ****         1.6143   0.8726  -0.7972 H              1 S1                 0.0000
     31 ****         1.6459   0.8806   0.9486 H              1 S1                 0.0000
     32 ****         1.0942  -1.5825  -0.7789 H              1 S1                 0.0000
     33 ****         2.6441  -1.1891  -0.0487 H              1 S1                 0.0000
     34 ****         2.4698  -3.2616   1.0161 H              1 S1                 0.0000
     35 ****        -0.5705  -3.6669   0.9944 H              1 S1                 0.0000
     36 ****         0.4639  -3.7204  -0.4112 H              1 S1                 0.0000
     37 ****        -0.0915  -6.0114   0.3794 H              1 S1                 0.0000
     38 ****         1.6291  -5.7159   0.4375 H              1 S1                 0.0000
     39 ****        -0.3005  -5.6073   2.8065 H              1 S1                 0.0000
     40 ****         0.9154  -6.8300   2.5217 H              1 S1                 0.0000
     41 ****         1.6813  -5.1415   4.2060 H              1 S1                 0.0000
     42 ****         2.7267  -5.1742   2.8063 H              1 S1                 0.0000
     43 ****         2.2328  -2.8328   3.4278 H              1 S1                 0.0000
     44 ****         0.5140  -3.1365   3.3533 H              1 S1                 0.0000
     45 ****        -0.4257   3.0832  -2.8665 LP             1 S1                 0.0000
     46 ****        -0.1750   1.4845  -2.2491 LP             1 S1                 0.0000
     47 ****        -2.8192   7.2634  -5.6573 LP             1 S1                 0.0000
     48 ****        -4.3694   6.6176  -5.2330 LP             1 S1                 0.0000
     49 ****        -4.5935   5.2860  -3.3618 LP             1 S1                 0.0000
     50 ****        -3.2970   3.6643  -0.5400 LP             1 S1                 0.0000
     51 ****        -4.7132   3.9745  -1.4877 LP             1 S1                 0.0000
     52 ****         0.1750  -1.5752   1.3909 LP             1 S1                 0.0000
     53 ****         1.6242  -1.2013   2.0442 LP             1 S1                 0.0000
@<TRIPOS>BOND
    1    1    2 2     
    2    2    3 1     
    3    2   12 am    
    4    3    4 1     
    5    3   23 1     
    6    3   24 1     
    7    4   10 am    
    8    4    5 1     
    9    5    6 2     
   10    5   25 1     
   11    6    7 1     
   12    6   26 1     
   13    7    8 2     
   14    7    9 1     
   15    9   10 1     
   16   10   11 2     
   17   12   13 1     
   18   12   27 1     
   19   13   14 1     
   20   13   28 1     
   21   13   29 1     
   22   14   15 1     
   23   14   30 1     
   24   14   31 1     
   25   15   16 1     
   26   15   32 1     
   27   15   33 1     
   28   16   17 1     
   29   17   22 1     
   30   17   18 1     
   31   17   34 1     
   32   18   19 1     
   33   18   35 1     
   34   18   36 1     
   35   19   20 1     
   36   19   37 1     
   37   19   38 1     
   38   20   21 1     
   39   20   39 1     
   40   20   40 1     
   41   21   22 1     
   42   21   41 1     
   43   21   42 1     
   44   22   43 1     
   45   22   44 1     
   46    1   45 1     
   47    1   46 1     
   48    8   47 1     
   49    8   48 1     
   50    9   49 1     
   51   11   50 1     
   52   11   51 1     
   53   16   52 1     
   54   16   53 1     
@<TRIPOS>SUBSTRUCTURE
      1 S1             1
@<TRIPOS>SET
LONE_PAIRS      STATIC     ATOMS    <user>   **** ""
9 45 46 47 48 49 50 51 52 53
DONOR_HYDROGENS      STATIC     ATOMS    <user>   **** ""
1 27
ATOM$BLUE        STATIC     ATOMS    COLORGROUP SYSTEM
9 45 46 47 48 49 50 51 52 53
ATOM$RED        STATIC     ATOMS    COLORGROUP SYSTEM
1 27
