#       Name:                AV-unprocessed.smi:3274
#       Creating user name   scv26
#       Creation time:       Fri Mar 27 18:44:22 2020


#       File generated by GOLD software.
#

@<TRIPOS>MOLECULE
AV-unprocessed.smi:3274
    45    46     1
SMALL
NO_CHARGES


@<TRIPOS>ATOM
      1 ****        -0.0634   1.0999   1.7774 C.3            1 S1                 0.0000
      2 ****        -1.1738   1.3551   0.7727 C.2            1 S1                 0.0000
      3 ****        -2.3191   1.9375   1.1761 C.2            1 S1                 0.0000
      4 ****        -3.4603   2.3028   0.2552 C.3            1 S1                 0.0000
      5 ****        -2.9863   2.3982  -1.1969 C.3            1 S1                 0.0000
      6 ****        -2.1726   1.1592  -1.6048 C.3            1 S1                 0.0000
      7 ****        -1.8045   1.2588  -3.0984 C.3            1 S1                 0.0000
      8 ****        -0.9242   0.9457  -0.6936 C.3            1 S1                 0.0000
      9 ****        -0.4057  -0.5107  -0.8263 C.3            1 S1                 0.0000
     10 ****         1.0200  -0.6458  -0.4541 N.4            1 S1                 1.0000
     11 ****         1.5210  -2.0354  -0.3373 C.3            1 S1                 0.0000
     12 ****         1.6440  -2.7021  -1.7180 C.3            1 S1                 0.0000
     13 ****         2.8755  -2.0538   0.3974 C.3            1 S1                 0.0000
     14 ****         2.7744  -1.5499   1.7552 N.pl3          1 S1                 0.0000
     15 ****         2.3315  -2.1364   2.8686 C.2            1 S1                 0.0000
     16 ****         2.3779  -1.3553   3.9385 N.2            1 S1                 0.0000
     17 ****         2.9052  -0.2271   3.3765 C.2            1 S1                 0.0000
     18 ****         3.1560  -0.2897   2.0684 N.2            1 S1                 0.0000
     19 ****         0.8803   1.5063   1.4135 H              1 S1                 0.0000
     20 ****         0.0558   0.0328   1.9634 H              1 S1                 0.0000
     21 ****        -0.2775   1.5736   2.7361 H              1 S1                 0.0000
     22 ****        -2.4595   2.1860   2.2184 H              1 S1                 0.0000
     23 ****        -4.2470   1.5549   0.3594 H              1 S1                 0.0000
     24 ****        -3.8818   3.2583   0.5690 H              1 S1                 0.0000
     25 ****        -3.8504   2.5215  -1.8510 H              1 S1                 0.0000
     26 ****        -2.3750   3.2933  -1.3221 H              1 S1                 0.0000
     27 ****        -2.8304   0.2967  -1.4832 H              1 S1                 0.0000
     28 ****        -1.1297   2.0951  -3.2841 H              1 S1                 0.0000
     29 ****        -2.6945   1.4160  -3.7086 H              1 S1                 0.0000
     30 ****        -1.3231   0.3565  -3.4720 H              1 S1                 0.0000
     31 ****        -0.1455   1.6200  -1.0540 H              1 S1                 0.0000
     32 ****        -1.0159  -1.1715  -0.2087 H              1 S1                 0.0000
     33 ****        -0.5095  -0.8679  -1.8484 H              1 S1                 0.0000
     34 ****         1.5878  -0.1426  -1.1209 H              1 S1                 0.0000
     35 ****         0.8084  -2.6071   0.2597 H              1 S1                 0.0000
     36 ****         2.0559  -3.7079  -1.6300 H              1 S1                 0.0000
     37 ****         2.3005  -2.1331  -2.3774 H              1 S1                 0.0000
     38 ****         0.6762  -2.7975  -2.2101 H              1 S1                 0.0000
     39 ****         3.2610  -3.0729   0.4500 H              1 S1                 0.0000
     40 ****         3.6184  -1.4683  -0.1474 H              1 S1                 0.0000
     41 ****         1.9623  -3.1512   2.8964 H              1 S1                 0.0000
     42 ****         3.1029   0.6691   3.9464 H              1 S1                 0.0000
     43 ****         1.1336  -0.2102   0.4506 H              1 S1                 0.0000
     44 ****         2.1059  -1.5386   4.8831 LP             1 S1                 0.0000
     45 ****         3.5318   0.4171   1.4691 LP             1 S1                 0.0000
@<TRIPOS>BOND
    1    1    2 1     
    2    1   19 1     
    3    1   20 1     
    4    1   21 1     
    5    2    8 1     
    6    2    3 2     
    7    3    4 1     
    8    3   22 1     
    9    4    5 1     
   10    4   23 1     
   11    4   24 1     
   12    5    6 1     
   13    5   25 1     
   14    5   26 1     
   15    6    7 1     
   16    6    8 1     
   17    6   27 1     
   18    7   28 1     
   19    7   29 1     
   20    7   30 1     
   21    8    9 1     
   22    8   31 1     
   23    9   10 1     
   24    9   32 1     
   25    9   33 1     
   26   10   11 1     
   27   10   34 1     
   28   10   43 1     
   29   11   12 1     
   30   11   13 1     
   31   11   35 1     
   32   12   36 1     
   33   12   37 1     
   34   12   38 1     
   35   13   14 1     
   36   13   39 1     
   37   13   40 1     
   38   14   18 1     
   39   14   15 1     
   40   15   16 2     
   41   15   41 1     
   42   16   17 1     
   43   17   18 2     
   44   17   42 1     
   45   16   44 1     
   46   18   45 1     
@<TRIPOS>SUBSTRUCTURE
      1 S1             1
@<TRIPOS>SET
LONE_PAIRS      STATIC     ATOMS    <user>   **** ""
2 44 45
DONOR_HYDROGENS      STATIC     ATOMS    <user>   **** ""
2 34 43
ATOM$BLUE        STATIC     ATOMS    COLORGROUP SYSTEM
2 44 45
ATOM$RED        STATIC     ATOMS    COLORGROUP SYSTEM
2 34 43
