AV-unprocessed.smi:1350|AV-procd|sdf|5520|dock1
  -GOLD-   22720 5103D 1   1.00000     0.00000
 Structure written by MMmdl.
 43 45  0  0  0  0  0  0  0  0  1 V2000
  154.2957  138.9427  159.4338 C   0  0  0  0  0  0  0  0  0  0  0  0
  153.4491  139.7060  158.5867 O   0  0  0  0  0  0  0  0  0  0  0  0
  152.9382  140.8963  159.0639 C   0  0  0  0  0  0  0  0  0  0  0  0
  153.3122  141.4566  160.3130 C   0  0  0  0  0  0  0  0  0  0  0  0
  152.7587  142.6750  160.7498 C   0  0  0  0  0  0  0  0  0  0  0  0
  151.8249  143.3527  159.9475 C   0  0  0  0  0  0  0  0  0  0  0  0
  151.4457  142.8090  158.7076 C   0  0  0  0  0  0  0  0  0  0  0  0
  151.9932  141.5869  158.2633 C   0  0  0  0  0  0  0  0  0  0  0  0
  151.5554  141.0520  156.9094 C   0  0  0  0  0  0  0  0  0  0  0  0
  150.1490  141.1377  156.7512 O   0  0  0  0  0  0  0  0  0  0  0  0
  149.7671  141.7699  155.5407 C   0  0  0  0  0  0  0  0  0  0  0  0
  149.0463  140.7490  154.6492 C   0  0  2  0  0  0  0  0  0  0  0  0
  149.9939  140.1596  153.7805 O   0  0  0  0  0  0  0  0  0  0  0  0
  147.9078  141.3830  153.8268 C   0  0  0  0  0  0  0  0  0  0  0  0
  146.8412  141.8954  154.6674 N   0  0  0  0  0  0  0  0  0  0  0  0
  146.5440  141.5248  155.9279 C   0  0  0  0  0  0  0  0  0  0  0  0
  145.5174  142.1329  156.5160 N   0  0  0  0  0  0  0  0  0  0  0  0
  145.0993  142.9998  155.5207 C   0  0  0  0  0  0  0  0  0  0  0  0
  144.0428  143.9385  155.5054 C   0  0  0  0  0  0  0  0  0  0  0  0
  143.8019  144.7241  154.3588 C   0  0  0  0  0  0  0  0  0  0  0  0
  144.6111  144.5840  153.2125 C   0  0  0  0  0  0  0  0  0  0  0  0
  145.6701  143.6559  153.2044 C   0  0  0  0  0  0  0  0  0  0  0  0
  145.9067  142.8744  154.3503 C   0  0  0  0  0  0  0  0  0  0  0  0
  154.6018  138.0361  158.9121 H   0  0  0  0  0  0  0  0  0  0  0  0
  153.7795  138.6387  160.3454 H   0  0  0  0  0  0  0  0  0  0  0  0
  155.2003  139.4935  159.6950 H   0  0  0  0  0  0  0  0  0  0  0  0
  154.0263  140.9706  160.9599 H   0  0  0  0  0  0  0  0  0  0  0  0
  153.0526  143.0902  161.7026 H   0  0  0  0  0  0  0  0  0  0  0  0
  151.4009  144.2881  160.2815 H   0  0  0  0  0  0  0  0  0  0  0  0
  150.7290  143.3343  158.0932 H   0  0  0  0  0  0  0  0  0  0  0  0
  152.0481  141.6448  156.1373 H   0  0  0  0  0  0  0  0  0  0  0  0
  151.8747  140.0199  156.7660 H   0  0  0  0  0  0  0  0  0  0  0  0
  149.1217  142.6264  155.7429 H   0  0  0  0  0  0  0  0  0  0  0  0
  150.6591  142.1424  155.0338 H   0  0  0  0  0  0  0  0  0  0  0  0
  148.6433  139.9549  155.2795 H   0  0  0  0  0  0  0  0  0  0  0  0
  149.6321  140.1438  152.9077 H   0  0  0  0  0  0  0  0  0  0  0  0
  148.2896  142.2097  153.2265 H   0  0  0  0  0  0  0  0  0  0  0  0
  147.4880  140.6584  153.1274 H   0  0  0  0  0  0  0  0  0  0  0  0
  147.1159  140.7676  156.4443 H   0  0  0  0  0  0  0  0  0  0  0  0
  143.4170  144.0548  156.3777 H   0  0  0  0  0  0  0  0  0  0  0  0
  142.9918  145.4385  154.3589 H   0  0  0  0  0  0  0  0  0  0  0  0
  144.4190  145.1898  152.3392 H   0  0  0  0  0  0  0  0  0  0  0  0
  146.2935  143.5456  152.3295 H   0  0  0  0  0  0  0  0  0  0  0  0
  1  2  1  0  0  0  0
  1 24  1  0  0  0  0
  1 25  1  0  0  0  0
  1 26  1  0  0  0  0
  2  3  1  0  0  0  0
  3  8  1  0  0  0  0
  3  4  2  0  0  0  0
  4  5  1  0  0  0  0
  4 27  1  0  0  0  0
  5  6  2  0  0  0  0
  5 28  1  0  0  0  0
  6  7  1  0  0  0  0
  6 29  1  0  0  0  0
  7  8  2  0  0  0  0
  7 30  1  0  0  0  0
  8  9  1  0  0  0  0
  9 10  1  0  0  0  0
  9 31  1  0  0  0  0
  9 32  1  0  0  0  0
 10 11  1  0  0  0  0
 11 12  1  0  0  0  0
 11 33  1  0  0  0  0
 11 34  1  0  0  0  0
 12 13  1  0  0  0  0
 12 14  1  0  0  0  0
 12 35  1  0  0  0  0
 13 36  1  0  0  0  0
 14 15  1  0  0  0  0
 14 37  1  0  0  0  0
 14 38  1  0  0  0  0
 15 23  1  0  0  0  0
 15 16  1  0  0  0  0
 16 17  2  0  0  0  0
 16 39  1  0  0  0  0
 17 18  1  0  0  0  0
 18 23  2  0  0  0  0
 18 19  1  0  0  0  0
 19 20  2  0  0  0  0
 19 40  1  0  0  0  0
 20 21  1  0  0  0  0
 20 41  1  0  0  0  0
 21 22  2  0  0  0  0
 21 42  1  0  0  0  0
 22 23  1  0  0  0  0
 22 43  1  0  0  0  0
M  END
> <s_m_source_file>
AV-unprocessed.smi

> <i_m_source_file_index>
1350

> <i_lp_mmshare_version>
43012

> <i_f3d_flags>
0

> <s_epik_input>
W0NIM11PYzFbY0hdW2NIXVtjSF1bY0hdYzFbQ0gyXU9bQ0gyXVtDQEhdKFtPSF0pW0NIMl1uKFtjSF1uMiljKGMyMylbY0hdW2NIXVtjSF1bY0hdMw==

> <s_epik_cmdline>
J2VwaWtfcHl0aG9uJywgJy1waCcsICc3LjAnLCAnLXRuJywgJzgnLCAnLW1hJywgJzIwMCcsICctbWV0YWxfYmluZGluZycsICctaW1hZScsICc8aW5maWxlLm1hZT4nLCAnLW9tYWUnLCAnPG91dGZpbGUubWFlPic=

> <r_lp_tautomer_probability>
1

> <r_epik_Ionization_Penalty>
0.0713119

> <r_epik_Ionization_Penalty_Charging>
0

> <r_epik_Ionization_Penalty_Neutral>
0.0713119

> <r_epik_State_Penalty>
0.06259

> <r_epik_Charging_Adjusted_Penalty>
0.06259

> <i_epik_Tot_Q>
0

> <i_epik_Tot_abs_Q>
0

> <r_epik_Metal_State_Penalty>
6.60119e-05

> <b_epik_Metal_Only>
0

> <s_lp_Force_Field>
OPLS_2005

> <r_lp_Energy>
18.6906

> <b_lp_Chiralities_Consistent>
1

> <s_lp_Variant>
AV-unprocessed.smi:1350-1

> <Gold.Version>
5.8.1

> <Gold.Id.Protein>
6NUR|6NUR_protein|mol2

> <Gold.PLP.Fitness>
56.0038

> <Gold.PLP.PLP>
-50.6340

> <Gold.PLP.part.hbond>
-3.0000

> <Gold.PLP.part.metal>
0.0000

> <Gold.PLP.part.buried>
-5.9188

> <Gold.PLP.part.nonpolar>
-41.5157

> <Gold.PLP.part.repulsive>
0.1680

> <Gold.PLP.ligand.clash>
0.0000

> <Gold.PLP.ligand.torsion>
1.7348

> <Gold.PLP.Chemscore.Hbond>
2.8160

> <Gold.PLP.Chemscore.CHOScore>
0.0000

> <Gold.PLP.Chemscore.Metal>
0.0000

> <Gold.Chemscore.Hbonds>
donor molecule, donor type, donor heavy atom, donor atom, acceptor molecule, acceptor atom, score
      L1  H    13    36       P1  7957  1.00
      P1  H  7989  7998       L1    13  0.77
      P1  H  7997  8009       L1     2  0.85

> <Gold.PLP.Chemscore.Internal.Correction>
0.3913

> <Gold.Rescore>
     Score         DG    S(hbond)    S(metal)    S(lipo)     H(rot)  DE(clash)    DE(int)     intcor
     17.87     -20.22       1.76        0.00     133.31       2.63       0.06       2.29       ----

> <Gold.Chemscore.Fitness>
17.8696

> <Gold.Chemscore.DG>
-20.2157

> <Gold.Chemscore.ZeroCoef>
-5.4800

> <Gold.Chemscore.Hbond>
1.7584

> <Gold.Chemscore.Metal>
0.0000

> <Gold.Chemscore.Lipo>
133.3100

> <Gold.Chemscore.Internal_Hbond>
0.0000

> <Gold.Chemscore.DEClash>
0.0551

> <Gold.Chemscore.DEInternal>
2.2910

> <Gold.Chemscore.Rot>
2.6308

> <Gold.Chemscore.Internal.Correction>
   9.000000E+99

> <Gold.Chemscore.Hbonds>
donor molecule, donor type, donor heavy atom, donor atom, acceptor molecule, acceptor atom, score
      L1  H    13    36       P1  7957  0.99
      P1  H  7989  7998       L1    13  0.23
      P1  H  7997  8009       L1     2  0.11

> <Gold.Chemscore.Hbond.Weighted>
-5.8732

> <Gold.Chemscore.Metal.Weighted>
-0.0000

> <Gold.Chemscore.Lipo.Weighted>
-15.5973

> <Gold.Chemscore.Internal_Hbond.Weighted>
0.0000

> <Gold.Chemscore.DEClash.Weighted>
0.0551

> <Gold.Chemscore.DEInternal.Weighted>
2.2910

> <Gold.Chemscore.Rot.Weighted>
6.7347

> <Gold.Chemscore.Internal.Correction.Weighted>
   9.000000E+99

> <Gold.Protein.RotatedTorsions>
[ 6907 6896 6895 6894 ] final  102.23 input  -60.11 | X-H torsion
[ 7974 7965 7964 7962 ] final -142.54 input  175.53 | X-H torsion
[ 8008 7997 7996 7995 ] final  142.93 input   59.86 | X-H torsion
[ 10167 10162 10161 10158 ] final -138.13 input  -65.29 | X-H torsion
[ 10718 10713 10712 10709 ] final -123.61 input   66.30 | X-H torsion
[ 10763 10752 10751 10750 ] final   51.09 input  -60.55 | X-H torsion
[ 11005 11000 10999 10996 ] final  -17.49 input  -57.11 | X-H torsion

> <Gold.Protein.ActiveResidues>
 VAL166  LYS551  ARG553  GLY616  TRP617  ASP618  TYR619  PRO620  LYS621  CYS622 
 ASP623  PHE694  ASN695  SER759  ASP760  ASP761  ALA762  ILE779  LEU786  VAL792 
 PHE793  MET794  SER795  GLU796  ALA797  LYS798  CYS799  TRP800  GLU811  SER814 

> <Gold.Protein.RotatedAtoms>
  152.5329  134.0007  159.7893 H   0  0  0  0  0  0  0  0  0  0  0  0  # atno 6907 bound_to 6896
  151.0226  133.5855  159.2676 H   0  0  0  0  0  0  0  0  0  0  0  0  # atno 6908 bound_to 6896
  151.2889  135.0743  159.9250 H   0  0  0  0  0  0  0  0  0  0  0  0  # atno 6909 bound_to 6896
  144.8436  140.5945  143.5436 H   0  0  0  0  0  0  0  0  0  0  0  0  # atno 7974 bound_to 7965
  156.2940  140.2276  156.4807 H   0  0  0  0  0  0  0  0  0  0  0  0  # atno 8008 bound_to 7997
  154.7855  140.0457  157.1182 H   0  0  0  0  0  0  0  0  0  0  0  0  # atno 8009 bound_to 7997
  154.9707  140.3066  155.4992 H   0  0  0  0  0  0  0  0  0  0  0  0  # atno 8010 bound_to 7997
  139.8508  143.7201  152.2658 H   0  0  0  0  0  0  0  0  0  0  0  0  # atno 10167 bound_to 10162
  156.1517  130.6539  150.9922 H   0  0  0  0  0  0  0  0  0  0  0  0  # atno 10718 bound_to 10713
  152.9785  135.5857  154.4358 H   0  0  0  0  0  0  0  0  0  0  0  0  # atno 10763 bound_to 10752
  154.3966  135.2768  155.2124 H   0  0  0  0  0  0  0  0  0  0  0  0  # atno 10764 bound_to 10752
  154.3974  135.6111  153.5931 H   0  0  0  0  0  0  0  0  0  0  0  0  # atno 10765 bound_to 10752
  140.8174  133.8094  155.9624 H   0  0  0  0  0  0  0  0  0  0  0  0  # atno 11005 bound_to 11000
  145.4644  139.1509  143.3849 LP  0  0  0  0  0  0  0  0  0  0  0  0  # atno 17320 bound_to 7965
  146.2724  140.4775  142.8809 LP  0  0  0  0  0  0  0  0  0  0  0  0  # atno 17321 bound_to 7965
  139.7467  144.7545  151.0569 LP  0  0  0  0  0  0  0  0  0  0  0  0  # atno 17342 bound_to 10162
  140.7787  143.4908  150.9896 LP  0  0  0  0  0  0  0  0  0  0  0  0  # atno 17343 bound_to 10162
  157.6662  131.0871  150.7723 LP  0  0  0  0  0  0  0  0  0  0  0  0  # atno 17370 bound_to 10713
  156.7791  130.4853  149.5404 LP  0  0  0  0  0  0  0  0  0  0  0  0  # atno 17371 bound_to 10713
  140.9135  134.2231  157.4971 LP  0  0  0  0  0  0  0  0  0  0  0  0  # atno 17394 bound_to 11000
  139.8710  134.9760  156.4906 LP  0  0  0  0  0  0  0  0  0  0  0  0  # atno 17395 bound_to 11000

$$$$
