AV-unprocessed.smi:36|AV-procd|sdf|292|dock3
  -GOLD-   2262016 83D 1   1.00000     0.00000
 Structure written by MMmdl.
 64 67  0  0  0  0  0  0  0  0  1 V2000
  145.2995  133.7553  161.5178 C   0  0  0  0  0  0  0  0  0  0  0  0
  146.7259  134.3276  161.5602 C   0  0  0  0  0  0  0  0  0  0  0  0
  146.8864  135.2371  162.7894 C   0  0  0  0  0  0  0  0  0  0  0  0
  147.7475  133.1802  161.6274 C   0  0  0  0  0  0  0  0  0  0  0  0
  147.0481  135.3522  159.9803 Si  0  0  0  0  0  0  0  0  0  0  0  0
  145.5984  136.5300  159.6266 C   0  0  0  0  0  0  0  0  0  0  0  0
  148.6629  136.3437  160.1169 C   0  0  0  0  0  0  0  0  0  0  0  0
  147.2004  134.2780  158.6823 O   0  0  0  0  0  0  0  0  0  0  0  0
  147.1503  134.6802  157.3295 C   0  0  0  0  0  0  0  0  0  0  0  0
  148.2972  134.0103  156.5624 C   0  0  1  0  0  0  0  0  0  0  0  0
  148.8092  134.8755  155.5430 O   0  0  0  0  0  0  0  0  0  0  0  0
  150.2073  134.9142  155.5755 C   0  0  1  0  0  0  0  0  0  0  0  0
  150.6318  136.2105  156.2018 N   0  0  0  0  0  0  0  0  0  0  0  0
  151.3051  136.3954  157.3550 C   0  0  0  0  0  0  0  0  0  0  0  0
  151.5340  137.6624  157.6887 N   0  0  0  0  0  0  0  0  0  0  0  0
  150.9266  138.3628  156.6531 C   0  0  0  0  0  0  0  0  0  0  0  0
  150.8045  139.8190  156.4271 C   0  0  0  0  0  0  0  0  0  0  0  0
  151.3483  140.6109  157.3006 N   0  0  0  0  0  0  0  0  0  0  0  0
  151.2613  141.9879  157.1438 C   0  0  0  0  0  0  0  0  0  0  0  0
  150.9166  142.6333  156.1499 O   0  0  0  0  0  0  0  0  0  0  0  0
  151.6897  142.7467  158.3575 C   0  0  0  0  0  0  0  0  0  0  0  0
  151.7008  144.1578  158.3436 C   0  0  0  0  0  0  0  0  0  0  0  0
  152.0962  144.8722  159.4915 C   0  0  0  0  0  0  0  0  0  0  0  0
  152.4797  144.1789  160.6558 C   0  0  0  0  0  0  0  0  0  0  0  0
  152.4670  142.7705  160.6733 C   0  0  0  0  0  0  0  0  0  0  0  0
  152.0716  142.0547  159.5263 C   0  0  0  0  0  0  0  0  0  0  0  0
  150.0818  140.0589  155.2511 N   0  0  0  0  0  0  0  0  0  0  0  0
  149.5438  139.0796  154.4019 C   0  0  0  0  0  0  0  0  0  0  0  0
  149.6437  137.7906  154.5901 N   0  0  0  0  0  0  0  0  0  0  0  0
  150.3582  137.4971  155.7436 C   0  0  0  0  0  0  0  0  0  0  0  0
  150.6400  133.7341  156.4459 C   0  0  0  0  0  0  0  0  0  0  0  0
  149.5030  133.6660  157.4429 C   0  0  2  0  0  0  0  0  0  0  0  0
  149.4064  132.3769  158.0116 O   0  0  0  0  0  0  0  0  0  0  0  0
  145.0832  133.1657  162.4096 H   0  0  0  0  0  0  0  0  0  0  0  0
  145.1570  133.1063  160.6536 H   0  0  0  0  0  0  0  0  0  0  0  0
  144.5542  134.5491  161.4608 H   0  0  0  0  0  0  0  0  0  0  0  0
  146.1703  136.0588  162.7720 H   0  0  0  0  0  0  0  0  0  0  0  0
  147.8853  135.6720  162.8327 H   0  0  0  0  0  0  0  0  0  0  0  0
  146.7276  134.6838  163.7156 H   0  0  0  0  0  0  0  0  0  0  0  0
  147.6128  132.5812  162.5287 H   0  0  0  0  0  0  0  0  0  0  0  0
  148.7695  133.5604  161.6334 H   0  0  0  0  0  0  0  0  0  0  0  0
  147.6512  132.5117  160.7716 H   0  0  0  0  0  0  0  0  0  0  0  0
  145.4090  137.1965  160.4674 H   0  0  0  0  0  0  0  0  0  0  0  0
  144.6765  135.9829  159.4306 H   0  0  0  0  0  0  0  0  0  0  0  0
  145.7947  137.1580  158.7581 H   0  0  0  0  0  0  0  0  0  0  0  0
  148.6287  137.0544  160.9422 H   0  0  0  0  0  0  0  0  0  0  0  0
  148.8595  136.9115  159.2077 H   0  0  0  0  0  0  0  0  0  0  0  0
  149.5209  135.6925  160.2825 H   0  0  0  0  0  0  0  0  0  0  0  0
  146.1851  134.4403  156.8852 H   0  0  0  0  0  0  0  0  0  0  0  0
  147.2571  135.7646  157.2923 H   0  0  0  0  0  0  0  0  0  0  0  0
  147.9371  133.1072  156.0663 H   0  0  0  0  0  0  0  0  0  0  0  0
  150.6499  134.9322  154.5789 H   0  0  0  0  0  0  0  0  0  0  0  0
  151.6336  135.5796  157.9792 H   0  0  0  0  0  0  0  0  0  0  0  0
  151.4053  144.6968  157.4550 H   0  0  0  0  0  0  0  0  0  0  0  0
  152.1037  145.9521  159.4790 H   0  0  0  0  0  0  0  0  0  0  0  0
  152.7815  144.7272  161.5360 H   0  0  0  0  0  0  0  0  0  0  0  0
  152.7593  142.2392  161.5670 H   0  0  0  0  0  0  0  0  0  0  0  0
  152.0627  140.9744  159.5476 H   0  0  0  0  0  0  0  0  0  0  0  0
  149.0141  139.4842  153.5382 H   0  0  0  0  0  0  0  0  0  0  0  0
  150.6705  132.8412  155.8197 H   0  0  0  0  0  0  0  0  0  0  0  0
  151.6195  133.8787  156.9013 H   0  0  0  0  0  0  0  0  0  0  0  0
  149.6440  134.4125  158.2260 H   0  0  0  0  0  0  0  0  0  0  0  0
  150.0752  131.8296  157.6293 H   0  0  0  0  0  0  0  0  0  0  0  0
  149.9328  141.0241  154.9941 H   0  0  0  0  0  0  0  0  0  0  0  0
  1  2  1  0  0  0  0
  1 34  1  0  0  0  0
  1 35  1  0  0  0  0
  1 36  1  0  0  0  0
  2  3  1  0  0  0  0
  2  4  1  0  0  0  0
  2  5  1  0  0  0  0
  3 37  1  0  0  0  0
  3 38  1  0  0  0  0
  3 39  1  0  0  0  0
  4 40  1  0  0  0  0
  4 41  1  0  0  0  0
  4 42  1  0  0  0  0
  5  6  1  0  0  0  0
  5  7  1  0  0  0  0
  5  8  1  0  0  0  0
  6 43  1  0  0  0  0
  6 44  1  0  0  0  0
  6 45  1  0  0  0  0
  7 46  1  0  0  0  0
  7 47  1  0  0  0  0
  7 48  1  0  0  0  0
  8  9  1  0  0  0  0
  9 10  1  0  0  0  0
  9 49  1  0  0  0  0
  9 50  1  0  0  0  0
 10 32  1  0  0  0  0
 10 11  1  0  0  0  0
 10 51  1  0  0  0  0
 11 12  1  0  0  0  0
 12 13  1  0  0  0  0
 12 31  1  0  0  0  0
 12 52  1  0  0  0  0
 13 30  1  0  0  0  0
 13 14  1  0  0  0  0
 14 15  2  0  0  0  0
 14 53  1  0  0  0  0
 15 16  1  0  0  0  0
 16 30  2  0  0  0  0
 16 17  1  0  0  0  0
 17 18  2  0  0  0  0
 17 27  1  0  0  0  0
 18 19  1  0  0  0  0
 19 20  2  0  0  0  0
 19 21  1  0  0  0  0
 21 26  1  0  0  0  0
 21 22  2  0  0  0  0
 22 23  1  0  0  0  0
 22 54  1  0  0  0  0
 23 24  2  0  0  0  0
 23 55  1  0  0  0  0
 24 25  1  0  0  0  0
 24 56  1  0  0  0  0
 25 26  2  0  0  0  0
 25 57  1  0  0  0  0
 26 58  1  0  0  0  0
 27 28  1  0  0  0  0
 27 64  1  0  0  0  0
 28 29  2  0  0  0  0
 28 59  1  0  0  0  0
 29 30  1  0  0  0  0
 31 32  1  0  0  0  0
 31 60  1  0  0  0  0
 31 61  1  0  0  0  0
 32 33  1  0  0  0  0
 32 62  1  0  0  0  0
 33 63  1  0  0  0  0
M  END
> <s_m_source_file>
AV-unprocessed.smi

> <i_m_source_file_index>
36

> <i_lp_mmshare_version>
43012

> <i_f3d_flags>
0

> <s_epik_input>
W0NIM11DKFtDSDNdKShbQ0gzXSlbU2ldKFtDSDNdKShbQ0gzXSlPW0NIMl1bQ0BASF0xT1tDQEhdKFtDSDJdW0NASF0xW09IXSluKFtjSF1uMiljKGMyMyluW2NIXW5jM1tOSF1DKD1PKWM0W2NIXVtjSF1bY0hdW2NIXVtjSF00

> <s_epik_cmdline>
J2VwaWtfcHl0aG9uJywgJy1waCcsICc3LjAnLCAnLXRuJywgJzgnLCAnLW1hJywgJzIwMCcsICctbWV0YWxfYmluZGluZycsICctaW1hZScsICc8aW5maWxlLm1hZT4nLCAnLW9tYWUnLCAnPG91dGZpbGUubWFlPic=

> <r_epik_Ionization_Penalty>
0.0850405

> <r_epik_Ionization_Penalty_Charging>
0.0850403

> <r_epik_Ionization_Penalty_Neutral>
1.47497e-07

> <r_epik_State_Penalty>
2.6133

> <r_epik_Charging_Adjusted_Penalty>
2.69834

> <i_epik_Tot_Q>
0

> <i_epik_Tot_abs_Q>
0

> <r_epik_Metal_State_Penalty>
2.92945

> <b_epik_Metal_Only>
0

> <s_epik_Chemistry_Notes>
This compound contains an acetal/aminal-like group ( X-CH(R)-Y where X, Y are N, S, or O) that may be acid/base labile, releasing an aldehyde.

> <s_lp_Force_Field>
OPLS_2005

> <r_lp_Energy>
45.4031

> <b_lp_Chiralities_Consistent>
1

> <s_lp_Variant>
AV-unprocessed.smi:36-14

> <Gold.Version>
5.8.1

> <Gold.Id.Protein>
6NUR|6NUR_protein|mol2

> <Gold.PLP.Fitness>
46.3730

> <Gold.PLP.PLP>
-45.5225

> <Gold.PLP.part.hbond>
-0.3037

> <Gold.PLP.part.metal>
0.0000

> <Gold.PLP.part.buried>
-6.3860

> <Gold.PLP.part.nonpolar>
-40.0170

> <Gold.PLP.part.repulsive>
1.8541

> <Gold.PLP.ligand.clash>
0.0000

> <Gold.PLP.ligand.torsion>
1.2985

> <Gold.PLP.Chemscore.Hbond>
0.0000

> <Gold.PLP.Chemscore.CHOScore>
1.0000

> <Gold.PLP.Chemscore.Metal>
0.0000

> <Gold.Chemscore.Hbonds>
donor molecule, donor type, donor heavy atom, donor atom, acceptor molecule, acceptor atom, score
      L1  C    28    59       P1  7957  1.00

> <Gold.PLP.Chemscore.Internal.Correction>
0.4476

> <Gold.Rescore>
     Score         DG    S(hbond)    S(metal)    S(lipo)     H(rot)  DE(clash)    DE(int)     intcor
     10.21     -12.63       0.00        0.00     120.25       2.70       0.08       2.33       ----

> <Gold.Chemscore.Fitness>
10.2112

> <Gold.Chemscore.DG>
-12.6263

> <Gold.Chemscore.ZeroCoef>
-5.4800

> <Gold.Chemscore.Hbond>
0.0000

> <Gold.Chemscore.Metal>
0.0000

> <Gold.Chemscore.Lipo>
120.2457

> <Gold.Chemscore.Internal_Hbond>
0.0000

> <Gold.Chemscore.DEClash>
0.0812

> <Gold.Chemscore.DEInternal>
2.3339

> <Gold.Chemscore.Rot>
2.7041

> <Gold.Chemscore.Internal.Correction>
   9.000000E+99

> <Gold.Chemscore.Hbond.Weighted>
-0.0000

> <Gold.Chemscore.Metal.Weighted>
-0.0000

> <Gold.Chemscore.Lipo.Weighted>
-14.0687

> <Gold.Chemscore.Internal_Hbond.Weighted>
0.0000

> <Gold.Chemscore.DEClash.Weighted>
0.0812

> <Gold.Chemscore.DEInternal.Weighted>
2.3339

> <Gold.Chemscore.Rot.Weighted>
6.9225

> <Gold.Chemscore.Internal.Correction.Weighted>
   9.000000E+99

> <Gold.Protein.RotatedTorsions>
[ 6907 6896 6895 6894 ] final  -56.07 input  -60.11 | X-H torsion
[ 7974 7965 7964 7962 ] final  -13.01 input  175.53 | X-H torsion
[ 8008 7997 7996 7995 ] final   46.99 input   59.86 | X-H torsion
[ 10167 10162 10161 10158 ] final   32.68 input  -65.29 | X-H torsion
[ 10718 10713 10712 10709 ] final  147.92 input   66.30 | X-H torsion
[ 10763 10752 10751 10750 ] final  -30.81 input  -60.55 | X-H torsion
[ 11005 11000 10999 10996 ] final   84.96 input  -57.11 | X-H torsion

> <Gold.Protein.ActiveResidues>
 VAL166  LYS551  ARG553  GLY616  TRP617  ASP618  TYR619  PRO620  LYS621  CYS622 
 ASP623  PHE694  ASN695  SER759  ASP760  ASP761  ALA762  ILE779  LEU786  VAL792 
 PHE793  MET794  SER795  GLU796  ALA797  LYS798  CYS799  TRP800  GLU811  SER814 

> <Gold.Protein.RotatedAtoms>
  150.8198  134.7400  159.6762 H   0  0  0  0  0  0  0  0  0  0  0  0  # atno 6907 bound_to 6896
  152.4315  134.5766  159.9946 H   0  0  0  0  0  0  0  0  0  0  0  0  # atno 6908 bound_to 6896
  151.5953  133.3325  159.3072 H   0  0  0  0  0  0  0  0  0  0  0  0  # atno 6909 bound_to 6896
  146.2130  140.3140  142.8385 H   0  0  0  0  0  0  0  0  0  0  0  0  # atno 7974 bound_to 7965
  155.3616  140.3419  155.4241 H   0  0  0  0  0  0  0  0  0  0  0  0  # atno 8008 bound_to 7997
  156.1710  140.1632  156.8481 H   0  0  0  0  0  0  0  0  0  0  0  0  # atno 8009 bound_to 7997
  154.5233  140.0762  156.8195 H   0  0  0  0  0  0  0  0  0  0  0  0  # atno 8010 bound_to 7997
  140.4477  144.1095  150.6185 H   0  0  0  0  0  0  0  0  0  0  0  0  # atno 10167 bound_to 10162
  157.3150  131.0894  151.1286 H   0  0  0  0  0  0  0  0  0  0  0  0  # atno 10718 bound_to 10713
  153.7871  135.6900  153.4878 H   0  0  0  0  0  0  0  0  0  0  0  0  # atno 10763 bound_to 10752
  153.1773  135.4519  154.9981 H   0  0  0  0  0  0  0  0  0  0  0  0  # atno 10764 bound_to 10752
  154.8059  135.3356  154.7370 H   0  0  0  0  0  0  0  0  0  0  0  0  # atno 10765 bound_to 10752
  139.8985  134.8253  156.2517 H   0  0  0  0  0  0  0  0  0  0  0  0  # atno 11005 bound_to 11000
  144.8967  140.7592  143.5892 LP  0  0  0  0  0  0  0  0  0  0  0  0  # atno 17320 bound_to 7965
  145.3065  139.1833  143.4662 LP  0  0  0  0  0  0  0  0  0  0  0  0  # atno 17321 bound_to 7965
  140.4244  143.2596  151.9674 LP  0  0  0  0  0  0  0  0  0  0  0  0  # atno 17342 bound_to 10162
  139.4794  144.5801  151.7946 LP  0  0  0  0  0  0  0  0  0  0  0  0  # atno 17343 bound_to 10162
  157.2593  130.6651  149.5967 LP  0  0  0  0  0  0  0  0  0  0  0  0  # atno 17370 bound_to 10713
  155.9681  130.4513  150.5732 LP  0  0  0  0  0  0  0  0  0  0  0  0  # atno 17371 bound_to 10713
  141.0220  133.7036  156.1283 LP  0  0  0  0  0  0  0  0  0  0  0  0  # atno 17394 bound_to 11000
  140.7221  134.4347  157.5574 LP  0  0  0  0  0  0  0  0  0  0  0  0  # atno 17395 bound_to 11000

$$$$
