AV-unprocessed.smi:1891|AV-procd|sdf|7668|dock3
  -GOLD-   22720 9403D 1   1.00000     0.00000
 Structure written by MMmdl.
 37 39  0  0  0  0  0  0  0  0  2 V2000
  151.4106  136.5862  154.1257 O   0  0  0  0  0  0  0  0  0  0  0  0
  151.5728  137.8705  154.6844 C   0  0  0  0  0  0  0  0  0  0  0  0
  150.3898  138.7489  154.4408 C   0  0  0  0  0  0  0  0  0  0  0  0
  149.2729  138.3981  153.7426 N   0  3  0  0  0  0  0  0  0  0  0  0
  148.3718  139.4632  153.7239 C   0  0  0  0  0  0  0  0  0  0  0  0
  147.1128  139.5829  153.1435 C   0  0  0  0  0  0  0  0  0  0  0  0
  146.4521  140.8174  153.3142 C   0  0  0  0  0  0  0  0  0  0  0  0
  147.0436  141.8731  154.0381 C   0  0  0  0  0  0  0  0  0  0  0  0
  148.3204  141.7396  154.6226 C   0  0  0  0  0  0  0  0  0  0  0  0
  148.9665  140.5159  154.4485 C   0  0  0  0  0  0  0  0  0  0  0  0
  150.2079  140.0309  154.8745 N   0  0  0  0  0  0  0  0  0  0  0  0
  151.0782  140.9090  155.6728 C   0  0  0  0  0  0  0  0  0  0  0  0
  151.3460  140.3661  157.0907 C   0  0  1  0  0  0  0  0  0  0  0  0
  152.4503  139.4818  157.0630 O   0  0  0  0  0  0  0  0  0  0  0  0
  151.5329  141.5033  158.0858 C   0  0  0  0  0  0  0  0  0  0  0  0
  151.0419  142.7965  157.7962 C   0  0  0  0  0  0  0  0  0  0  0  0
  151.2070  143.8446  158.7221 C   0  0  0  0  0  0  0  0  0  0  0  0
  151.8609  143.6070  159.9457 C   0  0  0  0  0  0  0  0  0  0  0  0
  152.0198  144.6148  160.8361 F   0  0  0  0  0  0  0  0  0  0  0  0
  152.3462  142.3197  160.2443 C   0  0  0  0  0  0  0  0  0  0  0  0
  152.1810  141.2695  159.3201 C   0  0  0  0  0  0  0  0  0  0  0  0
  152.6439  140.0338  159.6283 F   0  0  0  0  0  0  0  0  0  0  0  0
  151.2957  136.6789  153.1913 H   0  0  0  0  0  0  0  0  0  0  0  0
  151.7555  137.7796  155.7549 H   0  0  0  0  0  0  0  0  0  0  0  0
  152.4597  138.3321  154.2498 H   0  0  0  0  0  0  0  0  0  0  0  0
  146.6575  138.7756  152.5885 H   0  0  0  0  0  0  0  0  0  0  0  0
  145.4720  140.9576  152.8814 H   0  0  0  0  0  0  0  0  0  0  0  0
  146.5074  142.8046  154.1479 H   0  0  0  0  0  0  0  0  0  0  0  0
  148.7641  142.5539  155.1763 H   0  0  0  0  0  0  0  0  0  0  0  0
  152.0164  141.0379  155.1331 H   0  0  0  0  0  0  0  0  0  0  0  0
  150.6167  141.8964  155.7171 H   0  0  0  0  0  0  0  0  0  0  0  0
  150.4924  139.7678  157.4097 H   0  0  0  0  0  0  0  0  0  0  0  0
  152.4343  138.9586  157.8501 H   0  0  0  0  0  0  0  0  0  0  0  0
  150.5329  142.9906  156.8634 H   0  0  0  0  0  0  0  0  0  0  0  0
  150.8300  144.8306  158.4934 H   0  0  0  0  0  0  0  0  0  0  0  0
  152.8440  142.1367  161.1851 H   0  0  0  0  0  0  0  0  0  0  0  0
  149.1396  137.4913  153.3138 H   0  0  0  0  0  0  0  0  0  0  0  0
  1  2  1  0  0  0  0
  1 23  1  0  0  0  0
  2  3  1  0  0  0  0
  2 24  1  0  0  0  0
  2 25  1  0  0  0  0
  3 11  1  0  0  0  0
  3  4  2  0  0  0  0
  4  5  1  0  0  0  0
  4 37  1  0  0  0  0
  5 10  2  0  0  0  0
  5  6  1  0  0  0  0
  6  7  2  0  0  0  0
  6 26  1  0  0  0  0
  7  8  1  0  0  0  0
  7 27  1  0  0  0  0
  8  9  2  0  0  0  0
  8 28  1  0  0  0  0
  9 10  1  0  0  0  0
  9 29  1  0  0  0  0
 10 11  1  0  0  0  0
 11 12  1  0  0  0  0
 12 13  1  0  0  0  0
 12 30  1  0  0  0  0
 12 31  1  0  0  0  0
 13 14  1  0  0  0  0
 13 15  1  0  0  0  0
 13 32  1  0  0  0  0
 14 33  1  0  0  0  0
 15 21  1  0  0  0  0
 15 16  2  0  0  0  0
 16 17  1  0  0  0  0
 16 34  1  0  0  0  0
 17 18  2  0  0  0  0
 17 35  1  0  0  0  0
 18 19  1  0  0  0  0
 18 20  1  0  0  0  0
 20 21  2  0  0  0  0
 20 36  1  0  0  0  0
 21 22  1  0  0  0  0
M  CHG  1   4   1
M  END
> <s_m_source_file>
AV-unprocessed.smi

> <i_m_source_file_index>
1891

> <i_lp_mmshare_version>
43012

> <i_f3d_flags>
0

> <s_epik_input>
W2NIXTFbY0hdW2NIXVtjSF1jKGMxMiluKGMobjIpW0NIMl1bT0hdKVtDSDJdW0NASF0oW09IXSljM1tjSF1bY0hdYyhGKVtjSF1jM0Y=

> <s_epik_cmdline>
J2VwaWtfcHl0aG9uJywgJy1waCcsICc3LjAnLCAnLXRuJywgJzgnLCAnLW1hJywgJzIwMCcsICctbWV0YWxfYmluZGluZycsICctaW1hZScsICc8aW5maWxlLm1hZT4nLCAnLW9tYWUnLCAnPG91dGZpbGUubWFlPic=

> <r_epik_Ionization_Penalty>
1.35643

> <r_epik_Ionization_Penalty_Charging>
1.35557

> <r_epik_Ionization_Penalty_Neutral>
0.00085758

> <r_epik_State_Penalty>
1.43401

> <r_epik_Charging_Adjusted_Penalty>
2.78958

> <i_epik_Tot_Q>
1

> <i_epik_Tot_abs_Q>
1

> <r_epik_Metal_State_Penalty>
5.47166

> <b_epik_Metal_Only>
0

> <s_lp_Force_Field>
OPLS_2005

> <r_lp_Energy>
14.1785

> <b_lp_Chiralities_Consistent>
1

> <s_lp_Variant>
AV-unprocessed.smi:1891-4

> <Gold.Version>
5.8.1

> <Gold.Id.Protein>
6NUR|6NUR_protein|mol2

> <Gold.PLP.Fitness>
63.9111

> <Gold.PLP.PLP>
-50.8453

> <Gold.PLP.part.hbond>
-4.9849

> <Gold.PLP.part.metal>
0.0000

> <Gold.PLP.part.buried>
1.1003

> <Gold.PLP.part.nonpolar>
-46.9052

> <Gold.PLP.part.repulsive>
0.0518

> <Gold.PLP.ligand.clash>
0.0000

> <Gold.PLP.ligand.torsion>
0.9789

> <Gold.PLP.Chemscore.Hbond>
5.0000

> <Gold.PLP.Chemscore.CHOScore>
0.0000

> <Gold.PLP.Chemscore.Metal>
0.0000

> <Gold.Chemscore.Hbonds>
donor molecule, donor type, donor heavy atom, donor atom, acceptor molecule, acceptor atom, score
      L1  H     1    23       P1  7949  1.00
      L1  H     4    37       P1  7948  2.00
      P1  H  7997  8008       L1    14  0.83
      P1  H 10752 10763       L1     1  1.00

> <Gold.PLP.Chemscore.Internal.Correction>
0.0237

> <Gold.Rescore>
     Score         DG    S(hbond)    S(metal)    S(lipo)     H(rot)  DE(clash)    DE(int)     intcor
     18.47     -22.23       3.15        0.00     117.75       2.95       1.55       2.20       ----

> <Gold.Chemscore.Fitness>
18.4743

> <Gold.Chemscore.DG>
-22.2259

> <Gold.Chemscore.ZeroCoef>
-5.4800

> <Gold.Chemscore.Hbond>
3.1483

> <Gold.Chemscore.Metal>
0.0000

> <Gold.Chemscore.Lipo>
117.7463

> <Gold.Chemscore.Internal_Hbond>
0.0000

> <Gold.Chemscore.DEClash>
1.5471

> <Gold.Chemscore.DEInternal>
2.2045

> <Gold.Chemscore.Rot>
2.9475

> <Gold.Chemscore.Internal.Correction>
   9.000000E+99

> <Gold.Chemscore.Hbonds>
donor molecule, donor type, donor heavy atom, donor atom, acceptor molecule, acceptor atom, score
      L1  H     1    23       P1  7949  0.67
      L1  H     4    37       P1  7948  0.98
      P1  H  7997  8008       L1    14  0.75
      P1  H 10752 10763       L1     1  0.30

> <Gold.Chemscore.Hbond.Weighted>
-10.5152

> <Gold.Chemscore.Metal.Weighted>
-0.0000

> <Gold.Chemscore.Lipo.Weighted>
-13.7763

> <Gold.Chemscore.Internal_Hbond.Weighted>
0.0000

> <Gold.Chemscore.DEClash.Weighted>
1.5471

> <Gold.Chemscore.DEInternal.Weighted>
2.2045

> <Gold.Chemscore.Rot.Weighted>
7.5457

> <Gold.Chemscore.Internal.Correction.Weighted>
   9.000000E+99

> <Gold.Protein.RotatedTorsions>
[ 6907 6896 6895 6894 ] final    7.31 input  -60.11 | X-H torsion
[ 7974 7965 7964 7962 ] final   -5.74 input  175.53 | X-H torsion
[ 8008 7997 7996 7995 ] final  -45.40 input   59.86 | X-H torsion
[ 10167 10162 10161 10158 ] final  175.79 input  -65.29 | X-H torsion
[ 10718 10713 10712 10709 ] final   -3.76 input   66.30 | X-H torsion
[ 10763 10752 10751 10750 ] final   39.73 input  -60.55 | X-H torsion
[ 11005 11000 10999 10996 ] final  -84.30 input  -57.11 | X-H torsion

> <Gold.Protein.ActiveResidues>
 VAL166  LYS551  ARG553  GLY616  TRP617  ASP618  TYR619  PRO620  LYS621  CYS622 
 ASP623  PHE694  ASN695  SER759  ASP760  ASP761  ALA762  ILE779  LEU786  VAL792 
 PHE793  MET794  SER795  GLU796  ALA797  LYS798  CYS799  TRP800  GLU811  SER814 

> <Gold.Protein.RotatedAtoms>
  151.6879  135.0951  160.0227 H   0  0  0  0  0  0  0  0  0  0  0  0  # atno 6907 bound_to 6896
  152.3796  133.6524  159.6159 H   0  0  0  0  0  0  0  0  0  0  0  0  # atno 6908 bound_to 6896
  150.7737  133.9052  159.3394 H   0  0  0  0  0  0  0  0  0  0  0  0  # atno 6909 bound_to 6896
  146.2346  140.2067  142.8334 H   0  0  0  0  0  0  0  0  0  0  0  0  # atno 7974 bound_to 7965
  154.4001  140.1397  156.3841 H   0  0  0  0  0  0  0  0  0  0  0  0  # atno 8008 bound_to 7997
  155.7976  140.3477  155.5363 H   0  0  0  0  0  0  0  0  0  0  0  0  # atno 8009 bound_to 7997
  155.8516  140.0942  157.1661 H   0  0  0  0  0  0  0  0  0  0  0  0  # atno 8010 bound_to 7997
  139.5190  144.2991  152.0395 H   0  0  0  0  0  0  0  0  0  0  0  0  # atno 10167 bound_to 10162
  156.7713  130.5301  149.5767 H   0  0  0  0  0  0  0  0  0  0  0  0  # atno 10718 bound_to 10713
  152.9958  135.6212  154.2512 H   0  0  0  0  0  0  0  0  0  0  0  0  # atno 10763 bound_to 10752
  154.2251  135.2794  155.2912 H   0  0  0  0  0  0  0  0  0  0  0  0  # atno 10764 bound_to 10752
  154.5496  135.5737  153.6969 H   0  0  0  0  0  0  0  0  0  0  0  0  # atno 10765 bound_to 10752
  141.1651  133.7339  156.8848 H   0  0  0  0  0  0  0  0  0  0  0  0  # atno 11005 bound_to 11000
  144.9739  140.8395  143.5438 LP  0  0  0  0  0  0  0  0  0  0  0  0  # atno 17320 bound_to 7965
  145.2051  139.2232  143.5172 LP  0  0  0  0  0  0  0  0  0  0  0  0  # atno 17321 bound_to 7965
  140.2439  144.4240  150.6249 LP  0  0  0  0  0  0  0  0  0  0  0  0  # atno 17342 bound_to 10162
  140.6271  143.2182  151.6573 LP  0  0  0  0  0  0  0  0  0  0  0  0  # atno 17343 bound_to 10162
  156.1276  130.6155  151.0286 LP  0  0  0  0  0  0  0  0  0  0  0  0  # atno 17370 bound_to 10713
  157.6689  131.0865  150.7660 LP  0  0  0  0  0  0  0  0  0  0  0  0  # atno 17371 bound_to 10713
  140.1690  134.9113  157.2810 LP  0  0  0  0  0  0  0  0  0  0  0  0  # atno 17394 bound_to 11000
  140.2524  134.3667  155.7437 LP  0  0  0  0  0  0  0  0  0  0  0  0  # atno 17395 bound_to 11000

$$$$
