#       Name:                AV-unprocessed.smi:2356
#       Creating user name   scv26
#       Creation time:       Fri Mar 27 13:02:40 2020


#       File generated by GOLD software.
#

@<TRIPOS>MOLECULE
AV-unprocessed.smi:2356
    58    61     1
SMALL
NO_CHARGES


@<TRIPOS>ATOM
      1 ****        -0.8823  -1.0211   1.1557 C.3            1 S1                 0.0000
      2 ****        -1.6754   0.0671   0.4519 C.ar           1 S1                 0.0000
      3 ****        -3.0101  -0.1316   0.4027 N.ar           1 S1                 0.0000
      4 ****        -3.7931   0.7838  -0.2138 C.ar           1 S1                 0.0000
      5 ****        -5.1793   0.5314  -0.2409 N.pl3          1 S1                 0.0000
      6 ****        -6.0933   1.3220  -1.0493 C.3            1 S1                 0.0000
      7 ****        -7.4429   0.6177  -0.9132 C.3            1 S1                 0.0000
      8 ****        -7.0533  -0.8504  -0.7448 C.3            1 S1                 0.0000
      9 ****        -5.7238  -0.7963   0.0158 C.3            1 S1                 0.0000
     10 ****        -3.2479   1.9494  -0.8003 C.ar           1 S1                 0.0000
     11 ****        -1.8566   2.1572  -0.7511 C.ar           1 S1                 0.0000
     12 ****        -1.0376   1.1990  -0.1082 C.ar           1 S1                 0.0000
     13 ****         0.3797   1.2890  -0.0150 N.am           1 S1                 0.0000
     14 ****         1.2109   2.3022  -0.3270 C.2            1 S1                 0.0000
     15 ****         0.8565   3.4145  -0.7097 O.2            1 S1                 0.0000
     16 ****         2.5137   2.0060  -0.1643 N.am           1 S1                 0.0000
     17 ****         3.6761   2.8648  -0.4076 C.3            1 S1                 0.0000
     18 ****         4.0872   2.8198  -1.8884 C.3            1 S1                 0.0000
     19 ****         5.3850   3.6084  -2.1168 C.3            1 S1                 0.0000
     20 ****         6.4235   3.1127  -1.2749 O.3            1 S1                 0.0000
     21 ****         6.1513   3.1730   0.1259 C.3            1 S1                 0.0000
     22 ****         6.1537   4.6074   0.6390 C.3            1 S1                 0.0000
     23 ****         7.4531   5.3575   0.8099 C.3            1 S1                 0.0000
     24 ****         6.6595   4.9361   2.0240 C.3            1 S1                 0.0000
     25 ****         4.8580   2.4015   0.4579 C.3            1 S1                 0.0000
     26 ****        -0.3276  -0.6039   1.9967 H              1 S1                 0.0000
     27 ****        -0.1718  -1.4787   0.4666 H              1 S1                 0.0000
     28 ****        -1.5335  -1.8074   1.5398 H              1 S1                 0.0000
     29 ****        -6.1453   2.3555  -0.7057 H              1 S1                 0.0000
     30 ****        -5.7586   1.3155  -2.0875 H              1 S1                 0.0000
     31 ****        -7.9536   0.9671  -0.0148 H              1 S1                 0.0000
     32 ****        -8.1008   0.7906  -1.7653 H              1 S1                 0.0000
     33 ****        -7.8131  -1.4368  -0.2276 H              1 S1                 0.0000
     34 ****        -6.8946  -1.2984  -1.7266 H              1 S1                 0.0000
     35 ****        -5.0552  -1.5934  -0.3119 H              1 S1                 0.0000
     36 ****        -5.8870  -0.9059   1.0884 H              1 S1                 0.0000
     37 ****        -3.8703   2.6831  -1.2901 H              1 S1                 0.0000
     38 ****        -1.4563   3.0420  -1.2187 H              1 S1                 0.0000
     39 ****         0.8317   0.4600   0.3417 H              1 S1                 0.0000
     40 ****         2.7210   1.0769   0.1732 H              1 S1                 0.0000
     41 ****         3.4396   3.8925  -0.1291 H              1 S1                 0.0000
     42 ****         4.2376   1.7850  -2.1996 H              1 S1                 0.0000
     43 ****         3.2946   3.2226  -2.5197 H              1 S1                 0.0000
     44 ****         5.7031   3.5052  -3.1543 H              1 S1                 0.0000
     45 ****         5.2269   4.6736  -1.9475 H              1 S1                 0.0000
     46 ****         6.9783   2.6568   0.6151 H              1 S1                 0.0000
     47 ****         5.3153   5.2095   0.2956 H              1 S1                 0.0000
     48 ****         8.3780   4.8225   0.6039 H              1 S1                 0.0000
     49 ****         7.4585   6.4147   0.5526 H              1 S1                 0.0000
     50 ****         6.1370   5.7133   2.5778 H              1 S1                 0.0000
     51 ****         7.0582   4.1221   2.6263 H              1 S1                 0.0000
     52 ****         4.6190   2.5054   1.5171 H              1 S1                 0.0000
     53 ****         5.0339   1.3382   0.2871 H              1 S1                 0.0000
     54 ****        -3.4155  -0.9463   0.8173 LP             1 S1                 0.0000
     55 ****        -0.1165   3.6222  -0.8099 LP             1 S1                 0.0000
     56 ****         1.5411   4.1122  -0.9210 LP             1 S1                 0.0000
     57 ****         7.2487   3.6487  -1.4532 LP             1 S1                 0.0000
     58 ****         6.5883   2.1565  -1.5172 LP             1 S1                 0.0000
@<TRIPOS>BOND
    1    1    2 1     
    2    1   26 1     
    3    1   27 1     
    4    1   28 1     
    5    2   12 ar    
    6    2    3 ar    
    7    3    4 ar    
    8    4    5 1     
    9    4   10 ar    
   10    5    9 1     
   11    5    6 1     
   12    6    7 1     
   13    6   29 1     
   14    6   30 1     
   15    7    8 1     
   16    7   31 1     
   17    7   32 1     
   18    8    9 1     
   19    8   33 1     
   20    8   34 1     
   21    9   35 1     
   22    9   36 1     
   23   10   11 ar    
   24   10   37 1     
   25   11   12 ar    
   26   11   38 1     
   27   12   13 1     
   28   13   14 am    
   29   13   39 1     
   30   14   15 2     
   31   14   16 am    
   32   16   17 1     
   33   16   40 1     
   34   17   25 1     
   35   17   18 1     
   36   17   41 1     
   37   18   19 1     
   38   18   42 1     
   39   18   43 1     
   40   19   20 1     
   41   19   44 1     
   42   19   45 1     
   43   20   21 1     
   44   21   22 1     
   45   21   25 1     
   46   21   46 1     
   47   22   24 1     
   48   22   23 1     
   49   22   47 1     
   50   23   24 1     
   51   23   48 1     
   52   23   49 1     
   53   24   50 1     
   54   24   51 1     
   55   25   52 1     
   56   25   53 1     
   57    3   54 1     
   58   15   55 1     
   59   15   56 1     
   60   20   57 1     
   61   20   58 1     
@<TRIPOS>SUBSTRUCTURE
      1 S1             1
@<TRIPOS>SET
LONE_PAIRS      STATIC     ATOMS    <user>   **** ""
5 54 55 56 57 58
DONOR_HYDROGENS      STATIC     ATOMS    <user>   **** ""
2 39 40
ATOM$BLUE        STATIC     ATOMS    COLORGROUP SYSTEM
5 54 55 56 57 58
ATOM$RED        STATIC     ATOMS    COLORGROUP SYSTEM
2 39 40
