AV-unprocessed.smi:1692|AV-procd|sdf|6784|dock6
  -GOLD-   22720 7543D 1   1.00000     0.00000
 Structure written by MMmdl.
 45 46  0  0  0  0  0  0  0  0  1 V2000
  142.8084  142.1158  157.0284 C   0  0  0  0  0  0  0  0  0  0  0  0
  143.8190  143.2749  156.9947 C   0  0  1  0  0  0  0  0  0  0  0  0
  145.1211  142.9287  156.2443 C   0  0  0  0  0  0  0  0  0  0  0  0
  144.9453  142.8870  154.7937 N   0  0  0  0  0  0  0  0  0  0  0  0
  146.1910  142.5958  154.0853 C   0  0  0  0  0  0  0  0  0  0  0  0
  146.8622  141.2648  154.4652 C   0  0  0  0  0  0  0  0  0  0  0  0
  148.3873  141.3114  154.2767 C   0  0  0  0  0  0  0  0  0  0  0  0
  149.0192  142.2361  155.2113 N   0  0  0  0  0  0  0  0  0  0  0  0
  149.9633  141.9019  156.1033 C   0  0  0  0  0  0  0  0  0  0  0  0
  150.4053  140.7591  156.2264 O   0  0  0  0  0  0  0  0  0  0  0  0
  150.3492  142.9678  156.8268 N   0  0  0  0  0  0  0  0  0  0  0  0
  151.3274  143.0231  157.8556 C   0  0  0  0  0  0  0  0  0  0  0  0
  151.6060  144.3182  158.3482 C   0  0  0  0  0  0  0  0  0  0  0  0
  152.5634  144.4807  159.3683 C   0  0  0  0  0  0  0  0  0  0  0  0
  153.2186  143.3425  159.8708 C   0  0  0  0  0  0  0  0  0  0  0  0
  152.8820  142.0896  159.3261 C   0  0  0  0  0  0  0  0  0  0  0  0
  151.9650  141.9316  158.3482 N   0  0  0  0  0  0  0  0  0  0  0  0
  144.3788  144.1542  154.3494 C   0  0  0  0  0  0  0  0  0  0  0  0
  143.0435  144.4661  155.0485 C   0  0  2  0  0  0  0  0  0  0  0  0
  142.4867  145.8351  154.6442 C   0  0  0  0  0  0  0  0  0  0  0  0
  143.2397  144.4666  156.4613 O   0  0  0  0  0  0  0  0  0  0  0  0
  143.2290  141.2496  157.5392 H   0  0  0  0  0  0  0  0  0  0  0  0
  142.5193  141.7942  156.0282 H   0  0  0  0  0  0  0  0  0  0  0  0
  141.9027  142.4055  157.5613 H   0  0  0  0  0  0  0  0  0  0  0  0
  144.0794  143.4979  158.0298 H   0  0  0  0  0  0  0  0  0  0  0  0
  145.8794  143.6723  156.4944 H   0  0  0  0  0  0  0  0  0  0  0  0
  145.4940  141.9737  156.6131 H   0  0  0  0  0  0  0  0  0  0  0  0
  145.9824  142.5642  153.0149 H   0  0  0  0  0  0  0  0  0  0  0  0
  146.8980  143.4145  154.2280 H   0  0  0  0  0  0  0  0  0  0  0  0
  146.6389  141.0182  155.5030 H   0  0  0  0  0  0  0  0  0  0  0  0
  146.4456  140.4607  153.8568 H   0  0  0  0  0  0  0  0  0  0  0  0
  148.8126  140.3214  154.4438 H   0  0  0  0  0  0  0  0  0  0  0  0
  148.6378  141.5876  153.2511 H   0  0  0  0  0  0  0  0  0  0  0  0
  148.7126  143.1972  155.1776 H   0  0  0  0  0  0  0  0  0  0  0  0
  149.8925  143.8424  156.6155 H   0  0  0  0  0  0  0  0  0  0  0  0
  151.0936  145.1825  157.9509 H   0  0  0  0  0  0  0  0  0  0  0  0
  152.7907  145.4622  159.7577 H   0  0  0  0  0  0  0  0  0  0  0  0
  153.9586  143.4270  160.6527 H   0  0  0  0  0  0  0  0  0  0  0  0
  153.3610  141.1905  159.6844 H   0  0  0  0  0  0  0  0  0  0  0  0
  145.0879  144.9618  154.5397 H   0  0  0  0  0  0  0  0  0  0  0  0
  144.2201  144.1284  153.2708 H   0  0  0  0  0  0  0  0  0  0  0  0
  142.3075  143.7061  154.7845 H   0  0  0  0  0  0  0  0  0  0  0  0
  142.2968  145.8801  153.5716 H   0  0  0  0  0  0  0  0  0  0  0  0
  143.1840  146.6348  154.8956 H   0  0  0  0  0  0  0  0  0  0  0  0
  141.5464  146.0395  155.1566 H   0  0  0  0  0  0  0  0  0  0  0  0
  1  2  1  0  0  0  0
  1 22  1  0  0  0  0
  1 23  1  0  0  0  0
  1 24  1  0  0  0  0
  2 21  1  0  0  0  0
  2  3  1  0  0  0  0
  2 25  1  0  0  0  0
  3  4  1  0  0  0  0
  3 26  1  0  0  0  0
  3 27  1  0  0  0  0
  4  5  1  0  0  0  0
  4 18  1  0  0  0  0
  5  6  1  0  0  0  0
  5 28  1  0  0  0  0
  5 29  1  0  0  0  0
  6  7  1  0  0  0  0
  6 30  1  0  0  0  0
  6 31  1  0  0  0  0
  7  8  1  0  0  0  0
  7 32  1  0  0  0  0
  7 33  1  0  0  0  0
  8  9  1  0  0  0  0
  8 34  1  0  0  0  0
  9 10  2  0  0  0  0
  9 11  1  0  0  0  0
 11 12  1  0  0  0  0
 11 35  1  0  0  0  0
 12 17  1  0  0  0  0
 12 13  2  0  0  0  0
 13 14  1  0  0  0  0
 13 36  1  0  0  0  0
 14 15  2  0  0  0  0
 14 37  1  0  0  0  0
 15 16  1  0  0  0  0
 15 38  1  0  0  0  0
 16 17  2  0  0  0  0
 16 39  1  0  0  0  0
 18 19  1  0  0  0  0
 18 40  1  0  0  0  0
 18 41  1  0  0  0  0
 19 20  1  0  0  0  0
 19 21  1  0  0  0  0
 19 42  1  0  0  0  0
 20 43  1  0  0  0  0
 20 44  1  0  0  0  0
 20 45  1  0  0  0  0
M  END
> <s_m_source_file>
AV-unprocessed.smi

> <i_m_source_file_index>
1692

> <i_lp_mmshare_version>
43012

> <i_f3d_flags>
0

> <s_epik_input>
W0NIM11bQ0BASF0xW0NIMl1OKFtDSDJdW0NASF0oTzEpW0NIM10pW0NIMl1bQ0gyXVtDSDJdW05IXUMoPU8pW05IXWMyW2NIXVtjSF1bY0hdW2NIXW4y

> <s_epik_cmdline>
J2VwaWtfcHl0aG9uJywgJy1waCcsICc3LjAnLCAnLXRuJywgJzgnLCAnLW1hJywgJzIwMCcsICctbWV0YWxfYmluZGluZycsICctaW1hZScsICc8aW5maWxlLm1hZT4nLCAnLW9tYWUnLCAnPG91dGZpbGUubWFlPic=

> <r_epik_Ionization_Penalty>
0.594711

> <r_epik_Ionization_Penalty_Charging>
0

> <r_epik_Ionization_Penalty_Neutral>
0.594711

> <r_epik_State_Penalty>
0.608529

> <r_epik_Charging_Adjusted_Penalty>
0.608529

> <i_epik_Tot_Q>
0

> <i_epik_Tot_abs_Q>
0

> <r_epik_Metal_State_Penalty>
0.608528

> <b_epik_Metal_Only>
0

> <s_lp_Force_Field>
OPLS_2005

> <r_lp_Energy>
25.6838

> <b_lp_Chiralities_Consistent>
1

> <s_lp_Variant>
AV-unprocessed.smi:1692-7

> <Gold.Version>
5.8.1

> <Gold.Id.Protein>
6NUR|6NUR_protein|mol2

> <Gold.PLP.Fitness>
48.2493

> <Gold.PLP.PLP>
-42.6190

> <Gold.PLP.part.hbond>
-2.0000

> <Gold.PLP.part.metal>
0.0000

> <Gold.PLP.part.buried>
-6.3324

> <Gold.PLP.part.nonpolar>
-34.5060

> <Gold.PLP.part.repulsive>
0.5553

> <Gold.PLP.ligand.clash>
0.0000

> <Gold.PLP.ligand.torsion>
0.1905

> <Gold.PLP.Chemscore.Hbond>
1.9920

> <Gold.PLP.Chemscore.CHOScore>
0.0000

> <Gold.PLP.Chemscore.Metal>
0.0000

> <Gold.Chemscore.Hbonds>
donor molecule, donor type, donor heavy atom, donor atom, acceptor molecule, acceptor atom, score
      L1  H     8    34       P1  8028  1.00
      L1  H    11    35       P1  8028  1.00

> <Gold.PLP.Chemscore.Internal.Correction>
0.0354

> <Gold.Rescore>
     Score         DG    S(hbond)    S(metal)    S(lipo)     H(rot)  DE(clash)    DE(int)     intcor
     17.78     -19.43       1.94        0.00     101.48       1.73       0.10       1.56       ----

> <Gold.Chemscore.Fitness>
17.7765

> <Gold.Chemscore.DG>
-19.4279

> <Gold.Chemscore.ZeroCoef>
-5.4800

> <Gold.Chemscore.Hbond>
1.9445

> <Gold.Chemscore.Metal>
0.0000

> <Gold.Chemscore.Lipo>
101.4818

> <Gold.Chemscore.Internal_Hbond>
0.0000

> <Gold.Chemscore.DEClash>
0.0951

> <Gold.Chemscore.DEInternal>
1.5563

> <Gold.Chemscore.Rot>
1.7266

> <Gold.Chemscore.Internal.Correction>
   9.000000E+99

> <Gold.Chemscore.Hbonds>
donor molecule, donor type, donor heavy atom, donor atom, acceptor molecule, acceptor atom, score
      L1  H     8    34       P1  8028  0.94
      L1  H    11    35       P1  8028  0.95

> <Gold.Chemscore.Hbond.Weighted>
-6.4945

> <Gold.Chemscore.Metal.Weighted>
-0.0000

> <Gold.Chemscore.Lipo.Weighted>
-11.8734

> <Gold.Chemscore.Internal_Hbond.Weighted>
0.0000

> <Gold.Chemscore.DEClash.Weighted>
0.0951

> <Gold.Chemscore.DEInternal.Weighted>
1.5563

> <Gold.Chemscore.Rot.Weighted>
4.4200

> <Gold.Chemscore.Internal.Correction.Weighted>
   9.000000E+99

> <Gold.Protein.RotatedTorsions>
[ 6907 6896 6895 6894 ] final  -55.20 input  -60.11 | X-H torsion
[ 7974 7965 7964 7962 ] final  -34.32 input  175.53 | X-H torsion
[ 8008 7997 7996 7995 ] final  -26.57 input   59.86 | X-H torsion
[ 10167 10162 10161 10158 ] final   76.92 input  -65.29 | X-H torsion
[ 10718 10713 10712 10709 ] final  -30.09 input   66.30 | X-H torsion
[ 10763 10752 10751 10750 ] final  -27.43 input  -60.55 | X-H torsion
[ 11005 11000 10999 10996 ] final  106.37 input  -57.11 | X-H torsion

> <Gold.Protein.ActiveResidues>
 VAL166  LYS551  ARG553  GLY616  TRP617  ASP618  TYR619  PRO620  LYS621  CYS622 
 ASP623  PHE694  ASN695  SER759  ASP760  ASP761  ALA762  ILE779  LEU786  VAL792 
 PHE793  MET794  SER795  GLU796  ALA797  LYS798  CYS799  TRP800  GLU811  SER814 

> <Gold.Protein.RotatedAtoms>
  150.8272  134.7509  159.6822 H   0  0  0  0  0  0  0  0  0  0  0  0  # atno 6907 bound_to 6896
  152.4381  134.5642  159.9912 H   0  0  0  0  0  0  0  0  0  0  0  0  # atno 6908 bound_to 6896
  151.5811  133.3340  159.3044 H   0  0  0  0  0  0  0  0  0  0  0  0  # atno 6909 bound_to 6896
  146.0839  140.6024  142.8895 H   0  0  0  0  0  0  0  0  0  0  0  0  # atno 7974 bound_to 7965
  154.4419  140.1896  156.0796 H   0  0  0  0  0  0  0  0  0  0  0  0  # atno 8008 bound_to 7997
  156.0449  140.3315  155.7258 H   0  0  0  0  0  0  0  0  0  0  0  0  # atno 8009 bound_to 7997
  155.5644  140.0607  157.2812 H   0  0  0  0  0  0  0  0  0  0  0  0  # atno 8010 bound_to 7997
  139.9871  144.5784  150.7850 H   0  0  0  0  0  0  0  0  0  0  0  0  # atno 10167 bound_to 10162
  156.4042  130.4396  149.7300 H   0  0  0  0  0  0  0  0  0  0  0  0  # atno 10718 bound_to 10713
  153.7319  135.6938  153.4987 H   0  0  0  0  0  0  0  0  0  0  0  0  # atno 10763 bound_to 10752
  153.2130  135.4396  155.0400 H   0  0  0  0  0  0  0  0  0  0  0  0  # atno 10764 bound_to 10752
  154.8250  135.3441  154.6849 H   0  0  0  0  0  0  0  0  0  0  0  0  # atno 10765 bound_to 10752
  139.8813  134.9367  156.5655 H   0  0  0  0  0  0  0  0  0  0  0  0  # atno 11005 bound_to 11000
  144.7312  140.4676  143.6936 LP  0  0  0  0  0  0  0  0  0  0  0  0  # atno 17320 bound_to 7965
  145.6167  139.1519  143.3045 LP  0  0  0  0  0  0  0  0  0  0  0  0  # atno 17321 bound_to 7965
  140.7468  143.2897  151.3365 LP  0  0  0  0  0  0  0  0  0  0  0  0  # atno 17342 bound_to 10162
  139.6367  144.0616  152.2522 LP  0  0  0  0  0  0  0  0  0  0  0  0  # atno 17343 bound_to 10162
  156.4304  130.7812  151.2832 LP  0  0  0  0  0  0  0  0  0  0  0  0  # atno 17370 bound_to 10713
  157.7505  131.0156  150.3509 LP  0  0  0  0  0  0  0  0  0  0  0  0  # atno 17371 bound_to 10713
  140.8137  133.8409  155.8833 LP  0  0  0  0  0  0  0  0  0  0  0  0  # atno 17394 bound_to 11000
  140.9483  134.1812  157.4747 LP  0  0  0  0  0  0  0  0  0  0  0  0  # atno 17395 bound_to 11000

$$$$
