AV-unprocessed.smi:447|AV-procd|sdf|2598|dock10
  -GOLD-   2262022593D 1   1.00000     0.00000
 Structure written by MMmdl.
 45 47  0  0  0  0  0  0  0  0  1 V2000
  150.7299  134.7418  155.9230 C   0  0  0  0  0  0  0  0  0  0  0  0
  151.2604  136.1179  156.3088 C   0  0  0  0  0  0  0  0  0  0  0  0
  151.6650  136.3247  157.4525 O   0  0  0  0  0  0  0  0  0  0  0  0
  151.2417  137.0522  155.3469 N   0  0  0  0  0  0  0  0  0  0  0  0
  151.6465  138.4471  155.5099 C   0  0  1  0  0  0  0  0  0  0  0  0
  152.8392  138.7893  154.6039 C   0  0  0  0  0  0  0  0  0  0  0  0
  150.4485  139.3130  155.2133 C   0  0  0  0  0  0  0  0  0  0  0  0
  149.7081  139.1408  154.1136 N   0  0  0  0  0  0  0  0  0  0  0  0
  148.7480  140.1250  154.2275 C   0  0  0  0  0  0  0  0  0  0  0  0
  147.6672  140.4570  153.3796 C   0  0  0  0  0  0  0  0  0  0  0  0
  146.8030  141.5216  153.7088 C   0  0  0  0  0  0  0  0  0  0  0  0
  147.0076  142.2682  154.8872 C   0  0  0  0  0  0  0  0  0  0  0  0
  148.0796  141.9541  155.7445 C   0  0  0  0  0  0  0  0  0  0  0  0
  148.9389  140.8896  155.4114 C   0  0  0  0  0  0  0  0  0  0  0  0
  150.0586  140.3341  156.0229 N   0  0  0  0  0  0  0  0  0  0  0  0
  150.6447  140.7944  157.2758 C   0  0  0  0  0  0  0  0  0  0  0  0
  150.5199  142.3215  157.4546 C   0  0  2  0  0  0  0  0  0  0  0  0
  150.9548  142.9429  156.2623 O   0  0  0  0  0  0  0  0  0  0  0  0
  151.2600  142.8365  158.6823 C   0  0  0  0  0  0  0  0  0  0  0  0
  152.0484  141.9503  159.4481 C   0  0  0  0  0  0  0  0  0  0  0  0
  152.7440  142.4146  160.5810 C   0  0  0  0  0  0  0  0  0  0  0  0
  152.6528  143.7680  160.9579 C   0  0  0  0  0  0  0  0  0  0  0  0
  151.8714  144.6581  160.1967 C   0  0  0  0  0  0  0  0  0  0  0  0
  151.1793  144.1953  159.0609 C   0  0  0  0  0  0  0  0  0  0  0  0
  151.1077  134.4408  154.9454 H   0  0  0  0  0  0  0  0  0  0  0  0
  149.6403  134.7570  155.8837 H   0  0  0  0  0  0  0  0  0  0  0  0
  151.0360  133.9915  156.6526 H   0  0  0  0  0  0  0  0  0  0  0  0
  150.8937  136.7901  154.4357 H   0  0  0  0  0  0  0  0  0  0  0  0
  151.9450  138.5807  156.5478 H   0  0  0  0  0  0  0  0  0  0  0  0
  153.1355  139.8311  154.7294 H   0  0  0  0  0  0  0  0  0  0  0  0
  152.5961  138.6372  153.5517 H   0  0  0  0  0  0  0  0  0  0  0  0
  153.7058  138.1710  154.8390 H   0  0  0  0  0  0  0  0  0  0  0  0
  147.5025  139.8915  152.4745 H   0  0  0  0  0  0  0  0  0  0  0  0
  145.9797  141.7670  153.0540 H   0  0  0  0  0  0  0  0  0  0  0  0
  146.3415  143.0824  155.1326 H   0  0  0  0  0  0  0  0  0  0  0  0
  148.2393  142.5245  156.6474 H   0  0  0  0  0  0  0  0  0  0  0  0
  150.2176  140.2552  158.1203 H   0  0  0  0  0  0  0  0  0  0  0  0
  151.6995  140.5166  157.2594 H   0  0  0  0  0  0  0  0  0  0  0  0
  149.4653  142.5795  157.5604 H   0  0  0  0  0  0  0  0  0  0  0  0
  150.2105  143.3574  155.8529 H   0  0  0  0  0  0  0  0  0  0  0  0
  152.1275  140.9111  159.1637 H   0  0  0  0  0  0  0  0  0  0  0  0
  153.3491  141.7327  161.1600 H   0  0  0  0  0  0  0  0  0  0  0  0
  153.1882  144.1250  161.8253 H   0  0  0  0  0  0  0  0  0  0  0  0
  151.8084  145.6984  160.4798 H   0  0  0  0  0  0  0  0  0  0  0  0
  150.5910  144.8901  158.4796 H   0  0  0  0  0  0  0  0  0  0  0  0
  1  2  1  0  0  0  0
  1 25  1  0  0  0  0
  1 26  1  0  0  0  0
  1 27  1  0  0  0  0
  2  3  2  0  0  0  0
  2  4  1  0  0  0  0
  4  5  1  0  0  0  0
  4 28  1  0  0  0  0
  5  6  1  0  0  0  0
  5  7  1  0  0  0  0
  5 29  1  0  0  0  0
  6 30  1  0  0  0  0
  6 31  1  0  0  0  0
  6 32  1  0  0  0  0
  7 15  1  0  0  0  0
  7  8  2  0  0  0  0
  8  9  1  0  0  0  0
  9 14  2  0  0  0  0
  9 10  1  0  0  0  0
 10 11  2  0  0  0  0
 10 33  1  0  0  0  0
 11 12  1  0  0  0  0
 11 34  1  0  0  0  0
 12 13  2  0  0  0  0
 12 35  1  0  0  0  0
 13 14  1  0  0  0  0
 13 36  1  0  0  0  0
 14 15  1  0  0  0  0
 15 16  1  0  0  0  0
 16 17  1  0  0  0  0
 16 37  1  0  0  0  0
 16 38  1  0  0  0  0
 17 18  1  0  0  0  0
 17 19  1  0  0  0  0
 17 39  1  0  0  0  0
 18 40  1  0  0  0  0
 19 24  1  0  0  0  0
 19 20  2  0  0  0  0
 20 21  1  0  0  0  0
 20 41  1  0  0  0  0
 21 22  2  0  0  0  0
 21 42  1  0  0  0  0
 22 23  1  0  0  0  0
 22 43  1  0  0  0  0
 23 24  2  0  0  0  0
 23 44  1  0  0  0  0
 24 45  1  0  0  0  0
M  END
> <s_m_source_file>
AV-unprocessed.smi

> <i_m_source_file_index>
447

> <i_lp_mmshare_version>
43012

> <i_f3d_flags>
0

> <s_epik_input>
W0NIM11DKD1PKVtOSF1bQ0BIXShbQ0gzXSljKG4xKW4oYyhjMTIpW2NIXVtjSF1bY0hdW2NIXTIpW0NIMl1bQ0BIXShbT0hdKWMzW2NIXVtjSF1bY0hdW2NIXVtjSF0z

> <s_epik_cmdline>
J2VwaWtfcHl0aG9uJywgJy1waCcsICc3LjAnLCAnLXRuJywgJzgnLCAnLW1hJywgJzIwMCcsICctbWV0YWxfYmluZGluZycsICctaW1hZScsICc8aW5maWxlLm1hZT4nLCAnLW9tYWUnLCAnPG91dGZpbGUubWFlPic=

> <r_epik_Ionization_Penalty>
0.13301

> <r_epik_Ionization_Penalty_Charging>
0

> <r_epik_Ionization_Penalty_Neutral>
0.13301

> <r_epik_State_Penalty>
0.122384

> <r_epik_Charging_Adjusted_Penalty>
0.122384

> <i_epik_Tot_Q>
0

> <i_epik_Tot_abs_Q>
0

> <r_epik_Metal_State_Penalty>
0.0997374

> <b_epik_Metal_Only>
0

> <s_lp_Force_Field>
OPLS_2005

> <r_lp_Energy>
6.90784

> <b_lp_Chiralities_Consistent>
1

> <s_lp_Variant>
AV-unprocessed.smi:447-2

> <Gold.Version>
5.8.1

> <Gold.Id.Protein>
6NUR|6NUR_protein|mol2

> <Gold.PLP.Fitness>
46.9695

> <Gold.PLP.PLP>
-45.3725

> <Gold.PLP.part.hbond>
-1.1299

> <Gold.PLP.part.metal>
0.0000

> <Gold.PLP.part.buried>
-2.4575

> <Gold.PLP.part.nonpolar>
-42.7031

> <Gold.PLP.part.repulsive>
0.6252

> <Gold.PLP.ligand.clash>
0.0000

> <Gold.PLP.ligand.torsion>
0.7255

> <Gold.PLP.Chemscore.Hbond>
1.0000

> <Gold.PLP.Chemscore.CHOScore>
0.0000

> <Gold.PLP.Chemscore.Metal>
0.0000

> <Gold.Chemscore.Hbonds>
donor molecule, donor type, donor heavy atom, donor atom, acceptor molecule, acceptor atom, score
      L1  H    18    40       P1  8028  1.00

> <Gold.PLP.Chemscore.Internal.Correction>
0.0480

> <Gold.Rescore>
     Score         DG    S(hbond)    S(metal)    S(lipo)     H(rot)  DE(clash)    DE(int)     intcor
     17.23     -17.78       0.99        0.00     128.31       2.35       0.16       0.39       ----

> <Gold.Chemscore.Fitness>
17.2316

> <Gold.Chemscore.DG>
-17.7838

> <Gold.Chemscore.ZeroCoef>
-5.4800

> <Gold.Chemscore.Hbond>
0.9923

> <Gold.Chemscore.Metal>
0.0000

> <Gold.Chemscore.Lipo>
128.3128

> <Gold.Chemscore.Internal_Hbond>
0.0000

> <Gold.Chemscore.DEClash>
0.1581

> <Gold.Chemscore.DEInternal>
0.3941

> <Gold.Chemscore.Rot>
2.3528

> <Gold.Chemscore.Internal.Correction>
   9.000000E+99

> <Gold.Chemscore.Hbonds>
donor molecule, donor type, donor heavy atom, donor atom, acceptor molecule, acceptor atom, score
      L1  H    18    40       P1  8028  0.97

> <Gold.Chemscore.Hbond.Weighted>
-3.3143

> <Gold.Chemscore.Metal.Weighted>
-0.0000

> <Gold.Chemscore.Lipo.Weighted>
-15.0126

> <Gold.Chemscore.Internal_Hbond.Weighted>
0.0000

> <Gold.Chemscore.DEClash.Weighted>
0.1581

> <Gold.Chemscore.DEInternal.Weighted>
0.3941

> <Gold.Chemscore.Rot.Weighted>
6.0231

> <Gold.Chemscore.Internal.Correction.Weighted>
   9.000000E+99

> <Gold.Protein.RotatedTorsions>
[ 6907 6896 6895 6894 ] final  112.03 input  -60.11 | X-H torsion
[ 7974 7965 7964 7962 ] final   45.95 input  175.53 | X-H torsion
[ 8008 7997 7996 7995 ] final  -95.12 input   59.86 | X-H torsion
[ 10167 10162 10161 10158 ] final -112.06 input  -65.29 | X-H torsion
[ 10718 10713 10712 10709 ] final  178.75 input   66.30 | X-H torsion
[ 10763 10752 10751 10750 ] final  -63.21 input  -60.55 | X-H torsion
[ 11005 11000 10999 10996 ] final -109.22 input  -57.11 | X-H torsion

> <Gold.Protein.ActiveResidues>
 VAL166  LYS551  ARG553  GLY616  TRP617  ASP618  TYR619  PRO620  LYS621  CYS622 
 ASP623  PHE694  ASN695  SER759  ASP760  ASP761  ALA762  ILE779  LEU786  VAL792 
 PHE793  MET794  SER795  GLU796  ALA797  LYS798  CYS799  TRP800  GLU811  SER814 

> <Gold.Protein.RotatedAtoms>
  152.4938  133.8574  159.7232 H   0  0  0  0  0  0  0  0  0  0  0  0  # atno 6907 bound_to 6896
  150.9095  133.7007  159.2865 H   0  0  0  0  0  0  0  0  0  0  0  0  # atno 6908 bound_to 6896
  151.4421  135.1025  159.9725 H   0  0  0  0  0  0  0  0  0  0  0  0  # atno 6909 bound_to 6896
  146.0434  139.4909  142.9764 H   0  0  0  0  0  0  0  0  0  0  0  0  # atno 7974 bound_to 7965
  154.7572  140.0483  157.0943 H   0  0  0  0  0  0  0  0  0  0  0  0  # atno 8008 bound_to 7997
  154.9983  140.3121  155.4858 H   0  0  0  0  0  0  0  0  0  0  0  0  # atno 8009 bound_to 7997
  156.2897  140.2206  156.5092 H   0  0  0  0  0  0  0  0  0  0  0  0  # atno 8010 bound_to 7997
  140.1269  143.4395  152.1654 H   0  0  0  0  0  0  0  0  0  0  0  0  # atno 10167 bound_to 10162
  156.8859  130.9831  151.3056 H   0  0  0  0  0  0  0  0  0  0  0  0  # atno 10718 bound_to 10713
  154.3116  135.6214  153.5468 H   0  0  0  0  0  0  0  0  0  0  0  0  # atno 10763 bound_to 10752
  152.9829  135.5702  154.5171 H   0  0  0  0  0  0  0  0  0  0  0  0  # atno 10764 bound_to 10752
  154.4821  135.2863  155.1539 H   0  0  0  0  0  0  0  0  0  0  0  0  # atno 10765 bound_to 10752
  141.0859  133.9139  157.2186 H   0  0  0  0  0  0  0  0  0  0  0  0  # atno 11005 bound_to 11000
  145.6846  141.0181  143.1588 LP  0  0  0  0  0  0  0  0  0  0  0  0  # atno 17320 bound_to 7965
  144.7086  139.8461  143.7422 LP  0  0  0  0  0  0  0  0  0  0  0  0  # atno 17321 bound_to 7965
  139.5540  144.7359  151.4350 LP  0  0  0  0  0  0  0  0  0  0  0  0  # atno 17342 bound_to 10162
  140.6840  143.8017  150.7160 LP  0  0  0  0  0  0  0  0  0  0  0  0  # atno 17343 bound_to 10162
  157.6113  130.8585  149.8956 LP  0  0  0  0  0  0  0  0  0  0  0  0  # atno 17370 bound_to 10713
  156.0653  130.3693  150.0891 LP  0  0  0  0  0  0  0  0  0  0  0  0  # atno 17371 bound_to 10713
  139.9678  135.0137  156.9432 LP  0  0  0  0  0  0  0  0  0  0  0  0  # atno 17394 bound_to 11000
  140.5363  134.0763  155.7329 LP  0  0  0  0  0  0  0  0  0  0  0  0  # atno 17395 bound_to 11000

$$$$
