AV-unprocessed.smi:1911|AV-procd|sdf|7743|dock8
  -GOLD-   22720 9483D 1   1.00000     0.00000
 Structure written by MMmdl.
 53 55  0  0  0  0  0  0  0  0  3 V2000
  146.2351  131.3593  149.7017 N   0  0  0  0  0  0  0  0  0  0  0  0
  145.1573  131.7898  150.3614 C   0  0  0  0  0  0  0  0  0  0  0  0
  144.0235  131.7006  149.8936 O   0  0  0  0  0  0  0  0  0  0  0  0
  145.3918  132.3887  151.7521 C   0  0  0  0  0  0  0  0  0  0  0  0
  144.9059  133.7876  151.8740 N   0  3  2  0  0  0  0  0  0  0  0  0
  145.4729  134.6942  150.8400 C   0  0  0  0  0  0  0  0  0  0  0  0
  144.8356  136.0923  150.9183 C   0  0  0  0  0  0  0  0  0  0  0  0
  144.9785  136.7146  152.3216 C   0  0  2  0  0  0  0  0  0  0  0  0
  146.3612  137.0934  152.6131 N   0  0  0  0  0  0  0  0  0  0  0  0
  146.7365  138.0794  153.4410 C   0  0  0  0  0  0  0  0  0  0  0  0
  145.9403  138.7993  154.0424 O   0  0  0  0  0  0  0  0  0  0  0  0
  148.0753  138.1815  153.5019 N   0  0  0  0  0  0  0  0  0  0  0  0
  148.8575  139.0917  154.2627 C   0  0  0  0  0  0  0  0  0  0  0  0
  148.3960  140.3564  154.7057 C   0  0  0  0  0  0  0  0  0  0  0  0
  149.2484  141.1768  155.4732 C   0  0  0  0  0  0  0  0  0  0  0  0
  150.5517  140.7262  155.7889 C   0  0  0  0  0  0  0  0  0  0  0  0
  151.4680  141.4547  156.5626 N   0  0  0  0  0  0  0  0  0  0  0  0
  151.0534  142.7863  157.0007 C   0  0  0  0  0  0  0  0  0  0  0  0
  151.5389  142.9362  158.4435 C   0  0  0  0  0  0  0  0  0  0  0  0
  151.5581  141.5000  158.9508 C   0  0  0  0  0  0  0  0  0  0  0  0
  151.9753  140.7114  157.7102 C   0  0  0  0  0  0  0  0  0  0  0  0
  150.9417  139.5035  155.3668 N   0  3  0  0  0  0  0  0  0  0  0  0
  150.1570  138.6863  154.6323 C   0  0  0  0  0  0  0  0  0  0  0  0
  144.4550  135.7286  153.3804 C   0  0  0  0  0  0  0  0  0  0  0  0
  145.0940  134.3343  153.2421 C   0  0  0  0  0  0  0  0  0  0  0  0
  146.1304  130.9533  148.7825 H   0  0  0  0  0  0  0  0  0  0  0  0
  147.1515  131.4350  150.1193 H   0  0  0  0  0  0  0  0  0  0  0  0
  144.8572  131.7519  152.4582 H   0  0  0  0  0  0  0  0  0  0  0  0
  146.4485  132.3349  152.0203 H   0  0  0  0  0  0  0  0  0  0  0  0
  146.5543  134.7646  150.9672 H   0  0  0  0  0  0  0  0  0  0  0  0
  145.3022  134.2822  149.8450 H   0  0  0  0  0  0  0  0  0  0  0  0
  145.2704  136.7446  150.1602 H   0  0  0  0  0  0  0  0  0  0  0  0
  143.7762  136.0125  150.6709 H   0  0  0  0  0  0  0  0  0  0  0  0
  144.3668  137.6174  152.3700 H   0  0  0  0  0  0  0  0  0  0  0  0
  147.0856  136.5527  152.1633 H   0  0  0  0  0  0  0  0  0  0  0  0
  148.5960  137.5721  152.8881 H   0  0  0  0  0  0  0  0  0  0  0  0
  147.3992  140.7079  154.4894 H   0  0  0  0  0  0  0  0  0  0  0  0
  148.8904  142.1337  155.8237 H   0  0  0  0  0  0  0  0  0  0  0  0
  151.4938  143.5500  156.3592 H   0  0  0  0  0  0  0  0  0  0  0  0
  149.9722  142.9137  156.9553 H   0  0  0  0  0  0  0  0  0  0  0  0
  152.5507  143.3443  158.4548 H   0  0  0  0  0  0  0  0  0  0  0  0
  150.9036  143.5920  159.0394 H   0  0  0  0  0  0  0  0  0  0  0  0
  152.2325  141.3522  159.7947 H   0  0  0  0  0  0  0  0  0  0  0  0
  150.5554  141.2030  159.2611 H   0  0  0  0  0  0  0  0  0  0  0  0
  151.6100  139.6838  157.7493 H   0  0  0  0  0  0  0  0  0  0  0  0
  153.0623  140.6705  157.6347 H   0  0  0  0  0  0  0  0  0  0  0  0
  150.5956  137.7369  154.3605 H   0  0  0  0  0  0  0  0  0  0  0  0
  144.6267  136.1223  154.3831 H   0  0  0  0  0  0  0  0  0  0  0  0
  143.3733  135.6339  153.2747 H   0  0  0  0  0  0  0  0  0  0  0  0
  144.6391  133.6631  153.9716 H   0  0  0  0  0  0  0  0  0  0  0  0
  146.1591  134.3777  153.4747 H   0  0  0  0  0  0  0  0  0  0  0  0
  143.9082  133.7501  151.7176 H   0  0  0  0  0  0  0  0  0  0  0  0
  151.8779  139.1820  155.6146 H   0  0  0  0  0  0  0  0  0  0  0  0
  1  2  1  0  0  0  0
  1 26  1  0  0  0  0
  1 27  1  0  0  0  0
  2  3  2  0  0  0  0
  2  4  1  0  0  0  0
  4  5  1  0  0  0  0
  4 28  1  0  0  0  0
  4 29  1  0  0  0  0
  5 25  1  0  0  0  0
  5  6  1  0  0  0  0
  5 52  1  0  0  0  0
  6  7  1  0  0  0  0
  6 30  1  0  0  0  0
  6 31  1  0  0  0  0
  7  8  1  0  0  0  0
  7 32  1  0  0  0  0
  7 33  1  0  0  0  0
  8  9  1  0  0  0  0
  8 24  1  0  0  0  0
  8 34  1  0  0  0  0
  9 10  1  0  0  0  0
  9 35  1  0  0  0  0
 10 11  2  0  0  0  0
 10 12  1  0  0  0  0
 12 13  1  0  0  0  0
 12 36  1  0  0  0  0
 13 23  1  0  0  0  0
 13 14  2  0  0  0  0
 14 15  1  0  0  0  0
 14 37  1  0  0  0  0
 15 16  2  0  0  0  0
 15 38  1  0  0  0  0
 16 17  1  0  0  0  0
 16 22  1  0  0  0  0
 17 21  1  0  0  0  0
 17 18  1  0  0  0  0
 18 19  1  0  0  0  0
 18 39  1  0  0  0  0
 18 40  1  0  0  0  0
 19 20  1  0  0  0  0
 19 41  1  0  0  0  0
 19 42  1  0  0  0  0
 20 21  1  0  0  0  0
 20 43  1  0  0  0  0
 20 44  1  0  0  0  0
 21 45  1  0  0  0  0
 21 46  1  0  0  0  0
 22 23  2  0  0  0  0
 22 53  1  0  0  0  0
 23 47  1  0  0  0  0
 24 25  1  0  0  0  0
 24 48  1  0  0  0  0
 24 49  1  0  0  0  0
 25 50  1  0  0  0  0
 25 51  1  0  0  0  0
M  CHG  1   5   1
M  CHG  1  22   1
M  END
> <s_m_source_file>
AV-unprocessed.smi

> <i_m_source_file_index>
1911

> <i_lp_mmshare_version>
43012

> <i_f3d_flags>
0

> <s_epik_input>
W05IMl1DKD1PKVtDSDJdTjFbQ0gyXVtDSDJdW0NIXShbQ0gyXVtDSDJdMSlbTkhdQyg9TylbTkhdYzJbY0hdW2NIXWMobltjSF0yKU4zW0NIMl1bQ0gyXVtDSDJdW0NIMl0z

> <s_epik_cmdline>
J2VwaWtfcHl0aG9uJywgJy1waCcsICc3LjAnLCAnLXRuJywgJzgnLCAnLW1hJywgJzIwMCcsICctbWV0YWxfYmluZGluZycsICctaW1hZScsICc8aW5maWxlLm1hZT4nLCAnLW9tYWUnLCAnPG91dGZpbGUubWFlPic=

> <r_lp_tautomer_probability>
0.999994

> <r_epik_Ionization_Penalty>
2.11361

> <r_epik_Ionization_Penalty_Charging>
2.11355

> <r_epik_Ionization_Penalty_Neutral>
5.99226e-05

> <r_epik_State_Penalty>
2.13444

> <r_epik_Charging_Adjusted_Penalty>
4.24799

> <i_epik_Tot_Q>
2

> <i_epik_Tot_abs_Q>
2

> <r_epik_Metal_State_Penalty>
2.23538

> <b_epik_Metal_Only>
0

> <s_lp_Force_Field>
OPLS_2005

> <r_lp_Energy>
50.1523

> <b_lp_Chiralities_Consistent>
1

> <s_lp_Variant>
AV-unprocessed.smi:1911-6

> <Gold.Version>
5.8.1

> <Gold.Id.Protein>
6NUR|6NUR_protein|mol2

> <Gold.PLP.Fitness>
45.3570

> <Gold.PLP.PLP>
-35.5245

> <Gold.PLP.part.hbond>
-4.1148

> <Gold.PLP.part.metal>
0.0000

> <Gold.PLP.part.buried>
-3.6276

> <Gold.PLP.part.nonpolar>
-30.0602

> <Gold.PLP.part.repulsive>
0.7585

> <Gold.PLP.ligand.clash>
0.0000

> <Gold.PLP.ligand.torsion>
0.5590

> <Gold.PLP.Chemscore.Hbond>
3.6084

> <Gold.PLP.Chemscore.CHOScore>
0.0000

> <Gold.PLP.Chemscore.Metal>
0.0000

> <Gold.Chemscore.Hbonds>
donor molecule, donor type, donor heavy atom, donor atom, acceptor molecule, acceptor atom, score
      L1  H     1    27       P1 10747  0.99
      L1  H     9    35       P1  7948  1.00
      L1  H    12    36       P1  7948  1.00
      P1  H 10785 10796       L1     3  0.61

> <Gold.PLP.Chemscore.Internal.Correction>
0.1252

> <Gold.Rescore>
     Score         DG    S(hbond)    S(metal)    S(lipo)     H(rot)  DE(clash)    DE(int)     intcor
     18.60     -20.83       3.36        0.00      83.77       2.22       0.55       1.68       ----

> <Gold.Chemscore.Fitness>
18.6026

> <Gold.Chemscore.DG>
-20.8295

> <Gold.Chemscore.ZeroCoef>
-5.4800

> <Gold.Chemscore.Hbond>
3.3633

> <Gold.Chemscore.Metal>
0.0000

> <Gold.Chemscore.Lipo>
83.7677

> <Gold.Chemscore.Internal_Hbond>
0.0000

> <Gold.Chemscore.DEClash>
0.5513

> <Gold.Chemscore.DEInternal>
1.6756

> <Gold.Chemscore.Rot>
2.2207

> <Gold.Chemscore.Internal.Correction>
   9.000000E+99

> <Gold.Chemscore.Hbonds>
donor molecule, donor type, donor heavy atom, donor atom, acceptor molecule, acceptor atom, score
      L1  H     1    27       P1 10747  0.94
      L1  H     9    35       P1  7948  0.94
      L1  H    12    36       P1  7948  1.00
      P1  H 10785 10796       L1     3  0.58

> <Gold.Chemscore.Hbond.Weighted>
-11.2336

> <Gold.Chemscore.Metal.Weighted>
-0.0000

> <Gold.Chemscore.Lipo.Weighted>
-9.8008

> <Gold.Chemscore.Internal_Hbond.Weighted>
0.0000

> <Gold.Chemscore.DEClash.Weighted>
0.5513

> <Gold.Chemscore.DEInternal.Weighted>
1.6756

> <Gold.Chemscore.Rot.Weighted>
5.6849

> <Gold.Chemscore.Internal.Correction.Weighted>
   9.000000E+99

> <Gold.Protein.RotatedTorsions>
[ 6907 6896 6895 6894 ] final   98.00 input  -60.11 | X-H torsion
[ 7974 7965 7964 7962 ] final   95.52 input  175.53 | X-H torsion
[ 8008 7997 7996 7995 ] final  174.62 input   59.86 | X-H torsion
[ 10167 10162 10161 10158 ] final  128.77 input  -65.29 | X-H torsion
[ 10718 10713 10712 10709 ] final  -91.63 input   66.30 | X-H torsion
[ 10763 10752 10751 10750 ] final  -23.42 input  -60.55 | X-H torsion
[ 11005 11000 10999 10996 ] final  -47.85 input  -57.11 | X-H torsion

> <Gold.Protein.ActiveResidues>
 VAL166  LYS551  ARG553  GLY616  TRP617  ASP618  TYR619  PRO620  LYS621  CYS622 
 ASP623  PHE694  ASN695  SER759  ASP760  ASP761  ALA762  ILE779  LEU786  VAL792 
 PHE793  MET794  SER795  GLU796  ALA797  LYS798  CYS799  TRP800  GLU811  SER814 

> <Gold.Protein.RotatedAtoms>
  152.5416  134.0648  159.8167 H   0  0  0  0  0  0  0  0  0  0  0  0  # atno 6907 bound_to 6896
  151.0771  133.5412  159.2630 H   0  0  0  0  0  0  0  0  0  0  0  0  # atno 6908 bound_to 6896
  151.2253  135.0542  159.9020 H   0  0  0  0  0  0  0  0  0  0  0  0  # atno 6909 bound_to 6896
  145.4511  139.2293  143.3039 H   0  0  0  0  0  0  0  0  0  0  0  0  # atno 7974 bound_to 7965
  156.0955  140.1430  156.9536 H   0  0  0  0  0  0  0  0  0  0  0  0  # atno 8008 bound_to 7997
  154.4669  140.0923  156.7089 H   0  0  0  0  0  0  0  0  0  0  0  0  # atno 8009 bound_to 7997
  155.4848  140.3446  155.4347 H   0  0  0  0  0  0  0  0  0  0  0  0  # atno 8010 bound_to 7997
  139.5510  144.6813  151.4323 H   0  0  0  0  0  0  0  0  0  0  0  0  # atno 10167 bound_to 10162
  155.9995  130.4955  150.5503 H   0  0  0  0  0  0  0  0  0  0  0  0  # atno 10718 bound_to 10713
  153.6676  135.6973  153.5157 H   0  0  0  0  0  0  0  0  0  0  0  0  # atno 10763 bound_to 10752
  153.2583  135.4253  155.0867 H   0  0  0  0  0  0  0  0  0  0  0  0  # atno 10764 bound_to 10752
  154.8435  135.3548  154.6220 H   0  0  0  0  0  0  0  0  0  0  0  0  # atno 10765 bound_to 10752
  141.0665  133.6692  156.3357 H   0  0  0  0  0  0  0  0  0  0  0  0  # atno 11005 bound_to 11000
  146.2504  140.5270  142.8896 LP  0  0  0  0  0  0  0  0  0  0  0  0  # atno 17320 bound_to 7965
  144.8061  140.6302  143.6446 LP  0  0  0  0  0  0  0  0  0  0  0  0  # atno 17321 bound_to 7965
  140.6773  143.8161  150.7075 LP  0  0  0  0  0  0  0  0  0  0  0  0  # atno 17342 bound_to 10162
  140.1604  143.4281  152.2071 LP  0  0  0  0  0  0  0  0  0  0  0  0  # atno 17343 bound_to 10162
  157.3427  131.0719  151.1775 LP  0  0  0  0  0  0  0  0  0  0  0  0  # atno 17370 bound_to 10713
  157.2618  130.6662  149.5978 LP  0  0  0  0  0  0  0  0  0  0  0  0  # atno 17371 bound_to 10713
  140.5761  134.5792  157.5469 LP  0  0  0  0  0  0  0  0  0  0  0  0  # atno 17394 bound_to 11000
  139.9482  134.7664  156.0511 LP  0  0  0  0  0  0  0  0  0  0  0  0  # atno 17395 bound_to 11000

$$$$
