AV-unprocessed.smi:1978|AV-procd|sdf|8002|dock1
  -GOLD-   2272010183D 1   1.00000     0.00000
 Structure written by MMmdl.
 44 45  0  0  0  0  0  0  0  0  3 V2000
  147.1017  134.3470  162.8254 C   0  0  0  0  0  0  0  0  0  0  0  0
  147.2656  135.3039  161.6945 C   0  0  0  0  0  0  0  0  0  0  0  0
  147.3349  135.1364  160.3406 C   0  0  0  0  0  0  0  0  0  0  0  0
  147.4995  136.4632  159.8572 C   0  0  0  0  0  0  0  0  0  0  0  0
  147.6074  136.8264  158.5698 N   0  5  0  0  0  0  0  0  0  0  0  0
  147.3517  135.9331  157.5876 C   0  0  0  0  0  0  0  0  0  0  0  0
  147.7326  134.7609  157.5460 O   0  0  0  0  0  0  0  0  0  0  0  0
  146.6117  136.4297  156.5861 N   0  0  0  0  0  0  0  0  0  0  0  0
  146.2060  135.7003  155.3895 C   0  0  0  0  0  0  0  0  0  0  0  0
  146.7920  136.3236  154.0970 C   0  0  2  0  0  0  0  0  0  0  0  0
  146.3295  137.7794  153.8810 C   0  0  0  0  0  0  0  0  0  0  0  0
  146.5516  135.4824  152.8806 N   0  3  2  0  0  0  0  0  0  0  0  0
  145.2501  135.7586  152.2044 C   0  0  0  0  0  0  0  0  0  0  0  0
  145.1778  135.0806  150.8285 C   0  0  0  0  0  0  0  0  0  0  0  0
  145.3888  133.5706  150.9597 C   0  0  0  0  0  0  0  0  0  0  0  0
  146.7107  133.2961  151.6838 C   0  0  0  0  0  0  0  0  0  0  0  0
  146.7751  134.0075  153.0530 C   0  0  1  0  0  0  0  0  0  0  0  0
  148.1111  133.6568  153.7393 C   0  0  0  0  0  0  0  0  0  0  0  0
  147.5114  137.3583  160.8306 N   0  0  0  0  0  0  0  0  0  0  0  0
  147.3681  136.6223  162.0128 O   0  0  0  0  0  0  0  0  0  0  0  0
  146.0700  134.0018  162.8909 H   0  0  0  0  0  0  0  0  0  0  0  0
  147.3641  134.8128  163.7755 H   0  0  0  0  0  0  0  0  0  0  0  0
  147.7424  133.4758  162.6891 H   0  0  0  0  0  0  0  0  0  0  0  0
  147.2802  134.2128  159.7840 H   0  0  0  0  0  0  0  0  0  0  0  0
  146.3179  137.3929  156.6598 H   0  0  0  0  0  0  0  0  0  0  0  0
  146.4999  134.6555  155.4957 H   0  0  0  0  0  0  0  0  0  0  0  0
  145.1168  135.7123  155.3606 H   0  0  0  0  0  0  0  0  0  0  0  0
  147.8689  136.4145  154.2217 H   0  0  0  0  0  0  0  0  0  0  0  0
  146.7304  138.4346  154.6551 H   0  0  0  0  0  0  0  0  0  0  0  0
  145.2450  137.8791  153.9140 H   0  0  0  0  0  0  0  0  0  0  0  0
  146.6776  138.1665  152.9231 H   0  0  0  0  0  0  0  0  0  0  0  0
  144.4256  135.4087  152.8267 H   0  0  0  0  0  0  0  0  0  0  0  0
  145.1025  136.8272  152.0593 H   0  0  0  0  0  0  0  0  0  0  0  0
  144.2122  135.2821  150.3635 H   0  0  0  0  0  0  0  0  0  0  0  0
  145.9353  135.5049  150.1680 H   0  0  0  0  0  0  0  0  0  0  0  0
  144.5622  133.1266  151.5159 H   0  0  0  0  0  0  0  0  0  0  0  0
  145.3927  133.1023  149.9750 H   0  0  0  0  0  0  0  0  0  0  0  0
  146.8309  132.2199  151.8138 H   0  0  0  0  0  0  0  0  0  0  0  0
  147.5424  133.6240  151.0583 H   0  0  0  0  0  0  0  0  0  0  0  0
  145.9697  133.6092  153.6714 H   0  0  0  0  0  0  0  0  0  0  0  0
  148.2919  132.5818  153.7132 H   0  0  0  0  0  0  0  0  0  0  0  0
  148.1183  133.9387  154.7920 H   0  0  0  0  0  0  0  0  0  0  0  0
  148.9537  134.1436  153.2472 H   0  0  0  0  0  0  0  0  0  0  0  0
  147.2629  135.7775  152.2274 H   0  0  0  0  0  0  0  0  0  0  0  0
  1  2  1  0  0  0  0
  1 21  1  0  0  0  0
  1 22  1  0  0  0  0
  1 23  1  0  0  0  0
  2 20  1  0  0  0  0
  2  3  2  0  0  0  0
  3  4  1  0  0  0  0
  3 24  1  0  0  0  0
  4  5  1  0  0  0  0
  4 19  2  0  0  0  0
  5  6  1  0  0  0  0
  6  7  2  0  0  0  0
  6  8  1  0  0  0  0
  8  9  1  0  0  0  0
  8 25  1  0  0  0  0
  9 10  1  0  0  0  0
  9 26  1  0  0  0  0
  9 27  1  0  0  0  0
 10 11  1  0  0  0  0
 10 12  1  0  0  0  0
 10 28  1  0  0  0  0
 11 29  1  0  0  0  0
 11 30  1  0  0  0  0
 11 31  1  0  0  0  0
 12 17  1  0  0  0  0
 12 13  1  0  0  0  0
 12 44  1  0  0  0  0
 13 14  1  0  0  0  0
 13 32  1  0  0  0  0
 13 33  1  0  0  0  0
 14 15  1  0  0  0  0
 14 34  1  0  0  0  0
 14 35  1  0  0  0  0
 15 16  1  0  0  0  0
 15 36  1  0  0  0  0
 15 37  1  0  0  0  0
 16 17  1  0  0  0  0
 16 38  1  0  0  0  0
 16 39  1  0  0  0  0
 17 18  1  0  0  0  0
 17 40  1  0  0  0  0
 18 41  1  0  0  0  0
 18 42  1  0  0  0  0
 18 43  1  0  0  0  0
 19 20  1  0  0  0  0
M  CHG  1   5  -1
M  CHG  1  12   1
M  END
> <s_m_source_file>
AV-unprocessed.smi

> <i_m_source_file_index>
1978

> <i_lp_mmshare_version>
43012

> <i_f3d_flags>
0

> <s_epik_input>
W0NIM11jMVtjSF1jKG5vMSlbTkhdQyg9TylbTkhdW0NIMl1bQ0BIXShbQ0gzXSlOMltDSDJdW0NIMl1bQ0gyXVtDSDJdW0NASF0yW0NIM10=

> <s_epik_cmdline>
J2VwaWtfcHl0aG9uJywgJy1waCcsICc3LjAnLCAnLXRuJywgJzgnLCAnLW1hJywgJzIwMCcsICctbWV0YWxfYmluZGluZycsICctaW1hZScsICc8aW5maWxlLm1hZT4nLCAnLW9tYWUnLCAnPG91dGZpbGUubWFlPic=

> <r_epik_Ionization_Penalty>
6.22372

> <r_epik_Ionization_Penalty_Charging>
6.22362

> <r_epik_Ionization_Penalty_Neutral>
9.65074e-05

> <r_epik_State_Penalty>
6.22363

> <r_epik_Charging_Adjusted_Penalty>
12.4472

> <i_epik_Tot_Q>
0

> <i_epik_Tot_abs_Q>
2

> <r_epik_Metal_State_Penalty>
2.16675

> <b_epik_Metal_Only>
1

> <s_lp_Force_Field>
OPLS_2005

> <r_lp_Energy>
9.77909

> <b_lp_Chiralities_Consistent>
1

> <s_lp_Variant>
AV-unprocessed.smi:1978-11

> <Gold.Version>
5.8.1

> <Gold.Id.Protein>
6NUR|6NUR_protein|mol2

> <Gold.PLP.Fitness>
34.7563

> <Gold.PLP.PLP>
-26.6582

> <Gold.PLP.part.hbond>
-3.1289

> <Gold.PLP.part.metal>
0.0000

> <Gold.PLP.part.buried>
-2.8366

> <Gold.PLP.part.nonpolar>
-20.5912

> <Gold.PLP.part.repulsive>
0.0000

> <Gold.PLP.ligand.clash>
0.0000

> <Gold.PLP.ligand.torsion>
0.7505

> <Gold.PLP.Chemscore.Hbond>
3.1240

> <Gold.PLP.Chemscore.CHOScore>
0.0000

> <Gold.PLP.Chemscore.Metal>
0.0000

> <Gold.Chemscore.Hbonds>
donor molecule, donor type, donor heavy atom, donor atom, acceptor molecule, acceptor atom, score
      L1  H    12    44       P1  7948  2.00
      P1  H  6931  6943       L1    19  0.10
      P1  H  6934  6947       L1    19  1.00

> <Gold.PLP.Chemscore.Internal.Correction>
0.2271

> <Gold.Rescore>
     Score         DG    S(hbond)    S(metal)    S(lipo)     H(rot)  DE(clash)    DE(int)     intcor
     13.17     -15.35       1.97        0.00      61.42       1.52       0.04       2.14       ----

> <Gold.Chemscore.Fitness>
13.1728

> <Gold.Chemscore.DG>
-15.3467

> <Gold.Chemscore.ZeroCoef>
-5.4800

> <Gold.Chemscore.Hbond>
1.9669

> <Gold.Chemscore.Metal>
0.0000

> <Gold.Chemscore.Lipo>
61.4183

> <Gold.Chemscore.Internal_Hbond>
0.0000

> <Gold.Chemscore.DEClash>
0.0372

> <Gold.Chemscore.DEInternal>
2.1367

> <Gold.Chemscore.Rot>
1.5190

> <Gold.Chemscore.Internal.Correction>
   9.000000E+99

> <Gold.Chemscore.Hbonds>
donor molecule, donor type, donor heavy atom, donor atom, acceptor molecule, acceptor atom, score
      L1  H    12    44       P1  7948  0.96
      P1  H  6934  6947       L1    19  0.89

> <Gold.Chemscore.Hbond.Weighted>
-6.5694

> <Gold.Chemscore.Metal.Weighted>
-0.0000

> <Gold.Chemscore.Lipo.Weighted>
-7.1859

> <Gold.Chemscore.Internal_Hbond.Weighted>
0.0000

> <Gold.Chemscore.DEClash.Weighted>
0.0372

> <Gold.Chemscore.DEInternal.Weighted>
2.1367

> <Gold.Chemscore.Rot.Weighted>
3.8886

> <Gold.Chemscore.Internal.Correction.Weighted>
   9.000000E+99

> <Gold.Protein.RotatedTorsions>
[ 6907 6896 6895 6894 ] final -105.99 input  -60.11 | X-H torsion
[ 7974 7965 7964 7962 ] final   30.35 input  175.53 | X-H torsion
[ 8008 7997 7996 7995 ] final  174.59 input   59.86 | X-H torsion
[ 10167 10162 10161 10158 ] final   55.50 input  -65.29 | X-H torsion
[ 10718 10713 10712 10709 ] final  -55.14 input   66.30 | X-H torsion
[ 10763 10752 10751 10750 ] final   73.33 input  -60.55 | X-H torsion
[ 11005 11000 10999 10996 ] final  -54.82 input  -57.11 | X-H torsion

> <Gold.Protein.ActiveResidues>
 VAL166  LYS551  ARG553  GLY616  TRP617  ASP618  TYR619  PRO620  LYS621  CYS622 
 ASP623  PHE694  ASN695  SER759  ASP760  ASP761  ALA762  ILE779  LEU786  VAL792 
 PHE793  MET794  SER795  GLU796  ALA797  LYS798  CYS799  TRP800  GLU811  SER814 

> <Gold.Protein.RotatedAtoms>
  150.7365  134.0043  159.3648 H   0  0  0  0  0  0  0  0  0  0  0  0  # atno 6907 bound_to 6896
  151.7999  135.0709  160.0408 H   0  0  0  0  0  0  0  0  0  0  0  0  # atno 6908 bound_to 6896
  152.3148  133.5754  159.5741 H   0  0  0  0  0  0  0  0  0  0  0  0  # atno 6909 bound_to 6896
  146.1617  139.6800  142.9029 H   0  0  0  0  0  0  0  0  0  0  0  0  # atno 7974 bound_to 7965
  156.0958  140.1430  156.9533 H   0  0  0  0  0  0  0  0  0  0  0  0  # atno 8008 bound_to 7997
  154.4670  140.0923  156.7093 H   0  0  0  0  0  0  0  0  0  0  0  0  # atno 8009 bound_to 7997
  155.4844  140.3446  155.4347 H   0  0  0  0  0  0  0  0  0  0  0  0  # atno 8010 bound_to 7997
  140.2188  144.3811  150.6459 H   0  0  0  0  0  0  0  0  0  0  0  0  # atno 10167 bound_to 10162
  156.1393  130.4155  150.0131 H   0  0  0  0  0  0  0  0  0  0  0  0  # atno 10718 bound_to 10713
  153.0514  135.5067  154.7877 H   0  0  0  0  0  0  0  0  0  0  0  0  # atno 10763 bound_to 10752
  154.6736  135.2957  154.9711 H   0  0  0  0  0  0  0  0  0  0  0  0  # atno 10764 bound_to 10752
  154.0521  135.6702  153.4854 H   0  0  0  0  0  0  0  0  0  0  0  0  # atno 10765 bound_to 10752
  141.1044  133.6614  156.4377 H   0  0  0  0  0  0  0  0  0  0  0  0  # atno 11005 bound_to 11000
  145.4571  141.0431  143.2772 LP  0  0  0  0  0  0  0  0  0  0  0  0  # atno 17320 bound_to 7965
  144.8036  139.6094  143.7061 LP  0  0  0  0  0  0  0  0  0  0  0  0  # atno 17321 bound_to 7965
  140.6270  143.2182  151.6575 LP  0  0  0  0  0  0  0  0  0  0  0  0  # atno 17342 bound_to 10162
  139.5152  144.3386  152.0761 LP  0  0  0  0  0  0  0  0  0  0  0  0  # atno 17343 bound_to 10162
  156.8021  130.9294  151.3646 LP  0  0  0  0  0  0  0  0  0  0  0  0  # atno 17370 bound_to 10713
  157.6561  130.8925  149.9732 LP  0  0  0  0  0  0  0  0  0  0  0  0  # atno 17371 bound_to 10713
  140.4940  134.6549  157.5222 LP  0  0  0  0  0  0  0  0  0  0  0  0  # atno 17394 bound_to 11000
  139.9908  134.6988  155.9693 LP  0  0  0  0  0  0  0  0  0  0  0  0  # atno 17395 bound_to 11000

$$$$
