#       Name:                AV-unprocessed.smi:2469
#       Creating user name   scv26
#       Creation time:       Fri Mar 27 13:37:26 2020


#       File generated by GOLD software.
#

@<TRIPOS>MOLECULE
AV-unprocessed.smi:2469
    39    40     1
SMALL
NO_CHARGES


@<TRIPOS>ATOM
      1 ****        -3.6170   5.1261  -1.2318 O.3            1 S1                 0.0000
      2 ****        -3.6412   4.4891   0.0278 C.3            1 S1                 0.0000
      3 ****        -3.2133   3.0227  -0.1087 C.3            1 S1                 0.0000
      4 ****        -1.7900   2.9520  -0.1005 O.3            1 S1                 0.0000
      5 ****        -1.1904   1.7123  -0.1883 C.ar           1 S1                 0.0000
      6 ****         0.2169   1.6424  -0.1853 C.ar           1 S1                 0.0000
      7 ****         0.8359   0.3808  -0.2706 C.ar           1 S1                 0.0000
      8 ****         0.0278  -0.7769  -0.3543 C.ar           1 S1                 0.0000
      9 ****         0.5426  -2.0792  -0.4429 N.pl3          1 S1                 0.0000
     10 ****         1.9631  -2.3574  -0.2728 C.3            1 S1                 0.0000
     11 ****         2.4366  -2.2591   1.1645 C.3            1 S1                 0.0000
     12 ****         3.7283  -3.0705   1.1195 C.3            1 S1                 0.0000
     13 ****         3.5358  -4.0579   0.1092 O.3            1 S1                 0.0000
     14 ****         2.3227  -3.8063  -0.5936 C.3            1 S1                 0.0000
     15 ****        -1.3717  -0.5974  -0.3528 C.ar           1 S1                 0.0000
     16 ****        -1.9730   0.6083  -0.2717 N.ar           1 S1                 0.0000
     17 ****        -3.8994   6.0212  -1.1214 H              1 S1                 0.0000
     18 ****        -3.0099   5.0230   0.7388 H              1 S1                 0.0000
     19 ****        -4.6640   4.5405   0.4023 H              1 S1                 0.0000
     20 ****        -3.5973   2.4666   0.7481 H              1 S1                 0.0000
     21 ****        -3.6362   2.5759  -1.0105 H              1 S1                 0.0000
     22 ****         0.8118   2.5413  -0.1191 H              1 S1                 0.0000
     23 ****         1.9137   0.3237  -0.2703 H              1 S1                 0.0000
     24 ****        -0.0978  -2.8602  -0.4639 H              1 S1                 0.0000
     25 ****         2.5585  -1.7020  -0.9098 H              1 S1                 0.0000
     26 ****         2.5923  -1.2351   1.5046 H              1 S1                 0.0000
     27 ****         1.7222  -2.7370   1.8370 H              1 S1                 0.0000
     28 ****         4.5668  -2.4366   0.8285 H              1 S1                 0.0000
     29 ****         3.9656  -3.5256   2.0814 H              1 S1                 0.0000
     30 ****         1.5621  -4.4902  -0.2130 H              1 S1                 0.0000
     31 ****         2.4335  -3.9848  -1.6634 H              1 S1                 0.0000
     32 ****        -2.0335  -1.4490  -0.4168 H              1 S1                 0.0000
     33 ****        -4.2340   4.6530  -1.8607 LP             1 S1                 0.0000
     34 ****        -2.6877   5.1088  -1.6005 LP             1 S1                 0.0000
     35 ****        -1.4789   3.3703   0.7528 LP             1 S1                 0.0000
     36 ****        -1.4634   3.4931  -0.8754 LP             1 S1                 0.0000
     37 ****         3.4908  -4.9620   0.5341 LP             1 S1                 0.0000
     38 ****         4.3022  -4.0289  -0.5324 LP             1 S1                 0.0000
     39 ****        -2.9701   0.6853  -0.2731 LP             1 S1                 0.0000
@<TRIPOS>BOND
    1    1    2 1     
    2    1   17 1     
    3    2    3 1     
    4    2   18 1     
    5    2   19 1     
    6    3    4 1     
    7    3   20 1     
    8    3   21 1     
    9    4    5 1     
   10    5   16 ar    
   11    5    6 ar    
   12    6    7 ar    
   13    6   22 1     
   14    7    8 ar    
   15    7   23 1     
   16    8    9 1     
   17    8   15 ar    
   18    9   10 1     
   19    9   24 1     
   20   10   14 1     
   21   10   11 1     
   22   10   25 1     
   23   11   12 1     
   24   11   26 1     
   25   11   27 1     
   26   12   13 1     
   27   12   28 1     
   28   12   29 1     
   29   13   14 1     
   30   14   30 1     
   31   14   31 1     
   32   15   16 ar    
   33   15   32 1     
   34    1   33 1     
   35    1   34 1     
   36    4   35 1     
   37    4   36 1     
   38   13   37 1     
   39   13   38 1     
   40   16   39 1     
@<TRIPOS>SUBSTRUCTURE
      1 S1             1
@<TRIPOS>SET
LONE_PAIRS      STATIC     ATOMS    <user>   **** ""
7 33 34 35 36 37 38 39
DONOR_HYDROGENS      STATIC     ATOMS    <user>   **** ""
2 17 24
ATOM$BLUE        STATIC     ATOMS    COLORGROUP SYSTEM
7 33 34 35 36 37 38 39
ATOM$RED        STATIC     ATOMS    COLORGROUP SYSTEM
2 17 24
