AV-unprocessed.smi:1629|AV-procd|sdf|6523|dock3
  -GOLD-   22720 7203D 1   1.00000     0.00000
 Structure written by MMmdl.
 43 44  0  0  0  0  0  0  0  0  2 V2000
  155.2148  133.8612  157.3230 C   0  0  0  0  0  0  0  0  0  0  0  0
  155.1572  133.1112  158.9986 S   0  0  0  0  0  0  0  0  0  0  0  0
  154.2980  131.9225  158.8755 O   0  0  0  0  0  0  0  0  0  0  0  0
  156.5596  132.8902  159.3866 O   0  0  0  0  0  0  0  0  0  0  0  0
  154.4557  134.3096  159.8367 N   0  5  0  0  0  0  0  0  0  0  0  0
  155.2791  135.3049  160.5083 C   0  0  0  0  0  0  0  0  0  0  0  0
  154.4015  136.3492  161.2500 C   0  0  0  0  0  0  0  0  0  0  0  0
  155.2111  137.5656  161.7780 C   0  0  0  0  0  0  0  0  0  0  0  0
  155.9450  138.2282  160.6764 N   0  0  0  0  0  0  0  0  0  0  0  0
  155.7183  139.4671  160.1727 C   0  0  0  0  0  0  0  0  0  0  0  0
  156.2516  139.8899  159.1462 O   0  0  0  0  0  0  0  0  0  0  0  0
  154.8532  140.2070  160.8825 N   0  0  0  0  0  0  0  0  0  0  0  0
  154.4475  141.5690  160.5594 C   0  0  0  0  0  0  0  0  0  0  0  0
  152.9353  141.6534  160.2901 C   0  0  0  0  0  0  0  0  0  0  0  0
  152.4442  143.0708  160.0468 C   0  0  0  0  0  0  0  0  0  0  0  0
  152.9237  143.8229  158.9524 C   0  0  0  0  0  0  0  0  0  0  0  0
  152.4234  145.1255  158.7630 C   0  0  0  0  0  0  0  0  0  0  0  0
  151.4692  145.6240  159.6708 C   0  0  0  0  0  0  0  0  0  0  0  0
  151.0546  144.7937  160.7311 C   0  0  0  0  0  0  0  0  0  0  0  0
  151.5265  143.5424  160.9203 N   0  0  0  0  0  0  0  0  0  0  0  0
  156.9014  137.2834  160.0703 C   0  0  0  0  0  0  0  0  0  0  0  0
  156.1602  136.0539  159.4743 C   0  0  0  0  0  0  0  0  0  0  0  0
  155.6736  133.1580  156.6289 H   0  0  0  0  0  0  0  0  0  0  0  0
  155.8036  134.7773  157.3546 H   0  0  0  0  0  0  0  0  0  0  0  0
  154.2020  134.0899  156.9924 H   0  0  0  0  0  0  0  0  0  0  0  0
  155.9493  134.8463  161.2366 H   0  0  0  0  0  0  0  0  0  0  0  0
  153.6221  136.7160  160.5799 H   0  0  0  0  0  0  0  0  0  0  0  0
  153.8852  135.8744  162.0845 H   0  0  0  0  0  0  0  0  0  0  0  0
  154.5346  138.2325  162.3118 H   0  0  0  0  0  0  0  0  0  0  0  0
  155.9312  137.2462  162.5345 H   0  0  0  0  0  0  0  0  0  0  0  0
  154.4519  139.7956  161.7127 H   0  0  0  0  0  0  0  0  0  0  0  0
  154.7126  142.2182  161.3950 H   0  0  0  0  0  0  0  0  0  0  0  0
  154.9975  141.9282  159.6883 H   0  0  0  0  0  0  0  0  0  0  0  0
  152.6808  141.0356  159.4280 H   0  0  0  0  0  0  0  0  0  0  0  0
  152.3902  141.2298  161.1347 H   0  0  0  0  0  0  0  0  0  0  0  0
  153.6526  143.4107  158.2698 H   0  0  0  0  0  0  0  0  0  0  0  0
  152.7645  145.7305  157.9358 H   0  0  0  0  0  0  0  0  0  0  0  0
  151.0639  146.6186  159.5572 H   0  0  0  0  0  0  0  0  0  0  0  0
  150.3240  145.1433  161.4453 H   0  0  0  0  0  0  0  0  0  0  0  0
  157.4979  137.7501  159.2855 H   0  0  0  0  0  0  0  0  0  0  0  0
  157.6231  136.9716  160.8282 H   0  0  0  0  0  0  0  0  0  0  0  0
  156.8871  135.3642  159.0438 H   0  0  0  0  0  0  0  0  0  0  0  0
  155.5396  136.3964  158.6444 H   0  0  0  0  0  0  0  0  0  0  0  0
  1  2  1  0  0  0  0
  1 23  1  0  0  0  0
  1 24  1  0  0  0  0
  1 25  1  0  0  0  0
  2  3  2  0  0  0  0
  2  4  2  0  0  0  0
  2  5  1  0  0  0  0
  5  6  1  0  0  0  0
  6 22  1  0  0  0  0
  6  7  1  0  0  0  0
  6 26  1  0  0  0  0
  7  8  1  0  0  0  0
  7 27  1  0  0  0  0
  7 28  1  0  0  0  0
  8  9  1  0  0  0  0
  8 29  1  0  0  0  0
  8 30  1  0  0  0  0
  9 10  1  0  0  0  0
  9 21  1  0  0  0  0
 10 11  2  0  0  0  0
 10 12  1  0  0  0  0
 12 13  1  0  0  0  0
 12 31  1  0  0  0  0
 13 14  1  0  0  0  0
 13 32  1  0  0  0  0
 13 33  1  0  0  0  0
 14 15  1  0  0  0  0
 14 34  1  0  0  0  0
 14 35  1  0  0  0  0
 15 20  1  0  0  0  0
 15 16  2  0  0  0  0
 16 17  1  0  0  0  0
 16 36  1  0  0  0  0
 17 18  2  0  0  0  0
 17 37  1  0  0  0  0
 18 19  1  0  0  0  0
 18 38  1  0  0  0  0
 19 20  2  0  0  0  0
 19 39  1  0  0  0  0
 21 22  1  0  0  0  0
 21 40  1  0  0  0  0
 21 41  1  0  0  0  0
 22 42  1  0  0  0  0
 22 43  1  0  0  0  0
M  CHG  1   5  -1
M  END
> <s_m_source_file>
AV-unprocessed.smi

> <i_m_source_file_index>
1629

> <i_lp_mmshare_version>
43012

> <i_f3d_flags>
0

> <s_epik_input>
W0NIM11TKD1PKSg9TylbTkhdW0NIXTFbQ0gyXVtDSDJdTihbQ0gyXVtDSDJdMSlDKD1PKVtOSF1bQ0gyXVtDSDJdYzJbY0hdW2NIXVtjSF1bY0hdbjI=

> <s_epik_cmdline>
J2VwaWtfcHl0aG9uJywgJy1waCcsICc3LjAnLCAnLXRuJywgJzgnLCAnLW1hJywgJzIwMCcsICctbWV0YWxfYmluZGluZycsICctaW1hZScsICc8aW5maWxlLm1hZT4nLCAnLW9tYWUnLCAnPG91dGZpbGUubWFlPic=

> <r_epik_Ionization_Penalty>
6.75298

> <r_epik_Ionization_Penalty_Charging>
6.70803

> <r_epik_Ionization_Penalty_Neutral>
0.0449518

> <r_epik_State_Penalty>
6.74601

> <r_epik_Charging_Adjusted_Penalty>
13.454

> <i_epik_Tot_Q>
-1

> <i_epik_Tot_abs_Q>
1

> <r_epik_Metal_State_Penalty>
2.70902

> <b_epik_Metal_Only>
1

> <s_lp_Force_Field>
OPLS_2005

> <r_lp_Energy>
26.8071

> <b_lp_Chiralities_Consistent>
1

> <s_lp_Variant>
AV-unprocessed.smi:1629-3

> <Gold.Version>
5.8.1

> <Gold.Id.Protein>
6NUR|6NUR_protein|mol2

> <Gold.PLP.Fitness>
45.5532

> <Gold.PLP.PLP>
-36.5857

> <Gold.PLP.part.hbond>
-2.9174

> <Gold.PLP.part.metal>
0.0000

> <Gold.PLP.part.buried>
-4.5955

> <Gold.PLP.part.nonpolar>
-29.2136

> <Gold.PLP.part.repulsive>
0.1568

> <Gold.PLP.ligand.clash>
0.0000

> <Gold.PLP.ligand.torsion>
0.5125

> <Gold.PLP.Chemscore.Hbond>
3.0000

> <Gold.PLP.Chemscore.CHOScore>
0.0000

> <Gold.PLP.Chemscore.Metal>
0.0000

> <Gold.Chemscore.Hbonds>
donor molecule, donor type, donor heavy atom, donor atom, acceptor molecule, acceptor atom, score
      P1  H  6896  6909       L1     5  2.00
      P1  H  7997  8008       L1    11  1.00

> <Gold.PLP.Chemscore.Internal.Correction>
0.9925

> <Gold.Rescore>
     Score         DG    S(hbond)    S(metal)    S(lipo)     H(rot)  DE(clash)    DE(int)     intcor
     19.07     -19.65       1.93        0.00     102.89       1.68       0.04       0.54       ----

> <Gold.Chemscore.Fitness>
19.0703

> <Gold.Chemscore.DG>
-19.6511

> <Gold.Chemscore.ZeroCoef>
-5.4800

> <Gold.Chemscore.Hbond>
1.9273

> <Gold.Chemscore.Metal>
0.0000

> <Gold.Chemscore.Lipo>
102.8912

> <Gold.Chemscore.Internal_Hbond>
0.0000

> <Gold.Chemscore.DEClash>
0.0359

> <Gold.Chemscore.DEInternal>
0.5449

> <Gold.Chemscore.Rot>
1.6813

> <Gold.Chemscore.Internal.Correction>
   9.000000E+99

> <Gold.Chemscore.Hbonds>
donor molecule, donor type, donor heavy atom, donor atom, acceptor molecule, acceptor atom, score
      P1  H  6896  6909       L1     5  0.93
      P1  H  7997  8008       L1    11  0.96

> <Gold.Chemscore.Hbond.Weighted>
-6.4371

> <Gold.Chemscore.Metal.Weighted>
-0.0000

> <Gold.Chemscore.Lipo.Weighted>
-12.0383

> <Gold.Chemscore.Internal_Hbond.Weighted>
0.0000

> <Gold.Chemscore.DEClash.Weighted>
0.0359

> <Gold.Chemscore.DEInternal.Weighted>
0.5449

> <Gold.Chemscore.Rot.Weighted>
4.3042

> <Gold.Chemscore.Internal.Correction.Weighted>
   9.000000E+99

> <Gold.Protein.RotatedTorsions>
[ 6907 6896 6895 6894 ] final -167.45 input  -60.11 | X-H torsion
[ 7974 7965 7964 7962 ] final  -67.35 input  175.53 | X-H torsion
[ 8008 7997 7996 7995 ] final -163.09 input   59.86 | X-H torsion
[ 10167 10162 10161 10158 ] final   57.85 input  -65.29 | X-H torsion
[ 10718 10713 10712 10709 ] final   49.05 input   66.30 | X-H torsion
[ 10763 10752 10751 10750 ] final   92.68 input  -60.55 | X-H torsion
[ 11005 11000 10999 10996 ] final -102.27 input  -57.11 | X-H torsion

> <Gold.Protein.ActiveResidues>
 VAL166  LYS551  ARG553  GLY616  TRP617  ASP618  TYR619  PRO620  LYS621  CYS622 
 ASP623  PHE694  ASN695  SER759  ASP760  ASP761  ALA762  ILE779  LEU786  VAL792 
 PHE793  MET794  SER795  GLU796  ALA797  LYS798  CYS799  TRP800  GLU811  SER814 

> <Gold.Protein.RotatedAtoms>
  151.4598  133.3595  159.2807 H   0  0  0  0  0  0  0  0  0  0  0  0  # atno 6907 bound_to 6896
  150.9033  134.8448  159.7386 H   0  0  0  0  0  0  0  0  0  0  0  0  # atno 6908 bound_to 6896
  152.4892  134.4521  159.9629 H   0  0  0  0  0  0  0  0  0  0  0  0  # atno 6909 bound_to 6896
  145.7303  140.9000  143.0583 H   0  0  0  0  0  0  0  0  0  0  0  0  # atno 7974 bound_to 7965
  155.8162  140.0913  157.1875 H   0  0  0  0  0  0  0  0  0  0  0  0  # atno 8008 bound_to 7997
  154.3979  140.1445  156.3505 H   0  0  0  0  0  0  0  0  0  0  0  0  # atno 8009 bound_to 7997
  155.8314  140.3442  155.5577 H   0  0  0  0  0  0  0  0  0  0  0  0  # atno 8010 bound_to 7997
  140.1936  144.4061  150.6560 H   0  0  0  0  0  0  0  0  0  0  0  0  # atno 10167 bound_to 10162
  157.4748  130.8278  149.8027 H   0  0  0  0  0  0  0  0  0  0  0  0  # atno 10718 bound_to 10713
  153.2218  135.4353  155.0498 H   0  0  0  0  0  0  0  0  0  0  0  0  # atno 10763 bound_to 10752
  154.8254  135.3358  154.6915 H   0  0  0  0  0  0  0  0  0  0  0  0  # atno 10764 bound_to 10752
  153.7347  135.7008  153.5037 H   0  0  0  0  0  0  0  0  0  0  0  0  # atno 10765 bound_to 10752
  141.1196  133.8545  157.1339 H   0  0  0  0  0  0  0  0  0  0  0  0  # atno 11005 bound_to 11000
  144.6894  139.9322  143.7472 LP  0  0  0  0  0  0  0  0  0  0  0  0  # atno 17320 bound_to 7965
  146.0543  139.3542  143.0620 LP  0  0  0  0  0  0  0  0  0  0  0  0  # atno 17321 bound_to 7965
  140.6439  143.2209  151.6229 LP  0  0  0  0  0  0  0  0  0  0  0  0  # atno 17342 bound_to 10162
  139.5246  144.3099  152.1001 LP  0  0  0  0  0  0  0  0  0  0  0  0  # atno 17343 bound_to 10162
  156.0091  130.3841  150.2326 LP  0  0  0  0  0  0  0  0  0  0  0  0  # atno 17370 bound_to 10713
  157.0510  131.0062  151.3253 LP  0  0  0  0  0  0  0  0  0  0  0  0  # atno 17371 bound_to 10713
  140.0143  134.9974  157.0461 LP  0  0  0  0  0  0  0  0  0  0  0  0  # atno 17394 bound_to 11000
  140.4546  134.1547  155.7185 LP  0  0  0  0  0  0  0  0  0  0  0  0  # atno 17395 bound_to 11000

$$$$
