AV-unprocessed.smi:72|AV-procd|sdf|710|dock4
  -GOLD-   2262017 33D 1   1.00000     0.00000
 Structure written by MMmdl.
 30 31  0  0  0  0  0  0  0  0  2 V2000
  145.9491  141.2630  154.1720 N   0  0  0  0  0  0  0  0  0  0  0  0
  147.2531  140.8337  154.3064 C   0  0  0  0  0  0  0  0  0  0  0  0
  147.5452  139.5366  153.9233 N   0  3  0  0  0  0  0  0  0  0  0  0
  148.7550  138.9650  153.9997 C   0  0  0  0  0  0  0  0  0  0  0  0
  149.7620  139.6622  154.4833 N   0  0  0  0  0  0  0  0  0  0  0  0
  151.1336  139.0562  154.5913 C   0  0  1  0  0  0  0  0  0  0  0  0
  151.7132  139.5308  155.7685 O   0  0  0  0  0  0  0  0  0  0  0  0
  152.2973  138.4537  156.4935 C   0  0  1  0  0  0  0  0  0  0  0  0
  152.3545  138.7992  157.9895 C   0  0  0  0  0  0  0  0  0  0  0  0
  153.1952  139.9138  158.1953 O   0  0  0  0  0  0  0  0  0  0  0  0
  151.3568  137.2933  156.1669 C   0  0  2  0  0  0  0  0  0  0  0  0
  151.9331  136.0258  156.4184 O   0  0  0  0  0  0  0  0  0  0  0  0
  151.0326  137.5270  154.6950 C   0  0  2  0  0  0  0  0  0  0  0  0
  151.9581  136.8993  153.8273 O   0  0  0  0  0  0  0  0  0  0  0  0
  149.5685  141.0122  154.8725 C   0  0  0  0  0  0  0  0  0  0  0  0
  150.5123  141.6859  155.2832 O   0  0  0  0  0  0  0  0  0  0  0  0
  148.2663  141.5209  154.7570 N   0  0  0  0  0  0  0  0  0  0  0  0
  151.7075  139.4141  153.7345 H   0  0  0  0  0  0  0  0  0  0  0  0
  153.2924  138.2456  156.0948 H   0  0  0  0  0  0  0  0  0  0  0  0
  150.4415  137.3886  156.7531 H   0  0  0  0  0  0  0  0  0  0  0  0
  150.0310  137.1770  154.4407 H   0  0  0  0  0  0  0  0  0  0  0  0
  145.6442  142.1935  154.4221 H   0  0  0  0  0  0  0  0  0  0  0  0
  145.1978  140.6858  153.8219 H   0  0  0  0  0  0  0  0  0  0  0  0
  148.8887  137.9455  153.6598 H   0  0  0  0  0  0  0  0  0  0  0  0
  151.3602  138.9931  158.3923 H   0  0  0  0  0  0  0  0  0  0  0  0
  152.7753  137.9648  158.5514 H   0  0  0  0  0  0  0  0  0  0  0  0
  153.8533  139.9251  157.5170 H   0  0  0  0  0  0  0  0  0  0  0  0
  151.7149  135.7631  157.2999 H   0  0  0  0  0  0  0  0  0  0  0  0
  151.5946  136.8888  152.9547 H   0  0  0  0  0  0  0  0  0  0  0  0
  146.7844  138.9803  153.5598 H   0  0  0  0  0  0  0  0  0  0  0  0
  1  2  1  0  0  0  0
  1 22  1  0  0  0  0
  1 23  1  0  0  0  0
  2 17  2  0  0  0  0
  2  3  1  0  0  0  0
  3  4  2  0  0  0  0
  3 30  1  0  0  0  0
  4  5  1  0  0  0  0
  4 24  1  0  0  0  0
  5  6  1  0  0  0  0
  5 15  1  0  0  0  0
  6 18  1  0  0  0  0
  6 13  1  0  0  0  0
  6  7  1  0  0  0  0
  7  8  1  0  0  0  0
  8 19  1  0  0  0  0
  8  9  1  0  0  0  0
  8 11  1  0  0  0  0
  9 10  1  0  0  0  0
  9 25  1  0  0  0  0
  9 26  1  0  0  0  0
 10 27  1  0  0  0  0
 11 20  1  0  0  0  0
 11 12  1  0  0  0  0
 11 13  1  0  0  0  0
 12 28  1  0  0  0  0
 13 21  1  0  0  0  0
 13 14  1  0  0  0  0
 14 29  1  0  0  0  0
 15 16  2  0  0  0  0
 15 17  1  0  0  0  0
M  CHG  1   3   1
M  END
> <s_m_source_file>
AV-unprocessed.smi

> <i_m_source_file_index>
72

> <i_lp_mmshare_version>
43012

> <i_f3d_flags>
0

> <s_epik_input>
W05IMl1jMW5bY0hdbihjKD1PKW4xKVtDQEBIXTJPW0NASF0oW0NIMl1bT0hdKVtDQEBIXShbT0hdKVtDQEhdMltPSF0=

> <s_epik_cmdline>
J2VwaWtfcHl0aG9uJywgJy1waCcsICc3LjAnLCAnLXRuJywgJzgnLCAnLW1hJywgJzIwMCcsICctbWV0YWxfYmluZGluZycsICctaW1hZScsICc8aW5maWxlLm1hZT4nLCAnLW9tYWUnLCAnPG91dGZpbGUubWFlPic=

> <r_lp_tautomer_probability>
4.77166e-05

> <r_epik_Ionization_Penalty>
0.104979

> <r_epik_Ionization_Penalty_Charging>
0.0999619

> <r_epik_Ionization_Penalty_Neutral>
0.00501745

> <r_epik_State_Penalty>
2.51541

> <r_epik_Charging_Adjusted_Penalty>
2.61537

> <i_epik_Tot_Q>
1

> <i_epik_Tot_abs_Q>
1

> <r_epik_Metal_State_Penalty>
3.53763

> <b_epik_Metal_Only>
0

> <s_epik_Chemistry_Notes>
This compound contains an acetal/aminal-like group ( X-CH(R)-Y where X, Y are N, S, or O) that may be acid/base labile, releasing an aldehyde.

> <s_lp_Force_Field>
OPLS_2005

> <r_lp_Energy>
34.5988

> <b_lp_Chiralities_Consistent>
1

> <s_lp_Variant>
AV-unprocessed.smi:72-48

> <Gold.Version>
5.8.1

> <Gold.Id.Protein>
6NUR|6NUR_protein|mol2

> <Gold.PLP.Fitness>
36.5243

> <Gold.PLP.PLP>
-24.1076

> <Gold.PLP.part.hbond>
-6.0000

> <Gold.PLP.part.metal>
0.0000

> <Gold.PLP.part.buried>
-1.3724

> <Gold.PLP.part.nonpolar>
-16.7518

> <Gold.PLP.part.repulsive>
0.2600

> <Gold.PLP.ligand.clash>
0.0000

> <Gold.PLP.ligand.torsion>
0.6569

> <Gold.PLP.Chemscore.Hbond>
3.5705

> <Gold.PLP.Chemscore.CHOScore>
1.0000

> <Gold.PLP.Chemscore.Metal>
0.0000

> <Gold.Chemscore.Hbonds>
donor molecule, donor type, donor heavy atom, donor atom, acceptor molecule, acceptor atom, score
      L1  H     1    23       P1 10175  0.92
      L1  H    14    29       P1  7949  0.99
      P1  H  7989  7998       L1    16  0.06
      P1  H 10752 10764       L1    14  0.56
      P1  H 10752 10765       L1    12  1.00
      L1  C     4    24       P1  7948  1.00

> <Gold.PLP.Chemscore.Internal.Correction>
0.0189

> <Gold.Rescore>
     Score         DG    S(hbond)    S(metal)    S(lipo)     H(rot)  DE(clash)    DE(int)     intcor
      4.98      -7.55       2.98        0.00      21.79       4.08       0.01       2.56       ----

> <Gold.Chemscore.Fitness>
4.9845

> <Gold.Chemscore.DG>
-7.5484

> <Gold.Chemscore.ZeroCoef>
-5.4800

> <Gold.Chemscore.Hbond>
2.9819

> <Gold.Chemscore.Metal>
0.0000

> <Gold.Chemscore.Lipo>
21.7899

> <Gold.Chemscore.Internal_Hbond>
0.0000

> <Gold.Chemscore.DEClash>
0.0064

> <Gold.Chemscore.DEInternal>
2.5575

> <Gold.Chemscore.Rot>
4.0783

> <Gold.Chemscore.Internal.Correction>
   9.000000E+99

> <Gold.Chemscore.Hbonds>
donor molecule, donor type, donor heavy atom, donor atom, acceptor molecule, acceptor atom, score
      L1  H     1    23       P1 10175  0.82
      L1  H    14    29       P1  7949  0.90
      P1  H 10752 10764       L1    14  0.17
      P1  H 10752 10765       L1    12  0.90

> <Gold.Chemscore.Hbond.Weighted>
-9.9594

> <Gold.Chemscore.Metal.Weighted>
-0.0000

> <Gold.Chemscore.Lipo.Weighted>
-2.5494

> <Gold.Chemscore.Internal_Hbond.Weighted>
0.0000

> <Gold.Chemscore.DEClash.Weighted>
0.0064

> <Gold.Chemscore.DEInternal.Weighted>
2.5575

> <Gold.Chemscore.Rot.Weighted>
10.4404

> <Gold.Chemscore.Internal.Correction.Weighted>
   9.000000E+99

> <Gold.Protein.RotatedTorsions>
[ 6907 6896 6895 6894 ] final  148.90 input  -60.11 | X-H torsion
[ 7974 7965 7964 7962 ] final   73.03 input  175.53 | X-H torsion
[ 8008 7997 7996 7995 ] final  151.16 input   59.86 | X-H torsion
[ 10167 10162 10161 10158 ] final   23.06 input  -65.29 | X-H torsion
[ 10718 10713 10712 10709 ] final  -67.76 input   66.30 | X-H torsion
[ 10763 10752 10751 10750 ] final -126.57 input  -60.55 | X-H torsion
[ 11005 11000 10999 10996 ] final  -83.70 input  -57.11 | X-H torsion

> <Gold.Protein.ActiveResidues>
 VAL166  LYS551  ARG553  GLY616  TRP617  ASP618  TYR619  PRO620  LYS621  CYS622 
 ASP623  PHE694  ASN695  SER759  ASP760  ASP761  ALA762  ILE779  LEU786  VAL792 
 PHE793  MET794  SER795  GLU796  ALA797  LYS798  CYS799  TRP800  GLU811  SER814 

> <Gold.Protein.RotatedAtoms>
  152.1353  133.4431  159.4740 H   0  0  0  0  0  0  0  0  0  0  0  0  # atno 6907 bound_to 6896
  150.6881  134.2371  159.4467 H   0  0  0  0  0  0  0  0  0  0  0  0  # atno 6908 bound_to 6896
  152.0258  134.9796  160.0622 H   0  0  0  0  0  0  0  0  0  0  0  0  # atno 6909 bound_to 6896
  145.7459  139.2740  143.1459 H   0  0  0  0  0  0  0  0  0  0  0  0  # atno 7974 bound_to 7965
  156.2685  140.2055  156.6132 H   0  0  0  0  0  0  0  0  0  0  0  0  # atno 8008 bound_to 7997
  154.6815  140.0539  157.0295 H   0  0  0  0  0  0  0  0  0  0  0  0  # atno 8009 bound_to 7997
  155.0994  140.3204  155.4554 H   0  0  0  0  0  0  0  0  0  0  0  0  # atno 8010 bound_to 7997
  140.5299  143.9859  150.6460 H   0  0  0  0  0  0  0  0  0  0  0  0  # atno 10167 bound_to 10162
  156.0541  130.4283  150.1901 H   0  0  0  0  0  0  0  0  0  0  0  0  # atno 10718 bound_to 10713
  154.8746  135.3991  154.3453 H   0  0  0  0  0  0  0  0  0  0  0  0  # atno 10763 bound_to 10752
  153.4246  135.7024  153.6276 H   0  0  0  0  0  0  0  0  0  0  0  0  # atno 10764 bound_to 10752
  153.4924  135.3745  155.2468 H   0  0  0  0  0  0  0  0  0  0  0  0  # atno 10765 bound_to 10752
  141.1656  133.7308  156.8759 H   0  0  0  0  0  0  0  0  0  0  0  0  # atno 11005 bound_to 11000
  146.0403  140.8172  142.9832 LP  0  0  0  0  0  0  0  0  0  0  0  0  # atno 17320 bound_to 7965
  144.6860  140.2900  143.7279 LP  0  0  0  0  0  0  0  0  0  0  0  0  # atno 17321 bound_to 7965
  140.3231  143.3124  152.0764 LP  0  0  0  0  0  0  0  0  0  0  0  0  # atno 17342 bound_to 10162
  139.4951  144.6560  151.6571 LP  0  0  0  0  0  0  0  0  0  0  0  0  # atno 17343 bound_to 10162
  156.9980  130.9913  151.3398 LP  0  0  0  0  0  0  0  0  0  0  0  0  # atno 17370 bound_to 10713
  157.5494  130.8172  149.8126 LP  0  0  0  0  0  0  0  0  0  0  0  0  # atno 17371 bound_to 10713
  140.1748  134.9074  157.2878 LP  0  0  0  0  0  0  0  0  0  0  0  0  # atno 17394 bound_to 11000
  140.2461  134.3738  155.7461 LP  0  0  0  0  0  0  0  0  0  0  0  0  # atno 17395 bound_to 11000

$$$$
