AV-unprocessed.smi:2441|AV-procd|sdf|9621|dock4
  -GOLD-   2272013253D 1   1.00000     0.00000
 Structure written by MMmdl.
 40 41  0  0  0  0  0  0  0  0  1 V2000
  147.7204  132.9414  152.7013 C   0  0  0  0  0  0  0  0  0  0  0  0
  146.3112  133.4395  152.3368 C   0  0  2  0  0  0  0  0  0  0  0  0
  146.1903  133.7496  150.8303 C   0  0  0  0  0  0  0  0  0  0  0  0
  144.7684  134.1984  150.4564 C   0  0  0  0  0  0  0  0  0  0  0  0
  144.3191  135.4010  151.2997 C   0  0  0  0  0  0  0  0  0  0  0  0
  144.4360  135.1019  152.8044 C   0  0  0  0  0  0  0  0  0  0  0  0
  145.8541  134.6429  153.2000 C   0  0  2  0  0  0  0  0  0  0  0  0
  146.7880  135.7665  153.0968 N   0  0  0  0  0  0  0  0  0  0  0  0
  146.6253  136.9862  153.6298 C   0  0  0  0  0  0  0  0  0  0  0  0
  145.6440  137.3107  154.2978 O   0  0  0  0  0  0  0  0  0  0  0  0
  147.6635  137.7830  153.3156 N   0  0  0  0  0  0  0  0  0  0  0  0
  147.9056  139.1208  153.6740 C   0  0  0  0  0  0  0  0  0  0  0  0
  147.0857  140.1601  153.3760 C   0  0  0  0  0  0  0  0  0  0  0  0
  147.4104  141.5031  153.7914 C   0  0  0  0  0  0  0  0  0  0  0  0
  148.5375  141.6979  154.4895 C   0  0  0  0  0  0  0  0  0  0  0  0
  149.3957  140.6374  154.8213 N   0  0  0  0  0  0  0  0  0  0  0  0
  150.5909  141.0014  155.5880 C   0  0  0  0  0  0  0  0  0  0  0  0
  149.1420  139.3455  154.4497 C   0  0  0  0  0  0  0  0  0  0  0  0
  149.9084  138.4266  154.7482 O   0  0  0  0  0  0  0  0  0  0  0  0
  148.4854  133.6806  152.4628 H   0  0  0  0  0  0  0  0  0  0  0  0
  147.9647  132.0287  152.1576 H   0  0  0  0  0  0  0  0  0  0  0  0
  147.7933  132.7181  153.7660 H   0  0  0  0  0  0  0  0  0  0  0  0
  145.6262  132.6173  152.5506 H   0  0  0  0  0  0  0  0  0  0  0  0
  146.9041  134.5257  150.5506 H   0  0  0  0  0  0  0  0  0  0  0  0
  146.4555  132.8668  150.2474 H   0  0  0  0  0  0  0  0  0  0  0  0
  144.7254  134.4515  149.3968 H   0  0  0  0  0  0  0  0  0  0  0  0
  144.0743  133.3701  150.6052 H   0  0  0  0  0  0  0  0  0  0  0  0
  144.9234  136.2730  151.0469 H   0  0  0  0  0  0  0  0  0  0  0  0
  143.2891  135.6610  151.0539 H   0  0  0  0  0  0  0  0  0  0  0  0
  144.1482  135.9803  153.3838 H   0  0  0  0  0  0  0  0  0  0  0  0
  143.7219  134.3202  153.0668 H   0  0  0  0  0  0  0  0  0  0  0  0
  145.8053  134.3073  154.2373 H   0  0  0  0  0  0  0  0  0  0  0  0
  147.6289  135.5975  152.5647 H   0  0  0  0  0  0  0  0  0  0  0  0
  148.3604  137.3846  152.7031 H   0  0  0  0  0  0  0  0  0  0  0  0
  146.1629  140.0229  152.8366 H   0  0  0  0  0  0  0  0  0  0  0  0
  146.7616  142.3306  153.5449 H   0  0  0  0  0  0  0  0  0  0  0  0
  148.8566  142.6699  154.8382 H   0  0  0  0  0  0  0  0  0  0  0  0
  151.1922  140.1515  155.9125 H   0  0  0  0  0  0  0  0  0  0  0  0
  150.3068  141.5525  156.4854 H   0  0  0  0  0  0  0  0  0  0  0  0
  151.2342  141.6467  154.9889 H   0  0  0  0  0  0  0  0  0  0  0  0
  1  2  1  0  0  0  0
  1 20  1  0  0  0  0
  1 21  1  0  0  0  0
  1 22  1  0  0  0  0
  2  7  1  0  0  0  0
  2  3  1  0  0  0  0
  2 23  1  0  0  0  0
  3  4  1  0  0  0  0
  3 24  1  0  0  0  0
  3 25  1  0  0  0  0
  4  5  1  0  0  0  0
  4 26  1  0  0  0  0
  4 27  1  0  0  0  0
  5  6  1  0  0  0  0
  5 28  1  0  0  0  0
  5 29  1  0  0  0  0
  6  7  1  0  0  0  0
  6 30  1  0  0  0  0
  6 31  1  0  0  0  0
  7  8  1  0  0  0  0
  7 32  1  0  0  0  0
  8  9  1  0  0  0  0
  8 33  1  0  0  0  0
  9 10  2  0  0  0  0
  9 11  1  0  0  0  0
 11 12  1  0  0  0  0
 11 34  1  0  0  0  0
 12 18  1  0  0  0  0
 12 13  2  0  0  0  0
 13 14  1  0  0  0  0
 13 35  1  0  0  0  0
 14 15  2  0  0  0  0
 14 36  1  0  0  0  0
 15 16  1  0  0  0  0
 15 37  1  0  0  0  0
 16 17  1  0  0  0  0
 16 18  1  0  0  0  0
 17 38  1  0  0  0  0
 17 39  1  0  0  0  0
 17 40  1  0  0  0  0
 18 19  2  0  0  0  0
M  END
> <s_m_source_file>
AV-unprocessed.smi

> <i_m_source_file_index>
2441

> <i_lp_mmshare_version>
43012

> <i_f3d_flags>
0

> <s_epik_input>
W0NIM11bQ0BASF0xW0NIMl1bQ0gyXVtDSDJdW0NIMl1bQ0BIXTFbTkhdQyg9TylbTkhdYzJbY0hdW2NIXVtjSF1uKFtDSDNdKWMyPU8=

> <s_epik_cmdline>
J2VwaWtfcHl0aG9uJywgJy1waCcsICc3LjAnLCAnLXRuJywgJzgnLCAnLW1hJywgJzIwMCcsICctbWV0YWxfYmluZGluZycsICctaW1hZScsICc8aW5maWxlLm1hZT4nLCAnLW9tYWUnLCAnPG91dGZpbGUubWFlPic=

> <r_lp_tautomer_probability>
1

> <r_epik_Ionization_Penalty>
2.64999e-05

> <r_epik_Ionization_Penalty_Charging>
5.09663e-06

> <r_epik_Ionization_Penalty_Neutral>
2.14032e-05

> <r_epik_State_Penalty>
-0

> <r_epik_Charging_Adjusted_Penalty>
5.09663e-06

> <i_epik_Tot_Q>
0

> <i_epik_Tot_abs_Q>
0

> <r_epik_Metal_State_Penalty>
-0

> <b_epik_Metal_Only>
0

> <s_lp_Force_Field>
OPLS_2005

> <r_lp_Energy>
23.2252

> <b_lp_Chiralities_Consistent>
1

> <s_lp_Variant>
AV-unprocessed.smi:2441-3

> <Gold.Version>
5.8.1

> <Gold.Id.Protein>
6NUR|6NUR_protein|mol2

> <Gold.PLP.Fitness>
40.4047

> <Gold.PLP.PLP>
-32.6644

> <Gold.PLP.part.hbond>
-1.9322

> <Gold.PLP.part.metal>
0.0000

> <Gold.PLP.part.buried>
-1.1885

> <Gold.PLP.part.nonpolar>
-28.8344

> <Gold.PLP.part.repulsive>
0.2750

> <Gold.PLP.ligand.clash>
0.0000

> <Gold.PLP.ligand.torsion>
0.6215

> <Gold.PLP.Chemscore.Hbond>
1.9920

> <Gold.PLP.Chemscore.CHOScore>
1.0000

> <Gold.PLP.Chemscore.Metal>
0.0000

> <Gold.Chemscore.Hbonds>
donor molecule, donor type, donor heavy atom, donor atom, acceptor molecule, acceptor atom, score
      L1  H     8    33       P1  7948  0.98
      L1  H    11    34       P1  7948  1.00
      L1  C    15    37       P1  8028  1.00

> <Gold.PLP.Chemscore.Internal.Correction>
0.0072

> <Gold.Rescore>
     Score         DG    S(hbond)    S(metal)    S(lipo)     H(rot)  DE(clash)    DE(int)     intcor
     16.90     -17.57       1.93        0.00      70.20       1.00       0.11       0.56       ----

> <Gold.Chemscore.Fitness>
16.9027

> <Gold.Chemscore.DG>
-17.5718

> <Gold.Chemscore.ZeroCoef>
-5.4800

> <Gold.Chemscore.Hbond>
1.9276

> <Gold.Chemscore.Metal>
0.0000

> <Gold.Chemscore.Lipo>
70.2013

> <Gold.Chemscore.Internal_Hbond>
0.0000

> <Gold.Chemscore.DEClash>
0.1106

> <Gold.Chemscore.DEInternal>
0.5586

> <Gold.Chemscore.Rot>
1.0000

> <Gold.Chemscore.Internal.Correction>
   9.000000E+99

> <Gold.Chemscore.Hbonds>
donor molecule, donor type, donor heavy atom, donor atom, acceptor molecule, acceptor atom, score
      L1  H     8    33       P1  7948  0.92
      L1  H    11    34       P1  7948  0.91

> <Gold.Chemscore.Hbond.Weighted>
-6.4382

> <Gold.Chemscore.Metal.Weighted>
-0.0000

> <Gold.Chemscore.Lipo.Weighted>
-8.2136

> <Gold.Chemscore.Internal_Hbond.Weighted>
0.0000

> <Gold.Chemscore.DEClash.Weighted>
0.1106

> <Gold.Chemscore.DEInternal.Weighted>
0.5586

> <Gold.Chemscore.Rot.Weighted>
2.5600

> <Gold.Chemscore.Internal.Correction.Weighted>
   9.000000E+99

> <Gold.Protein.RotatedTorsions>
[ 6907 6896 6895 6894 ] final  146.17 input  -60.11 | X-H torsion
[ 7974 7965 7964 7962 ] final  -69.25 input  175.53 | X-H torsion
[ 8008 7997 7996 7995 ] final  111.24 input   59.86 | X-H torsion
[ 10167 10162 10161 10158 ] final  131.88 input  -65.29 | X-H torsion
[ 10718 10713 10712 10709 ] final  -20.62 input   66.30 | X-H torsion
[ 10763 10752 10751 10750 ] final  171.66 input  -60.55 | X-H torsion
[ 11005 11000 10999 10996 ] final   57.14 input  -57.11 | X-H torsion

> <Gold.Protein.ActiveResidues>
 VAL166  LYS551  ARG553  GLY616  TRP617  ASP618  TYR619  PRO620  LYS621  CYS622 
 ASP623  PHE694  ASN695  SER759  ASP760  ASP761  ALA762  ILE779  LEU786  VAL792 
 PHE793  MET794  SER795  GLU796  ALA797  LYS798  CYS799  TRP800  GLU811  SER814 

> <Gold.Protein.RotatedAtoms>
  152.1713  133.4645  159.4910 H   0  0  0  0  0  0  0  0  0  0  0  0  # atno 6907 bound_to 6896
  150.6920  134.1949  159.4308 H   0  0  0  0  0  0  0  0  0  0  0  0  # atno 6908 bound_to 6896
  151.9856  135.0005  160.0610 H   0  0  0  0  0  0  0  0  0  0  0  0  # atno 6909 bound_to 6896
  145.7061  140.9097  143.0705 H   0  0  0  0  0  0  0  0  0  0  0  0  # atno 7974 bound_to 7965
  156.2110  140.3023  155.9733 H   0  0  0  0  0  0  0  0  0  0  0  0  # atno 8008 bound_to 7997
  155.2723  140.0434  157.3025 H   0  0  0  0  0  0  0  0  0  0  0  0  # atno 8009 bound_to 7997
  154.5700  140.2345  155.8215 H   0  0  0  0  0  0  0  0  0  0  0  0  # atno 8010 bound_to 7997
  139.5364  144.6687  151.4771 H   0  0  0  0  0  0  0  0  0  0  0  0  # atno 10167 bound_to 10162
  156.5293  130.4651  149.6555 H   0  0  0  0  0  0  0  0  0  0  0  0  # atno 10718 bound_to 10713
  154.4150  135.2757  155.2012 H   0  0  0  0  0  0  0  0  0  0  0  0  # atno 10763 bound_to 10752
  154.3981  135.6050  153.5885 H   0  0  0  0  0  0  0  0  0  0  0  0  # atno 10764 bound_to 10752
  152.9832  135.5920  154.4438 H   0  0  0  0  0  0  0  0  0  0  0  0  # atno 10765 bound_to 10752
  140.0475  134.5784  155.9304 H   0  0  0  0  0  0  0  0  0  0  0  0  # atno 11005 bound_to 11000
  144.6955  139.9013  143.7458 LP  0  0  0  0  0  0  0  0  0  0  0  0  # atno 17320 bound_to 7965
  146.0754  139.3742  143.0497 LP  0  0  0  0  0  0  0  0  0  0  0  0  # atno 17321 bound_to 7965
  140.6573  143.8573  150.6848 LP  0  0  0  0  0  0  0  0  0  0  0  0  # atno 17342 bound_to 10162
  140.1957  143.4000  152.1830 LP  0  0  0  0  0  0  0  0  0  0  0  0  # atno 17343 bound_to 10162
  156.3075  130.7211  151.2096 LP  0  0  0  0  0  0  0  0  0  0  0  0  # atno 17370 bound_to 10713
  157.7424  131.0490  150.5024 LP  0  0  0  0  0  0  0  0  0  0  0  0  # atno 17371 bound_to 10713
  141.1914  133.6571  156.5456 LP  0  0  0  0  0  0  0  0  0  0  0  0  # atno 17394 bound_to 11000
  140.3969  134.7391  157.4756 LP  0  0  0  0  0  0  0  0  0  0  0  0  # atno 17395 bound_to 11000

$$$$
