AV-unprocessed.smi:3169|AV-procd|sdf|12105|dock4
  -GOLD-   2272017543D 1   1.00000     0.00000
 Structure written by MMmdl.
 35 36  0  0  0  0  0  0  0  0  1 V2000
  146.8966  139.3724  155.0532 O   0  0  0  0  0  0  0  0  0  0  0  0
  147.3730  139.5455  153.9314 C   0  0  0  0  0  0  0  0  0  0  0  0
  147.0780  138.7888  152.8662 N   0  0  0  0  0  0  0  0  0  0  0  0
  146.1313  137.6779  152.8637 C   0  0  0  0  0  0  0  0  0  0  0  0
  146.0589  136.9752  151.4951 C   0  0  0  0  0  0  0  0  0  0  0  0
  145.5751  135.6117  151.6039 N   0  0  0  0  0  0  0  0  0  0  0  0
  146.2338  134.5320  152.1770 C   0  0  0  0  0  0  0  0  0  0  0  0
  145.3982  133.4462  152.0432 C   0  0  0  0  0  0  0  0  0  0  0  0
  144.2270  133.8324  151.3957 N   0  0  0  0  0  0  0  0  0  0  0  0
  144.4035  135.1276  151.1687 C   0  0  0  0  0  0  0  0  0  0  0  0
  148.2467  140.5139  153.6240 N   0  0  0  0  0  0  0  0  0  0  0  0
  148.7778  141.5004  154.5586 C   0  0  0  0  0  0  0  0  0  0  0  0
  149.7060  140.8524  155.5991 C   0  0  2  0  0  0  0  0  0  0  0  0
  150.3035  141.8151  156.6254 C   0  0  0  0  0  0  0  0  0  0  0  0
  151.5276  141.0506  157.0739 C   0  0  0  0  0  0  0  0  0  0  0  0
  151.9979  140.4168  155.7670 C   0  0  0  0  0  0  0  0  0  0  0  0
  150.8335  140.2631  154.9579 O   0  0  0  0  0  0  0  0  0  0  0  0
  147.5251  139.0075  151.9878 H   0  0  0  0  0  0  0  0  0  0  0  0
  146.4341  136.9666  153.6327 H   0  0  0  0  0  0  0  0  0  0  0  0
  145.1422  138.0374  153.1515 H   0  0  0  0  0  0  0  0  0  0  0  0
  145.3870  137.5225  150.8332 H   0  0  0  0  0  0  0  0  0  0  0  0
  147.0354  136.9672  151.0088 H   0  0  0  0  0  0  0  0  0  0  0  0
  147.2155  134.6230  152.6178 H   0  0  0  0  0  0  0  0  0  0  0  0
  145.5491  132.4247  152.3597 H   0  0  0  0  0  0  0  0  0  0  0  0
  143.6662  135.7378  150.6675 H   0  0  0  0  0  0  0  0  0  0  0  0
  148.5756  140.5711  152.6714 H   0  0  0  0  0  0  0  0  0  0  0  0
  149.3393  142.2342  153.9797 H   0  0  0  0  0  0  0  0  0  0  0  0
  147.9751  142.0517  155.0513 H   0  0  0  0  0  0  0  0  0  0  0  0
  149.1767  140.0545  156.1227 H   0  0  0  0  0  0  0  0  0  0  0  0
  150.6007  142.7507  156.1493 H   0  0  0  0  0  0  0  0  0  0  0  0
  149.6203  142.0472  157.4426 H   0  0  0  0  0  0  0  0  0  0  0  0
  152.2843  141.6825  157.5394 H   0  0  0  0  0  0  0  0  0  0  0  0
  151.2423  140.2758  157.7867 H   0  0  0  0  0  0  0  0  0  0  0  0
  152.6922  141.0792  155.2489 H   0  0  0  0  0  0  0  0  0  0  0  0
  152.4986  139.4618  155.9282 H   0  0  0  0  0  0  0  0  0  0  0  0
  1  2  2  0  0  0  0
  2  3  1  0  0  0  0
  2 11  1  0  0  0  0
  3  4  1  0  0  0  0
  3 18  1  0  0  0  0
  4  5  1  0  0  0  0
  4 19  1  0  0  0  0
  4 20  1  0  0  0  0
  5  6  1  0  0  0  0
  5 21  1  0  0  0  0
  5 22  1  0  0  0  0
  6 10  1  0  0  0  0
  6  7  1  0  0  0  0
  7  8  2  0  0  0  0
  7 23  1  0  0  0  0
  8  9  1  0  0  0  0
  8 24  1  0  0  0  0
  9 10  2  0  0  0  0
 10 25  1  0  0  0  0
 11 12  1  0  0  0  0
 11 26  1  0  0  0  0
 12 13  1  0  0  0  0
 12 27  1  0  0  0  0
 12 28  1  0  0  0  0
 13 17  1  0  0  0  0
 13 14  1  0  0  0  0
 13 29  1  0  0  0  0
 14 15  1  0  0  0  0
 14 30  1  0  0  0  0
 14 31  1  0  0  0  0
 15 16  1  0  0  0  0
 15 32  1  0  0  0  0
 15 33  1  0  0  0  0
 16 17  1  0  0  0  0
 16 34  1  0  0  0  0
 16 35  1  0  0  0  0
M  END
> <s_m_source_file>
AV-unprocessed.smi

> <i_m_source_file_index>
3169

> <i_lp_mmshare_version>
43012

> <i_f3d_flags>
0

> <s_epik_input>
TzFbQ0gyXVtDSDJdW0NIMl1bQ0BIXTFbQ0gyXVtOSF1DKD1PKVtOSF1bQ0gyXVtDSDJdbjJbY0hdW2NIXW5bY0hdMg==

> <s_epik_cmdline>
J2VwaWtfcHl0aG9uJywgJy1waCcsICc3LjAnLCAnLXRuJywgJzgnLCAnLW1hJywgJzIwMCcsICctbWV0YWxfYmluZGluZycsICctaW1hZScsICc8aW5maWxlLm1hZT4nLCAnLW9tYWUnLCAnPG91dGZpbGUubWFlPic=

> <r_lp_tautomer_probability>
1

> <r_epik_Ionization_Penalty>
0.620462

> <r_epik_Ionization_Penalty_Charging>
0.620414

> <r_epik_Ionization_Penalty_Neutral>
4.72016e-05

> <r_epik_State_Penalty>
0.636391

> <r_epik_Charging_Adjusted_Penalty>
1.25681

> <i_epik_Tot_Q>
0

> <i_epik_Tot_abs_Q>
0

> <r_epik_Metal_State_Penalty>
0.306539

> <b_epik_Metal_Only>
0

> <s_lp_Force_Field>
OPLS_2005

> <r_lp_Energy>
16.7898

> <b_lp_Chiralities_Consistent>
1

> <s_lp_Variant>
AV-unprocessed.smi:3169-3

> <Gold.Version>
5.8.1

> <Gold.Id.Protein>
6NUR|6NUR_protein|mol2

> <Gold.PLP.Fitness>
45.2710

> <Gold.PLP.PLP>
-31.3518

> <Gold.PLP.part.hbond>
-3.0638

> <Gold.PLP.part.metal>
0.0000

> <Gold.PLP.part.buried>
2.6289

> <Gold.PLP.part.nonpolar>
-30.3152

> <Gold.PLP.part.repulsive>
0.5617

> <Gold.PLP.ligand.clash>
0.0000

> <Gold.PLP.ligand.torsion>
0.2364

> <Gold.PLP.Chemscore.Hbond>
2.8000

> <Gold.PLP.Chemscore.CHOScore>
1.9824

> <Gold.PLP.Chemscore.Metal>
0.0000

> <Gold.Chemscore.Hbonds>
donor molecule, donor type, donor heavy atom, donor atom, acceptor molecule, acceptor atom, score
      L1  H    11    26       P1  7957  1.00
      P1  H  7989  7998       L1    17  0.65
      L1  C     7    23       P1  7948  0.89

> <Gold.PLP.Chemscore.Internal.Correction>
0.0447

> <Gold.Rescore>
     Score         DG    S(hbond)    S(metal)    S(lipo)     H(rot)  DE(clash)    DE(int)     intcor
     13.61     -15.38       2.74        0.00      55.62       2.25       1.31       0.47       ----

> <Gold.Chemscore.Fitness>
13.6106

> <Gold.Chemscore.DG>
-15.3834

> <Gold.Chemscore.ZeroCoef>
-5.4800

> <Gold.Chemscore.Hbond>
2.7393

> <Gold.Chemscore.Metal>
0.0000

> <Gold.Chemscore.Lipo>
55.6199

> <Gold.Chemscore.Internal_Hbond>
0.0000

> <Gold.Chemscore.DEClash>
1.3054

> <Gold.Chemscore.DEInternal>
0.4675

> <Gold.Chemscore.Rot>
2.2474

> <Gold.Chemscore.Internal.Correction>
   9.000000E+99

> <Gold.Chemscore.Hbonds>
donor molecule, donor type, donor heavy atom, donor atom, acceptor molecule, acceptor atom, score
      L1  H     3    18       P1  7957  0.05
      L1  H    11    26       P1  7957  0.98
      P1  H  7989  7998       L1    17  0.06

> <Gold.Chemscore.Hbond.Weighted>
-9.1492

> <Gold.Chemscore.Metal.Weighted>
-0.0000

> <Gold.Chemscore.Lipo.Weighted>
-6.5075

> <Gold.Chemscore.Internal_Hbond.Weighted>
0.0000

> <Gold.Chemscore.DEClash.Weighted>
1.3054

> <Gold.Chemscore.DEInternal.Weighted>
0.4675

> <Gold.Chemscore.Rot.Weighted>
5.7532

> <Gold.Chemscore.Internal.Correction.Weighted>
   9.000000E+99

> <Gold.Protein.RotatedTorsions>
[ 6907 6896 6895 6894 ] final  167.73 input  -60.11 | X-H torsion
[ 7974 7965 7964 7962 ] final  -34.68 input  175.53 | X-H torsion
[ 8008 7997 7996 7995 ] final  114.22 input   59.86 | X-H torsion
[ 10167 10162 10161 10158 ] final -169.25 input  -65.29 | X-H torsion
[ 10718 10713 10712 10709 ] final  104.57 input   66.30 | X-H torsion
[ 10763 10752 10751 10750 ] final   48.80 input  -60.55 | X-H torsion
[ 11005 11000 10999 10996 ] final  -43.60 input  -57.11 | X-H torsion

> <Gold.Protein.ActiveResidues>
 VAL166  LYS551  ARG553  GLY616  TRP617  ASP618  TYR619  PRO620  LYS621  CYS622 
 ASP623  PHE694  ASN695  SER759  ASP760  ASP761  ALA762  ILE779  LEU786  VAL792 
 PHE793  MET794  SER795  GLU796  ALA797  LYS798  CYS799  TRP800  GLU811  SER814 

> <Gold.Protein.RotatedAtoms>
  151.8587  133.3453  159.3696 H   0  0  0  0  0  0  0  0  0  0  0  0  # atno 6907 bound_to 6896
  150.7185  134.5228  159.5671 H   0  0  0  0  0  0  0  0  0  0  0  0  # atno 6908 bound_to 6896
  152.2736  134.7906  160.0460 H   0  0  0  0  0  0  0  0  0  0  0  0  # atno 6909 bound_to 6896
  146.0809  140.6068  142.8909 H   0  0  0  0  0  0  0  0  0  0  0  0  # atno 7974 bound_to 7965
  156.2308  140.2963  156.0183 H   0  0  0  0  0  0  0  0  0  0  0  0  # atno 8008 bound_to 7997
  155.2231  140.0416  157.2968 H   0  0  0  0  0  0  0  0  0  0  0  0  # atno 8009 bound_to 7997
  154.5992  140.2422  155.7823 H   0  0  0  0  0  0  0  0  0  0  0  0  # atno 8010 bound_to 7997
  139.5934  144.1164  152.1661 H   0  0  0  0  0  0  0  0  0  0  0  0  # atno 10167 bound_to 10162
  157.6735  131.0807  150.5727 H   0  0  0  0  0  0  0  0  0  0  0  0  # atno 10718 bound_to 10713
  152.9790  135.5932  154.3986 H   0  0  0  0  0  0  0  0  0  0  0  0  # atno 10763 bound_to 10752
  154.3633  135.2767  155.2309 H   0  0  0  0  0  0  0  0  0  0  0  0  # atno 10764 bound_to 10752
  154.4297  135.6039  153.6115 H   0  0  0  0  0  0  0  0  0  0  0  0  # atno 10765 bound_to 10752
  141.0395  133.6786  156.2756 H   0  0  0  0  0  0  0  0  0  0  0  0  # atno 11005 bound_to 11000
  144.7293  140.4621  143.6950 LP  0  0  0  0  0  0  0  0  0  0  0  0  # atno 17320 bound_to 7965
  145.6219  139.1525  143.3017 LP  0  0  0  0  0  0  0  0  0  0  0  0  # atno 17321 bound_to 7965
  140.0743  144.5753  150.7168 LP  0  0  0  0  0  0  0  0  0  0  0  0  # atno 17342 bound_to 10162
  140.7192  143.2573  151.4334 LP  0  0  0  0  0  0  0  0  0  0  0  0  # atno 17343 bound_to 10162
  156.6028  130.4359  149.5890 LP  0  0  0  0  0  0  0  0  0  0  0  0  # atno 17370 bound_to 10713
  156.2492  130.6897  151.1629 LP  0  0  0  0  0  0  0  0  0  0  0  0  # atno 17371 bound_to 10713
  140.6261  134.5312  157.5554 LP  0  0  0  0  0  0  0  0  0  0  0  0  # atno 17394 bound_to 11000
  139.9265  134.8046  156.1054 LP  0  0  0  0  0  0  0  0  0  0  0  0  # atno 17395 bound_to 11000

$$$$
