AV-unprocessed.smi:867|AV-procd|sdf|3999|dock2
  -GOLD-   22720 1483D 1   1.00000     0.00000
 Structure written by MMmdl.
 54 57  0  0  0  0  0  0  0  0  3 V2000
  149.3322  132.0715  156.6817 O   0  0  0  0  0  0  0  0  0  0  0  0
  148.5541  132.9670  156.3506 C   0  0  0  0  0  0  0  0  0  0  0  0
  147.4781  133.2895  157.0884 N   0  0  0  0  0  0  0  0  0  0  0  0
  147.1047  132.6547  158.3471 C   0  0  0  0  0  0  0  0  0  0  0  0
  148.2969  132.5729  159.3141 C   0  0  0  0  0  0  0  0  0  0  0  0
  148.1933  133.5915  160.4325 C   0  0  0  0  0  0  0  0  0  0  0  0
  148.0002  133.1725  161.7676 C   0  0  0  0  0  0  0  0  0  0  0  0
  147.9035  134.1402  162.7892 C   0  0  0  0  0  0  0  0  0  0  0  0
  148.0009  135.5058  162.4523 C   0  0  0  0  0  0  0  0  0  0  0  0
  148.1837  135.8693  161.1637 N   0  3  0  0  0  0  0  0  0  0  0  0
  148.2822  134.9734  160.1567 C   0  0  0  0  0  0  0  0  0  0  0  0
  148.6623  133.6481  155.1834 N   0  0  0  0  0  0  0  0  0  0  0  0
  149.2401  133.1335  153.9363 C   0  0  0  0  0  0  0  0  0  0  0  0
  148.1094  132.8195  152.9359 C   0  0  0  0  0  0  0  0  0  0  0  0
  147.2135  133.9918  152.7064 N   0  3  0  0  0  0  0  0  0  0  0  0
  146.0679  133.7261  151.7820 C   0  0  1  0  0  0  0  0  0  0  0  0
  146.5418  133.1115  150.4373 C   0  0  0  0  0  0  0  0  0  0  0  0
  145.6959  131.8350  150.3009 C   0  0  2  0  0  0  0  0  0  0  0  0
  144.2308  132.2146  150.0312 C   0  0  0  0  0  0  0  0  0  0  0  0
  143.7737  132.7615  151.3945 C   0  0  0  0  0  0  0  0  0  0  0  0
  145.0470  132.6529  152.2578 C   0  0  1  0  0  0  0  0  0  0  0  0
  145.6476  131.3496  151.7435 C   0  0  0  0  0  0  0  0  0  0  0  0
  146.7546  134.6000  153.9902 C   0  0  0  0  0  0  0  0  0  0  0  0
  147.9293  134.8904  154.9380 C   0  0  0  0  0  0  0  0  0  0  0  0
  146.8631  134.0110  156.7409 H   0  0  0  0  0  0  0  0  0  0  0  0
  146.2998  133.2374  158.7962 H   0  0  0  0  0  0  0  0  0  0  0  0
  146.6972  131.6601  158.1567 H   0  0  0  0  0  0  0  0  0  0  0  0
  148.3628  131.5758  159.7522 H   0  0  0  0  0  0  0  0  0  0  0  0
  149.2300  132.7318  158.7715 H   0  0  0  0  0  0  0  0  0  0  0  0
  147.9252  132.1215  162.0075 H   0  0  0  0  0  0  0  0  0  0  0  0
  147.7559  133.8384  163.8159 H   0  0  0  0  0  0  0  0  0  0  0  0
  147.9378  136.3119  163.1688 H   0  0  0  0  0  0  0  0  0  0  0  0
  148.4261  135.3875  159.1691 H   0  0  0  0  0  0  0  0  0  0  0  0
  149.9061  133.8898  153.5179 H   0  0  0  0  0  0  0  0  0  0  0  0
  149.8580  132.2460  154.0724 H   0  0  0  0  0  0  0  0  0  0  0  0
  148.5839  132.5098  152.0074 H   0  0  0  0  0  0  0  0  0  0  0  0
  147.5170  131.9768  153.2958 H   0  0  0  0  0  0  0  0  0  0  0  0
  145.5487  134.6711  151.6122 H   0  0  0  0  0  0  0  0  0  0  0  0
  146.4043  133.7938  149.5976 H   0  0  0  0  0  0  0  0  0  0  0  0
  147.5958  132.8311  150.4656 H   0  0  0  0  0  0  0  0  0  0  0  0
  146.1004  131.1171  149.5865 H   0  0  0  0  0  0  0  0  0  0  0  0
  144.1345  132.9508  149.2321 H   0  0  0  0  0  0  0  0  0  0  0  0
  143.6445  131.3377  149.7526 H   0  0  0  0  0  0  0  0  0  0  0  0
  143.3967  133.7827  151.3296 H   0  0  0  0  0  0  0  0  0  0  0  0
  142.9755  132.1403  151.8034 H   0  0  0  0  0  0  0  0  0  0  0  0
  144.7981  132.6568  153.3165 H   0  0  0  0  0  0  0  0  0  0  0  0
  144.9960  130.4857  151.8872 H   0  0  0  0  0  0  0  0  0  0  0  0
  146.6313  131.1303  152.1623 H   0  0  0  0  0  0  0  0  0  0  0  0
  146.2156  135.5290  153.8090 H   0  0  0  0  0  0  0  0  0  0  0  0
  146.0513  133.9232  154.4786 H   0  0  0  0  0  0  0  0  0  0  0  0
  147.5649  135.3490  155.8588 H   0  0  0  0  0  0  0  0  0  0  0  0
  148.6009  135.6242  154.4896 H   0  0  0  0  0  0  0  0  0  0  0  0
  147.7874  134.6888  152.2536 H   0  0  0  0  0  0  0  0  0  0  0  0
  148.2502  136.8630  160.9416 H   0  0  0  0  0  0  0  0  0  0  0  0
  1  2  2  0  0  0  0
  2  3  1  0  0  0  0
  2 12  1  0  0  0  0
  3  4  1  0  0  0  0
  3 25  1  0  0  0  0
  4  5  1  0  0  0  0
  4 26  1  0  0  0  0
  4 27  1  0  0  0  0
  5  6  1  0  0  0  0
  5 28  1  0  0  0  0
  5 29  1  0  0  0  0
  6 11  1  0  0  0  0
  6  7  2  0  0  0  0
  7  8  1  0  0  0  0
  7 30  1  0  0  0  0
  8  9  2  0  0  0  0
  8 31  1  0  0  0  0
  9 10  1  0  0  0  0
  9 32  1  0  0  0  0
 10 11  2  0  0  0  0
 10 54  1  0  0  0  0
 11 33  1  0  0  0  0
 12 24  1  0  0  0  0
 12 13  1  0  0  0  0
 13 14  1  0  0  0  0
 13 34  1  0  0  0  0
 13 35  1  0  0  0  0
 14 15  1  0  0  0  0
 14 36  1  0  0  0  0
 14 37  1  0  0  0  0
 15 16  1  0  0  0  0
 15 23  1  0  0  0  0
 15 53  1  0  0  0  0
 16 21  1  0  0  0  0
 16 17  1  0  0  0  0
 16 38  1  0  0  0  0
 17 18  1  0  0  0  0
 17 39  1  0  0  0  0
 17 40  1  0  0  0  0
 18 22  1  0  0  0  0
 18 19  1  0  0  0  0
 18 41  1  0  0  0  0
 19 20  1  0  0  0  0
 19 42  1  0  0  0  0
 19 43  1  0  0  0  0
 20 21  1  0  0  0  0
 20 44  1  0  0  0  0
 20 45  1  0  0  0  0
 21 22  1  0  0  0  0
 21 46  1  0  0  0  0
 22 47  1  0  0  0  0
 22 48  1  0  0  0  0
 23 24  1  0  0  0  0
 23 49  1  0  0  0  0
 23 50  1  0  0  0  0
 24 51  1  0  0  0  0
 24 52  1  0  0  0  0
M  CHG  1  10   1
M  CHG  1  15   1
M  END
> <s_m_source_file>
AV-unprocessed.smi

> <i_m_source_file_index>
867

> <i_lp_mmshare_version>
43012

> <i_f3d_flags>
0

> <s_epik_input>
W0NIMl0xW0NIMl1bQ0BASF0oW0NIMl0yKVtDQEBIXShbQ0gyXVtDQEhdMTIpTihbQ0gyXVtDSDJdMylbQ0gyXVtDSDJdTjNDKD1PKVtOSF1bQ0gyXVtDSDJdYzRbY0hdW2NIXVtjSF1uW2NIXTQ=

> <s_epik_cmdline>
J2VwaWtfcHl0aG9uJywgJy1waCcsICc3LjAnLCAnLXRuJywgJzgnLCAnLW1hJywgJzIwMCcsICctbWV0YWxfYmluZGluZycsICctaW1hZScsICc8aW5maWxlLm1hZT4nLCAnLW9tYWUnLCAnPG91dGZpbGUubWFlPic=

> <r_epik_Ionization_Penalty>
2.25108

> <r_epik_Ionization_Penalty_Charging>
2.25105

> <r_epik_Ionization_Penalty_Neutral>
2.64641e-05

> <r_epik_State_Penalty>
2.39519

> <r_epik_Charging_Adjusted_Penalty>
4.64625

> <i_epik_Tot_Q>
2

> <i_epik_Tot_abs_Q>
2

> <r_epik_Metal_State_Penalty>
2.40865

> <b_epik_Metal_Only>
0

> <s_lp_Force_Field>
OPLS_2005

> <r_lp_Energy>
104.459

> <b_lp_Chiralities_Consistent>
1

> <s_lp_Variant>
AV-unprocessed.smi:867-6

> <Gold.Version>
5.8.1

> <Gold.Id.Protein>
6NUR|6NUR_protein|mol2

> <Gold.PLP.Fitness>
46.9531

> <Gold.PLP.PLP>
-43.3513

> <Gold.PLP.part.hbond>
-1.0000

> <Gold.PLP.part.metal>
0.0000

> <Gold.PLP.part.buried>
-6.6516

> <Gold.PLP.part.nonpolar>
-37.1854

> <Gold.PLP.part.repulsive>
0.1866

> <Gold.PLP.ligand.clash>
1.1378

> <Gold.PLP.ligand.torsion>
0.6979

> <Gold.PLP.Chemscore.Hbond>
2.0000

> <Gold.PLP.Chemscore.CHOScore>
0.0000

> <Gold.PLP.Chemscore.Metal>
0.0000

> <Gold.Chemscore.Hbonds>
donor molecule, donor type, donor heavy atom, donor atom, acceptor molecule, acceptor atom, score
      L1  H    15    53       P1  7948  2.00

> <Gold.PLP.Chemscore.Internal.Correction>
0.1355

> <Gold.Rescore>
     Score         DG    S(hbond)    S(metal)    S(lipo)     H(rot)  DE(clash)    DE(int)     intcor
     16.34     -18.18       0.96        0.00     113.15       1.46       0.03       1.81       ----

> <Gold.Chemscore.Fitness>
16.3371

> <Gold.Chemscore.DG>
-18.1814

> <Gold.Chemscore.ZeroCoef>
-5.4800

> <Gold.Chemscore.Hbond>
0.9563

> <Gold.Chemscore.Metal>
0.0000

> <Gold.Chemscore.Lipo>
113.1458

> <Gold.Chemscore.Internal_Hbond>
0.0000

> <Gold.Chemscore.DEClash>
0.0349

> <Gold.Chemscore.DEInternal>
1.8094

> <Gold.Chemscore.Rot>
1.4572

> <Gold.Chemscore.Internal.Correction>
   9.000000E+99

> <Gold.Chemscore.Hbonds>
donor molecule, donor type, donor heavy atom, donor atom, acceptor molecule, acceptor atom, score
      L1  H    15    53       P1  7948  0.65

> <Gold.Chemscore.Hbond.Weighted>
-3.1939

> <Gold.Chemscore.Metal.Weighted>
-0.0000

> <Gold.Chemscore.Lipo.Weighted>
-13.2381

> <Gold.Chemscore.Internal_Hbond.Weighted>
0.0000

> <Gold.Chemscore.DEClash.Weighted>
0.0349

> <Gold.Chemscore.DEInternal.Weighted>
1.8094

> <Gold.Chemscore.Rot.Weighted>
3.7305

> <Gold.Chemscore.Internal.Correction.Weighted>
   9.000000E+99

> <Gold.Protein.RotatedTorsions>
[ 6907 6896 6895 6894 ] final   92.86 input  -60.11 | X-H torsion
[ 7974 7965 7964 7962 ] final  140.84 input  175.53 | X-H torsion
[ 8008 7997 7996 7995 ] final -125.59 input   59.86 | X-H torsion
[ 10167 10162 10161 10158 ] final  108.93 input  -65.29 | X-H torsion
[ 10718 10713 10712 10709 ] final   32.84 input   66.30 | X-H torsion
[ 10763 10752 10751 10750 ] final  132.27 input  -60.55 | X-H torsion
[ 11005 11000 10999 10996 ] final  176.52 input  -57.11 | X-H torsion

> <Gold.Protein.ActiveResidues>
 VAL166  LYS551  ARG553  GLY616  TRP617  ASP618  TYR619  PRO620  LYS621  CYS622 
 ASP623  PHE694  ASN695  SER759  ASP760  ASP761  ALA762  ILE779  LEU786  VAL792 
 PHE793  MET794  SER795  GLU796  ALA797  LYS798  CYS799  TRP800  GLU811  SER814 

> <Gold.Protein.RotatedAtoms>
  152.5453  134.1437  159.8489 H   0  0  0  0  0  0  0  0  0  0  0  0  # atno 6907 bound_to 6896
  151.1471  133.4925  159.2603 H   0  0  0  0  0  0  0  0  0  0  0  0  # atno 6908 bound_to 6896
  151.1512  135.0238  159.8724 H   0  0  0  0  0  0  0  0  0  0  0  0  # atno 6909 bound_to 6896
  144.9150  139.5242  143.5690 H   0  0  0  0  0  0  0  0  0  0  0  0  # atno 7974 bound_to 7965
  155.2157  140.0420  157.2940 H   0  0  0  0  0  0  0  0  0  0  0  0  # atno 8008 bound_to 7997
  154.5982  140.2445  155.7799 H   0  0  0  0  0  0  0  0  0  0  0  0  # atno 8009 bound_to 7997
  156.2304  140.2940  156.0183 H   0  0  0  0  0  0  0  0  0  0  0  0  # atno 8010 bound_to 7997
  139.6807  144.7118  151.1521 H   0  0  0  0  0  0  0  0  0  0  0  0  # atno 10167 bound_to 10162
  157.2903  130.7299  149.6607 H   0  0  0  0  0  0  0  0  0  0  0  0  # atno 10718 bound_to 10713
  153.7880  135.3159  155.3375 H   0  0  0  0  0  0  0  0  0  0  0  0  # atno 10763 bound_to 10752
  154.8136  135.4651  154.0586 H   0  0  0  0  0  0  0  0  0  0  0  0  # atno 10764 bound_to 10752
  153.1895  135.6906  153.8457 H   0  0  0  0  0  0  0  0  0  0  0  0  # atno 10765 bound_to 10752
  140.3740  134.7005  157.4410 H   0  0  0  0  0  0  0  0  0  0  0  0  # atno 11005 bound_to 11000
  146.3177  139.7986  142.8970 LP  0  0  0  0  0  0  0  0  0  0  0  0  # atno 17320 bound_to 7965
  145.3390  141.0283  143.3403 LP  0  0  0  0  0  0  0  0  0  0  0  0  # atno 17321 bound_to 7965
  140.7651  143.5704  150.9002 LP  0  0  0  0  0  0  0  0  0  0  0  0  # atno 17342 bound_to 10162
  139.9375  143.6420  152.3061 LP  0  0  0  0  0  0  0  0  0  0  0  0  # atno 17343 bound_to 10162
  155.9667  130.4311  150.4905 LP  0  0  0  0  0  0  0  0  0  0  0  0  # atno 17370 bound_to 10713
  157.2866  131.0618  151.2162 LP  0  0  0  0  0  0  0  0  0  0  0  0  # atno 17371 bound_to 10713
  140.0529  134.6104  155.8839 LP  0  0  0  0  0  0  0  0  0  0  0  0  # atno 17394 bound_to 11000
  141.1945  133.6583  156.5599 LP  0  0  0  0  0  0  0  0  0  0  0  0  # atno 17395 bound_to 11000

$$$$
