AV-unprocessed.smi:2093|AV-procd|sdf|8550|dock4
  -GOLD-   2272011273D 1   1.00000     0.00000
 Structure written by MMmdl.
 30 31  0  0  0  0  0  0  0  0  2 V2000
  153.8256  141.0110  161.0398 C   0  0  0  0  0  0  0  0  0  0  0  0
  152.6271  141.3309  160.1346 C   0  0  2  0  0  0  0  0  0  0  0  0
  152.9408  140.9009  158.7719 N   0  0  0  0  0  0  0  0  0  0  0  0
  152.4002  139.8672  158.1094 C   0  0  0  0  0  0  0  0  0  0  0  0
  151.5442  139.1635  158.6505 O   0  0  0  0  0  0  0  0  0  0  0  0
  152.8816  139.7181  156.8543 N   0  5  0  0  0  0  0  0  0  0  0  0
  152.1776  139.0288  155.9415 C   0  0  0  0  0  0  0  0  0  0  0  0
  151.6418  139.5952  154.8541 N   0  0  0  0  0  0  0  0  0  0  0  0
  150.9453  138.6953  154.0456 C   0  0  0  0  0  0  0  0  0  0  0  0
  150.9431  137.4153  154.5329 C   0  0  0  0  0  0  0  0  0  0  0  0
  151.8219  137.3013  156.0310 S   0  0  0  0  0  0  0  0  0  0  0  0
  152.2760  142.8334  160.1585 C   0  0  1  0  0  0  0  0  0  0  0  0
  153.2527  143.7401  159.4062 C   0  0  0  0  0  0  0  0  0  0  0  0
  152.3892  144.9453  159.1162 C   0  0  0  0  0  0  0  0  0  0  0  0
  151.0446  144.2962  158.8030 C   0  0  0  0  0  0  0  0  0  0  0  0
  151.0184  143.0684  159.5274 O   0  0  0  0  0  0  0  0  0  0  0  0
  153.6207  141.2803  162.0760 H   0  0  0  0  0  0  0  0  0  0  0  0
  154.7175  141.5536  160.7245 H   0  0  0  0  0  0  0  0  0  0  0  0
  154.0586  139.9458  161.0191 H   0  0  0  0  0  0  0  0  0  0  0  0
  151.7724  140.7695  160.5152 H   0  0  0  0  0  0  0  0  0  0  0  0
  153.6355  141.4426  158.2792 H   0  0  0  0  0  0  0  0  0  0  0  0
  150.4789  139.0540  153.1403 H   0  0  0  0  0  0  0  0  0  0  0  0
  150.4802  136.5382  154.1067 H   0  0  0  0  0  0  0  0  0  0  0  0
  152.1969  143.1818  161.1899 H   0  0  0  0  0  0  0  0  0  0  0  0
  154.1439  143.9824  159.9860 H   0  0  0  0  0  0  0  0  0  0  0  0
  153.5686  143.2745  158.4713 H   0  0  0  0  0  0  0  0  0  0  0  0
  152.3086  145.5694  160.0071 H   0  0  0  0  0  0  0  0  0  0  0  0
  152.7679  145.5601  158.2994 H   0  0  0  0  0  0  0  0  0  0  0  0
  150.2047  144.9360  159.0741 H   0  0  0  0  0  0  0  0  0  0  0  0
  150.9685  144.0702  157.7389 H   0  0  0  0  0  0  0  0  0  0  0  0
  1  2  1  0  0  0  0
  1 17  1  0  0  0  0
  1 18  1  0  0  0  0
  1 19  1  0  0  0  0
  2  3  1  0  0  0  0
  2 12  1  0  0  0  0
  2 20  1  0  0  0  0
  3  4  1  0  0  0  0
  3 21  1  0  0  0  0
  4  5  2  0  0  0  0
  4  6  1  0  0  0  0
  6  7  1  0  0  0  0
  7 11  1  0  0  0  0
  7  8  2  0  0  0  0
  8  9  1  0  0  0  0
  9 10  2  0  0  0  0
  9 22  1  0  0  0  0
 10 11  1  0  0  0  0
 10 23  1  0  0  0  0
 12 16  1  0  0  0  0
 12 13  1  0  0  0  0
 12 24  1  0  0  0  0
 13 14  1  0  0  0  0
 13 25  1  0  0  0  0
 13 26  1  0  0  0  0
 14 15  1  0  0  0  0
 14 27  1  0  0  0  0
 14 28  1  0  0  0  0
 15 16  1  0  0  0  0
 15 29  1  0  0  0  0
 15 30  1  0  0  0  0
M  CHG  1   6  -1
M  END
> <s_m_source_file>
AV-unprocessed.smi

> <i_m_source_file_index>
2093

> <i_lp_mmshare_version>
43012

> <i_f3d_flags>
0

> <s_epik_input>
TzFbQ0gyXVtDSDJdW0NIMl1bQ0BIXTFbQ0BIXShbQ0gzXSlbTkhdQyg9TylbTkhdYzJuW2NIXVtjSF1zMg==

> <s_epik_cmdline>
J2VwaWtfcHl0aG9uJywgJy1waCcsICc3LjAnLCAnLXRuJywgJzgnLCAnLW1hJywgJzIwMCcsICctbWV0YWxfYmluZGluZycsICctaW1hZScsICc8aW5maWxlLm1hZT4nLCAnLW9tYWUnLCAnPG91dGZpbGUubWFlPic=

> <r_lp_tautomer_probability>
0.999

> <r_epik_Ionization_Penalty>
8.26346

> <r_epik_Ionization_Penalty_Charging>
6.6559

> <r_epik_Ionization_Penalty_Neutral>
1.60756

> <r_epik_State_Penalty>
6.65607

> <r_epik_Charging_Adjusted_Penalty>
13.312

> <i_epik_Tot_Q>
-1

> <i_epik_Tot_abs_Q>
1

> <r_epik_Metal_State_Penalty>
2.5789

> <b_epik_Metal_Only>
1

> <s_lp_Force_Field>
OPLS_2005

> <r_lp_Energy>
13.8452

> <b_lp_Chiralities_Consistent>
1

> <s_lp_Variant>
AV-unprocessed.smi:2093-7

> <Gold.Version>
5.8.1

> <Gold.Id.Protein>
6NUR|6NUR_protein|mol2

> <Gold.PLP.Fitness>
48.5674

> <Gold.PLP.PLP>
-35.4495

> <Gold.PLP.part.hbond>
-2.8837

> <Gold.PLP.part.metal>
0.0000

> <Gold.PLP.part.buried>
-4.0753

> <Gold.PLP.part.nonpolar>
-28.7849

> <Gold.PLP.part.repulsive>
0.1742

> <Gold.PLP.ligand.clash>
0.0000

> <Gold.PLP.ligand.torsion>
0.9299

> <Gold.PLP.Chemscore.Hbond>
3.0000

> <Gold.PLP.Chemscore.CHOScore>
1.9860

> <Gold.PLP.Chemscore.Metal>
0.0000

> <Gold.Chemscore.Hbonds>
donor molecule, donor type, donor heavy atom, donor atom, acceptor molecule, acceptor atom, score
      P1  H  7989  7998       L1     8  0.55
      P1  H  7997  8008       L1     6  2.00
      L1  C     9    22       P1  7957  1.00
      L1  C    10    23       P1  7948  0.41
      L1  C    10    23       P1  7949  0.16

> <Gold.PLP.Chemscore.Internal.Correction>
0.0198

> <Gold.Rescore>
     Score         DG    S(hbond)    S(metal)    S(lipo)     H(rot)  DE(clash)    DE(int)     intcor
     15.26     -17.38       1.58        0.00      84.55       1.28       0.00       2.12       ----

> <Gold.Chemscore.Fitness>
15.2632

> <Gold.Chemscore.DG>
-17.3803

> <Gold.Chemscore.ZeroCoef>
-5.4800

> <Gold.Chemscore.Hbond>
1.5807

> <Gold.Chemscore.Metal>
0.0000

> <Gold.Chemscore.Lipo>
84.5456

> <Gold.Chemscore.Internal_Hbond>
0.0000

> <Gold.Chemscore.DEClash>
0.0000

> <Gold.Chemscore.DEInternal>
2.1171

> <Gold.Chemscore.Rot>
1.2778

> <Gold.Chemscore.Internal.Correction>
   9.000000E+99

> <Gold.Chemscore.Hbonds>
donor molecule, donor type, donor heavy atom, donor atom, acceptor molecule, acceptor atom, score
      P1  H  7989  7998       L1     8  0.03
      P1  H  7997  8008       L1     6  0.82

> <Gold.Chemscore.Hbond.Weighted>
-5.2796

> <Gold.Chemscore.Metal.Weighted>
-0.0000

> <Gold.Chemscore.Lipo.Weighted>
-9.8918

> <Gold.Chemscore.Internal_Hbond.Weighted>
0.0000

> <Gold.Chemscore.DEClash.Weighted>
0.0000

> <Gold.Chemscore.DEInternal.Weighted>
2.1171

> <Gold.Chemscore.Rot.Weighted>
3.2711

> <Gold.Chemscore.Internal.Correction.Weighted>
   9.000000E+99

> <Gold.Protein.RotatedTorsions>
[ 6907 6896 6895 6894 ] final   50.84 input  -60.11 | X-H torsion
[ 7974 7965 7964 7962 ] final  130.64 input  175.53 | X-H torsion
[ 8008 7997 7996 7995 ] final  -42.15 input   59.86 | X-H torsion
[ 10167 10162 10161 10158 ] final -150.62 input  -65.29 | X-H torsion
[ 10718 10713 10712 10709 ] final -145.29 input   66.30 | X-H torsion
[ 10763 10752 10751 10750 ] final  -98.40 input  -60.55 | X-H torsion
[ 11005 11000 10999 10996 ] final  -81.01 input  -57.11 | X-H torsion

> <Gold.Protein.ActiveResidues>
 VAL166  LYS551  ARG553  GLY616  TRP617  ASP618  TYR619  PRO620  LYS621  CYS622 
 ASP623  PHE694  ASN695  SER759  ASP760  ASP761  ALA762  ILE779  LEU786  VAL792 
 PHE793  MET794  SER795  GLU796  ALA797  LYS798  CYS799  TRP800  GLU811  SER814 

> <Gold.Protein.RotatedAtoms>
  152.3062  134.7553  160.0346 H   0  0  0  0  0  0  0  0  0  0  0  0  # atno 6907 bound_to 6896
  151.8049  133.3369  159.3546 H   0  0  0  0  0  0  0  0  0  0  0  0  # atno 6908 bound_to 6896
  150.7297  134.5649  159.5905 H   0  0  0  0  0  0  0  0  0  0  0  0  # atno 6909 bound_to 6896
  145.0157  139.4178  143.5222 H   0  0  0  0  0  0  0  0  0  0  0  0  # atno 7974 bound_to 7965
  154.4000  140.1481  156.3308 H   0  0  0  0  0  0  0  0  0  0  0  0  # atno 8008 bound_to 7997
  155.8445  140.3460  155.5632 H   0  0  0  0  0  0  0  0  0  0  0  0  # atno 8009 bound_to 7997
  155.8051  140.0876  157.1926 H   0  0  0  0  0  0  0  0  0  0  0  0  # atno 8010 bound_to 7997
  139.7338  143.8766  152.2543 H   0  0  0  0  0  0  0  0  0  0  0  0  # atno 10167 bound_to 10162
  156.3806  130.7835  151.2027 H   0  0  0  0  0  0  0  0  0  0  0  0  # atno 10718 bound_to 10713
  154.7411  135.5010  153.9125 H   0  0  0  0  0  0  0  0  0  0  0  0  # atno 10763 bound_to 10752
  153.1044  135.6693  153.9621 H   0  0  0  0  0  0  0  0  0  0  0  0  # atno 10764 bound_to 10752
  153.9398  135.3069  155.3422 H   0  0  0  0  0  0  0  0  0  0  0  0  # atno 10765 bound_to 10752
  141.1667  133.7177  156.8359 H   0  0  0  0  0  0  0  0  0  0  0  0  # atno 11005 bound_to 11000
  146.3477  139.9626  142.8715 LP  0  0  0  0  0  0  0  0  0  0  0  0  # atno 17320 bound_to 7965
  145.1963  140.9834  143.4182 LP  0  0  0  0  0  0  0  0  0  0  0  0  # atno 17321 bound_to 7965
  139.8697  144.7074  150.9001 LP  0  0  0  0  0  0  0  0  0  0  0  0  # atno 17342 bound_to 10162
  140.7775  143.3748  151.1583 LP  0  0  0  0  0  0  0  0  0  0  0  0  # atno 17343 bound_to 10162
  157.7492  131.0345  150.4320 LP  0  0  0  0  0  0  0  0  0  0  0  0  # atno 17370 bound_to 10713
  156.4564  130.4022  149.6604 LP  0  0  0  0  0  0  0  0  0  0  0  0  # atno 17371 bound_to 10713
  140.2018  134.8892  157.3177 LP  0  0  0  0  0  0  0  0  0  0  0  0  # atno 17394 bound_to 11000
  140.2180  134.4058  155.7580 LP  0  0  0  0  0  0  0  0  0  0  0  0  # atno 17395 bound_to 11000

$$$$
