AV-unprocessed.smi:24|AV-procd|sdf|175|dock9
  -GOLD-   2262015433D 1   1.00000     0.00000
 Structure written by MMmdl.
 61 65  0  0  0  0  0  0  0  0  1 V2000
  155.7695  140.1479  167.1892 C   0  0  0  0  0  0  0  0  0  0  0  0
  156.4443  139.4685  166.1407 O   0  0  0  0  0  0  0  0  0  0  0  0
  156.0311  139.7011  164.8464 C   0  0  0  0  0  0  0  0  0  0  0  0
  156.7150  139.0160  163.8217 C   0  0  0  0  0  0  0  0  0  0  0  0
  156.3595  139.1961  162.4717 C   0  0  0  0  0  0  0  0  0  0  0  0
  155.3103  140.0741  162.1225 C   0  0  0  0  0  0  0  0  0  0  0  0
  154.9041  140.2823  160.6645 C   0  0  2  0  0  0  0  0  0  0  0  0
  154.5127  141.7348  160.3799 C   0  0  0  0  0  0  0  0  0  0  0  0
  153.1186  141.5773  159.8720 C   0  0  0  0  0  0  0  0  0  0  0  0
  152.2964  142.7447  159.4824 C   0  0  0  0  0  0  0  0  0  0  0  0
  152.7691  144.0487  159.7550 C   0  0  0  0  0  0  0  0  0  0  0  0
  151.9906  145.1609  159.3788 C   0  0  0  0  0  0  0  0  0  0  0  0
  150.7506  144.9721  158.7368 C   0  0  0  0  0  0  0  0  0  0  0  0
  150.2830  143.6701  158.4687 C   0  0  0  0  0  0  0  0  0  0  0  0
  151.0524  142.5500  158.8401 C   0  0  0  0  0  0  0  0  0  0  0  0
  152.7221  140.3595  159.8169 N   0  0  0  0  0  0  0  0  0  0  0  0
  153.7094  139.5352  160.2492 N   0  0  0  0  0  0  0  0  0  0  0  0
  153.6223  138.1868  160.2098 C   0  0  0  0  0  0  0  0  0  0  0  0
  152.5802  137.6114  159.8903 O   0  0  0  0  0  0  0  0  0  0  0  0
  154.8694  137.3597  160.5882 C   0  0  0  0  0  0  0  0  0  0  0  0
  155.3985  136.5490  159.4689 N   0  0  0  0  0  0  0  0  0  0  0  0
  156.0844  137.2115  158.4205 C   0  0  0  0  0  0  0  0  0  0  0  0
  156.2522  138.4320  158.4384 O   0  0  0  0  0  0  0  0  0  0  0  0
  156.5581  136.3564  157.3383 C   0  0  0  0  0  0  0  0  0  0  0  0
  157.2219  136.8986  156.3032 F   0  0  0  0  0  0  0  0  0  0  0  0
  156.3398  135.0254  157.3575 C   0  0  0  0  0  0  0  0  0  0  0  0
  155.6651  134.3921  158.3860 N   0  0  0  0  0  0  0  0  0  0  0  0
  155.4217  132.8978  158.3872 C   0  0  2  0  0  0  0  0  0  0  0  0
  156.0405  132.2477  157.1358 C   0  0  0  0  0  0  0  0  0  0  0  0
  154.8959  131.4159  156.5927 C   0  0  0  0  0  0  0  0  0  0  0  0
  153.6847  132.2216  157.0378 C   0  0  0  0  0  0  0  0  0  0  0  0
  154.0466  132.6393  158.3477 O   0  0  0  0  0  0  0  0  0  0  0  0
  155.1707  135.1523  159.4683 C   0  0  0  0  0  0  0  0  0  0  0  0
  154.5533  134.6082  160.3867 O   0  0  0  0  0  0  0  0  0  0  0  0
  154.6164  140.7555  163.1425 C   0  0  0  0  0  0  0  0  0  0  0  0
  154.9724  140.5749  164.4931 C   0  0  0  0  0  0  0  0  0  0  0  0
  156.2100  139.8637  168.1448 H   0  0  0  0  0  0  0  0  0  0  0  0
  154.7122  139.8816  167.2217 H   0  0  0  0  0  0  0  0  0  0  0  0
  155.8669  141.2298  167.0901 H   0  0  0  0  0  0  0  0  0  0  0  0
  157.5225  138.3440  164.0729 H   0  0  0  0  0  0  0  0  0  0  0  0
  156.8975  138.6554  161.7067 H   0  0  0  0  0  0  0  0  0  0  0  0
  155.7326  139.9933  160.0148 H   0  0  0  0  0  0  0  0  0  0  0  0
  154.5338  142.3538  161.2781 H   0  0  0  0  0  0  0  0  0  0  0  0
  155.1617  142.1851  159.6279 H   0  0  0  0  0  0  0  0  0  0  0  0
  153.7174  144.2142  160.2458 H   0  0  0  0  0  0  0  0  0  0  0  0
  152.3459  146.1604  159.5824 H   0  0  0  0  0  0  0  0  0  0  0  0
  150.1566  145.8274  158.4496 H   0  0  0  0  0  0  0  0  0  0  0  0
  149.3316  143.5304  157.9768 H   0  0  0  0  0  0  0  0  0  0  0  0
  150.6719  141.5630  158.6231 H   0  0  0  0  0  0  0  0  0  0  0  0
  155.6463  138.0303  160.9595 H   0  0  0  0  0  0  0  0  0  0  0  0
  154.6212  136.7362  161.4484 H   0  0  0  0  0  0  0  0  0  0  0  0
  156.7131  134.4504  156.5242 H   0  0  0  0  0  0  0  0  0  0  0  0
  155.8286  132.5294  159.3307 H   0  0  0  0  0  0  0  0  0  0  0  0
  156.3280  133.0149  156.4147 H   0  0  0  0  0  0  0  0  0  0  0  0
  156.9194  131.6564  157.3945 H   0  0  0  0  0  0  0  0  0  0  0  0
  154.9427  131.2763  155.5125 H   0  0  0  0  0  0  0  0  0  0  0  0
  154.8863  130.4338  157.0671 H   0  0  0  0  0  0  0  0  0  0  0  0
  153.5376  133.0888  156.3927 H   0  0  0  0  0  0  0  0  0  0  0  0
  152.7655  131.6357  157.0430 H   0  0  0  0  0  0  0  0  0  0  0  0
  153.8065  141.4251  162.8924 H   0  0  0  0  0  0  0  0  0  0  0  0
  154.4162  141.1197  165.2405 H   0  0  0  0  0  0  0  0  0  0  0  0
  1  2  1  0  0  0  0
  1 37  1  0  0  0  0
  1 38  1  0  0  0  0
  1 39  1  0  0  0  0
  2  3  1  0  0  0  0
  3 36  1  0  0  0  0
  3  4  2  0  0  0  0
  4  5  1  0  0  0  0
  4 40  1  0  0  0  0
  5  6  2  0  0  0  0
  5 41  1  0  0  0  0
  6  7  1  0  0  0  0
  6 35  1  0  0  0  0
  7 17  1  0  0  0  0
  7  8  1  0  0  0  0
  7 42  1  0  0  0  0
  8  9  1  0  0  0  0
  8 43  1  0  0  0  0
  8 44  1  0  0  0  0
  9 10  1  0  0  0  0
  9 16  2  0  0  0  0
 10 15  1  0  0  0  0
 10 11  2  0  0  0  0
 11 12  1  0  0  0  0
 11 45  1  0  0  0  0
 12 13  2  0  0  0  0
 12 46  1  0  0  0  0
 13 14  1  0  0  0  0
 13 47  1  0  0  0  0
 14 15  2  0  0  0  0
 14 48  1  0  0  0  0
 15 49  1  0  0  0  0
 16 17  1  0  0  0  0
 17 18  1  0  0  0  0
 18 19  2  0  0  0  0
 18 20  1  0  0  0  0
 20 21  1  0  0  0  0
 20 50  1  0  0  0  0
 20 51  1  0  0  0  0
 21 33  1  0  0  0  0
 21 22  1  0  0  0  0
 22 23  2  0  0  0  0
 22 24  1  0  0  0  0
 24 25  1  0  0  0  0
 24 26  2  0  0  0  0
 26 27  1  0  0  0  0
 26 52  1  0  0  0  0
 27 28  1  0  0  0  0
 27 33  1  0  0  0  0
 28 32  1  0  0  0  0
 28 29  1  0  0  0  0
 28 53  1  0  0  0  0
 29 30  1  0  0  0  0
 29 54  1  0  0  0  0
 29 55  1  0  0  0  0
 30 31  1  0  0  0  0
 30 56  1  0  0  0  0
 30 57  1  0  0  0  0
 31 32  1  0  0  0  0
 31 58  1  0  0  0  0
 31 59  1  0  0  0  0
 33 34  2  0  0  0  0
 35 36  2  0  0  0  0
 35 60  1  0  0  0  0
 36 61  1  0  0  0  0
M  END
> <s_m_source_file>
AV-unprocessed.smi

> <i_m_source_file_index>
24

> <i_lp_mmshare_version>
43012

> <i_f3d_flags>
0

> <s_epik_input>
W0NIM11PYzFbY0hdW2NIXWMoW2NIXVtjSF0xKVtDQEBIXTJbQ0gyXUMoYzNbY0hdW2NIXVtjSF1bY0hdW2NIXTMpPU5OMkMoPU8pW0NIMl1uNGMoPU8pYyhGKVtjSF1uKGM0PU8pW0NAQEhdNVtDSDJdW0NIMl1bQ0gyXU81

> <s_epik_cmdline>
J2VwaWtfcHl0aG9uJywgJy1waCcsICc3LjAnLCAnLXRuJywgJzgnLCAnLW1hJywgJzIwMCcsICctbWV0YWxfYmluZGluZycsICctaW1hZScsICc8aW5maWxlLm1hZT4nLCAnLW9tYWUnLCAnPG91dGZpbGUubWFlPic=

> <r_lp_tautomer_probability>
1

> <r_epik_Ionization_Penalty>
1.46326e-08

> <r_epik_Ionization_Penalty_Charging>
4.53232e-09

> <r_epik_Ionization_Penalty_Neutral>
1.01002e-08

> <r_epik_State_Penalty>
-0

> <r_epik_Charging_Adjusted_Penalty>
4.53232e-09

> <i_epik_Tot_Q>
0

> <i_epik_Tot_abs_Q>
0

> <r_epik_Metal_State_Penalty>
-0

> <b_epik_Metal_Only>
0

> <s_epik_Chemistry_Notes>
This compound has an imine and may undergo hydrolysis. This compound contains an acetal/aminal-like group ( X-CH(R)-Y where X, Y are N, S, or O) that may be acid/base labile, releasing an aldehyde.

> <s_lp_Force_Field>
OPLS_2005

> <r_lp_Energy>
50.6154

> <b_lp_Chiralities_Consistent>
1

> <s_lp_Variant>
AV-unprocessed.smi:24-1

> <Gold.Version>
5.8.1

> <Gold.Id.Protein>
6NUR|6NUR_protein|mol2

> <Gold.PLP.Fitness>
53.4289

> <Gold.PLP.PLP>
-48.8951

> <Gold.PLP.part.hbond>
-3.0000

> <Gold.PLP.part.metal>
0.0000

> <Gold.PLP.part.buried>
-5.7862

> <Gold.PLP.part.nonpolar>
-40.6421

> <Gold.PLP.part.repulsive>
0.0394

> <Gold.PLP.ligand.clash>
0.0000

> <Gold.PLP.ligand.torsion>
0.8200

> <Gold.PLP.Chemscore.Hbond>
2.0359

> <Gold.PLP.Chemscore.CHOScore>
0.0000

> <Gold.PLP.Chemscore.Metal>
0.0000

> <Gold.Chemscore.Hbonds>
donor molecule, donor type, donor heavy atom, donor atom, acceptor molecule, acceptor atom, score
      P1  H  6896  6908       L1    34  0.67
      P1  H  7997  8010       L1    23  0.76

> <Gold.PLP.Chemscore.Internal.Correction>
0.0661

> <Gold.Rescore>
     Score         DG    S(hbond)    S(metal)    S(lipo)     H(rot)  DE(clash)    DE(int)     intcor
     23.77     -26.14       2.37        0.00     152.05       1.98       0.51       1.87       ----

> <Gold.Chemscore.Fitness>
23.7696

> <Gold.Chemscore.DG>
-26.1442

> <Gold.Chemscore.ZeroCoef>
-5.4800

> <Gold.Chemscore.Hbond>
2.3745

> <Gold.Chemscore.Metal>
0.0000

> <Gold.Chemscore.Lipo>
152.0457

> <Gold.Chemscore.Internal_Hbond>
0.0000

> <Gold.Chemscore.DEClash>
0.5090

> <Gold.Chemscore.DEInternal>
1.8656

> <Gold.Chemscore.Rot>
1.9750

> <Gold.Chemscore.Internal.Correction>
   9.000000E+99

> <Gold.Chemscore.Hbonds>
donor molecule, donor type, donor heavy atom, donor atom, acceptor molecule, acceptor atom, score
      P1  H  6896  6908       L1    34  0.52
      P1  H  7997  8010       L1    23  0.74

> <Gold.Chemscore.Hbond.Weighted>
-7.9309

> <Gold.Chemscore.Metal.Weighted>
-0.0000

> <Gold.Chemscore.Lipo.Weighted>
-17.7893

> <Gold.Chemscore.Internal_Hbond.Weighted>
0.0000

> <Gold.Chemscore.DEClash.Weighted>
0.5090

> <Gold.Chemscore.DEInternal.Weighted>
1.8656

> <Gold.Chemscore.Rot.Weighted>
5.0561

> <Gold.Chemscore.Internal.Correction.Weighted>
   9.000000E+99

> <Gold.Protein.RotatedTorsions>
[ 6907 6896 6895 6894 ] final  -61.73 input  -60.11 | X-H torsion
[ 7974 7965 7964 7962 ] final -137.56 input  175.53 | X-H torsion
[ 8008 7997 7996 7995 ] final  -13.88 input   59.86 | X-H torsion
[ 10167 10162 10161 10158 ] final  -17.92 input  -65.29 | X-H torsion
[ 10718 10713 10712 10709 ] final   56.27 input   66.30 | X-H torsion
[ 10763 10752 10751 10750 ] final    5.45 input  -60.55 | X-H torsion
[ 11005 11000 10999 10996 ] final  -93.78 input  -57.11 | X-H torsion

> <Gold.Protein.ActiveResidues>
 VAL166  LYS551  ARG553  GLY616  TRP617  ASP618  TYR619  PRO620  LYS621  CYS622 
 ASP623  PHE694  ASN695  SER759  ASP760  ASP761  ALA762  ILE779  LEU786  VAL792 
 PHE793  MET794  SER795  GLU796  ALA797  LYS798  CYS799  TRP800  GLU811  SER814 

> <Gold.Protein.RotatedAtoms>
  150.7764  134.6666  159.6368 H   0  0  0  0  0  0  0  0  0  0  0  0  # atno 6907 bound_to 6896
  152.3835  134.6550  160.0143 H   0  0  0  0  0  0  0  0  0  0  0  0  # atno 6908 bound_to 6896
  151.6872  133.3275  159.3270 H   0  0  0  0  0  0  0  0  0  0  0  0  # atno 6909 bound_to 6896
  144.8831  140.6536  143.5193 H   0  0  0  0  0  0  0  0  0  0  0  0  # atno 7974 bound_to 7965
  154.5256  140.2238  155.8897 H   0  0  0  0  0  0  0  0  0  0  0  0  # atno 8008 bound_to 7997
  156.1709  140.3122  155.8936 H   0  0  0  0  0  0  0  0  0  0  0  0  # atno 8009 bound_to 7997
  155.3560  140.0458  157.3037 H   0  0  0  0  0  0  0  0  0  0  0  0  # atno 8010 bound_to 7997
  140.7253  143.4967  150.9921 H   0  0  0  0  0  0  0  0  0  0  0  0  # atno 10167 bound_to 10162
  157.5417  130.8702  149.8831 H   0  0  0  0  0  0  0  0  0  0  0  0  # atno 10718 bound_to 10713
  153.2593  135.6921  153.7595 H   0  0  0  0  0  0  0  0  0  0  0  0  # atno 10763 bound_to 10752
  153.6660  135.3352  155.3141 H   0  0  0  0  0  0  0  0  0  0  0  0  # atno 10764 bound_to 10752
  154.8424  135.4488  154.1578 H   0  0  0  0  0  0  0  0  0  0  0  0  # atno 10765 bound_to 10752
  141.1488  133.7911  157.0206 H   0  0  0  0  0  0  0  0  0  0  0  0  # atno 11005 bound_to 11000
  145.3918  139.1615  143.4225 LP  0  0  0  0  0  0  0  0  0  0  0  0  # atno 17320 bound_to 7965
  146.3007  140.4007  142.8705 LP  0  0  0  0  0  0  0  0  0  0  0  0  # atno 17321 bound_to 7965
  139.8674  143.7236  152.3169 LP  0  0  0  0  0  0  0  0  0  0  0  0  # atno 17342 bound_to 10162
  139.7473  144.7544  151.0561 LP  0  0  0  0  0  0  0  0  0  0  0  0  # atno 17343 bound_to 10162
  156.0502  130.3719  150.1220 LP  0  0  0  0  0  0  0  0  0  0  0  0  # atno 17370 bound_to 10713
  156.9399  130.9741  151.3518 LP  0  0  0  0  0  0  0  0  0  0  0  0  # atno 17371 bound_to 10713
  140.0818  134.9644  157.1636 LP  0  0  0  0  0  0  0  0  0  0  0  0  # atno 17394 bound_to 11000
  140.3566  134.2540  155.7192 LP  0  0  0  0  0  0  0  0  0  0  0  0  # atno 17395 bound_to 11000

$$$$
