AV-unprocessed.smi:2147|AV-procd|sdf|8745|dock3
  -GOLD-   2272011523D 1   1.00000     0.00000
 Structure written by MMmdl.
 42 44  0  0  0  0  0  0  0  0  2 V2000
  145.2080  134.1792  164.0575 C   0  0  0  0  0  0  0  0  0  0  0  0
  146.2368  133.8928  162.9650 C   0  0  0  0  0  0  0  0  0  0  0  0
  146.5349  132.7229  162.7266 O   0  0  0  0  0  0  0  0  0  0  0  0
  146.8245  135.0557  162.2407 C   0  0  0  0  0  0  0  0  0  0  0  0
  146.8855  136.3437  162.8214 C   0  0  0  0  0  0  0  0  0  0  0  0
  147.4442  137.4221  162.1090 C   0  0  0  0  0  0  0  0  0  0  0  0
  147.9525  137.2456  160.8070 C   0  0  0  0  0  0  0  0  0  0  0  0
  148.4738  138.3575  160.1809 O   0  0  0  0  0  0  0  0  0  0  0  0
  148.9963  138.2061  158.8677 C   0  0  0  0  0  0  0  0  0  0  0  0
  150.5145  138.4333  158.9061 C   0  0  1  0  0  0  0  0  0  0  0  0
  151.1400  137.2242  159.2892 O   0  0  0  0  0  0  0  0  0  0  0  0
  151.0727  138.8979  157.5458 C   0  0  0  0  0  0  0  0  0  0  0  0
  150.7804  140.3083  157.2592 N   0  0  0  0  0  0  0  0  0  0  0  0
  149.7443  140.8639  156.5741 C   0  0  0  0  0  0  0  0  0  0  0  0
  149.9237  142.2141  156.5817 N   0  3  0  0  0  0  0  0  0  0  0  0
  151.0926  142.5249  157.2801 C   0  0  0  0  0  0  0  0  0  0  0  0
  151.6924  143.7502  157.5542 C   0  0  0  0  0  0  0  0  0  0  0  0
  152.8914  143.7157  158.2965 C   0  0  0  0  0  0  0  0  0  0  0  0
  153.4492  142.4970  158.7357 C   0  0  0  0  0  0  0  0  0  0  0  0
  152.8324  141.2603  158.4521 C   0  0  0  0  0  0  0  0  0  0  0  0
  151.6478  141.3041  157.7184 C   0  0  0  0  0  0  0  0  0  0  0  0
  147.8974  135.9548  160.2264 C   0  0  0  0  0  0  0  0  0  0  0  0
  147.3391  134.8750  160.9374 C   0  0  0  0  0  0  0  0  0  0  0  0
  144.3545  134.7190  163.6470 H   0  0  0  0  0  0  0  0  0  0  0  0
  145.6531  134.7760  164.8537 H   0  0  0  0  0  0  0  0  0  0  0  0
  144.8447  133.2477  164.4925 H   0  0  0  0  0  0  0  0  0  0  0  0
  146.5078  136.5303  163.8155 H   0  0  0  0  0  0  0  0  0  0  0  0
  147.4801  138.3991  162.5684 H   0  0  0  0  0  0  0  0  0  0  0  0
  148.7829  137.1974  158.5096 H   0  0  0  0  0  0  0  0  0  0  0  0
  148.5319  138.9147  158.1795 H   0  0  0  0  0  0  0  0  0  0  0  0
  150.7431  139.1757  159.6714 H   0  0  0  0  0  0  0  0  0  0  0  0
  152.0621  137.2875  159.0910 H   0  0  0  0  0  0  0  0  0  0  0  0
  152.1570  138.7794  157.5226 H   0  0  0  0  0  0  0  0  0  0  0  0
  150.6782  138.2907  156.7300 H   0  0  0  0  0  0  0  0  0  0  0  0
  148.9306  140.3293  156.1057 H   0  0  0  0  0  0  0  0  0  0  0  0
  151.2679  144.6849  157.2183 H   0  0  0  0  0  0  0  0  0  0  0  0
  153.3934  144.6426  158.5333 H   0  0  0  0  0  0  0  0  0  0  0  0
  154.3695  142.5112  159.3016 H   0  0  0  0  0  0  0  0  0  0  0  0
  153.2671  140.3315  158.7907 H   0  0  0  0  0  0  0  0  0  0  0  0
  148.2768  135.7644  159.2341 H   0  0  0  0  0  0  0  0  0  0  0  0
  147.3105  133.9031  160.4658 H   0  0  0  0  0  0  0  0  0  0  0  0
  149.2945  142.8717  156.1394 H   0  0  0  0  0  0  0  0  0  0  0  0
  1  2  1  0  0  0  0
  1 24  1  0  0  0  0
  1 25  1  0  0  0  0
  1 26  1  0  0  0  0
  2  3  2  0  0  0  0
  2  4  1  0  0  0  0
  4 23  1  0  0  0  0
  4  5  2  0  0  0  0
  5  6  1  0  0  0  0
  5 27  1  0  0  0  0
  6  7  2  0  0  0  0
  6 28  1  0  0  0  0
  7  8  1  0  0  0  0
  7 22  1  0  0  0  0
  8  9  1  0  0  0  0
  9 10  1  0  0  0  0
  9 29  1  0  0  0  0
  9 30  1  0  0  0  0
 10 11  1  0  0  0  0
 10 12  1  0  0  0  0
 10 31  1  0  0  0  0
 11 32  1  0  0  0  0
 12 13  1  0  0  0  0
 12 33  1  0  0  0  0
 12 34  1  0  0  0  0
 13 21  1  0  0  0  0
 13 14  1  0  0  0  0
 14 15  2  0  0  0  0
 14 35  1  0  0  0  0
 15 16  1  0  0  0  0
 15 42  1  0  0  0  0
 16 21  2  0  0  0  0
 16 17  1  0  0  0  0
 17 18  2  0  0  0  0
 17 36  1  0  0  0  0
 18 19  1  0  0  0  0
 18 37  1  0  0  0  0
 19 20  2  0  0  0  0
 19 38  1  0  0  0  0
 20 21  1  0  0  0  0
 20 39  1  0  0  0  0
 22 23  2  0  0  0  0
 22 40  1  0  0  0  0
 23 41  1  0  0  0  0
M  CHG  1  15   1
M  END
> <s_m_source_file>
AV-unprocessed.smi

> <i_m_source_file_index>
2147

> <i_lp_mmshare_version>
43012

> <i_f3d_flags>
0

> <s_epik_input>
W0NIM11DKD1PKWMxW2NIXVtjSF1jKFtjSF1bY0hdMSlPW0NIMl1bQ0BIXShbT0hdKVtDSDJdbihbY0hdbjIpYyhjMjMpW2NIXVtjSF1bY0hdW2NIXTM=

> <s_epik_cmdline>
J2VwaWtfcHl0aG9uJywgJy1waCcsICc3LjAnLCAnLXRuJywgJzgnLCAnLW1hJywgJzIwMCcsICctbWV0YWxfYmluZGluZycsICctaW1hZScsICc8aW5maWxlLm1hZT4nLCAnLW9tYWUnLCAnPG91dGZpbGUubWFlPic=

> <r_lp_tautomer_probability>
0.99995

> <r_epik_Ionization_Penalty>
1.40272

> <r_epik_Ionization_Penalty_Charging>
1.40272

> <r_epik_Ionization_Penalty_Neutral>
2.3993e-06

> <r_epik_State_Penalty>
1.48501

> <r_epik_Charging_Adjusted_Penalty>
2.88772

> <i_epik_Tot_Q>
1

> <i_epik_Tot_abs_Q>
1

> <r_epik_Metal_State_Penalty>
5.5274

> <b_epik_Metal_Only>
0

> <s_lp_Force_Field>
OPLS_2005

> <r_lp_Energy>
26.1974

> <b_lp_Chiralities_Consistent>
1

> <s_lp_Variant>
AV-unprocessed.smi:2147-4

> <Gold.Version>
5.8.1

> <Gold.Id.Protein>
6NUR|6NUR_protein|mol2

> <Gold.PLP.Fitness>
49.8124

> <Gold.PLP.PLP>
-44.0566

> <Gold.PLP.part.hbond>
-3.6605

> <Gold.PLP.part.metal>
0.0000

> <Gold.PLP.part.buried>
-4.1950

> <Gold.PLP.part.nonpolar>
-37.2890

> <Gold.PLP.part.repulsive>
0.0336

> <Gold.PLP.ligand.clash>
0.0000

> <Gold.PLP.ligand.torsion>
1.3827

> <Gold.PLP.Chemscore.Hbond>
2.7602

> <Gold.PLP.Chemscore.CHOScore>
0.0000

> <Gold.PLP.Chemscore.Metal>
0.0000

> <Gold.Chemscore.Hbonds>
donor molecule, donor type, donor heavy atom, donor atom, acceptor molecule, acceptor atom, score
      L1  H    15    42       P1  8028  1.95
      P1  H  6896  6907       L1    11  0.28
      P1  H  6934  6947       L1     8  0.01

> <Gold.PLP.Chemscore.Internal.Correction>
0.2406

> <Gold.Rescore>
     Score         DG    S(hbond)    S(metal)    S(lipo)     H(rot)  DE(clash)    DE(int)     intcor
     15.70     -16.89       1.15        0.00     119.16       2.48       0.09       1.10       ----

> <Gold.Chemscore.Fitness>
15.6984

> <Gold.Chemscore.DG>
-16.8870

> <Gold.Chemscore.ZeroCoef>
-5.4800

> <Gold.Chemscore.Hbond>
1.1452

> <Gold.Chemscore.Metal>
0.0000

> <Gold.Chemscore.Lipo>
119.1569

> <Gold.Chemscore.Internal_Hbond>
0.0000

> <Gold.Chemscore.DEClash>
0.0909

> <Gold.Chemscore.DEInternal>
1.0978

> <Gold.Chemscore.Rot>
2.4842

> <Gold.Chemscore.Internal.Correction>
   9.000000E+99

> <Gold.Chemscore.Hbonds>
donor molecule, donor type, donor heavy atom, donor atom, acceptor molecule, acceptor atom, score
      L1  H    15    42       P1  8028  0.92
      P1  H  6896  6907       L1    11  0.01

> <Gold.Chemscore.Hbond.Weighted>
-3.8251

> <Gold.Chemscore.Metal.Weighted>
-0.0000

> <Gold.Chemscore.Lipo.Weighted>
-13.9414

> <Gold.Chemscore.Internal_Hbond.Weighted>
0.0000

> <Gold.Chemscore.DEClash.Weighted>
0.0909

> <Gold.Chemscore.DEInternal.Weighted>
1.0978

> <Gold.Chemscore.Rot.Weighted>
6.3594

> <Gold.Chemscore.Internal.Correction.Weighted>
   9.000000E+99

> <Gold.Protein.RotatedTorsions>
[ 6907 6896 6895 6894 ] final   -5.08 input  -60.11 | X-H torsion
[ 7974 7965 7964 7962 ] final   24.05 input  175.53 | X-H torsion
[ 8008 7997 7996 7995 ] final  150.32 input   59.86 | X-H torsion
[ 10167 10162 10161 10158 ] final -132.97 input  -65.29 | X-H torsion
[ 10718 10713 10712 10709 ] final -177.28 input   66.30 | X-H torsion
[ 10763 10752 10751 10750 ] final  -17.21 input  -60.55 | X-H torsion
[ 11005 11000 10999 10996 ] final   70.12 input  -57.11 | X-H torsion

> <Gold.Protein.ActiveResidues>
 VAL166  LYS551  ARG553  GLY616  TRP617  ASP618  TYR619  PRO620  LYS621  CYS622 
 ASP623  PHE694  ASN695  SER759  ASP760  ASP761  ALA762  ILE779  LEU786  VAL792 
 PHE793  MET794  SER795  GLU796  ALA797  LYS798  CYS799  TRP800  GLU811  SER814 

> <Gold.Protein.RotatedAtoms>
  151.4874  135.1055  159.9793 H   0  0  0  0  0  0  0  0  0  0  0  0  # atno 6907 bound_to 6896
  152.4755  133.8124  159.7021 H   0  0  0  0  0  0  0  0  0  0  0  0  # atno 6908 bound_to 6896
  150.8790  133.7337  159.2964 H   0  0  0  0  0  0  0  0  0  0  0  0  # atno 6909 bound_to 6896
  146.1955  139.7658  142.8800 H   0  0  0  0  0  0  0  0  0  0  0  0  # atno 7974 bound_to 7965
  156.2720  140.2078  156.5998 H   0  0  0  0  0  0  0  0  0  0  0  0  # atno 8008 bound_to 7997
  154.6915  140.0530  157.0392 H   0  0  0  0  0  0  0  0  0  0  0  0  # atno 8009 bound_to 7997
  155.0859  140.3191  155.4590 H   0  0  0  0  0  0  0  0  0  0  0  0  # atno 8010 bound_to 7997
  139.9030  143.6584  152.2591 H   0  0  0  0  0  0  0  0  0  0  0  0  # atno 10167 bound_to 10162
  156.8271  130.9640  151.3108 H   0  0  0  0  0  0  0  0  0  0  0  0  # atno 10718 bound_to 10713
  153.5703  135.7007  153.5507 H   0  0  0  0  0  0  0  0  0  0  0  0  # atno 10763 bound_to 10752
  153.3350  135.4037  155.1526 H   0  0  0  0  0  0  0  0  0  0  0  0  # atno 10764 bound_to 10752
  154.8634  135.3728  154.5225 H   0  0  0  0  0  0  0  0  0  0  0  0  # atno 10765 bound_to 10752
  139.9615  134.7052  156.0635 H   0  0  0  0  0  0  0  0  0  0  0  0  # atno 11005 bound_to 11000
  145.3655  141.0333  143.3260 LP  0  0  0  0  0  0  0  0  0  0  0  0  # atno 17320 bound_to 7965
  144.8573  139.5231  143.6829 LP  0  0  0  0  0  0  0  0  0  0  0  0  # atno 17321 bound_to 7965
  139.7008  144.7635  151.1276 LP  0  0  0  0  0  0  0  0  0  0  0  0  # atno 17342 bound_to 10162
  140.7702  143.5460  150.9258 LP  0  0  0  0  0  0  0  0  0  0  0  0  # atno 17343 bound_to 10162
  157.6426  130.8818  149.9478 LP  0  0  0  0  0  0  0  0  0  0  0  0  # atno 17370 bound_to 10713
  156.0955  130.3659  150.0314 LP  0  0  0  0  0  0  0  0  0  0  0  0  # atno 17371 bound_to 10713
  141.1293  133.6591  156.3421 LP  0  0  0  0  0  0  0  0  0  0  0  0  # atno 17394 bound_to 11000
  140.5489  134.6047  157.5402 LP  0  0  0  0  0  0  0  0  0  0  0  0  # atno 17395 bound_to 11000

$$$$
