AV-unprocessed.smi:96|AV-procd|sdf|859|dock9
  -GOLD-   2262017303D 1   1.00000     0.00000
 Structure written by MMmdl.
 43 46  0  0  0  0  0  0  0  0  1 V2000
  149.7633  135.1266  158.1988 O   0  0  0  0  0  0  0  0  0  0  0  0
  149.5965  136.3262  158.4226 C   0  0  0  0  0  0  0  0  0  0  0  0
  150.2988  137.3870  157.5597 C   0  0  0  0  0  0  0  0  0  0  0  0
  151.1253  138.3369  158.3373 N   0  0  0  0  0  0  0  0  0  0  0  0
  152.2467  137.8389  159.0466 C   0  0  0  0  0  0  0  0  0  0  0  0
  152.5271  136.6394  159.0379 O   0  0  0  0  0  0  0  0  0  0  0  0
  153.0331  138.8371  159.7619 C   0  0  0  0  0  0  0  0  0  0  0  0
  154.1236  138.4581  160.4498 F   0  0  0  0  0  0  0  0  0  0  0  0
  152.6851  140.1400  159.7414 C   0  0  0  0  0  0  0  0  0  0  0  0
  151.5771  140.6101  159.0641 N   0  0  0  0  0  0  0  0  0  0  0  0
  151.2921  142.0942  159.0563 C   0  0  2  0  0  0  0  0  0  0  0  0
  151.3599  142.7280  157.6538 C   0  0  0  0  0  0  0  0  0  0  0  0
  152.4236  143.8015  157.8171 C   0  0  0  0  0  0  0  0  0  0  0  0
  152.4455  144.0319  159.3242 C   0  0  0  0  0  0  0  0  0  0  0  0
  152.2383  142.7331  159.8565 O   0  0  0  0  0  0  0  0  0  0  0  0
  150.7849  139.7108  158.3134 C   0  0  0  0  0  0  0  0  0  0  0  0
  149.8276  140.1104  157.6486 O   0  0  0  0  0  0  0  0  0  0  0  0
  148.8377  136.8179  159.4194 N   0  0  0  0  0  0  0  0  0  0  0  0
  148.0646  136.1127  160.3813 C   0  0  0  0  0  0  0  0  0  0  0  0
  148.0076  136.4735  161.7588 C   0  0  0  0  0  0  0  0  0  0  0  0
  147.2352  135.7213  162.6730 C   0  0  0  0  0  0  0  0  0  0  0  0
  146.5387  134.6058  162.1822 C   0  0  0  0  0  0  0  0  0  0  0  0
  146.6018  134.2422  160.8537 C   0  0  0  0  0  0  0  0  0  0  0  0
  147.3613  134.9719  159.9249 C   0  0  0  0  0  0  0  0  0  0  0  0
  145.8485  133.1313  160.6501 O   0  0  0  0  0  0  0  0  0  0  0  0
  145.3017  132.8037  161.9014 C   0  0  0  0  0  0  0  0  0  0  0  0
  145.7435  133.7355  162.8550 O   0  0  0  0  0  0  0  0  0  0  0  0
  150.9004  136.8770  156.8054 H   0  0  0  0  0  0  0  0  0  0  0  0
  149.5409  137.9140  156.9779 H   0  0  0  0  0  0  0  0  0  0  0  0
  153.3046  140.8394  160.2836 H   0  0  0  0  0  0  0  0  0  0  0  0
  150.3048  142.2139  159.5048 H   0  0  0  0  0  0  0  0  0  0  0  0
  151.6015  142.0029  156.8763 H   0  0  0  0  0  0  0  0  0  0  0  0
  150.3889  143.1684  157.4247 H   0  0  0  0  0  0  0  0  0  0  0  0
  153.3919  143.4257  157.4853 H   0  0  0  0  0  0  0  0  0  0  0  0
  152.2035  144.7083  157.2534 H   0  0  0  0  0  0  0  0  0  0  0  0
  153.3839  144.4645  159.6715 H   0  0  0  0  0  0  0  0  0  0  0  0
  151.6281  144.6870  159.6301 H   0  0  0  0  0  0  0  0  0  0  0  0
  148.8693  137.8196  159.5416 H   0  0  0  0  0  0  0  0  0  0  0  0
  148.5617  137.3170  162.1404 H   0  0  0  0  0  0  0  0  0  0  0  0
  147.1883  135.9918  163.7175 H   0  0  0  0  0  0  0  0  0  0  0  0
  147.3990  134.6680  158.8889 H   0  0  0  0  0  0  0  0  0  0  0  0
  144.2131  132.8292  161.8424 H   0  0  0  0  0  0  0  0  0  0  0  0
  145.6253  131.8033  162.1910 H   0  0  0  0  0  0  0  0  0  0  0  0
  1  2  2  0  0  0  0
  2  3  1  0  0  0  0
  2 18  1  0  0  0  0
  3  4  1  0  0  0  0
  3 28  1  0  0  0  0
  3 29  1  0  0  0  0
  4 16  1  0  0  0  0
  4  5  1  0  0  0  0
  5  6  2  0  0  0  0
  5  7  1  0  0  0  0
  7  8  1  0  0  0  0
  7  9  2  0  0  0  0
  9 10  1  0  0  0  0
  9 30  1  0  0  0  0
 10 11  1  0  0  0  0
 10 16  1  0  0  0  0
 11 15  1  0  0  0  0
 11 12  1  0  0  0  0
 11 31  1  0  0  0  0
 12 13  1  0  0  0  0
 12 32  1  0  0  0  0
 12 33  1  0  0  0  0
 13 14  1  0  0  0  0
 13 34  1  0  0  0  0
 13 35  1  0  0  0  0
 14 15  1  0  0  0  0
 14 36  1  0  0  0  0
 14 37  1  0  0  0  0
 16 17  2  0  0  0  0
 18 19  1  0  0  0  0
 18 38  1  0  0  0  0
 19 24  1  0  0  0  0
 19 20  2  0  0  0  0
 20 21  1  0  0  0  0
 20 39  1  0  0  0  0
 21 22  2  0  0  0  0
 21 40  1  0  0  0  0
 22 27  1  0  0  0  0
 22 23  1  0  0  0  0
 23 24  2  0  0  0  0
 23 25  1  0  0  0  0
 24 41  1  0  0  0  0
 25 26  1  0  0  0  0
 26 27  1  0  0  0  0
 26 42  1  0  0  0  0
 26 43  1  0  0  0  0
M  END
> <s_m_source_file>
AV-unprocessed.smi

> <i_m_source_file_index>
96

> <i_lp_mmshare_version>
43012

> <i_f3d_flags>
0

> <s_epik_input>
TzFbQ0gyXU9jKGMxMilbY0hdYyhbY0hdW2NIXTIpW05IXUMoPU8pW0NIMl1uM2MoPU8pYyhGKVtjSF1uKGMzPU8pW0NAQEhdNFtDSDJdW0NIMl1bQ0gyXU80

> <s_epik_cmdline>
J2VwaWtfcHl0aG9uJywgJy1waCcsICc3LjAnLCAnLXRuJywgJzgnLCAnLW1hJywgJzIwMCcsICctbWV0YWxfYmluZGluZycsICctaW1hZScsICc8aW5maWxlLm1hZT4nLCAnLW9tYWUnLCAnPG91dGZpbGUubWFlPic=

> <r_lp_tautomer_probability>
1

> <r_epik_Ionization_Penalty>
1.04778e-05

> <r_epik_Ionization_Penalty_Charging>
3.88729e-08

> <r_epik_Ionization_Penalty_Neutral>
1.04389e-05

> <r_epik_State_Penalty>
-0

> <r_epik_Charging_Adjusted_Penalty>
3.88729e-08

> <i_epik_Tot_Q>
0

> <i_epik_Tot_abs_Q>
0

> <r_epik_Metal_State_Penalty>
-0

> <b_epik_Metal_Only>
0

> <s_epik_Chemistry_Notes>
This compound contains an acetal/aminal-like group ( X-CH(R)-Y where X, Y are N, S, or O) that may be acid/base labile, releasing an aldehyde.

> <s_lp_Force_Field>
OPLS_2005

> <r_lp_Energy>
41.3846

> <b_lp_Chiralities_Consistent>
1

> <s_lp_Variant>
AV-unprocessed.smi:96-1

> <Gold.Version>
5.8.1

> <Gold.Id.Protein>
6NUR|6NUR_protein|mol2

> <Gold.PLP.Fitness>
50.6479

> <Gold.PLP.PLP>
-46.6140

> <Gold.PLP.part.hbond>
-3.0000

> <Gold.PLP.part.metal>
0.0000

> <Gold.PLP.part.buried>
-5.4516

> <Gold.PLP.part.nonpolar>
-39.7213

> <Gold.PLP.part.repulsive>
0.2659

> <Gold.PLP.ligand.clash>
0.0000

> <Gold.PLP.ligand.torsion>
0.3631

> <Gold.PLP.Chemscore.Hbond>
1.5749

> <Gold.PLP.Chemscore.CHOScore>
0.0000

> <Gold.PLP.Chemscore.Metal>
0.0000

> <Gold.Chemscore.Hbonds>
donor molecule, donor type, donor heavy atom, donor atom, acceptor molecule, acceptor atom, score
      P1  H  6896  6907       L1     6  0.83
      P1  H  6896  6909       L1     1  1.00

> <Gold.PLP.Chemscore.Internal.Correction>
0.0353

> <Gold.Rescore>
     Score         DG    S(hbond)    S(metal)    S(lipo)     H(rot)  DE(clash)    DE(int)     intcor
     14.67     -17.95       1.84        0.00      94.48       1.85       0.10       3.18       ----

> <Gold.Chemscore.Fitness>
14.6735

> <Gold.Chemscore.DG>
-17.9500

> <Gold.Chemscore.ZeroCoef>
-5.4800

> <Gold.Chemscore.Hbond>
1.8418

> <Gold.Chemscore.Metal>
0.0000

> <Gold.Chemscore.Lipo>
94.4780

> <Gold.Chemscore.Internal_Hbond>
0.0000

> <Gold.Chemscore.DEClash>
0.0950

> <Gold.Chemscore.DEInternal>
3.1815

> <Gold.Chemscore.Rot>
1.8497

> <Gold.Chemscore.Internal.Correction>
   9.000000E+99

> <Gold.Chemscore.Hbonds>
donor molecule, donor type, donor heavy atom, donor atom, acceptor molecule, acceptor atom, score
      P1  H  6896  6907       L1     6  0.81
      P1  H  6896  6909       L1     1  0.84

> <Gold.Chemscore.Hbond.Weighted>
-6.1515

> <Gold.Chemscore.Metal.Weighted>
-0.0000

> <Gold.Chemscore.Lipo.Weighted>
-11.0539

> <Gold.Chemscore.Internal_Hbond.Weighted>
0.0000

> <Gold.Chemscore.DEClash.Weighted>
0.0950

> <Gold.Chemscore.DEInternal.Weighted>
3.1815

> <Gold.Chemscore.Rot.Weighted>
4.7354

> <Gold.Chemscore.Internal.Correction.Weighted>
   9.000000E+99

> <Gold.Protein.RotatedTorsions>
[ 6907 6896 6895 6894 ] final   32.10 input  -60.11 | X-H torsion
[ 7974 7965 7964 7962 ] final -176.59 input  175.53 | X-H torsion
[ 8008 7997 7996 7995 ] final  -11.53 input   59.86 | X-H torsion
[ 10167 10162 10161 10158 ] final -143.47 input  -65.29 | X-H torsion
[ 10718 10713 10712 10709 ] final   54.40 input   66.30 | X-H torsion
[ 10763 10752 10751 10750 ] final   97.97 input  -60.55 | X-H torsion
[ 11005 11000 10999 10996 ] final  136.48 input  -57.11 | X-H torsion

> <Gold.Protein.ActiveResidues>
 VAL166  LYS551  ARG553  GLY616  TRP617  ASP618  TYR619  PRO620  LYS621  CYS622 
 ASP623  PHE694  ASN695  SER759  ASP760  ASP761  ALA762  ILE779  LEU786  VAL792 
 PHE793  MET794  SER795  GLU796  ALA797  LYS798  CYS799  TRP800  GLU811  SER814 

> <Gold.Protein.RotatedAtoms>
  152.0696  134.9542  160.0574 H   0  0  0  0  0  0  0  0  0  0  0  0  # atno 6907 bound_to 6896
  152.0873  133.4177  159.4536 H   0  0  0  0  0  0  0  0  0  0  0  0  # atno 6908 bound_to 6896
  150.6836  134.2833  159.4679 H   0  0  0  0  0  0  0  0  0  0  0  0  # atno 6909 bound_to 6896
  144.7127  140.1148  143.6409 H   0  0  0  0  0  0  0  0  0  0  0  0  # atno 7974 bound_to 7965
  154.5457  140.2300  155.8567 H   0  0  0  0  0  0  0  0  0  0  0  0  # atno 8008 bound_to 7997
  156.1900  140.3079  155.9276 H   0  0  0  0  0  0  0  0  0  0  0  0  # atno 8009 bound_to 7997
  155.3169  140.0438  157.3028 H   0  0  0  0  0  0  0  0  0  0  0  0  # atno 8010 bound_to 7997
  139.7990  143.7859  152.2656 H   0  0  0  0  0  0  0  0  0  0  0  0  # atno 10167 bound_to 10162
  157.5253  130.8593  149.8614 H   0  0  0  0  0  0  0  0  0  0  0  0  # atno 10718 bound_to 10713
  153.2833  135.4164  155.1099 H   0  0  0  0  0  0  0  0  0  0  0  0  # atno 10763 bound_to 10752
  154.8497  135.3500  154.6081 H   0  0  0  0  0  0  0  0  0  0  0  0  # atno 10764 bound_to 10752
  153.6502  135.7053  153.5269 H   0  0  0  0  0  0  0  0  0  0  0  0  # atno 10765 bound_to 10752
  140.0049  134.9463  157.0153 H   0  0  0  0  0  0  0  0  0  0  0  0  # atno 11005 bound_to 11000
  145.9423  139.2677  143.1261 LP  0  0  0  0  0  0  0  0  0  0  0  0  # atno 17320 bound_to 7965
  145.9410  140.8979  143.0307 LP  0  0  0  0  0  0  0  0  0  0  0  0  # atno 17321 bound_to 7965
  139.7974  144.7387  150.9872 LP  0  0  0  0  0  0  0  0  0  0  0  0  # atno 17342 bound_to 10162
  140.7820  143.4380  151.0594 LP  0  0  0  0  0  0  0  0  0  0  0  0  # atno 17343 bound_to 10162
  156.0383  130.3745  150.1503 LP  0  0  0  0  0  0  0  0  0  0  0  0  # atno 17370 bound_to 10713
  156.9689  130.9828  151.3463 LP  0  0  0  0  0  0  0  0  0  0  0  0  # atno 17371 bound_to 10713
  140.4659  134.1436  155.7197 LP  0  0  0  0  0  0  0  0  0  0  0  0  # atno 17394 bound_to 11000
  141.1669  133.8684  157.1686 LP  0  0  0  0  0  0  0  0  0  0  0  0  # atno 17395 bound_to 11000

$$$$
