AV-unprocessed.smi:406|AV-procd|sdf|2499|dock1
  -GOLD-   2262022443D 1   1.00000     0.00000
 Structure written by MMmdl.
 35 36  0  0  0  0  0  0  0  0  1 V2000
  150.4610  134.4443  154.7367 C   0  0  0  0  0  0  0  0  0  0  0  0
  149.0106  134.0646  154.4209 C   0  0  0  0  0  0  0  0  0  0  0  0
  148.0099  135.1394  154.8757 C   0  0  0  0  0  0  0  0  0  0  0  0
  148.3065  136.4369  154.2803 N   0  0  0  0  0  0  0  0  0  0  0  0
  148.1284  137.6223  154.8845 C   0  0  0  0  0  0  0  0  0  0  0  0
  147.6832  137.7420  156.0259 O   0  0  0  0  0  0  0  0  0  0  0  0
  148.5140  138.8647  154.0803 C   0  0  0  0  0  0  0  0  0  0  0  0
  149.6855  139.5492  154.7213 C   0  0  0  0  0  0  0  0  0  0  0  0
  150.9720  139.0748  154.8136 C   0  0  0  0  0  0  0  0  0  0  0  0
  152.0253  140.1947  155.6359 S   0  0  0  0  0  0  0  0  0  0  0  0
  150.6523  141.2692  155.8493 C   0  0  0  0  0  0  0  0  0  0  0  0
  150.7773  142.5399  156.4703 N   0  0  0  0  0  0  0  0  0  0  0  0
  151.5035  142.9099  157.5447 C   0  0  0  0  0  0  0  0  0  0  0  0
  152.1934  142.0779  158.1323 O   0  0  0  0  0  0  0  0  0  0  0  0
  151.4471  144.3420  157.9892 C   0  0  0  0  0  0  0  0  0  0  0  0
  152.7521  145.1094  157.9979 C   0  0  0  0  0  0  0  0  0  0  0  0
  152.1085  144.7174  159.3026 C   0  0  0  0  0  0  0  0  0  0  0  0
  149.5231  140.8129  155.2974 N   0  0  0  0  0  0  0  0  0  0  0  0
  151.1479  133.6669  154.4014 H   0  0  0  0  0  0  0  0  0  0  0  0
  150.6082  134.5786  155.8087 H   0  0  0  0  0  0  0  0  0  0  0  0
  150.7417  135.3734  154.2398 H   0  0  0  0  0  0  0  0  0  0  0  0
  148.9085  133.8981  153.3480 H   0  0  0  0  0  0  0  0  0  0  0  0
  148.7792  133.1144  154.9037 H   0  0  0  0  0  0  0  0  0  0  0  0
  146.9888  134.8404  154.6329 H   0  0  0  0  0  0  0  0  0  0  0  0
  148.0511  135.2494  155.9596 H   0  0  0  0  0  0  0  0  0  0  0  0
  148.6776  136.4335  153.3412 H   0  0  0  0  0  0  0  0  0  0  0  0
  148.7456  138.5852  153.0515 H   0  0  0  0  0  0  0  0  0  0  0  0
  147.6541  139.5340  154.0297 H   0  0  0  0  0  0  0  0  0  0  0  0
  151.3630  138.1372  154.4470 H   0  0  0  0  0  0  0  0  0  0  0  0
  150.2138  143.2700  156.0597 H   0  0  0  0  0  0  0  0  0  0  0  0
  150.5419  144.8964  157.7491 H   0  0  0  0  0  0  0  0  0  0  0  0
  153.6602  144.5829  157.7092 H   0  0  0  0  0  0  0  0  0  0  0  0
  152.7091  146.1537  157.6954 H   0  0  0  0  0  0  0  0  0  0  0  0
  151.6303  145.4991  159.8891 H   0  0  0  0  0  0  0  0  0  0  0  0
  152.6029  143.9446  159.8884 H   0  0  0  0  0  0  0  0  0  0  0  0
  1  2  1  0  0  0  0
  1 19  1  0  0  0  0
  1 20  1  0  0  0  0
  1 21  1  0  0  0  0
  2  3  1  0  0  0  0
  2 22  1  0  0  0  0
  2 23  1  0  0  0  0
  3  4  1  0  0  0  0
  3 24  1  0  0  0  0
  3 25  1  0  0  0  0
  4  5  1  0  0  0  0
  4 26  1  0  0  0  0
  5  6  2  0  0  0  0
  5  7  1  0  0  0  0
  7  8  1  0  0  0  0
  7 27  1  0  0  0  0
  7 28  1  0  0  0  0
  8 18  1  0  0  0  0
  8  9  2  0  0  0  0
  9 10  1  0  0  0  0
  9 29  1  0  0  0  0
 10 11  1  0  0  0  0
 11 12  1  0  0  0  0
 11 18  2  0  0  0  0
 12 13  1  0  0  0  0
 12 30  1  0  0  0  0
 13 14  2  0  0  0  0
 13 15  1  0  0  0  0
 15 17  1  0  0  0  0
 15 16  1  0  0  0  0
 15 31  1  0  0  0  0
 16 17  1  0  0  0  0
 16 32  1  0  0  0  0
 16 33  1  0  0  0  0
 17 34  1  0  0  0  0
 17 35  1  0  0  0  0
M  END
> <s_m_source_file>
AV-unprocessed.smi

> <i_m_source_file_index>
406

> <i_lp_mmshare_version>
43012

> <i_f3d_flags>
0

> <s_epik_input>
W0NIM11bQ0gyXVtDSDJdW05IXUMoPU8pW0NIMl1jMVtjSF1zYyhuMSlbTkhdQyg9TylbQ0hdMltDSDJdW0NIMl0y

> <s_epik_cmdline>
J2VwaWtfcHl0aG9uJywgJy1waCcsICc3LjAnLCAnLXRuJywgJzgnLCAnLW1hJywgJzIwMCcsICctbWV0YWxfYmluZGluZycsICctaW1hZScsICc8aW5maWxlLm1hZT4nLCAnLW9tYWUnLCAnPG91dGZpbGUubWFlPic=

> <r_lp_tautomer_probability>
1

> <r_epik_Ionization_Penalty>
0.000156784

> <r_epik_Ionization_Penalty_Charging>
0

> <r_epik_Ionization_Penalty_Neutral>
0.000156784

> <r_epik_State_Penalty>
-0

> <r_epik_Charging_Adjusted_Penalty>
0

> <i_epik_Tot_Q>
0

> <i_epik_Tot_abs_Q>
0

> <r_epik_Metal_State_Penalty>
0.0968639

> <b_epik_Metal_Only>
0

> <s_lp_Force_Field>
OPLS_2005

> <r_lp_Energy>
11.5054

> <b_lp_Chiralities_Consistent>
1

> <s_lp_Variant>
AV-unprocessed.smi:406-1

> <Gold.Version>
5.8.1

> <Gold.Id.Protein>
6NUR|6NUR_protein|mol2

> <Gold.PLP.Fitness>
40.1268

> <Gold.PLP.PLP>
-35.2739

> <Gold.PLP.part.hbond>
-1.9904

> <Gold.PLP.part.metal>
0.0000

> <Gold.PLP.part.buried>
-5.0670

> <Gold.PLP.part.nonpolar>
-29.0274

> <Gold.PLP.part.repulsive>
0.1917

> <Gold.PLP.ligand.clash>
0.0000

> <Gold.PLP.ligand.torsion>
0.6195

> <Gold.PLP.Chemscore.Hbond>
2.0000

> <Gold.PLP.Chemscore.CHOScore>
0.0000

> <Gold.PLP.Chemscore.Metal>
0.0000

> <Gold.Chemscore.Hbonds>
donor molecule, donor type, donor heavy atom, donor atom, acceptor molecule, acceptor atom, score
      L1  H     4    26       P1  7948  0.94
      L1  H    12    30       P1  8028  1.00

> <Gold.PLP.Chemscore.Internal.Correction>
0.0919

> <Gold.Rescore>
     Score         DG    S(hbond)    S(metal)    S(lipo)     H(rot)  DE(clash)    DE(int)     intcor
     15.86     -16.50       1.98        0.00      79.51       1.91       0.07       0.56       ----

> <Gold.Chemscore.Fitness>
15.8623

> <Gold.Chemscore.DG>
-16.4984

> <Gold.Chemscore.ZeroCoef>
-5.4800

> <Gold.Chemscore.Hbond>
1.9755

> <Gold.Chemscore.Metal>
0.0000

> <Gold.Chemscore.Lipo>
79.5056

> <Gold.Chemscore.Internal_Hbond>
0.0000

> <Gold.Chemscore.DEClash>
0.0727

> <Gold.Chemscore.DEInternal>
0.5633

> <Gold.Chemscore.Rot>
1.9070

> <Gold.Chemscore.Internal.Correction>
   9.000000E+99

> <Gold.Chemscore.Hbonds>
donor molecule, donor type, donor heavy atom, donor atom, acceptor molecule, acceptor atom, score
      L1  H     4    26       P1  7948  0.90
      L1  H    12    30       P1  8028  0.96

> <Gold.Chemscore.Hbond.Weighted>
-6.5982

> <Gold.Chemscore.Metal.Weighted>
-0.0000

> <Gold.Chemscore.Lipo.Weighted>
-9.3022

> <Gold.Chemscore.Internal_Hbond.Weighted>
0.0000

> <Gold.Chemscore.DEClash.Weighted>
0.0727

> <Gold.Chemscore.DEInternal.Weighted>
0.5633

> <Gold.Chemscore.Rot.Weighted>
4.8820

> <Gold.Chemscore.Internal.Correction.Weighted>
   9.000000E+99

> <Gold.Protein.RotatedTorsions>
[ 6907 6896 6895 6894 ] final  -22.67 input  -60.11 | X-H torsion
[ 7974 7965 7964 7962 ] final   83.40 input  175.53 | X-H torsion
[ 8008 7997 7996 7995 ] final  129.13 input   59.86 | X-H torsion
[ 10167 10162 10161 10158 ] final -139.21 input  -65.29 | X-H torsion
[ 10718 10713 10712 10709 ] final  -14.33 input   66.30 | X-H torsion
[ 10763 10752 10751 10750 ] final  -31.31 input  -60.55 | X-H torsion
[ 11005 11000 10999 10996 ] final  -47.84 input  -57.11 | X-H torsion

> <Gold.Protein.ActiveResidues>
 VAL166  LYS551  ARG553  GLY616  TRP617  ASP618  TYR619  PRO620  LYS621  CYS622 
 ASP623  PHE694  ASN695  SER759  ASP760  ASP761  ALA762  ILE779  LEU786  VAL792 
 PHE793  MET794  SER795  GLU796  ALA797  LYS798  CYS799  TRP800  GLU811  SER814 

> <Gold.Protein.RotatedAtoms>
  151.2153  135.0497  159.8927 H   0  0  0  0  0  0  0  0  0  0  0  0  # atno 6907 bound_to 6896
  152.5421  134.0700  159.8200 H   0  0  0  0  0  0  0  0  0  0  0  0  # atno 6908 bound_to 6896
  151.0859  133.5305  159.2649 H   0  0  0  0  0  0  0  0  0  0  0  0  # atno 6909 bound_to 6896
  145.6124  139.2371  143.2184 H   0  0  0  0  0  0  0  0  0  0  0  0  # atno 7974 bound_to 7965
  156.2930  140.2628  156.2548 H   0  0  0  0  0  0  0  0  0  0  0  0  # atno 8008 bound_to 7997
  154.9847  140.0389  157.2311 H   0  0  0  0  0  0  0  0  0  0  0  0  # atno 8009 bound_to 7997
  154.7740  140.2783  155.6120 H   0  0  0  0  0  0  0  0  0  0  0  0  # atno 8010 bound_to 7997
  139.8402  143.7332  152.2663 H   0  0  0  0  0  0  0  0  0  0  0  0  # atno 10167 bound_to 10162
  156.6175  130.4866  149.6177 H   0  0  0  0  0  0  0  0  0  0  0  0  # atno 10718 bound_to 10713
  153.7953  135.6894  153.4864 H   0  0  0  0  0  0  0  0  0  0  0  0  # atno 10763 bound_to 10752
  153.1723  135.4538  154.9918 H   0  0  0  0  0  0  0  0  0  0  0  0  # atno 10764 bound_to 10752
  154.8028  135.3344  154.7445 H   0  0  0  0  0  0  0  0  0  0  0  0  # atno 10765 bound_to 10752
  141.0665  133.6692  156.3355 H   0  0  0  0  0  0  0  0  0  0  0  0  # atno 11005 bound_to 11000
  146.1494  140.6947  142.9329 LP  0  0  0  0  0  0  0  0  0  0  0  0  # atno 17320 bound_to 7965
  144.7264  140.4538  143.6970 LP  0  0  0  0  0  0  0  0  0  0  0  0  # atno 17321 bound_to 7965
  139.7566  144.7519  151.0426 LP  0  0  0  0  0  0  0  0  0  0  0  0  # atno 17342 bound_to 10162
  140.7799  143.4798  151.0033 LP  0  0  0  0  0  0  0  0  0  0  0  0  # atno 17343 bound_to 10162
  156.2339  130.6811  151.1490 LP  0  0  0  0  0  0  0  0  0  0  0  0  # atno 17370 bound_to 10713
  157.7237  131.0664  150.6026 LP  0  0  0  0  0  0  0  0  0  0  0  0  # atno 17371 bound_to 10713
  140.5762  134.5791  157.5469 LP  0  0  0  0  0  0  0  0  0  0  0  0  # atno 17394 bound_to 11000
  139.9481  134.7665  156.0512 LP  0  0  0  0  0  0  0  0  0  0  0  0  # atno 17395 bound_to 11000

$$$$
