AV-unprocessed.smi:2087|AV-procd|sdf|8522|dock7
  -GOLD-   2272011233D 1   1.00000     0.00000
 Structure written by MMmdl.
 51 52  0  0  0  0  0  0  0  0  2 V2000
  145.9487  136.8625  150.4928 C   0  0  0  0  0  0  0  0  0  0  0  0
  145.5364  136.4064  151.9026 C   0  0  0  0  0  0  0  0  0  0  0  0
  144.0819  135.9115  151.9006 C   0  0  0  0  0  0  0  0  0  0  0  0
  145.7245  137.5256  152.9500 C   0  0  0  0  0  0  0  0  0  0  0  0
  147.1134  138.0603  152.9960 N   0  3  1  0  0  0  0  0  0  0  0  0
  147.3034  139.2834  152.1785 C   0  0  0  0  0  0  0  0  0  0  0  0
  146.7508  140.5262  152.8994 C   0  0  0  0  0  0  0  0  0  0  0  0
  147.3802  140.6502  154.1682 O   0  0  0  0  0  0  0  0  0  0  0  0
  147.1108  139.5406  155.0202 C   0  0  2  0  0  0  0  0  0  0  0  0
  147.7607  139.8128  156.3890 C   0  0  0  0  0  0  0  0  0  0  0  0
  148.9431  140.6570  156.2609 N   0  0  0  0  0  0  0  0  0  0  0  0
  150.1975  140.2660  156.5287 C   0  0  0  0  0  0  0  0  0  0  0  0
  150.4890  139.1154  156.8581 O   0  0  0  0  0  0  0  0  0  0  0  0
  151.2851  141.3397  156.4008 C   0  0  0  0  0  0  0  0  0  0  0  0
  151.5955  141.9829  157.6840 N   0  0  0  0  0  0  0  0  0  0  0  0
  151.0000  143.1877  158.0104 C   0  0  0  0  0  0  0  0  0  0  0  0
  151.2355  143.8454  159.1666 C   0  0  0  0  0  0  0  0  0  0  0  0
  152.1575  143.3086  160.1604 C   0  0  0  0  0  0  0  0  0  0  0  0
  152.3872  143.8688  161.2326 O   0  0  0  0  0  0  0  0  0  0  0  0
  152.7625  142.0815  159.7957 N   0  0  0  0  0  0  0  0  0  0  0  0
  153.6890  141.4569  160.7172 C   0  0  0  0  0  0  0  0  0  0  0  0
  152.5015  141.3916  158.5913 C   0  0  0  0  0  0  0  0  0  0  0  0
  153.0383  140.3114  158.3304 O   0  0  0  0  0  0  0  0  0  0  0  0
  147.6663  138.2595  154.3610 C   0  0  0  0  0  0  0  0  0  0  0  0
  145.3582  137.7183  150.1641 H   0  0  0  0  0  0  0  0  0  0  0  0
  145.8053  136.0626  149.7657 H   0  0  0  0  0  0  0  0  0  0  0  0
  147.0002  137.1481  150.4555 H   0  0  0  0  0  0  0  0  0  0  0  0
  146.1557  135.5516  152.1728 H   0  0  0  0  0  0  0  0  0  0  0  0
  143.3905  136.7105  151.6297 H   0  0  0  0  0  0  0  0  0  0  0  0
  143.7910  135.5386  152.8832 H   0  0  0  0  0  0  0  0  0  0  0  0
  143.9442  135.0972  151.1885 H   0  0  0  0  0  0  0  0  0  0  0  0
  145.0371  138.3359  152.7026 H   0  0  0  0  0  0  0  0  0  0  0  0
  145.4257  137.1742  153.9375 H   0  0  0  0  0  0  0  0  0  0  0  0
  148.3720  139.4159  152.0039 H   0  0  0  0  0  0  0  0  0  0  0  0
  146.8461  139.1679  151.1952 H   0  0  0  0  0  0  0  0  0  0  0  0
  146.9608  141.4218  152.3148 H   0  0  0  0  0  0  0  0  0  0  0  0
  145.6675  140.4712  153.0163 H   0  0  0  0  0  0  0  0  0  0  0  0
  146.0328  139.4451  155.1555 H   0  0  0  0  0  0  0  0  0  0  0  0
  147.0452  140.2867  157.0631 H   0  0  0  0  0  0  0  0  0  0  0  0
  148.0558  138.8744  156.8596 H   0  0  0  0  0  0  0  0  0  0  0  0
  148.7923  141.6174  155.9874 H   0  0  0  0  0  0  0  0  0  0  0  0
  152.1790  140.8709  155.9874 H   0  0  0  0  0  0  0  0  0  0  0  0
  150.9839  142.0963  155.6737 H   0  0  0  0  0  0  0  0  0  0  0  0
  150.3098  143.6298  157.3066 H   0  0  0  0  0  0  0  0  0  0  0  0
  150.7337  144.7824  159.3596 H   0  0  0  0  0  0  0  0  0  0  0  0
  154.5649  141.1354  160.1507 H   0  0  0  0  0  0  0  0  0  0  0  0
  153.1684  140.6086  161.1639 H   0  0  0  0  0  0  0  0  0  0  0  0
  154.0122  142.1614  161.4833 H   0  0  0  0  0  0  0  0  0  0  0  0
  147.4803  137.3916  154.9919 H   0  0  0  0  0  0  0  0  0  0  0  0
  148.7505  138.3407  154.2740 H   0  0  0  0  0  0  0  0  0  0  0  0
  147.6793  137.3476  152.5575 H   0  0  0  0  0  0  0  0  0  0  0  0
  1  2  1  0  0  0  0
  1 25  1  0  0  0  0
  1 26  1  0  0  0  0
  1 27  1  0  0  0  0
  2  3  1  0  0  0  0
  2  4  1  0  0  0  0
  2 28  1  0  0  0  0
  3 29  1  0  0  0  0
  3 30  1  0  0  0  0
  3 31  1  0  0  0  0
  4  5  1  0  0  0  0
  4 32  1  0  0  0  0
  4 33  1  0  0  0  0
  5 24  1  0  0  0  0
  5  6  1  0  0  0  0
  5 51  1  0  0  0  0
  6  7  1  0  0  0  0
  6 34  1  0  0  0  0
  6 35  1  0  0  0  0
  7  8  1  0  0  0  0
  7 36  1  0  0  0  0
  7 37  1  0  0  0  0
  8  9  1  0  0  0  0
  9 10  1  0  0  0  0
  9 24  1  0  0  0  0
  9 38  1  0  0  0  0
 10 11  1  0  0  0  0
 10 39  1  0  0  0  0
 10 40  1  0  0  0  0
 11 12  1  0  0  0  0
 11 41  1  0  0  0  0
 12 13  2  0  0  0  0
 12 14  1  0  0  0  0
 14 15  1  0  0  0  0
 14 42  1  0  0  0  0
 14 43  1  0  0  0  0
 15 22  1  0  0  0  0
 15 16  1  0  0  0  0
 16 17  2  0  0  0  0
 16 44  1  0  0  0  0
 17 18  1  0  0  0  0
 17 45  1  0  0  0  0
 18 19  2  0  0  0  0
 18 20  1  0  0  0  0
 20 21  1  0  0  0  0
 20 22  1  0  0  0  0
 21 46  1  0  0  0  0
 21 47  1  0  0  0  0
 21 48  1  0  0  0  0
 22 23  2  0  0  0  0
 24 49  1  0  0  0  0
 24 50  1  0  0  0  0
M  CHG  1   5   1
M  END
> <s_m_source_file>
AV-unprocessed.smi

> <i_m_source_file_index>
2087

> <i_lp_mmshare_version>
43012

> <i_f3d_flags>
0

> <s_epik_input>
W0NIM11bQ0hdKFtDSDNdKVtDSDJdTjFbQ0gyXVtDSDJdT1tDQEhdKFtDSDJdMSlbQ0gyXVtOSF1DKD1PKVtDSDJdbjJbY0hdW2NIXWMoPU8pbihbQ0gzXSljMj1P

> <s_epik_cmdline>
J2VwaWtfcHl0aG9uJywgJy1waCcsICc3LjAnLCAnLXRuJywgJzgnLCAnLW1hJywgJzIwMCcsICctbWV0YWxfYmluZGluZycsICctaW1hZScsICc8aW5maWxlLm1hZT4nLCAnLW9tYWUnLCAnPG91dGZpbGUubWFlPic=

> <r_lp_tautomer_probability>
1

> <r_epik_Ionization_Penalty>
0.097593

> <r_epik_Ionization_Penalty_Charging>
0.097593

> <r_epik_Ionization_Penalty_Neutral>
6.27044e-08

> <r_epik_State_Penalty>
0.0877056

> <r_epik_Charging_Adjusted_Penalty>
0.185299

> <i_epik_Tot_Q>
1

> <i_epik_Tot_abs_Q>
1

> <r_epik_Metal_State_Penalty>
0.0877109

> <b_epik_Metal_Only>
0

> <s_lp_Force_Field>
OPLS_2005

> <r_lp_Energy>
27.8921

> <b_lp_Chiralities_Consistent>
1

> <s_lp_Variant>
AV-unprocessed.smi:2087-3

> <Gold.Version>
5.8.1

> <Gold.Id.Protein>
6NUR|6NUR_protein|mol2

> <Gold.PLP.Fitness>
44.5025

> <Gold.PLP.PLP>
-35.7778

> <Gold.PLP.part.hbond>
-2.0000

> <Gold.PLP.part.metal>
0.0000

> <Gold.PLP.part.buried>
2.1766

> <Gold.PLP.part.nonpolar>
-35.4306

> <Gold.PLP.part.repulsive>
0.2948

> <Gold.PLP.ligand.clash>
0.0000

> <Gold.PLP.ligand.torsion>
1.6507

> <Gold.PLP.Chemscore.Hbond>
2.9760

> <Gold.PLP.Chemscore.CHOScore>
1.0000

> <Gold.PLP.Chemscore.Metal>
0.0000

> <Gold.Chemscore.Hbonds>
donor molecule, donor type, donor heavy atom, donor atom, acceptor molecule, acceptor atom, score
      L1  H     5    51       P1  7948  2.00
      P1  H  7997  8008       L1    23  0.89
      L1  C    16    44       P1  8028  1.00

> <Gold.PLP.Chemscore.Internal.Correction>
0.0981

> <Gold.Rescore>
     Score         DG    S(hbond)    S(metal)    S(lipo)     H(rot)  DE(clash)    DE(int)     intcor
     12.02     -15.72       1.90        0.00      81.85       2.22       2.02       1.68       ----

> <Gold.Chemscore.Fitness>
12.0171

> <Gold.Chemscore.DG>
-15.7211

> <Gold.Chemscore.ZeroCoef>
-5.4800

> <Gold.Chemscore.Hbond>
1.9044

> <Gold.Chemscore.Metal>
0.0000

> <Gold.Chemscore.Lipo>
81.8459

> <Gold.Chemscore.Internal_Hbond>
0.0000

> <Gold.Chemscore.DEClash>
2.0218

> <Gold.Chemscore.DEInternal>
1.6822

> <Gold.Chemscore.Rot>
2.2249

> <Gold.Chemscore.Internal.Correction>
   9.000000E+99

> <Gold.Chemscore.Hbonds>
donor molecule, donor type, donor heavy atom, donor atom, acceptor molecule, acceptor atom, score
      L1  H     5    51       P1  7948  1.00
      P1  H  7997  8008       L1    23  0.83

> <Gold.Chemscore.Hbond.Weighted>
-6.3609

> <Gold.Chemscore.Metal.Weighted>
-0.0000

> <Gold.Chemscore.Lipo.Weighted>
-9.5760

> <Gold.Chemscore.Internal_Hbond.Weighted>
0.0000

> <Gold.Chemscore.DEClash.Weighted>
2.0218

> <Gold.Chemscore.DEInternal.Weighted>
1.6822

> <Gold.Chemscore.Rot.Weighted>
5.6957

> <Gold.Chemscore.Internal.Correction.Weighted>
   9.000000E+99

> <Gold.Protein.RotatedTorsions>
[ 6907 6896 6895 6894 ] final   85.43 input  -60.11 | X-H torsion
[ 7974 7965 7964 7962 ] final  137.14 input  175.53 | X-H torsion
[ 8008 7997 7996 7995 ] final  -84.02 input   59.86 | X-H torsion
[ 10167 10162 10161 10158 ] final  139.52 input  -65.29 | X-H torsion
[ 10718 10713 10712 10709 ] final   20.42 input   66.30 | X-H torsion
[ 10763 10752 10751 10750 ] final  -39.88 input  -60.55 | X-H torsion
[ 11005 11000 10999 10996 ] final  -25.65 input  -57.11 | X-H torsion

> <Gold.Protein.ActiveResidues>
 VAL166  LYS551  ARG553  GLY616  TRP617  ASP618  TYR619  PRO620  LYS621  CYS622 
 ASP623  PHE694  ASN695  SER759  ASP760  ASP761  ALA762  ILE779  LEU786  VAL792 
 PHE793  MET794  SER795  GLU796  ALA797  LYS798  CYS799  TRP800  GLU811  SER814 

> <Gold.Protein.RotatedAtoms>
  152.5374  134.2588  159.8926 H   0  0  0  0  0  0  0  0  0  0  0  0  # atno 6907 bound_to 6896
  151.2548  133.4325  159.2621 H   0  0  0  0  0  0  0  0  0  0  0  0  # atno 6908 bound_to 6896
  151.0506  134.9684  159.8266 H   0  0  0  0  0  0  0  0  0  0  0  0  # atno 6909 bound_to 6896
  144.9496  139.4834  143.5532 H   0  0  0  0  0  0  0  0  0  0  0  0  # atno 7974 bound_to 7965
  154.6253  140.0611  156.9666 H   0  0  0  0  0  0  0  0  0  0  0  0  # atno 8008 bound_to 7997
  155.1752  140.3294  155.4367 H   0  0  0  0  0  0  0  0  0  0  0  0  # atno 8009 bound_to 7997
  156.2454  140.1907  156.6851 H   0  0  0  0  0  0  0  0  0  0  0  0  # atno 8010 bound_to 7997
  139.5076  144.6290  151.5866 H   0  0  0  0  0  0  0  0  0  0  0  0  # atno 10167 bound_to 10162
  157.1242  130.6562  149.5932 H   0  0  0  0  0  0  0  0  0  0  0  0  # atno 10718 bound_to 10713
  153.9366  135.6766  153.4745 H   0  0  0  0  0  0  0  0  0  0  0  0  # atno 10763 bound_to 10752
  153.0952  135.4855  154.8763 H   0  0  0  0  0  0  0  0  0  0  0  0  # atno 10764 bound_to 10752
  154.7399  135.3158  154.8704 H   0  0  0  0  0  0  0  0  0  0  0  0  # atno 10765 bound_to 10752
  140.8957  133.7558  156.0478 H   0  0  0  0  0  0  0  0  0  0  0  0  # atno 11005 bound_to 11000
  146.3316  139.8573  142.8862 LP  0  0  0  0  0  0  0  0  0  0  0  0  # atno 17320 bound_to 7965
  145.2864  141.0154  143.3688 LP  0  0  0  0  0  0  0  0  0  0  0  0  # atno 17321 bound_to 7965
  140.6016  143.9599  150.6390 LP  0  0  0  0  0  0  0  0  0  0  0  0  # atno 17342 bound_to 10162
  140.2813  143.3387  152.1148 LP  0  0  0  0  0  0  0  0  0  0  0  0  # atno 17343 bound_to 10162
  155.9822  130.4834  150.6868 LP  0  0  0  0  0  0  0  0  0  0  0  0  # atno 17370 bound_to 10713
  157.4450  131.0866  151.0905 LP  0  0  0  0  0  0  0  0  0  0  0  0  # atno 17371 bound_to 10713
  140.8292  134.3198  157.5355 LP  0  0  0  0  0  0  0  0  0  0  0  0  # atno 17394 bound_to 11000
  139.8735  134.9353  156.3631 LP  0  0  0  0  0  0  0  0  0  0  0  0  # atno 17395 bound_to 11000

$$$$
