#       Name:                AV-unprocessed.smi:1507
#       Creating user name   scv26
#       Creation time:       Fri Mar 27 06:20:35 2020


#       File generated by GOLD software.
#

@<TRIPOS>MOLECULE
AV-unprocessed.smi:1507
    39    40     1
SMALL
NO_CHARGES


@<TRIPOS>ATOM
      1 ****        -2.8894   5.0285   1.3596 N.3            1 S1                 0.0000
      2 ****        -3.3615   4.4850  -0.2071 S.o2           1 S1                 0.0000
      3 ****        -4.8103   4.2511  -0.1103 O.2            1 S1                 0.0000
      4 ****        -2.8857   5.5054  -1.1568 O.2            1 S1                 0.0000
      5 ****        -2.5164   3.0941  -0.2206 N.pl3          1 S1                -1.0000
      6 ****        -1.0900   3.0707  -0.5175 C.3            1 S1                 0.0000
      7 ****        -0.5224   1.6624  -0.4180 C.ar           1 S1                 0.0000
      8 ****        -0.4712   0.8147  -1.5457 C.ar           1 S1                 0.0000
      9 ****         0.0609  -0.4819  -1.4027 C.ar           1 S1                 0.0000
     10 ****         0.5286  -0.9014  -0.1351 C.ar           1 S1                 0.0000
     11 ****         1.0602  -2.1985   0.0299 N.3            1 S1                 0.0000
     12 ****         1.2716  -2.6866   1.3911 C.3            1 S1                 0.0000
     13 ****         1.5573  -4.1976   1.3773 C.3            1 S1                 0.0000
     14 ****         2.6597  -4.4689   0.5180 O.3            1 S1                 0.0000
     15 ****         2.3920  -4.0832  -0.8263 C.3            1 S1                 0.0000
     16 ****         2.1302  -2.5684  -0.8926 C.3            1 S1                 0.0000
     17 ****         0.4742  -0.0869   0.9473 N.ar           1 S1                 0.0000
     18 ****        -0.0356   1.1561   0.8074 C.ar           1 S1                 0.0000
     19 ****        -3.6689   5.0368   2.0163 H              1 S1                 0.0000
     20 ****        -2.3705   5.9052   1.3240 H              1 S1                 0.0000
     21 ****        -0.8807   3.4511  -1.5180 H              1 S1                 0.0000
     22 ****        -0.5247   3.7108   0.1608 H              1 S1                 0.0000
     23 ****        -0.8353   1.1343  -2.5127 H              1 S1                 0.0000
     24 ****         0.0863  -1.1402  -2.2579 H              1 S1                 0.0000
     25 ****         2.1088  -2.1516   1.8417 H              1 S1                 0.0000
     26 ****         0.3906  -2.4912   2.0038 H              1 S1                 0.0000
     27 ****         1.7962  -4.5437   2.3829 H              1 S1                 0.0000
     28 ****         0.6792  -4.7557   1.0485 H              1 S1                 0.0000
     29 ****         3.2496  -4.3430  -1.4468 H              1 S1                 0.0000
     30 ****         1.5385  -4.6421  -1.2136 H              1 S1                 0.0000
     31 ****         1.8929  -2.2933  -1.9192 H              1 S1                 0.0000
     32 ****         3.0336  -2.0217  -0.6191 H              1 S1                 0.0000
     33 ****        -0.0486   1.7504   1.7111 H              1 S1                 0.0000
     34 ****        -2.2452   4.3558   1.7237 LP             1 S1                 0.0000
     35 ****        -2.9873   2.2349  -0.0203 LP             1 S1                 0.0000
     36 ****         0.2627  -2.7268  -0.2613 LP             1 S1                 0.0000
     37 ****         2.8536  -5.4497   0.5405 LP             1 S1                 0.0000
     38 ****         3.4578  -3.9638   0.8465 LP             1 S1                 0.0000
     39 ****         0.8067  -0.4018   1.8363 LP             1 S1                 0.0000
@<TRIPOS>BOND
    1    1    2 1     
    2    1   19 1     
    3    1   20 1     
    4    2    3 2     
    5    2    4 2     
    6    2    5 1     
    7    5    6 1     
    8    6    7 1     
    9    6   21 1     
   10    6   22 1     
   11    7   18 ar    
   12    7    8 ar    
   13    8    9 ar    
   14    8   23 1     
   15    9   10 ar    
   16    9   24 1     
   17   10   11 1     
   18   10   17 ar    
   19   11   16 1     
   20   11   12 1     
   21   12   13 1     
   22   12   25 1     
   23   12   26 1     
   24   13   14 1     
   25   13   27 1     
   26   13   28 1     
   27   14   15 1     
   28   15   16 1     
   29   15   29 1     
   30   15   30 1     
   31   16   31 1     
   32   16   32 1     
   33   17   18 ar    
   34   18   33 1     
   35    1   34 1     
   36    5   35 1     
   37   11   36 1     
   38   14   37 1     
   39   14   38 1     
   40   17   39 1     
@<TRIPOS>SUBSTRUCTURE
      1 S1             1
@<TRIPOS>SET
LONE_PAIRS      STATIC     ATOMS    <user>   **** ""
8 34 3 4 35 36 37 38 39
DONOR_HYDROGENS      STATIC     ATOMS    <user>   **** ""
2 19 20
ATOM$BLUE        STATIC     ATOMS    COLORGROUP SYSTEM
8 34 3 4 35 36 37 38 39
ATOM$RED        STATIC     ATOMS    COLORGROUP SYSTEM
2 19 20
