AV-unprocessed.smi:184|AV-procd|sdf|1463|dock6
  -GOLD-   2262019273D 1   1.00000     0.00000
 Structure written by MMmdl.
 54 58  0  0  0  0  0  0  0  0  1 V2000
  149.2661  141.9361  155.0941 O   0  0  0  0  0  0  0  0  0  0  0  0
  150.0893  141.9129  156.0062 C   0  0  0  0  0  0  0  0  0  0  0  0
  150.5071  140.5617  156.6152 C   0  0  0  0  0  0  0  0  0  0  0  0
  151.5060  140.6484  157.6913 N   0  0  0  0  0  0  0  0  0  0  0  0
  151.6293  139.4731  158.3481 C   0  0  0  0  0  0  0  0  0  0  0  0
  150.4950  138.7641  158.5670 N   0  0  0  0  0  0  0  0  0  0  0  0
  150.5534  137.5936  159.2092 C   0  0  0  0  0  0  0  0  0  0  0  0
  151.6214  136.9674  159.7086 N   0  0  0  0  0  0  0  0  0  0  0  0
  152.7622  137.6851  159.4989 C   0  0  0  0  0  0  0  0  0  0  0  0
  152.8557  138.9414  158.8373 C   0  0  0  0  0  0  0  0  0  0  0  0
  154.1757  139.3743  158.8260 N   0  0  0  0  0  0  0  0  0  0  0  0
  154.8272  138.4231  159.4368 C   0  0  0  0  0  0  0  0  0  0  0  0
  154.0580  137.3642  159.8647 N   0  0  0  0  0  0  0  0  0  0  0  0
  154.5241  136.1762  160.5645 C   0  0  0  0  0  0  0  0  0  0  0  0
  155.3207  136.4795  161.8631 C   0  0  0  0  0  0  0  0  0  0  0  0
  156.5529  137.0636  161.4807 O   0  0  0  0  0  0  0  0  0  0  0  0
  154.5889  137.5006  162.7571 C   0  0  0  0  0  0  0  0  0  0  0  0
  153.3938  136.8618  163.4885 C   0  0  0  0  0  0  0  0  0  0  0  0
  153.8289  135.7353  164.2420 O   0  0  0  0  0  0  0  0  0  0  0  0
  154.3877  134.7056  163.4335 C   0  0  0  0  0  0  0  0  0  0  0  0
  155.6416  135.2297  162.7114 C   0  0  0  0  0  0  0  0  0  0  0  0
  151.5235  141.8752  158.4936 C   0  0  1  0  0  0  0  0  0  0  0  0
  152.6629  141.9305  159.5400 C   0  0  0  0  0  0  0  0  0  0  0  0
  152.6275  143.2529  160.3248 C   0  0  0  0  0  0  0  0  0  0  0  0
  152.6830  144.4705  159.3881 C   0  0  0  0  0  0  0  0  0  0  0  0
  151.5765  144.4102  158.3227 C   0  0  0  0  0  0  0  0  0  0  0  0
  151.6425  143.0858  157.5427 C   0  0  2  0  0  0  0  0  0  0  0  0
  150.6236  143.0421  156.4992 N   0  0  0  0  0  0  0  0  0  0  0  0
  149.6037  140.0704  156.9812 H   0  0  0  0  0  0  0  0  0  0  0  0
  150.9056  139.9361  155.8151 H   0  0  0  0  0  0  0  0  0  0  0  0
  149.6097  137.0853  159.3408 H   0  0  0  0  0  0  0  0  0  0  0  0
  155.8962  138.4647  159.5881 H   0  0  0  0  0  0  0  0  0  0  0  0
  153.6536  135.5597  160.7944 H   0  0  0  0  0  0  0  0  0  0  0  0
  155.1255  135.5914  159.8689 H   0  0  0  0  0  0  0  0  0  0  0  0
  156.4214  137.9922  161.3629 H   0  0  0  0  0  0  0  0  0  0  0  0
  155.2777  137.8908  163.5085 H   0  0  0  0  0  0  0  0  0  0  0  0
  154.2587  138.3595  162.1712 H   0  0  0  0  0  0  0  0  0  0  0  0
  152.9469  137.5850  164.1707 H   0  0  0  0  0  0  0  0  0  0  0  0
  152.6099  136.5664  162.7904 H   0  0  0  0  0  0  0  0  0  0  0  0
  154.6522  133.8632  164.0730 H   0  0  0  0  0  0  0  0  0  0  0  0
  153.6420  134.3411  162.7266 H   0  0  0  0  0  0  0  0  0  0  0  0
  156.0912  134.4409  162.1082 H   0  0  0  0  0  0  0  0  0  0  0  0
  156.3851  135.4847  163.4683 H   0  0  0  0  0  0  0  0  0  0  0  0
  150.5692  141.9472  159.0182 H   0  0  0  0  0  0  0  0  0  0  0  0
  152.5862  141.1059  160.2488 H   0  0  0  0  0  0  0  0  0  0  0  0
  153.6283  141.8222  159.0436 H   0  0  0  0  0  0  0  0  0  0  0  0
  151.7157  143.2954  160.9218 H   0  0  0  0  0  0  0  0  0  0  0  0
  153.4591  143.2884  161.0292 H   0  0  0  0  0  0  0  0  0  0  0  0
  152.5925  145.3899  159.9675 H   0  0  0  0  0  0  0  0  0  0  0  0
  153.6570  144.5086  158.8987 H   0  0  0  0  0  0  0  0  0  0  0  0
  150.6011  144.5123  158.8006 H   0  0  0  0  0  0  0  0  0  0  0  0
  151.6792  145.2551  157.6406 H   0  0  0  0  0  0  0  0  0  0  0  0
  152.6061  143.0365  157.0320 H   0  0  0  0  0  0  0  0  0  0  0  0
  150.3291  143.9228  156.1028 H   0  0  0  0  0  0  0  0  0  0  0  0
  1  2  2  0  0  0  0
  2 28  1  0  0  0  0
  2  3  1  0  0  0  0
  3  4  1  0  0  0  0
  3 29  1  0  0  0  0
  3 30  1  0  0  0  0
  4  5  1  0  0  0  0
  4 22  1  0  0  0  0
  5 10  1  0  0  0  0
  5  6  2  0  0  0  0
  6  7  1  0  0  0  0
  7  8  2  0  0  0  0
  7 31  1  0  0  0  0
  8  9  1  0  0  0  0
  9 13  1  0  0  0  0
  9 10  2  0  0  0  0
 10 11  1  0  0  0  0
 11 12  2  0  0  0  0
 12 13  1  0  0  0  0
 12 32  1  0  0  0  0
 13 14  1  0  0  0  0
 14 15  1  0  0  0  0
 14 33  1  0  0  0  0
 14 34  1  0  0  0  0
 15 21  1  0  0  0  0
 15 16  1  0  0  0  0
 15 17  1  0  0  0  0
 16 35  1  0  0  0  0
 17 18  1  0  0  0  0
 17 36  1  0  0  0  0
 17 37  1  0  0  0  0
 18 19  1  0  0  0  0
 18 38  1  0  0  0  0
 18 39  1  0  0  0  0
 19 20  1  0  0  0  0
 20 21  1  0  0  0  0
 20 40  1  0  0  0  0
 20 41  1  0  0  0  0
 21 42  1  0  0  0  0
 21 43  1  0  0  0  0
 22 27  1  0  0  0  0
 22 23  1  0  0  0  0
 22 44  1  0  0  0  0
 23 24  1  0  0  0  0
 23 45  1  0  0  0  0
 23 46  1  0  0  0  0
 24 25  1  0  0  0  0
 24 47  1  0  0  0  0
 24 48  1  0  0  0  0
 25 26  1  0  0  0  0
 25 49  1  0  0  0  0
 25 50  1  0  0  0  0
 26 27  1  0  0  0  0
 26 51  1  0  0  0  0
 26 52  1  0  0  0  0
 27 28  1  0  0  0  0
 27 53  1  0  0  0  0
 28 54  1  0  0  0  0
M  END
> <s_m_source_file>
AV-unprocessed.smi

> <i_m_source_file_index>
184

> <i_lp_mmshare_version>
43012

> <i_f3d_flags>
0

> <s_epik_input>
W0NIMl0xW0NIMl1bQ0gyXVtDSDJdW0NASF0oW0NASF0xMilbTkhdQyg9TylbQ0gyXU4yYyhuW2NIXW4zKWMoYzM0KW5bY0hdbjRbQ0gyXUM1KFtPSF0pW0NIMl1bQ0gyXU9bQ0gyXVtDSDJdNQ==

> <s_epik_cmdline>
J2VwaWtfcHl0aG9uJywgJy1waCcsICc3LjAnLCAnLXRuJywgJzgnLCAnLW1hJywgJzIwMCcsICctbWV0YWxfYmluZGluZycsICctaW1hZScsICc8aW5maWxlLm1hZT4nLCAnLW9tYWUnLCAnPG91dGZpbGUubWFlPic=

> <r_lp_tautomer_probability>
1

> <r_epik_Ionization_Penalty>
0.000822761

> <r_epik_Ionization_Penalty_Charging>
0

> <r_epik_Ionization_Penalty_Neutral>
0.000822761

> <r_epik_State_Penalty>
0.000403048

> <r_epik_Charging_Adjusted_Penalty>
0.000403048

> <i_epik_Tot_Q>
0

> <i_epik_Tot_abs_Q>
0

> <r_epik_Metal_State_Penalty>
-0

> <b_epik_Metal_Only>
0

> <s_lp_Force_Field>
OPLS_2005

> <r_lp_Energy>
32.8133

> <b_lp_Chiralities_Consistent>
1

> <s_lp_Variant>
AV-unprocessed.smi:184-3

> <Gold.Version>
5.8.1

> <Gold.Id.Protein>
6NUR|6NUR_protein|mol2

> <Gold.PLP.Fitness>
53.9468

> <Gold.PLP.PLP>
-45.9361

> <Gold.PLP.part.hbond>
-3.4655

> <Gold.PLP.part.metal>
0.0000

> <Gold.PLP.part.buried>
-8.0758

> <Gold.PLP.part.nonpolar>
-35.4958

> <Gold.PLP.part.repulsive>
0.3228

> <Gold.PLP.ligand.clash>
0.0000

> <Gold.PLP.ligand.torsion>
0.6654

> <Gold.PLP.Chemscore.Hbond>
2.9920

> <Gold.PLP.Chemscore.CHOScore>
0.0000

> <Gold.PLP.Chemscore.Metal>
0.0000

> <Gold.Chemscore.Hbonds>
donor molecule, donor type, donor heavy atom, donor atom, acceptor molecule, acceptor atom, score
      L1  H    28    54       P1  8028  0.82
      P1  H  6896  6908       L1     8  1.00
      P1  H  7997  8008       L1    11  1.00

> <Gold.PLP.Chemscore.Internal.Correction>
0.3655

> <Gold.Rescore>
     Score         DG    S(hbond)    S(metal)    S(lipo)     H(rot)  DE(clash)    DE(int)     intcor
     20.58     -21.44       2.68        0.00     107.55       2.17       0.04       0.82       ----

> <Gold.Chemscore.Fitness>
20.5803

> <Gold.Chemscore.DG>
-21.4442

> <Gold.Chemscore.ZeroCoef>
-5.4800

> <Gold.Chemscore.Hbond>
2.6751

> <Gold.Chemscore.Metal>
0.0000

> <Gold.Chemscore.Lipo>
107.5455

> <Gold.Chemscore.Internal_Hbond>
0.0000

> <Gold.Chemscore.DEClash>
0.0429

> <Gold.Chemscore.DEInternal>
0.8211

> <Gold.Chemscore.Rot>
2.1693

> <Gold.Chemscore.Internal.Correction>
   9.000000E+99

> <Gold.Chemscore.Hbonds>
donor molecule, donor type, donor heavy atom, donor atom, acceptor molecule, acceptor atom, score
      L1  H    28    54       P1  8028  0.81
      P1  H  6896  6908       L1     8  0.97
      P1  H  7997  8008       L1    11  0.90

> <Gold.Chemscore.Hbond.Weighted>
-8.9348

> <Gold.Chemscore.Metal.Weighted>
-0.0000

> <Gold.Chemscore.Lipo.Weighted>
-12.5828

> <Gold.Chemscore.Internal_Hbond.Weighted>
0.0000

> <Gold.Chemscore.DEClash.Weighted>
0.0429

> <Gold.Chemscore.DEInternal.Weighted>
0.8211

> <Gold.Chemscore.Rot.Weighted>
5.5533

> <Gold.Chemscore.Internal.Correction.Weighted>
   9.000000E+99

> <Gold.Protein.RotatedTorsions>
[ 6907 6896 6895 6894 ] final -110.55 input  -60.11 | X-H torsion
[ 7974 7965 7964 7962 ] final   -7.87 input  175.53 | X-H torsion
[ 8008 7997 7996 7995 ] final -112.70 input   59.86 | X-H torsion
[ 10167 10162 10161 10158 ] final -165.60 input  -65.29 | X-H torsion
[ 10718 10713 10712 10709 ] final  136.06 input   66.30 | X-H torsion
[ 10763 10752 10751 10750 ] final   89.60 input  -60.55 | X-H torsion
[ 11005 11000 10999 10996 ] final -114.69 input  -57.11 | X-H torsion

> <Gold.Protein.ActiveResidues>
 VAL166  LYS551  ARG553  GLY616  TRP617  ASP618  TYR619  PRO620  LYS621  CYS622 
 ASP623  PHE694  ASN695  SER759  ASP760  ASP761  ALA762  ILE779  LEU786  VAL792 
 PHE793  MET794  SER795  GLU796  ALA797  LYS798  CYS799  TRP800  GLU811  SER814 

> <Gold.Protein.RotatedAtoms>
  150.7632  133.9366  159.3442 H   0  0  0  0  0  0  0  0  0  0  0  0  # atno 6907 bound_to 6896
  151.7270  135.0881  160.0303 H   0  0  0  0  0  0  0  0  0  0  0  0  # atno 6908 bound_to 6896
  152.3614  133.6264  159.6054 H   0  0  0  0  0  0  0  0  0  0  0  0  # atno 6909 bound_to 6896
  146.2295  140.2384  142.8342 H   0  0  0  0  0  0  0  0  0  0  0  0  # atno 7974 bound_to 7965
  155.0093  140.0393  157.2392 H   0  0  0  0  0  0  0  0  0  0  0  0  # atno 8008 bound_to 7997
  154.7475  140.2760  155.6298 H   0  0  0  0  0  0  0  0  0  0  0  0  # atno 8009 bound_to 7997
  156.2878  140.2653  156.2219 H   0  0  0  0  0  0  0  0  0  0  0  0  # atno 8010 bound_to 7997
  139.6171  144.0697  152.1898 H   0  0  0  0  0  0  0  0  0  0  0  0  # atno 10167 bound_to 10162
  157.4506  131.1065  151.0038 H   0  0  0  0  0  0  0  0  0  0  0  0  # atno 10718 bound_to 10713
  153.1888  135.4464  155.0123 H   0  0  0  0  0  0  0  0  0  0  0  0  # atno 10763 bound_to 10752
  154.8077  135.3281  154.7390 H   0  0  0  0  0  0  0  0  0  0  0  0  # atno 10764 bound_to 10752
  153.7846  135.6975  153.4937 H   0  0  0  0  0  0  0  0  0  0  0  0  # atno 10765 bound_to 10752
  141.0536  133.9648  157.2794 H   0  0  0  0  0  0  0  0  0  0  0  0  # atno 11005 bound_to 11000
  144.9503  140.8171  143.5576 LP  0  0  0  0  0  0  0  0  0  0  0  0  # atno 17320 bound_to 7965
  145.2344  139.2100  143.5025 LP  0  0  0  0  0  0  0  0  0  0  0  0  # atno 17321 bound_to 7965
  140.0330  144.6066  150.7472 LP  0  0  0  0  0  0  0  0  0  0  0  0  # atno 17342 bound_to 10162
  140.7358  143.2745  151.3783 LP  0  0  0  0  0  0  0  0  0  0  0  0  # atno 17343 bound_to 10162
  157.0869  130.5926  149.5431 LP  0  0  0  0  0  0  0  0  0  0  0  0  # atno 17370 bound_to 10713
  155.9985  130.5060  150.7575 LP  0  0  0  0  0  0  0  0  0  0  0  0  # atno 17371 bound_to 10713
  139.9371  135.0195  156.8590 LP  0  0  0  0  0  0  0  0  0  0  0  0  # atno 17394 bound_to 11000
  140.6008  134.0174  155.7536 LP  0  0  0  0  0  0  0  0  0  0  0  0  # atno 17395 bound_to 11000

$$$$
