AV-unprocessed.smi:2198|AV-procd|sdf|8918|dock5
  -GOLD-   2272012133D 1   1.00000     0.00000
 Structure written by MMmdl.
 43 44  0  0  0  0  0  0  0  0  1 V2000
  150.8730  142.4183  156.4862 C   0  0  0  0  0  0  0  0  0  0  0  0
  150.0111  141.6220  155.5305 C   0  0  0  0  0  0  0  0  0  0  0  0
  148.8794  142.2977  155.1050 N   0  0  0  0  0  0  0  0  0  0  0  0
  148.0200  141.6419  154.2410 C   0  0  0  0  0  0  0  0  0  0  0  0
  146.7964  142.4466  153.8384 C   0  0  0  0  0  0  0  0  0  0  0  0
  148.2819  140.3807  153.8128 C   0  0  0  0  0  0  0  0  0  0  0  0
  147.3569  139.6194  152.8659 C   0  0  0  0  0  0  0  0  0  0  0  0
  146.3999  138.6340  153.5382 C   0  0  0  0  0  0  0  0  0  0  0  0
  145.5771  139.0380  154.3593 O   0  0  0  0  0  0  0  0  0  0  0  0
  146.5198  137.3462  153.1820 N   0  0  0  0  0  0  0  0  0  0  0  0
  145.7077  136.2419  153.6885 C   0  0  1  0  0  0  0  0  0  0  0  0
  144.2032  136.5090  153.4731 C   0  0  0  0  0  0  0  0  0  0  0  0
  143.8123  136.4482  151.9867 C   0  0  0  0  0  0  0  0  0  0  0  0
  144.2345  135.1141  151.3514 C   0  0  0  0  0  0  0  0  0  0  0  0
  145.7427  134.8536  151.5286 C   0  0  2  0  0  0  0  0  0  0  0  0
  146.1583  133.5164  150.8999 C   0  0  0  0  0  0  0  0  0  0  0  0
  146.1334  134.9191  153.0205 C   0  0  0  0  0  0  0  0  0  0  0  0
  149.5189  139.7167  154.2873 C   0  0  0  0  0  0  0  0  0  0  0  0
  149.8239  138.5832  153.9189 O   0  0  0  0  0  0  0  0  0  0  0  0
  150.3491  140.4199  155.1753 N   0  0  0  0  0  0  0  0  0  0  0  0
  148.6464  143.2352  155.3993 H   0  0  0  0  0  0  0  0  0  0  0  0
  151.6560  141.7932  156.9176 H   0  0  0  0  0  0  0  0  0  0  0  0
  150.2707  142.8183  157.3028 H   0  0  0  0  0  0  0  0  0  0  0  0
  151.3482  143.2497  155.9648 H   0  0  0  0  0  0  0  0  0  0  0  0
  145.8844  141.9355  154.1477 H   0  0  0  0  0  0  0  0  0  0  0  0
  146.7673  142.5825  152.7572 H   0  0  0  0  0  0  0  0  0  0  0  0
  146.7965  143.4357  154.2981 H   0  0  0  0  0  0  0  0  0  0  0  0
  147.9693  139.0850  152.1386 H   0  0  0  0  0  0  0  0  0  0  0  0
  146.7654  140.3118  152.2660 H   0  0  0  0  0  0  0  0  0  0  0  0
  147.2262  137.1106  152.5003 H   0  0  0  0  0  0  0  0  0  0  0  0
  145.8932  136.1469  154.7601 H   0  0  0  0  0  0  0  0  0  0  0  0
  143.6273  135.7627  154.0219 H   0  0  0  0  0  0  0  0  0  0  0  0
  143.9218  137.4749  153.8946 H   0  0  0  0  0  0  0  0  0  0  0  0
  142.7355  136.5832  151.8824 H   0  0  0  0  0  0  0  0  0  0  0  0
  144.2782  137.2744  151.4484 H   0  0  0  0  0  0  0  0  0  0  0  0
  143.6637  134.3010  151.8019 H   0  0  0  0  0  0  0  0  0  0  0  0
  143.9789  135.1191  150.2912 H   0  0  0  0  0  0  0  0  0  0  0  0
  146.2827  135.6404  151.0002 H   0  0  0  0  0  0  0  0  0  0  0  0
  145.6535  132.6777  151.3805 H   0  0  0  0  0  0  0  0  0  0  0  0
  147.2327  133.3560  150.9932 H   0  0  0  0  0  0  0  0  0  0  0  0
  145.9122  133.4886  149.8380 H   0  0  0  0  0  0  0  0  0  0  0  0
  147.2089  134.7765  153.1341 H   0  0  0  0  0  0  0  0  0  0  0  0
  145.6626  134.0896  153.5501 H   0  0  0  0  0  0  0  0  0  0  0  0
  1 22  1  0  0  0  0
  1 23  1  0  0  0  0
  1 24  1  0  0  0  0
  1  2  1  0  0  0  0
  2  3  1  0  0  0  0
  2 20  2  0  0  0  0
  3  4  1  0  0  0  0
  3 21  1  0  0  0  0
  4  6  2  0  0  0  0
  4  5  1  0  0  0  0
  5 25  1  0  0  0  0
  5 26  1  0  0  0  0
  5 27  1  0  0  0  0
  6 18  1  0  0  0  0
  6  7  1  0  0  0  0
  7  8  1  0  0  0  0
  7 28  1  0  0  0  0
  7 29  1  0  0  0  0
  8  9  2  0  0  0  0
  8 10  1  0  0  0  0
 10 11  1  0  0  0  0
 10 30  1  0  0  0  0
 11 17  1  0  0  0  0
 11 12  1  0  0  0  0
 11 31  1  0  0  0  0
 12 13  1  0  0  0  0
 12 32  1  0  0  0  0
 12 33  1  0  0  0  0
 13 14  1  0  0  0  0
 13 34  1  0  0  0  0
 13 35  1  0  0  0  0
 14 15  1  0  0  0  0
 14 36  1  0  0  0  0
 14 37  1  0  0  0  0
 15 16  1  0  0  0  0
 15 17  1  0  0  0  0
 15 38  1  0  0  0  0
 16 39  1  0  0  0  0
 16 40  1  0  0  0  0
 16 41  1  0  0  0  0
 17 42  1  0  0  0  0
 17 43  1  0  0  0  0
 18 19  2  0  0  0  0
 18 20  1  0  0  0  0
M  END
> <s_m_source_file>
AV-unprocessed.smi

> <i_m_source_file_index>
2198

> <i_lp_mmshare_version>
43012

> <i_f3d_flags>
0

> <s_epik_input>
W0NIM11jMW5jKFtDSDNdKWMoYyg9TylbbkhdMSlbQ0gyXUMoPU8pW05IXVtDQEBIXTJbQ0gyXVtDSDJdW0NIMl1bQ0BASF0oW0NIM10pW0NIMl0y

> <s_epik_cmdline>
J2VwaWtfcHl0aG9uJywgJy1waCcsICc3LjAnLCAnLXRuJywgJzgnLCAnLW1hJywgJzIwMCcsICctbWV0YWxfYmluZGluZycsICctaW1hZScsICc8aW5maWxlLm1hZT4nLCAnLW9tYWUnLCAnPG91dGZpbGUubWFlPic=

> <r_lp_tautomer_probability>
0.156392

> <r_epik_Ionization_Penalty>
0.0136514

> <r_epik_Ionization_Penalty_Charging>
0.0135207

> <r_epik_Ionization_Penalty_Neutral>
0.000130657

> <r_epik_State_Penalty>
1.15342

> <r_epik_Charging_Adjusted_Penalty>
1.16694

> <i_epik_Tot_Q>
0

> <i_epik_Tot_abs_Q>
0

> <r_epik_Metal_State_Penalty>
1.31404

> <b_epik_Metal_Only>
0

> <s_lp_Force_Field>
OPLS_2005

> <r_lp_Energy>
13.6567

> <b_lp_Chiralities_Consistent>
1

> <s_lp_Variant>
AV-unprocessed.smi:2198-8

> <Gold.Version>
5.8.1

> <Gold.Id.Protein>
6NUR|6NUR_protein|mol2

> <Gold.PLP.Fitness>
39.3395

> <Gold.PLP.PLP>
-32.6625

> <Gold.PLP.part.hbond>
-3.0000

> <Gold.PLP.part.metal>
0.0000

> <Gold.PLP.part.buried>
-1.6534

> <Gold.PLP.part.nonpolar>
-28.1472

> <Gold.PLP.part.repulsive>
1.0953

> <Gold.PLP.ligand.clash>
0.0000

> <Gold.PLP.ligand.torsion>
0.3230

> <Gold.PLP.Chemscore.Hbond>
2.4388

> <Gold.PLP.Chemscore.CHOScore>
0.0000

> <Gold.PLP.Chemscore.Metal>
0.0000

> <Gold.Chemscore.Hbonds>
donor molecule, donor type, donor heavy atom, donor atom, acceptor molecule, acceptor atom, score
      L1  H     3    21       P1  8028  0.96
      L1  H    10    30       P1  7948  1.00
      P1  H  7989  7998       L1    20  0.26

> <Gold.PLP.Chemscore.Internal.Correction>
0.0068

> <Gold.Rescore>
     Score         DG    S(hbond)    S(metal)    S(lipo)     H(rot)  DE(clash)    DE(int)     intcor
     13.68     -15.03       1.93        0.00      58.87       1.48       0.11       1.23       ----

> <Gold.Chemscore.Fitness>
13.6847

> <Gold.Chemscore.DG>
-15.0263

> <Gold.Chemscore.ZeroCoef>
-5.4800

> <Gold.Chemscore.Hbond>
1.9305

> <Gold.Chemscore.Metal>
0.0000

> <Gold.Chemscore.Lipo>
58.8672

> <Gold.Chemscore.Internal_Hbond>
0.0000

> <Gold.Chemscore.DEClash>
0.1103

> <Gold.Chemscore.DEInternal>
1.2313

> <Gold.Chemscore.Rot>
1.4801

> <Gold.Chemscore.Internal.Correction>
   9.000000E+99

> <Gold.Chemscore.Hbonds>
donor molecule, donor type, donor heavy atom, donor atom, acceptor molecule, acceptor atom, score
      L1  H     3    21       P1  8028  0.90
      L1  H    10    30       P1  7948  0.92

> <Gold.Chemscore.Hbond.Weighted>
-6.4479

> <Gold.Chemscore.Metal.Weighted>
-0.0000

> <Gold.Chemscore.Lipo.Weighted>
-6.8875

> <Gold.Chemscore.Internal_Hbond.Weighted>
0.0000

> <Gold.Chemscore.DEClash.Weighted>
0.1103

> <Gold.Chemscore.DEInternal.Weighted>
1.2313

> <Gold.Chemscore.Rot.Weighted>
3.7891

> <Gold.Chemscore.Internal.Correction.Weighted>
   9.000000E+99

> <Gold.Protein.RotatedTorsions>
[ 6907 6896 6895 6894 ] final -125.71 input  -60.11 | X-H torsion
[ 7974 7965 7964 7962 ] final    3.06 input  175.53 | X-H torsion
[ 8008 7997 7996 7995 ] final   82.54 input   59.86 | X-H torsion
[ 10167 10162 10161 10158 ] final  155.52 input  -65.29 | X-H torsion
[ 10718 10713 10712 10709 ] final -145.49 input   66.30 | X-H torsion
[ 10763 10752 10751 10750 ] final   15.50 input  -60.55 | X-H torsion
[ 11005 11000 10999 10996 ] final -165.31 input  -57.11 | X-H torsion

> <Gold.Protein.ActiveResidues>
 VAL166  LYS551  ARG553  GLY616  TRP617  ASP618  TYR619  PRO620  LYS621  CYS622 
 ASP623  PHE694  ASN695  SER759  ASP760  ASP761  ALA762  ILE779  LEU786  VAL792 
 PHE793  MET794  SER795  GLU796  ALA797  LYS798  CYS799  TRP800  GLU811  SER814 

> <Gold.Protein.RotatedAtoms>
  150.8895  133.7262  159.2908 H   0  0  0  0  0  0  0  0  0  0  0  0  # atno 6907 bound_to 6896
  151.4817  135.1051  159.9789 H   0  0  0  0  0  0  0  0  0  0  0  0  # atno 6908 bound_to 6896
  152.4811  133.8210  159.7109 H   0  0  0  0  0  0  0  0  0  0  0  0  # atno 6909 bound_to 6896
  146.2445  140.0742  142.8360 H   0  0  0  0  0  0  0  0  0  0  0  0  # atno 7974 bound_to 7965
  155.9120  140.3427  155.6106 H   0  0  0  0  0  0  0  0  0  0  0  0  # atno 8008 bound_to 7997
  155.7376  140.0803  157.2279 H   0  0  0  0  0  0  0  0  0  0  0  0  # atno 8009 bound_to 7997
  154.4057  140.1576  156.2567 H   0  0  0  0  0  0  0  0  0  0  0  0  # atno 8010 bound_to 7997
  139.4821  144.5091  151.8052 H   0  0  0  0  0  0  0  0  0  0  0  0  # atno 10167 bound_to 10162
  156.3831  130.7847  151.2041 H   0  0  0  0  0  0  0  0  0  0  0  0  # atno 10718 bound_to 10713
  153.1519  135.6780  153.8869 H   0  0  0  0  0  0  0  0  0  0  0  0  # atno 10763 bound_to 10752
  153.8293  135.3120  155.3418 H   0  0  0  0  0  0  0  0  0  0  0  0  # atno 10764 bound_to 10752
  154.7869  135.4857  154.0052 H   0  0  0  0  0  0  0  0  0  0  0  0  # atno 10765 bound_to 10752
  140.5772  134.5178  157.5172 H   0  0  0  0  0  0  0  0  0  0  0  0  # atno 11005 bound_to 11000
  145.0789  140.9207  143.4837 LP  0  0  0  0  0  0  0  0  0  0  0  0  # atno 17320 bound_to 7965
  145.0891  139.2903  143.5744 LP  0  0  0  0  0  0  0  0  0  0  0  0  # atno 17321 bound_to 7965
  140.4592  144.1746  150.5904 LP  0  0  0  0  0  0  0  0  0  0  0  0  # atno 17342 bound_to 10162
  140.4503  143.2489  151.9357 LP  0  0  0  0  0  0  0  0  0  0  0  0  # atno 17343 bound_to 10162
  157.7494  131.0338  150.4289 LP  0  0  0  0  0  0  0  0  0  0  0  0  # atno 17370 bound_to 10713
  156.4536  130.4017  149.6620 LP  0  0  0  0  0  0  0  0  0  0  0  0  # atno 17371 bound_to 10713
  139.9334  134.7921  156.0868 LP  0  0  0  0  0  0  0  0  0  0  0  0  # atno 17394 bound_to 11000
  141.1019  133.6674  156.2774 LP  0  0  0  0  0  0  0  0  0  0  0  0  # atno 17395 bound_to 11000

$$$$
