#       Name:                AV-unprocessed.smi:2912
#       Creating user name   scv26
#       Creation time:       Fri Mar 27 16:07:28 2020


#       File generated by GOLD software.
#

@<TRIPOS>MOLECULE
AV-unprocessed.smi:2912
    34    35     1
SMALL
NO_CHARGES


@<TRIPOS>ATOM
      1 ****        -1.5558   2.8575  -0.0583 C.3            1 S1                 0.0000
      2 ****        -1.3895   1.6384   0.7030 N.pl3          1 S1                 0.0000
      3 ****        -1.7615   0.3556   0.3654 C.2            1 S1                 0.0000
      4 ****        -1.3860  -0.4646   1.3921 C.2            1 S1                 0.0000
      5 ****        -1.5272  -1.9612   1.5001 C.3            1 S1                 0.0000
      6 ****        -0.1836  -2.7054   1.3645 C.3            1 S1                 0.0000
      7 ****         0.5257  -2.3298   0.1433 N.am           1 S1                 0.0000
      8 ****         1.5325  -1.4427   0.0671 C.2            1 S1                 0.0000
      9 ****         2.0535  -0.9392   1.0635 O.2            1 S1                 0.0000
     10 ****         1.9992  -1.0558  -1.3460 C.3            1 S1                 0.0000
     11 ****         3.2453   0.2570  -1.3371 S.3            1 S1                 0.0000
     12 ****         1.9839   1.5501  -1.4245 C.3            1 S1                 0.0000
     13 ****         0.9664   1.1613  -2.5047 C.3            1 S1                 0.0000
     14 ****         0.5960  -0.6170  -2.4117 S.3            1 S1                 0.0000
     15 ****        -0.7949   0.4304   2.3293 C.2            1 S1                 0.0000
     16 ****        -0.7958   1.6863   1.9128 N.2            1 S1                 0.0000
     17 ****        -2.1007   2.6514  -0.9798 H              1 S1                 0.0000
     18 ****        -0.5787   3.2713  -0.3090 H              1 S1                 0.0000
     19 ****        -2.1144   3.5870   0.5287 H              1 S1                 0.0000
     20 ****        -2.2442   0.1312  -0.5744 H              1 S1                 0.0000
     21 ****        -1.9866  -2.2334   2.4508 H              1 S1                 0.0000
     22 ****        -2.2087  -2.3303   0.7329 H              1 S1                 0.0000
     23 ****         0.4341  -2.5162   2.2438 H              1 S1                 0.0000
     24 ****        -0.3591  -3.7812   1.3459 H              1 S1                 0.0000
     25 ****         0.1648  -2.7033  -0.7228 H              1 S1                 0.0000
     26 ****         2.4707  -1.9425  -1.7699 H              1 S1                 0.0000
     27 ****         1.4913   1.6188  -0.4540 H              1 S1                 0.0000
     28 ****         2.4398   2.5185  -1.6299 H              1 S1                 0.0000
     29 ****         0.0493   1.7441  -2.4212 H              1 S1                 0.0000
     30 ****         1.3882   1.3618  -3.4897 H              1 S1                 0.0000
     31 ****        -0.3537   0.2023   3.2883 H              1 S1                 0.0000
     32 ****         1.7292  -1.1869   1.9765 LP             1 S1                 0.0000
     33 ****         2.8007  -0.2829   0.9594 LP             1 S1                 0.0000
     34 ****        -0.4371   2.4897   2.3880 LP             1 S1                 0.0000
@<TRIPOS>BOND
    1    1    2 1     
    2    1   17 1     
    3    1   18 1     
    4    1   19 1     
    5    2   16 1     
    6    2    3 1     
    7    3    4 2     
    8    3   20 1     
    9    4    5 1     
   10    4   15 1     
   11    5    6 1     
   12    5   21 1     
   13    5   22 1     
   14    6    7 1     
   15    6   23 1     
   16    6   24 1     
   17    7    8 am    
   18    7   25 1     
   19    8    9 2     
   20    8   10 1     
   21   10   14 1     
   22   10   11 1     
   23   10   26 1     
   24   11   12 1     
   25   12   13 1     
   26   12   27 1     
   27   12   28 1     
   28   13   14 1     
   29   13   29 1     
   30   13   30 1     
   31   15   16 2     
   32   15   31 1     
   33    9   32 1     
   34    9   33 1     
   35   16   34 1     
@<TRIPOS>SUBSTRUCTURE
      1 S1             1
@<TRIPOS>SET
LONE_PAIRS      STATIC     ATOMS    <user>   **** ""
3 32 33 34
DONOR_HYDROGENS      STATIC     ATOMS    <user>   **** ""
1 25
ATOM$BLUE        STATIC     ATOMS    COLORGROUP SYSTEM
3 32 33 34
ATOM$RED        STATIC     ATOMS    COLORGROUP SYSTEM
1 25
