AV-unprocessed.smi:3308|AV-procd|sdf|12710|dock2
  -GOLD-   2272019 43D 1   1.00000     0.00000
 Structure written by MMmdl.
 41 42  0  0  0  0  0  0  0  0  2 V2000
  148.2498  141.7921  157.3380 C   0  0  0  0  0  0  0  0  0  0  0  0
  149.5237  141.1972  156.7182 C   0  0  2  0  0  0  0  0  0  0  0  0
  150.5041  142.2737  156.4473 N   0  3  0  0  0  0  0  0  0  0  0  0
  151.1744  142.8244  157.6450 C   0  0  0  0  0  0  0  0  0  0  0  0
  152.2878  141.9046  158.1648 C   0  0  0  0  0  0  0  0  0  0  0  0
  152.6234  140.9199  157.5047 O   0  0  0  0  0  0  0  0  0  0  0  0
  152.8644  142.2089  159.3455 N   0  0  0  0  0  0  0  0  0  0  0  0
  152.4779  143.3574  160.1627 C   0  0  0  0  0  0  0  0  0  0  0  0
  153.1728  143.1587  161.5098 C   0  0  0  0  0  0  0  0  0  0  0  0
  154.3863  142.3002  161.1810 C   0  0  0  0  0  0  0  0  0  0  0  0
  153.9373  141.4520  159.9903 C   0  0  0  0  0  0  0  0  0  0  0  0
  149.2394  140.3505  155.4497 C   0  0  1  0  0  0  0  0  0  0  0  0
  148.7065  141.1663  154.2522 C   0  0  0  0  0  0  0  0  0  0  0  0
  150.3969  139.5403  155.0835 N   0  0  0  0  0  0  0  0  0  0  0  0
  150.4526  138.1722  154.9121 C   0  0  0  0  0  0  0  0  0  0  0  0
  151.7465  137.8466  154.6222 C   0  0  0  0  0  0  0  0  0  0  0  0
  152.4244  139.0966  154.6507 C   0  0  0  0  0  0  0  0  0  0  0  0
  151.6181  140.1055  154.9368 N   0  0  0  0  0  0  0  0  0  0  0  0
  147.5094  141.0165  157.5360 H   0  0  0  0  0  0  0  0  0  0  0  0
  147.7894  142.5359  156.6876 H   0  0  0  0  0  0  0  0  0  0  0  0
  148.4713  142.2813  158.2871 H   0  0  0  0  0  0  0  0  0  0  0  0
  149.9426  140.5271  157.4714 H   0  0  0  0  0  0  0  0  0  0  0  0
  151.2136  141.9048  155.8294 H   0  0  0  0  0  0  0  0  0  0  0  0
  151.5890  143.8022  157.3972 H   0  0  0  0  0  0  0  0  0  0  0  0
  150.4396  142.9668  158.4381 H   0  0  0  0  0  0  0  0  0  0  0  0
  152.8303  144.2706  159.6805 H   0  0  0  0  0  0  0  0  0  0  0  0
  151.3960  143.4331  160.2831 H   0  0  0  0  0  0  0  0  0  0  0  0
  153.4383  144.0998  161.9922 H   0  0  0  0  0  0  0  0  0  0  0  0
  152.5124  142.6124  162.1847 H   0  0  0  0  0  0  0  0  0  0  0  0
  155.2157  142.9422  160.8811 H   0  0  0  0  0  0  0  0  0  0  0  0
  154.7195  141.6981  162.0266 H   0  0  0  0  0  0  0  0  0  0  0  0
  153.5435  140.4942  160.3331 H   0  0  0  0  0  0  0  0  0  0  0  0
  154.7714  141.2572  159.3148 H   0  0  0  0  0  0  0  0  0  0  0  0
  148.4524  139.6409  155.7099 H   0  0  0  0  0  0  0  0  0  0  0  0
  147.7505  141.6361  154.4819 H   0  0  0  0  0  0  0  0  0  0  0  0
  148.5452  140.5227  153.3866 H   0  0  0  0  0  0  0  0  0  0  0  0
  149.3979  141.9540  153.9515 H   0  0  0  0  0  0  0  0  0  0  0  0
  149.5757  137.5492  155.0096 H   0  0  0  0  0  0  0  0  0  0  0  0
  152.1484  136.8642  154.4231 H   0  0  0  0  0  0  0  0  0  0  0  0
  153.4712  139.2986  154.4791 H   0  0  0  0  0  0  0  0  0  0  0  0
  150.0339  143.0317  155.9736 H   0  0  0  0  0  0  0  0  0  0  0  0
  1  2  1  0  0  0  0
  1 19  1  0  0  0  0
  1 20  1  0  0  0  0
  1 21  1  0  0  0  0
  2  3  1  0  0  0  0
  2 12  1  0  0  0  0
  2 22  1  0  0  0  0
  3  4  1  0  0  0  0
  3 23  1  0  0  0  0
  3 41  1  0  0  0  0
  4  5  1  0  0  0  0
  4 24  1  0  0  0  0
  4 25  1  0  0  0  0
  5  6  2  0  0  0  0
  5  7  1  0  0  0  0
  7 11  1  0  0  0  0
  7  8  1  0  0  0  0
  8  9  1  0  0  0  0
  8 26  1  0  0  0  0
  8 27  1  0  0  0  0
  9 10  1  0  0  0  0
  9 28  1  0  0  0  0
  9 29  1  0  0  0  0
 10 11  1  0  0  0  0
 10 30  1  0  0  0  0
 10 31  1  0  0  0  0
 11 32  1  0  0  0  0
 11 33  1  0  0  0  0
 12 13  1  0  0  0  0
 12 14  1  0  0  0  0
 12 34  1  0  0  0  0
 13 35  1  0  0  0  0
 13 36  1  0  0  0  0
 13 37  1  0  0  0  0
 14 18  1  0  0  0  0
 14 15  1  0  0  0  0
 15 16  2  0  0  0  0
 15 38  1  0  0  0  0
 16 17  1  0  0  0  0
 16 39  1  0  0  0  0
 17 18  2  0  0  0  0
 17 40  1  0  0  0  0
M  CHG  1   3   1
M  END
> <s_m_source_file>
AV-unprocessed.smi

> <i_m_source_file_index>
3308

> <i_lp_mmshare_version>
43012

> <i_f3d_flags>
0

> <s_epik_input>
bjFbY0hdW2NIXVtjSF1uMVtDQEBIXShbQ0gzXSlbQ0BIXShbQ0gzXSlbTkhdW0NIMl1DKD1PKU4yW0NIMl1bQ0gyXVtDSDJdW0NIMl0y

> <s_epik_cmdline>
J2VwaWtfcHl0aG9uJywgJy1waCcsICc3LjAnLCAnLXRuJywgJzgnLCAnLW1hJywgJzIwMCcsICctbWV0YWxfYmluZGluZycsICctaW1hZScsICc8aW5maWxlLm1hZT4nLCAnLW9tYWUnLCAnPG91dGZpbGUubWFlPic=

> <r_lp_tautomer_probability>
1

> <r_epik_Ionization_Penalty>
0.141739

> <r_epik_Ionization_Penalty_Charging>
0.141731

> <r_epik_Ionization_Penalty_Neutral>
8.82171e-06

> <r_epik_State_Penalty>
0.131043

> <r_epik_Charging_Adjusted_Penalty>
0.272773

> <i_epik_Tot_Q>
1

> <i_epik_Tot_abs_Q>
1

> <r_epik_Metal_State_Penalty>
0.131385

> <b_epik_Metal_Only>
0

> <s_lp_Force_Field>
OPLS_2005

> <r_lp_Energy>
34.1001

> <b_lp_Chiralities_Consistent>
1

> <s_lp_Variant>
AV-unprocessed.smi:3308-3

> <Gold.Version>
5.8.1

> <Gold.Id.Protein>
6NUR|6NUR_protein|mol2

> <Gold.PLP.Fitness>
50.6272

> <Gold.PLP.PLP>
-42.4747

> <Gold.PLP.part.hbond>
-2.3938

> <Gold.PLP.part.metal>
0.0000

> <Gold.PLP.part.buried>
-2.6168

> <Gold.PLP.part.nonpolar>
-36.8055

> <Gold.PLP.part.repulsive>
0.1211

> <Gold.PLP.ligand.clash>
0.0000

> <Gold.PLP.ligand.torsion>
0.5811

> <Gold.PLP.Chemscore.Hbond>
3.0478

> <Gold.PLP.Chemscore.CHOScore>
0.0000

> <Gold.PLP.Chemscore.Metal>
0.0000

> <Gold.Chemscore.Hbonds>
donor molecule, donor type, donor heavy atom, donor atom, acceptor molecule, acceptor atom, score
      L1  H     3    41       P1  8028  1.82
      P1  H  7989  7998       L1    18  0.95
      P1  H  7997  8010       L1     6  0.43

> <Gold.PLP.Chemscore.Internal.Correction>
0.1712

> <Gold.Rescore>
     Score         DG    S(hbond)    S(metal)    S(lipo)     H(rot)  DE(clash)    DE(int)     intcor
     13.29     -16.78       1.47        0.00      93.73       1.78       0.17       3.33       ----

> <Gold.Chemscore.Fitness>
13.2852

> <Gold.Chemscore.DG>
-16.7828

> <Gold.Chemscore.ZeroCoef>
-5.4800

> <Gold.Chemscore.Hbond>
1.4677

> <Gold.Chemscore.Metal>
0.0000

> <Gold.Chemscore.Lipo>
93.7332

> <Gold.Chemscore.Internal_Hbond>
0.0000

> <Gold.Chemscore.DEClash>
0.1722

> <Gold.Chemscore.DEInternal>
3.3255

> <Gold.Chemscore.Rot>
1.7836

> <Gold.Chemscore.Internal.Correction>
   9.000000E+99

> <Gold.Chemscore.Hbonds>
donor molecule, donor type, donor heavy atom, donor atom, acceptor molecule, acceptor atom, score
      L1  H     3    41       P1  8028  0.88
      P1  H  7989  7998       L1    18  0.13
      P1  H  7997  8010       L1     6  0.43

> <Gold.Chemscore.Hbond.Weighted>
-4.9020

> <Gold.Chemscore.Metal.Weighted>
-0.0000

> <Gold.Chemscore.Lipo.Weighted>
-10.9668

> <Gold.Chemscore.Internal_Hbond.Weighted>
0.0000

> <Gold.Chemscore.DEClash.Weighted>
0.1722

> <Gold.Chemscore.DEInternal.Weighted>
3.3255

> <Gold.Chemscore.Rot.Weighted>
4.5660

> <Gold.Chemscore.Internal.Correction.Weighted>
   9.000000E+99

> <Gold.Protein.RotatedTorsions>
[ 6907 6896 6895 6894 ] final    0.07 input  -60.11 | X-H torsion
[ 7974 7965 7964 7962 ] final    0.51 input  175.53 | X-H torsion
[ 8008 7997 7996 7995 ] final   43.54 input   59.86 | X-H torsion
[ 10167 10162 10161 10158 ] final   39.83 input  -65.29 | X-H torsion
[ 10718 10713 10712 10709 ] final   96.19 input   66.30 | X-H torsion
[ 10763 10752 10751 10750 ] final   76.30 input  -60.55 | X-H torsion
[ 11005 11000 10999 10996 ] final -176.81 input  -57.11 | X-H torsion

> <Gold.Protein.ActiveResidues>
 VAL166  LYS551  ARG553  GLY616  TRP617  ASP618  TYR619  PRO620  LYS621  CYS622 
 ASP623  PHE694  ASN695  SER759  ASP760  ASP761  ALA762  ILE779  LEU786  VAL792 
 PHE793  MET794  SER795  GLU796  ALA797  LYS798  CYS799  TRP800  GLU811  SER814 

> <Gold.Protein.RotatedAtoms>
  151.5705  135.1062  159.9993 H   0  0  0  0  0  0  0  0  0  0  0  0  # atno 6907 bound_to 6896
  152.4403  133.7431  159.6663 H   0  0  0  0  0  0  0  0  0  0  0  0  # atno 6908 bound_to 6896
  150.8307  133.8027  159.3123 H   0  0  0  0  0  0  0  0  0  0  0  0  # atno 6909 bound_to 6896
  146.2435  140.1126  142.8343 H   0  0  0  0  0  0  0  0  0  0  0  0  # atno 7974 bound_to 7965
  155.3044  140.3387  155.4246 H   0  0  0  0  0  0  0  0  0  0  0  0  # atno 8008 bound_to 7997
  156.1986  140.1724  156.7986 H   0  0  0  0  0  0  0  0  0  0  0  0  # atno 8009 bound_to 7997
  154.5530  140.0702  156.8681 H   0  0  0  0  0  0  0  0  0  0  0  0  # atno 8010 bound_to 7997
  140.3801  144.1991  150.6131 H   0  0  0  0  0  0  0  0  0  0  0  0  # atno 10167 bound_to 10162
  157.6930  131.0570  150.4454 H   0  0  0  0  0  0  0  0  0  0  0  0  # atno 10718 bound_to 10713
  153.0716  135.4956  154.8316 H   0  0  0  0  0  0  0  0  0  0  0  0  # atno 10763 bound_to 10752
  154.7030  135.3005  154.9315 H   0  0  0  0  0  0  0  0  0  0  0  0  # atno 10764 bound_to 10752
  154.0033  135.6763  153.4813 H   0  0  0  0  0  0  0  0  0  0  0  0  # atno 10765 bound_to 10752
  140.4480  134.6370  157.4788 H   0  0  0  0  0  0  0  0  0  0  0  0  # atno 11005 bound_to 11000
  145.0474  140.8992  143.5016 LP  0  0  0  0  0  0  0  0  0  0  0  0  # atno 17320 bound_to 7965
  145.1218  139.2689  143.5585 LP  0  0  0  0  0  0  0  0  0  0  0  0  # atno 17321 bound_to 7965
  140.4946  143.2336  151.8768 LP  0  0  0  0  0  0  0  0  0  0  0  0  # atno 17342 bound_to 10162
  139.4796  144.5128  151.8909 LP  0  0  0  0  0  0  0  0  0  0  0  0  # atno 17343 bound_to 10162
  156.4809  130.4073  149.6462 LP  0  0  0  0  0  0  0  0  0  0  0  0  # atno 17370 bound_to 10713
  156.3508  130.7431  151.2390 LP  0  0  0  0  0  0  0  0  0  0  0  0  # atno 17371 bound_to 10713
  140.0026  134.6813  155.9506 LP  0  0  0  0  0  0  0  0  0  0  0  0  # atno 17394 bound_to 11000
  141.1677  133.6537  156.4537 LP  0  0  0  0  0  0  0  0  0  0  0  0  # atno 17395 bound_to 11000

$$$$
