AV-unprocessed.smi:2780|AV-procd|sdf|10716|dock1
  -GOLD-   2272015153D 1   1.00000     0.00000
 Structure written by MMmdl.
 47 49  0  0  0  0  0  0  0  0  2 V2000
  152.1318  138.7450  154.7040 C   0  0  0  0  0  0  0  0  0  0  0  0
  151.1081  139.7379  155.2280 C   0  0  0  0  0  0  0  0  0  0  0  0
  151.3112  140.4089  156.3788 C   0  0  0  0  0  0  0  0  0  0  0  0
  150.3641  141.4466  156.9521 C   0  0  0  0  0  0  0  0  0  0  0  0
  149.0228  141.5102  156.2046 C   0  0  0  0  0  0  0  0  0  0  0  0
  149.2130  141.3315  154.6875 C   0  0  2  0  0  0  0  0  0  0  0  0
  147.9229  141.6474  153.9117 C   0  0  0  0  0  0  0  0  0  0  0  0
  149.8688  139.9560  154.3553 C   0  0  2  0  0  0  0  0  0  0  0  0
  148.9150  138.7396  154.4747 C   0  0  0  0  0  0  0  0  0  0  0  0
  148.2091  138.4521  153.2099 N   0  3  0  0  0  0  0  0  0  0  0  0
  146.7644  138.2012  153.3691 C   0  0  0  0  0  0  0  0  0  0  0  0
  146.1557  137.6597  152.0687 C   0  0  0  0  0  0  0  0  0  0  0  0
  145.0381  136.7715  152.3305 N   0  0  0  0  0  0  0  0  0  0  0  0
  143.8880  137.0429  152.9661 C   0  0  0  0  0  0  0  0  0  0  0  0
  143.0301  136.0264  153.0377 N   0  0  0  0  0  0  0  0  0  0  0  0
  143.6687  134.9866  152.3920 N   0  0  0  0  0  0  0  0  0  0  0  0
  144.8544  135.4740  152.0086 C   0  0  0  0  0  0  0  0  0  0  0  0
  145.8646  134.6829  151.2391 C   0  0  0  0  0  0  0  0  0  0  0  0
  145.5375  133.3039  150.7099 C   0  0  0  0  0  0  0  0  0  0  0  0
  146.5247  133.4593  151.8367 C   0  0  0  0  0  0  0  0  0  0  0  0
  152.4688  139.0388  153.7097 H   0  0  0  0  0  0  0  0  0  0  0  0
  151.7163  137.7400  154.6422 H   0  0  0  0  0  0  0  0  0  0  0  0
  153.0075  138.6998  155.3525 H   0  0  0  0  0  0  0  0  0  0  0  0
  152.2154  140.2375  156.9449 H   0  0  0  0  0  0  0  0  0  0  0  0
  150.1955  141.2408  158.0095 H   0  0  0  0  0  0  0  0  0  0  0  0
  150.8648  142.4135  156.8950 H   0  0  0  0  0  0  0  0  0  0  0  0
  148.3528  140.7408  156.5885 H   0  0  0  0  0  0  0  0  0  0  0  0
  148.5382  142.4633  156.4195 H   0  0  0  0  0  0  0  0  0  0  0  0
  149.9300  142.0935  154.3759 H   0  0  0  0  0  0  0  0  0  0  0  0
  147.0901  141.0245  154.2387 H   0  0  0  0  0  0  0  0  0  0  0  0
  148.0601  141.5045  152.8396 H   0  0  0  0  0  0  0  0  0  0  0  0
  147.6254  142.6852  154.0645 H   0  0  0  0  0  0  0  0  0  0  0  0
  150.2262  140.0059  153.3254 H   0  0  0  0  0  0  0  0  0  0  0  0
  149.4679  137.8384  154.7369 H   0  0  0  0  0  0  0  0  0  0  0  0
  148.1922  138.8960  155.2754 H   0  0  0  0  0  0  0  0  0  0  0  0
  148.3274  139.2455  152.5959 H   0  0  0  0  0  0  0  0  0  0  0  0
  146.6073  137.4914  154.1822 H   0  0  0  0  0  0  0  0  0  0  0  0
  146.2733  139.1323  153.6541 H   0  0  0  0  0  0  0  0  0  0  0  0
  145.8147  138.4765  151.4329 H   0  0  0  0  0  0  0  0  0  0  0  0
  146.9072  137.1124  151.4981 H   0  0  0  0  0  0  0  0  0  0  0  0
  143.6668  138.0151  153.3818 H   0  0  0  0  0  0  0  0  0  0  0  0
  146.4670  135.3353  150.6103 H   0  0  0  0  0  0  0  0  0  0  0  0
  144.5634  132.8829  150.9527 H   0  0  0  0  0  0  0  0  0  0  0  0
  145.9299  133.0363  149.7310 H   0  0  0  0  0  0  0  0  0  0  0  0
  147.5767  133.2973  151.6115 H   0  0  0  0  0  0  0  0  0  0  0  0
  146.2042  133.1389  152.8263 H   0  0  0  0  0  0  0  0  0  0  0  0
  148.6357  137.6443  152.7790 H   0  0  0  0  0  0  0  0  0  0  0  0
  1  2  1  0  0  0  0
  1 21  1  0  0  0  0
  1 22  1  0  0  0  0
  1 23  1  0  0  0  0
  2  8  1  0  0  0  0
  2  3  2  0  0  0  0
  3  4  1  0  0  0  0
  3 24  1  0  0  0  0
  4  5  1  0  0  0  0
  4 25  1  0  0  0  0
  4 26  1  0  0  0  0
  5  6  1  0  0  0  0
  5 27  1  0  0  0  0
  5 28  1  0  0  0  0
  6  7  1  0  0  0  0
  6  8  1  0  0  0  0
  6 29  1  0  0  0  0
  7 30  1  0  0  0  0
  7 31  1  0  0  0  0
  7 32  1  0  0  0  0
  8  9  1  0  0  0  0
  8 33  1  0  0  0  0
  9 10  1  0  0  0  0
  9 34  1  0  0  0  0
  9 35  1  0  0  0  0
 10 11  1  0  0  0  0
 10 36  1  0  0  0  0
 10 47  1  0  0  0  0
 11 12  1  0  0  0  0
 11 37  1  0  0  0  0
 11 38  1  0  0  0  0
 12 13  1  0  0  0  0
 12 39  1  0  0  0  0
 12 40  1  0  0  0  0
 13 17  1  0  0  0  0
 13 14  1  0  0  0  0
 14 15  2  0  0  0  0
 14 41  1  0  0  0  0
 15 16  1  0  0  0  0
 16 17  2  0  0  0  0
 17 18  1  0  0  0  0
 18 20  1  0  0  0  0
 18 19  1  0  0  0  0
 18 42  1  0  0  0  0
 19 20  1  0  0  0  0
 19 43  1  0  0  0  0
 19 44  1  0  0  0  0
 20 45  1  0  0  0  0
 20 46  1  0  0  0  0
M  CHG  1  10   1
M  END
> <s_m_source_file>
AV-unprocessed.smi

> <i_m_source_file_index>
2780

> <i_lp_mmshare_version>
43012

> <i_f3d_flags>
0

> <s_epik_input>
W0NIM11DMT1bQ0hdW0NIMl1bQ0gyXVtDQEBIXShbQ0gzXSlbQ0BIXTFbQ0gyXVtOSF1bQ0gyXVtDSDJdbjJbY0hdbm5jMltDSF0zW0NIMl1bQ0gyXTM=

> <s_epik_cmdline>
J2VwaWtfcHl0aG9uJywgJy1waCcsICc3LjAnLCAnLXRuJywgJzgnLCAnLW1hJywgJzIwMCcsICctbWV0YWxfYmluZGluZycsICctaW1hZScsICc8aW5maWxlLm1hZT4nLCAnLW9tYWUnLCAnPG91dGZpbGUubWFlPic=

> <r_lp_tautomer_probability>
1

> <r_epik_Ionization_Penalty>
0.00176214

> <r_epik_Ionization_Penalty_Charging>
0.00175191

> <r_epik_Ionization_Penalty_Neutral>
1.02377e-05

> <r_epik_State_Penalty>
-0

> <r_epik_Charging_Adjusted_Penalty>
0.00175191

> <i_epik_Tot_Q>
1

> <i_epik_Tot_abs_Q>
1

> <r_epik_Metal_State_Penalty>
-0

> <b_epik_Metal_Only>
0

> <s_lp_Force_Field>
OPLS_2005

> <r_lp_Energy>
23.8201

> <b_lp_Chiralities_Consistent>
1

> <s_lp_Variant>
AV-unprocessed.smi:2780-4

> <Gold.Version>
5.8.1

> <Gold.Id.Protein>
6NUR|6NUR_protein|mol2

> <Gold.PLP.Fitness>
50.4545

> <Gold.PLP.PLP>
-40.5712

> <Gold.PLP.part.hbond>
-2.0000

> <Gold.PLP.part.metal>
0.0000

> <Gold.PLP.part.buried>
-1.0197

> <Gold.PLP.part.nonpolar>
-37.3563

> <Gold.PLP.part.repulsive>
0.3522

> <Gold.PLP.ligand.clash>
0.0000

> <Gold.PLP.ligand.torsion>
1.0404

> <Gold.PLP.Chemscore.Hbond>
2.8640

> <Gold.PLP.Chemscore.CHOScore>
1.0000

> <Gold.PLP.Chemscore.Metal>
0.0000

> <Gold.Chemscore.Hbonds>
donor molecule, donor type, donor heavy atom, donor atom, acceptor molecule, acceptor atom, score
      L1  H    10    36       P1  7957  0.77
      L1  H    10    47       P1  7948  2.00
      L1  C    14    41       P1 10175  0.86

> <Gold.PLP.Chemscore.Internal.Correction>
0.3720

> <Gold.Rescore>
     Score         DG    S(hbond)    S(metal)    S(lipo)     H(rot)  DE(clash)    DE(int)     intcor
     15.85     -16.83       1.75        0.00      90.27       1.98       0.11       0.86       ----

> <Gold.Chemscore.Fitness>
15.8523

> <Gold.Chemscore.DG>
-16.8268

> <Gold.Chemscore.ZeroCoef>
-5.4800

> <Gold.Chemscore.Hbond>
1.7526

> <Gold.Chemscore.Metal>
0.0000

> <Gold.Chemscore.Lipo>
90.2702

> <Gold.Chemscore.Internal_Hbond>
0.0000

> <Gold.Chemscore.DEClash>
0.1122

> <Gold.Chemscore.DEInternal>
0.8622

> <Gold.Chemscore.Rot>
1.9799

> <Gold.Chemscore.Internal.Correction>
   9.000000E+99

> <Gold.Chemscore.Hbonds>
donor molecule, donor type, donor heavy atom, donor atom, acceptor molecule, acceptor atom, score
      L1  H    10    36       P1  7957  0.72
      L1  H    10    47       P1  7948  1.00

> <Gold.Chemscore.Hbond.Weighted>
-5.8537

> <Gold.Chemscore.Metal.Weighted>
-0.0000

> <Gold.Chemscore.Lipo.Weighted>
-10.5616

> <Gold.Chemscore.Internal_Hbond.Weighted>
0.0000

> <Gold.Chemscore.DEClash.Weighted>
0.1122

> <Gold.Chemscore.DEInternal.Weighted>
0.8622

> <Gold.Chemscore.Rot.Weighted>
5.0685

> <Gold.Chemscore.Internal.Correction.Weighted>
   9.000000E+99

> <Gold.Protein.RotatedTorsions>
[ 6907 6896 6895 6894 ] final  163.52 input  -60.11 | X-H torsion
[ 7974 7965 7964 7962 ] final  -65.08 input  175.53 | X-H torsion
[ 8008 7997 7996 7995 ] final  130.36 input   59.86 | X-H torsion
[ 10167 10162 10161 10158 ] final  -93.47 input  -65.29 | X-H torsion
[ 10718 10713 10712 10709 ] final -178.96 input   66.30 | X-H torsion
[ 10763 10752 10751 10750 ] final  174.65 input  -60.55 | X-H torsion
[ 11005 11000 10999 10996 ] final -131.61 input  -57.11 | X-H torsion

> <Gold.Protein.ActiveResidues>
 VAL166  LYS551  ARG553  GLY616  TRP617  ASP618  TYR619  PRO620  LYS621  CYS622 
 ASP623  PHE694  ASN695  SER759  ASP760  ASP761  ALA762  ILE779  LEU786  VAL792 
 PHE793  MET794  SER795  GLU796  ALA797  LYS798  CYS799  TRP800  GLU811  SER814 

> <Gold.Protein.RotatedAtoms>
  151.9239  133.3593  159.3906 H   0  0  0  0  0  0  0  0  0  0  0  0  # atno 6907 bound_to 6896
  150.7031  134.4607  159.5388 H   0  0  0  0  0  0  0  0  0  0  0  0  # atno 6908 bound_to 6896
  152.2235  134.8390  160.0534 H   0  0  0  0  0  0  0  0  0  0  0  0  # atno 6909 bound_to 6896
  145.7587  140.8872  143.0441 H   0  0  0  0  0  0  0  0  0  0  0  0  # atno 7974 bound_to 7965
  156.2953  140.2598  156.2749 H   0  0  0  0  0  0  0  0  0  0  0  0  # atno 8008 bound_to 7997
  154.9659  140.0392  157.2230 H   0  0  0  0  0  0  0  0  0  0  0  0  # atno 8009 bound_to 7997
  154.7904  140.2811  155.6001 H   0  0  0  0  0  0  0  0  0  0  0  0  # atno 8010 bound_to 7997
  140.3243  143.3031  152.0012 H   0  0  0  0  0  0  0  0  0  0  0  0  # atno 10167 bound_to 10162
  156.8520  130.9722  151.3091 H   0  0  0  0  0  0  0  0  0  0  0  0  # atno 10718 bound_to 10713
  154.4569  135.2766  155.1741 H   0  0  0  0  0  0  0  0  0  0  0  0  # atno 10763 bound_to 10752
  154.3545  135.6143  153.5663 H   0  0  0  0  0  0  0  0  0  0  0  0  # atno 10764 bound_to 10752
  152.9851  135.5819  154.4924 H   0  0  0  0  0  0  0  0  0  0  0  0  # atno 10765 bound_to 10752
  140.9244  134.1402  157.4288 H   0  0  0  0  0  0  0  0  0  0  0  0  # atno 11005 bound_to 11000
  144.6835  139.9692  143.7482 LP  0  0  0  0  0  0  0  0  0  0  0  0  # atno 17320 bound_to 7965
  146.0285  139.3314  143.0769 LP  0  0  0  0  0  0  0  0  0  0  0  0  # atno 17321 bound_to 7965
  139.4868  144.6286  151.7115 LP  0  0  0  0  0  0  0  0  0  0  0  0  # atno 17342 bound_to 10162
  140.5455  144.0510  150.6105 LP  0  0  0  0  0  0  0  0  0  0  0  0  # atno 17343 bound_to 10162
  157.6298  130.8720  149.9253 LP  0  0  0  0  0  0  0  0  0  0  0  0  # atno 17370 bound_to 10713
  156.0823  130.3672  150.0556 LP  0  0  0  0  0  0  0  0  0  0  0  0  # atno 17371 bound_to 10713
  139.8782  134.9983  156.5892 LP  0  0  0  0  0  0  0  0  0  0  0  0  # atno 17394 bound_to 11000
  140.7946  133.8555  155.8674 LP  0  0  0  0  0  0  0  0  0  0  0  0  # atno 17395 bound_to 11000

$$$$
