AV-unprocessed.smi:1624|AV-procd|sdf|6503|dock4
  -GOLD-   22720 7173D 1   1.00000     0.00000
 Structure written by MMmdl.
 36 37  0  0  0  0  0  0  0  0  1 V2000
  146.0189  138.8796  153.7699 O   0  0  0  0  0  0  0  0  0  0  0  0
  146.8880  138.1999  153.2230 C   0  0  0  0  0  0  0  0  0  0  0  0
  146.6178  137.1436  152.4428 N   0  0  0  0  0  0  0  0  0  0  0  0
  145.2806  136.6560  152.1305 C   0  0  0  0  0  0  0  0  0  0  0  0
  145.3188  135.5204  151.0910 C   0  0  0  0  0  0  0  0  0  0  0  0
  145.1039  134.2157  151.7281 N   0  0  0  0  0  0  0  0  0  0  0  0
  143.7178  133.8988  152.1107 C   0  0  0  0  0  0  0  0  0  0  0  0
  143.0686  132.7972  151.2403 C   0  0  0  0  0  0  0  0  0  0  0  0
  144.0229  131.7391  150.6519 C   0  0  0  0  0  0  0  0  0  0  0  0
  144.9482  131.0525  151.6783 C   0  0  0  0  0  0  0  0  0  0  0  0
  145.8066  131.9853  152.5658 C   0  0  0  0  0  0  0  0  0  0  0  0
  146.1256  133.3470  151.9279 C   0  0  0  0  0  0  0  0  0  0  0  0
  147.2901  133.5962  151.6148 O   0  0  0  0  0  0  0  0  0  0  0  0
  148.2133  138.4049  153.3200 N   0  0  0  0  0  0  0  0  0  0  0  0
  148.8984  139.4137  154.0474 C   0  0  0  0  0  0  0  0  0  0  0  0
  150.1729  139.3041  154.4537 N   0  0  0  0  0  0  0  0  0  0  0  0
  150.5975  140.4333  155.1423 N   0  0  0  0  0  0  0  0  0  0  0  0
  149.6280  141.3486  155.2277 C   0  0  0  0  0  0  0  0  0  0  0  0
  148.1015  140.9209  154.4749 S   0  0  0  0  0  0  0  0  0  0  0  0
  147.3914  136.6410  152.0331 H   0  0  0  0  0  0  0  0  0  0  0  0
  144.7821  136.3231  153.0427 H   0  0  0  0  0  0  0  0  0  0  0  0
  144.6995  137.4966  151.7508 H   0  0  0  0  0  0  0  0  0  0  0  0
  144.5617  135.6920  150.3238 H   0  0  0  0  0  0  0  0  0  0  0  0
  146.2688  135.5339  150.5557 H   0  0  0  0  0  0  0  0  0  0  0  0
  143.6950  133.6022  153.1594 H   0  0  0  0  0  0  0  0  0  0  0  0
  143.0846  134.7857  152.0745 H   0  0  0  0  0  0  0  0  0  0  0  0
  142.2893  132.3037  151.8217 H   0  0  0  0  0  0  0  0  0  0  0  0
  142.5537  133.2759  150.4066 H   0  0  0  0  0  0  0  0  0  0  0  0
  143.4313  130.9764  150.1451 H   0  0  0  0  0  0  0  0  0  0  0  0
  144.6264  132.1943  149.8652 H   0  0  0  0  0  0  0  0  0  0  0  0
  144.3460  130.4154  152.3268 H   0  0  0  0  0  0  0  0  0  0  0  0
  145.6110  130.3751  151.1386 H   0  0  0  0  0  0  0  0  0  0  0  0
  145.3138  132.1503  153.5237 H   0  0  0  0  0  0  0  0  0  0  0  0
  146.7403  131.4804  152.8170 H   0  0  0  0  0  0  0  0  0  0  0  0
  148.8031  137.7636  152.8108 H   0  0  0  0  0  0  0  0  0  0  0  0
  149.8129  142.2825  155.7371 H   0  0  0  0  0  0  0  0  0  0  0  0
  1  2  2  0  0  0  0
  2  3  1  0  0  0  0
  2 14  1  0  0  0  0
  3  4  1  0  0  0  0
  3 20  1  0  0  0  0
  4  5  1  0  0  0  0
  4 21  1  0  0  0  0
  4 22  1  0  0  0  0
  5  6  1  0  0  0  0
  5 23  1  0  0  0  0
  5 24  1  0  0  0  0
  6 12  1  0  0  0  0
  6  7  1  0  0  0  0
  7  8  1  0  0  0  0
  7 25  1  0  0  0  0
  7 26  1  0  0  0  0
  8  9  1  0  0  0  0
  8 27  1  0  0  0  0
  8 28  1  0  0  0  0
  9 10  1  0  0  0  0
  9 29  1  0  0  0  0
  9 30  1  0  0  0  0
 10 11  1  0  0  0  0
 10 31  1  0  0  0  0
 10 32  1  0  0  0  0
 11 12  1  0  0  0  0
 11 33  1  0  0  0  0
 11 34  1  0  0  0  0
 12 13  2  0  0  0  0
 14 15  1  0  0  0  0
 14 35  1  0  0  0  0
 15 19  1  0  0  0  0
 15 16  2  0  0  0  0
 16 17  1  0  0  0  0
 17 18  2  0  0  0  0
 18 19  1  0  0  0  0
 18 36  1  0  0  0  0
M  END
> <s_m_source_file>
AV-unprocessed.smi

> <i_m_source_file_index>
1624

> <i_lp_mmshare_version>
43012

> <i_f3d_flags>
0

> <s_epik_input>
czFbY0hdbm5jMVtOSF1DKD1PKVtOSF1bQ0gyXVtDSDJdTjJbQ0gyXVtDSDJdW0NIMl1bQ0gyXVtDSDJdQzI9Tw==

> <s_epik_cmdline>
J2VwaWtfcHl0aG9uJywgJy1waCcsICc3LjAnLCAnLXRuJywgJzgnLCAnLW1hJywgJzIwMCcsICctbWV0YWxfYmluZGluZycsICctaW1hZScsICc8aW5maWxlLm1hZT4nLCAnLW9tYWUnLCAnPG91dGZpbGUubWFlPic=

> <r_lp_tautomer_probability>
1

> <r_epik_Ionization_Penalty>
0.00222419

> <r_epik_Ionization_Penalty_Charging>
0

> <r_epik_Ionization_Penalty_Neutral>
0.00222419

> <r_epik_State_Penalty>
-0

> <r_epik_Charging_Adjusted_Penalty>
0

> <i_epik_Tot_Q>
0

> <i_epik_Tot_abs_Q>
0

> <r_epik_Metal_State_Penalty>
0.3454

> <b_epik_Metal_Only>
0

> <s_lp_Force_Field>
OPLS_2005

> <r_lp_Energy>
20.1162

> <b_lp_Chiralities_Consistent>
1

> <s_lp_Variant>
AV-unprocessed.smi:1624-1

> <Gold.Version>
5.8.1

> <Gold.Id.Protein>
6NUR|6NUR_protein|mol2

> <Gold.PLP.Fitness>
40.4122

> <Gold.PLP.PLP>
-31.9321

> <Gold.PLP.part.hbond>
-4.2592

> <Gold.PLP.part.metal>
0.0000

> <Gold.PLP.part.buried>
-1.3241

> <Gold.PLP.part.nonpolar>
-28.7780

> <Gold.PLP.part.repulsive>
2.4039

> <Gold.PLP.ligand.clash>
0.0000

> <Gold.PLP.ligand.torsion>
0.6446

> <Gold.PLP.Chemscore.Hbond>
2.2528

> <Gold.PLP.Chemscore.CHOScore>
1.0000

> <Gold.PLP.Chemscore.Metal>
0.0000

> <Gold.Chemscore.Hbonds>
donor molecule, donor type, donor heavy atom, donor atom, acceptor molecule, acceptor atom, score
      L1  H     3    20       P1  7948  1.00
      L1  H    14    35       P1  7948  0.99
      P1  H  7989  7998       L1    17  0.30
      L1  C    18    36       P1  8028  0.81

> <Gold.PLP.Chemscore.Internal.Correction>
0.0109

> <Gold.Rescore>
     Score         DG    S(hbond)    S(metal)    S(lipo)     H(rot)  DE(clash)    DE(int)     intcor
     12.15     -14.23       1.91        0.00      58.72       1.76       0.50       1.57       ----

> <Gold.Chemscore.Fitness>
12.1540

> <Gold.Chemscore.DG>
-14.2264

> <Gold.Chemscore.ZeroCoef>
-5.4800

> <Gold.Chemscore.Hbond>
1.9117

> <Gold.Chemscore.Metal>
0.0000

> <Gold.Chemscore.Lipo>
58.7232

> <Gold.Chemscore.Internal_Hbond>
0.0000

> <Gold.Chemscore.DEClash>
0.4998

> <Gold.Chemscore.DEInternal>
1.5726

> <Gold.Chemscore.Rot>
1.7615

> <Gold.Chemscore.Internal.Correction>
   9.000000E+99

> <Gold.Chemscore.Hbonds>
donor molecule, donor type, donor heavy atom, donor atom, acceptor molecule, acceptor atom, score
      L1  H     3    20       P1  7948  0.97
      L1  H    14    35       P1  7948  0.94

> <Gold.Chemscore.Hbond.Weighted>
-6.3852

> <Gold.Chemscore.Metal.Weighted>
-0.0000

> <Gold.Chemscore.Lipo.Weighted>
-6.8706

> <Gold.Chemscore.Internal_Hbond.Weighted>
0.0000

> <Gold.Chemscore.DEClash.Weighted>
0.4998

> <Gold.Chemscore.DEInternal.Weighted>
1.5726

> <Gold.Chemscore.Rot.Weighted>
4.5095

> <Gold.Chemscore.Internal.Correction.Weighted>
   9.000000E+99

> <Gold.Protein.RotatedTorsions>
[ 6907 6896 6895 6894 ] final  167.18 input  -60.11 | X-H torsion
[ 7974 7965 7964 7962 ] final   61.32 input  175.53 | X-H torsion
[ 8008 7997 7996 7995 ] final  157.16 input   59.86 | X-H torsion
[ 10167 10162 10161 10158 ] final -150.60 input  -65.29 | X-H torsion
[ 10718 10713 10712 10709 ] final -117.96 input   66.30 | X-H torsion
[ 10763 10752 10751 10750 ] final   51.90 input  -60.55 | X-H torsion
[ 11005 11000 10999 10996 ] final -154.36 input  -57.11 | X-H torsion

> <Gold.Protein.ActiveResidues>
 VAL166  LYS551  ARG553  GLY616  TRP617  ASP618  TYR619  PRO620  LYS621  CYS622 
 ASP623  PHE694  ASN695  SER759  ASP760  ASP761  ALA762  ILE779  LEU786  VAL792 
 PHE793  MET794  SER795  GLU796  ALA797  LYS798  CYS799  TRP800  GLU811  SER814 

> <Gold.Protein.RotatedAtoms>
  151.8674  133.3469  159.3723 H   0  0  0  0  0  0  0  0  0  0  0  0  # atno 6907 bound_to 6896
  150.7162  134.5147  159.5633 H   0  0  0  0  0  0  0  0  0  0  0  0  # atno 6908 bound_to 6896
  152.2672  134.7972  160.0471 H   0  0  0  0  0  0  0  0  0  0  0  0  # atno 6909 bound_to 6896
  145.8861  139.3477  143.0677 H   0  0  0  0  0  0  0  0  0  0  0  0  # atno 7974 bound_to 7965
  156.2380  140.1893  156.7066 H   0  0  0  0  0  0  0  0  0  0  0  0  # atno 8008 bound_to 7997
  154.6143  140.0617  156.9561 H   0  0  0  0  0  0  0  0  0  0  0  0  # atno 8009 bound_to 7997
  155.1965  140.3289  155.4352 H   0  0  0  0  0  0  0  0  0  0  0  0  # atno 8010 bound_to 7997
  139.7340  143.8764  152.2543 H   0  0  0  0  0  0  0  0  0  0  0  0  # atno 10167 bound_to 10162
  156.1071  130.6219  150.9230 H   0  0  0  0  0  0  0  0  0  0  0  0  # atno 10718 bound_to 10713
  152.9786  135.5830  154.4491 H   0  0  0  0  0  0  0  0  0  0  0  0  # atno 10763 bound_to 10752
  154.4083  135.2769  155.2055 H   0  0  0  0  0  0  0  0  0  0  0  0  # atno 10764 bound_to 10752
  154.3856  135.6137  153.5869 H   0  0  0  0  0  0  0  0  0  0  0  0  # atno 10765 bound_to 10752
  140.6982  134.3967  157.5212 H   0  0  0  0  0  0  0  0  0  0  0  0  # atno 11005 bound_to 11000
  145.8965  140.9270  143.0525 LP  0  0  0  0  0  0  0  0  0  0  0  0  # atno 17320 bound_to 7965
  144.6728  140.0976  143.7462 LP  0  0  0  0  0  0  0  0  0  0  0  0  # atno 17321 bound_to 7965
  139.8695  144.7075  150.9004 LP  0  0  0  0  0  0  0  0  0  0  0  0  # atno 17342 bound_to 10162
  140.7776  143.3750  151.1580 LP  0  0  0  0  0  0  0  0  0  0  0  0  # atno 17343 bound_to 10162
  157.6249  131.0926  150.8552 LP  0  0  0  0  0  0  0  0  0  0  0  0  # atno 17370 bound_to 10713
  156.8670  130.5133  149.5299 LP  0  0  0  0  0  0  0  0  0  0  0  0  # atno 17371 bound_to 10713
  139.8904  134.8805  156.2371 LP  0  0  0  0  0  0  0  0  0  0  0  0  # atno 17394 bound_to 11000
  141.0186  133.7054  156.1230 LP  0  0  0  0  0  0  0  0  0  0  0  0  # atno 17395 bound_to 11000

$$$$
