AV-unprocessed.smi:687|AV-procd|sdf|3353|dock2
  -GOLD-   22720 0323D 1   1.00000     0.00000
 Structure written by MMmdl.
 40 41  0  0  0  0  0  0  0  0  1 V2000
  149.7444  140.3520  156.5858 O   0  0  0  0  0  0  0  0  0  0  0  0
  149.2706  141.4870  156.5557 C   0  0  0  0  0  0  0  0  0  0  0  0
  149.8365  142.5729  157.1087 N   0  0  0  0  0  0  0  0  0  0  0  0
  151.0472  142.6499  157.8472 C   0  0  0  0  0  0  0  0  0  0  0  0
  151.4758  143.9172  158.2922 C   0  0  0  0  0  0  0  0  0  0  0  0
  152.6635  144.0152  159.0415 C   0  0  0  0  0  0  0  0  0  0  0  0
  153.3738  142.8332  159.3278 C   0  0  0  0  0  0  0  0  0  0  0  0
  152.9687  141.6101  158.9253 N   0  0  0  0  0  0  0  0  0  0  0  0
  151.8301  141.5241  158.2039 C   0  0  0  0  0  0  0  0  0  0  0  0
  148.1227  141.8090  155.9354 N   0  0  0  0  0  0  0  0  0  0  0  0
  147.2074  140.9324  155.1860 C   0  0  0  0  0  0  0  0  0  0  0  0
  147.9676  140.1611  154.0693 C   0  0  0  0  0  0  0  0  0  0  0  0
  147.0914  139.3412  153.1019 C   0  0  0  0  0  0  0  0  0  0  0  0
  147.8820  138.8620  152.0359 O   0  0  0  0  0  0  0  0  0  0  0  0
  146.5113  139.9112  156.1299 C   0  0  0  0  0  0  0  0  0  0  0  0
  145.6135  140.5765  157.1881 C   0  0  0  0  0  0  0  0  0  0  0  0
  144.5475  141.4603  156.5276 C   0  0  0  0  0  0  0  0  0  0  0  0
  145.1929  142.4976  155.5989 C   0  0  0  0  0  0  0  0  0  0  0  0
  146.1081  141.8287  154.5549 C   0  0  0  0  0  0  0  0  0  0  0  0
  149.3840  143.4555  156.9218 H   0  0  0  0  0  0  0  0  0  0  0  0
  150.9067  144.8053  158.0587 H   0  0  0  0  0  0  0  0  0  0  0  0
  153.0208  144.9731  159.3894 H   0  0  0  0  0  0  0  0  0  0  0  0
  154.2887  142.8710  159.9002 H   0  0  0  0  0  0  0  0  0  0  0  0
  151.5406  140.5206  157.9325 H   0  0  0  0  0  0  0  0  0  0  0  0
  147.8433  142.7778  155.9843 H   0  0  0  0  0  0  0  0  0  0  0  0
  148.5617  140.8633  153.4833 H   0  0  0  0  0  0  0  0  0  0  0  0
  148.6956  139.4937  154.5326 H   0  0  0  0  0  0  0  0  0  0  0  0
  146.6390  138.4866  153.6036 H   0  0  0  0  0  0  0  0  0  0  0  0
  146.2838  139.9455  152.6887 H   0  0  0  0  0  0  0  0  0  0  0  0
  148.1320  139.5946  151.4936 H   0  0  0  0  0  0  0  0  0  0  0  0
  145.8958  139.2359  155.5336 H   0  0  0  0  0  0  0  0  0  0  0  0
  147.2419  139.2714  156.6245 H   0  0  0  0  0  0  0  0  0  0  0  0
  145.1313  139.8108  157.7965 H   0  0  0  0  0  0  0  0  0  0  0  0
  146.2189  141.1732  157.8715 H   0  0  0  0  0  0  0  0  0  0  0  0
  143.8589  140.8366  155.9561 H   0  0  0  0  0  0  0  0  0  0  0  0
  143.9516  141.9612  157.2912 H   0  0  0  0  0  0  0  0  0  0  0  0
  144.4162  143.0721  155.0938 H   0  0  0  0  0  0  0  0  0  0  0  0
  145.7636  143.2136  156.1911 H   0  0  0  0  0  0  0  0  0  0  0  0
  146.5557  142.6063  153.9359 H   0  0  0  0  0  0  0  0  0  0  0  0
  145.4907  141.2297  153.8838 H   0  0  0  0  0  0  0  0  0  0  0  0
  1  2  2  0  0  0  0
  2  3  1  0  0  0  0
  2 10  1  0  0  0  0
  3  4  1  0  0  0  0
  3 20  1  0  0  0  0
  4  9  1  0  0  0  0
  4  5  2  0  0  0  0
  5  6  1  0  0  0  0
  5 21  1  0  0  0  0
  6  7  2  0  0  0  0
  6 22  1  0  0  0  0
  7  8  1  0  0  0  0
  7 23  1  0  0  0  0
  8  9  2  0  0  0  0
  9 24  1  0  0  0  0
 10 11  1  0  0  0  0
 10 25  1  0  0  0  0
 11 19  1  0  0  0  0
 11 12  1  0  0  0  0
 11 15  1  0  0  0  0
 12 13  1  0  0  0  0
 12 26  1  0  0  0  0
 12 27  1  0  0  0  0
 13 14  1  0  0  0  0
 13 28  1  0  0  0  0
 13 29  1  0  0  0  0
 14 30  1  0  0  0  0
 15 16  1  0  0  0  0
 15 31  1  0  0  0  0
 15 32  1  0  0  0  0
 16 17  1  0  0  0  0
 16 33  1  0  0  0  0
 16 34  1  0  0  0  0
 17 18  1  0  0  0  0
 17 35  1  0  0  0  0
 17 36  1  0  0  0  0
 18 19  1  0  0  0  0
 18 37  1  0  0  0  0
 18 38  1  0  0  0  0
 19 39  1  0  0  0  0
 19 40  1  0  0  0  0
M  END
> <s_m_source_file>
AV-unprocessed.smi

> <i_m_source_file_index>
687

> <i_lp_mmshare_version>
43012

> <i_f3d_flags>
0

> <s_epik_input>
W0NIMl0xW0NIMl1bQ0gyXVtDSDJdW0NIMl1DMShbQ0gyXVtDSDJdW09IXSlbTkhdQyg9TylbTkhdYzJbY0hdW2NIXVtjSF1uW2NIXTI=

> <s_epik_cmdline>
J2VwaWtfcHl0aG9uJywgJy1waCcsICc3LjAnLCAnLXRuJywgJzgnLCAnLW1hJywgJzIwMCcsICctbWV0YWxfYmluZGluZycsICctaW1hZScsICc8aW5maWxlLm1hZT4nLCAnLW9tYWUnLCAnPG91dGZpbGUubWFlPic=

> <r_epik_Ionization_Penalty>
0.00504975

> <r_epik_Ionization_Penalty_Charging>
0

> <r_epik_Ionization_Penalty_Neutral>
0.00504975

> <r_epik_State_Penalty>
0.00364262

> <r_epik_Charging_Adjusted_Penalty>
0.00364262

> <i_epik_Tot_Q>
0

> <i_epik_Tot_abs_Q>
0

> <r_epik_Metal_State_Penalty>
-0

> <b_epik_Metal_Only>
0

> <s_lp_Force_Field>
OPLS_2005

> <r_lp_Energy>
17.0091

> <b_lp_Chiralities_Consistent>
1

> <s_lp_Variant>
AV-unprocessed.smi:687-1

> <Gold.Version>
5.8.1

> <Gold.Id.Protein>
6NUR|6NUR_protein|mol2

> <Gold.PLP.Fitness>
47.0382

> <Gold.PLP.PLP>
-38.2522

> <Gold.PLP.part.hbond>
-3.8587

> <Gold.PLP.part.metal>
0.0000

> <Gold.PLP.part.buried>
-6.2497

> <Gold.PLP.part.nonpolar>
-29.0144

> <Gold.PLP.part.repulsive>
0.1717

> <Gold.PLP.ligand.clash>
0.0000

> <Gold.PLP.ligand.torsion>
0.1109

> <Gold.PLP.Chemscore.Hbond>
3.0000

> <Gold.PLP.Chemscore.CHOScore>
0.0000

> <Gold.PLP.Chemscore.Metal>
0.0000

> <Gold.Chemscore.Hbonds>
donor molecule, donor type, donor heavy atom, donor atom, acceptor molecule, acceptor atom, score
      L1  H     3    20       P1  8028  0.98
      L1  H    10    25       P1  8028  0.40
      L1  H    14    30       P1  7957  0.54

> <Gold.PLP.Chemscore.Internal.Correction>
0.0078

> <Gold.Rescore>
     Score         DG    S(hbond)    S(metal)    S(lipo)     H(rot)  DE(clash)    DE(int)     intcor
     18.62     -20.08       2.86        0.00      87.84       2.04       0.00       1.46       ----

> <Gold.Chemscore.Fitness>
18.6169

> <Gold.Chemscore.DG>
-20.0763

> <Gold.Chemscore.ZeroCoef>
-5.4800

> <Gold.Chemscore.Hbond>
2.8568

> <Gold.Chemscore.Metal>
0.0000

> <Gold.Chemscore.Lipo>
87.8401

> <Gold.Chemscore.Internal_Hbond>
0.0000

> <Gold.Chemscore.DEClash>
0.0042

> <Gold.Chemscore.DEInternal>
1.4552

> <Gold.Chemscore.Rot>
2.0402

> <Gold.Chemscore.Internal.Correction>
   9.000000E+99

> <Gold.Chemscore.Hbonds>
donor molecule, donor type, donor heavy atom, donor atom, acceptor molecule, acceptor atom, score
      L1  H     3    20       P1  8028  0.87
      L1  H    10    25       P1  8028  0.22
      L1  H    14    30       P1  7957  0.50

> <Gold.Chemscore.Hbond.Weighted>
-9.5419

> <Gold.Chemscore.Metal.Weighted>
-0.0000

> <Gold.Chemscore.Lipo.Weighted>
-10.2773

> <Gold.Chemscore.Internal_Hbond.Weighted>
0.0000

> <Gold.Chemscore.DEClash.Weighted>
0.0042

> <Gold.Chemscore.DEInternal.Weighted>
1.4552

> <Gold.Chemscore.Rot.Weighted>
5.2228

> <Gold.Chemscore.Internal.Correction.Weighted>
   9.000000E+99

> <Gold.Protein.RotatedTorsions>
[ 6907 6896 6895 6894 ] final -146.86 input  -60.11 | X-H torsion
[ 7974 7965 7964 7962 ] final  -57.79 input  175.53 | X-H torsion
[ 8008 7997 7996 7995 ] final   74.13 input   59.86 | X-H torsion
[ 10167 10162 10161 10158 ] final  122.67 input  -65.29 | X-H torsion
[ 10718 10713 10712 10709 ] final -108.40 input   66.30 | X-H torsion
[ 10763 10752 10751 10750 ] final -177.48 input  -60.55 | X-H torsion
[ 11005 11000 10999 10996 ] final -174.44 input  -57.11 | X-H torsion

> <Gold.Protein.ActiveResidues>
 VAL166  LYS551  ARG553  GLY616  TRP617  ASP618  TYR619  PRO620  LYS621  CYS622 
 ASP623  PHE694  ASN695  SER759  ASP760  ASP761  ALA762  ILE779  LEU786  VAL792 
 PHE793  MET794  SER795  GLU796  ALA797  LYS798  CYS799  TRP800  GLU811  SER814 

> <Gold.Protein.RotatedAtoms>
  151.1476  133.4929  159.2595 H   0  0  0  0  0  0  0  0  0  0  0  0  # atno 6907 bound_to 6896
  151.1588  135.0263  159.8711 H   0  0  0  0  0  0  0  0  0  0  0  0  # atno 6908 bound_to 6896
  152.5463  134.1352  159.8509 H   0  0  0  0  0  0  0  0  0  0  0  0  # atno 6909 bound_to 6896
  145.8469  140.8379  143.0006 H   0  0  0  0  0  0  0  0  0  0  0  0  # atno 7974 bound_to 7965
  155.7939  140.3478  155.5364 H   0  0  0  0  0  0  0  0  0  0  0  0  # atno 8008 bound_to 7997
  155.8606  140.0970  157.1636 H   0  0  0  0  0  0  0  0  0  0  0  0  # atno 8009 bound_to 7997
  154.4012  140.1359  156.3944 H   0  0  0  0  0  0  0  0  0  0  0  0  # atno 8010 bound_to 7997
  139.5845  144.7000  151.3444 H   0  0  0  0  0  0  0  0  0  0  0  0  # atno 10167 bound_to 10162
  156.0484  130.5711  150.7956 H   0  0  0  0  0  0  0  0  0  0  0  0  # atno 10718 bound_to 10713
  154.5596  135.2819  155.0931 H   0  0  0  0  0  0  0  0  0  0  0  0  # atno 10763 bound_to 10752
  154.2345  135.6368  153.5190 H   0  0  0  0  0  0  0  0  0  0  0  0  # atno 10764 bound_to 10752
  153.0025  135.5545  154.6187 H   0  0  0  0  0  0  0  0  0  0  0  0  # atno 10765 bound_to 10752
  140.4744  134.6134  157.4895 H   0  0  0  0  0  0  0  0  0  0  0  0  # atno 11005 bound_to 11000
  144.6731  140.0895  143.7466 LP  0  0  0  0  0  0  0  0  0  0  0  0  # atno 17320 bound_to 7965
  145.9402  139.2664  143.1273 LP  0  0  0  0  0  0  0  0  0  0  0  0  # atno 17321 bound_to 7965
  140.7119  143.7369  150.7582 LP  0  0  0  0  0  0  0  0  0  0  0  0  # atno 17342 bound_to 10162
  140.0910  143.4878  152.2479 LP  0  0  0  0  0  0  0  0  0  0  0  0  # atno 17343 bound_to 10162
  157.5384  131.0939  150.9861 LP  0  0  0  0  0  0  0  0  0  0  0  0  # atno 17370 bound_to 10713
  157.0150  130.5651  149.5325 LP  0  0  0  0  0  0  0  0  0  0  0  0  # atno 17371 bound_to 10713
  139.9865  134.7053  155.9765 LP  0  0  0  0  0  0  0  0  0  0  0  0  # atno 17394 bound_to 11000
  141.1561  133.6543  156.4167 LP  0  0  0  0  0  0  0  0  0  0  0  0  # atno 17395 bound_to 11000

$$$$
