AV-unprocessed.smi:69|AV-procd|sdf|647|dock4
  -GOLD-   2262016543D 1   1.00000     0.00000
 Structure written by MMmdl.
 32 34  0  0  0  0  0  0  0  0  1 V2000
  152.5969  140.1081  159.0982 N   0  0  0  0  0  0  0  0  0  0  0  0
  152.1887  139.8976  157.8392 C   0  0  0  0  0  0  0  0  0  0  0  0
  152.8905  139.0308  157.0719 N   0  0  0  0  0  0  0  0  0  0  0  0
  152.5066  138.8077  155.8106 C   0  0  0  0  0  0  0  0  0  0  0  0
  151.4739  139.3336  155.1456 N   0  0  0  0  0  0  0  0  0  0  0  0
  150.7643  140.2024  155.9248 C   0  0  0  0  0  0  0  0  0  0  0  0
  151.0598  140.5424  157.2733 C   0  0  0  0  0  0  0  0  0  0  0  0
  150.1392  141.4710  157.7385 N   0  0  0  0  0  0  0  0  0  0  0  0
  149.3511  141.6715  156.7160 C   0  0  0  0  0  0  0  0  0  0  0  0
  149.6360  140.9230  155.5917 N   0  0  0  0  0  0  0  0  0  0  0  0
  148.9551  140.9281  154.2564 C   0  0  2  0  0  0  0  0  0  0  0  0
  148.1226  142.0505  154.1888 O   0  0  0  0  0  0  0  0  0  0  0  0
  146.7488  141.6865  154.3135 C   0  0  2  0  0  0  0  0  0  0  0  0
  146.3188  141.7091  155.7985 C   0  0  0  0  0  0  0  0  0  0  0  0
  146.6315  142.9618  156.3689 O   0  0  0  0  0  0  0  0  0  0  0  0
  146.7349  140.3033  153.6493 C   0  0  2  0  0  0  0  0  0  0  0  0
  145.6331  139.5084  154.0422 O   0  0  0  0  0  0  0  0  0  0  0  0
  148.0574  139.6868  154.0834 C   0  0  1  0  0  0  0  0  0  0  0  0
  148.5353  138.8258  153.0695 O   0  0  0  0  0  0  0  0  0  0  0  0
  149.7696  141.0100  153.5351 H   0  0  0  0  0  0  0  0  0  0  0  0
  146.1246  142.3777  153.7451 H   0  0  0  0  0  0  0  0  0  0  0  0
  146.7156  140.4366  152.5660 H   0  0  0  0  0  0  0  0  0  0  0  0
  147.9524  139.1586  155.0328 H   0  0  0  0  0  0  0  0  0  0  0  0
  152.0907  140.7524  159.6886 H   0  0  0  0  0  0  0  0  0  0  0  0
  153.4076  139.6225  159.4535 H   0  0  0  0  0  0  0  0  0  0  0  0
  153.1124  138.1069  155.2552 H   0  0  0  0  0  0  0  0  0  0  0  0
  148.5298  142.3720  156.7622 H   0  0  0  0  0  0  0  0  0  0  0  0
  145.2387  141.5932  155.8860 H   0  0  0  0  0  0  0  0  0  0  0  0
  146.7671  140.9034  156.3776 H   0  0  0  0  0  0  0  0  0  0  0  0
  147.5081  143.1998  156.1085 H   0  0  0  0  0  0  0  0  0  0  0  0
  144.8458  139.9010  153.6962 H   0  0  0  0  0  0  0  0  0  0  0  0
  148.9454  139.3540  152.4008 H   0  0  0  0  0  0  0  0  0  0  0  0
  1  2  1  0  0  0  0
  1 24  1  0  0  0  0
  1 25  1  0  0  0  0
  2  7  1  0  0  0  0
  2  3  2  0  0  0  0
  3  4  1  0  0  0  0
  4  5  2  0  0  0  0
  4 26  1  0  0  0  0
  5  6  1  0  0  0  0
  6 10  1  0  0  0  0
  6  7  2  0  0  0  0
  7  8  1  0  0  0  0
  8  9  2  0  0  0  0
  9 10  1  0  0  0  0
  9 27  1  0  0  0  0
 10 11  1  0  0  0  0
 11 20  1  0  0  0  0
 11 18  1  0  0  0  0
 11 12  1  0  0  0  0
 12 13  1  0  0  0  0
 13 21  1  0  0  0  0
 13 14  1  0  0  0  0
 13 16  1  0  0  0  0
 14 15  1  0  0  0  0
 14 28  1  0  0  0  0
 14 29  1  0  0  0  0
 15 30  1  0  0  0  0
 16 22  1  0  0  0  0
 16 17  1  0  0  0  0
 16 18  1  0  0  0  0
 17 31  1  0  0  0  0
 18 23  1  0  0  0  0
 18 19  1  0  0  0  0
 19 32  1  0  0  0  0
M  END
> <s_m_source_file>
AV-unprocessed.smi

> <i_m_source_file_index>
69

> <i_lp_mmshare_version>
43012

> <i_f3d_flags>
0

> <s_epik_input>
bjFbY0hdbmMoW05IMl0pYyhjMTIpbltjSF1uMltDQEBIXTNPW0NASF0oW0NIMl1bT0hdKVtDQEBIXShbT0hdKVtDQEhdM1tPSF0=

> <s_epik_cmdline>
J2VwaWtfcHl0aG9uJywgJy1waCcsICc3LjAnLCAnLXRuJywgJzgnLCAnLW1hJywgJzIwMCcsICctbWV0YWxfYmluZGluZycsICctaW1hZScsICc8aW5maWxlLm1hZT4nLCAnLW9tYWUnLCAnPG91dGZpbGUubWFlPic=

> <r_lp_tautomer_probability>
1

> <r_epik_Ionization_Penalty>
0.000428445

> <r_epik_Ionization_Penalty_Charging>
0

> <r_epik_Ionization_Penalty_Neutral>
0.000428445

> <r_epik_State_Penalty>
-0

> <r_epik_Charging_Adjusted_Penalty>
0

> <i_epik_Tot_Q>
0

> <i_epik_Tot_abs_Q>
0

> <r_epik_Metal_State_Penalty>
-0

> <b_epik_Metal_Only>
0

> <s_epik_Chemistry_Notes>
This compound contains an acetal/aminal-like group ( X-CH(R)-Y where X, Y are N, S, or O) that may be acid/base labile, releasing an aldehyde.

> <s_lp_Force_Field>
OPLS_2005

> <r_lp_Energy>
34.8431

> <b_lp_Chiralities_Consistent>
1

> <s_lp_Variant>
AV-unprocessed.smi:69-5

> <Gold.Version>
5.8.1

> <Gold.Id.Protein>
6NUR|6NUR_protein|mol2

> <Gold.PLP.Fitness>
41.2763

> <Gold.PLP.PLP>
-27.7534

> <Gold.PLP.part.hbond>
-6.5159

> <Gold.PLP.part.metal>
0.0000

> <Gold.PLP.part.buried>
-0.9626

> <Gold.PLP.part.nonpolar>
-21.7817

> <Gold.PLP.part.repulsive>
0.3584

> <Gold.PLP.ligand.clash>
0.0000

> <Gold.PLP.ligand.torsion>
0.4821

> <Gold.PLP.Chemscore.Hbond>
4.0826

> <Gold.PLP.Chemscore.CHOScore>
0.7348

> <Gold.PLP.Chemscore.Metal>
0.0000

> <Gold.Chemscore.Hbonds>
donor molecule, donor type, donor heavy atom, donor atom, acceptor molecule, acceptor atom, score
      L1  H    15    30       P1  8028  0.55
      L1  H    17    31       P1 10175  1.00
      L1  H    19    32       P1  7957  1.00
      P1  H  7989  7998       L1     5  0.27
      P1  H  7997  8010       L1     3  0.95
      L1  C     9    27       P1  8028  0.61

> <Gold.PLP.Chemscore.Internal.Correction>
0.0348

> <Gold.Rescore>
     Score         DG    S(hbond)    S(metal)    S(lipo)     H(rot)  DE(clash)    DE(int)     intcor
      5.10      -5.73       2.27        0.00      25.40       4.03       0.22       0.40       ----

> <Gold.Chemscore.Fitness>
5.1018

> <Gold.Chemscore.DG>
-5.7274

> <Gold.Chemscore.ZeroCoef>
-5.4800

> <Gold.Chemscore.Hbond>
2.2714

> <Gold.Chemscore.Metal>
0.0000

> <Gold.Chemscore.Lipo>
25.4003

> <Gold.Chemscore.Internal_Hbond>
0.0000

> <Gold.Chemscore.DEClash>
0.2217

> <Gold.Chemscore.DEInternal>
0.4039

> <Gold.Chemscore.Rot>
4.0277

> <Gold.Chemscore.Internal.Correction>
   9.000000E+99

> <Gold.Chemscore.Hbonds>
donor molecule, donor type, donor heavy atom, donor atom, acceptor molecule, acceptor atom, score
      L1  H    15    30       P1  8028  0.04
      L1  H    17    31       P1 10175  0.99
      L1  H    19    32       P1  7957  0.96
      P1  H  7989  7998       L1     5  0.02
      P1  H  7997  8010       L1     3  0.06

> <Gold.Chemscore.Hbond.Weighted>
-7.5866

> <Gold.Chemscore.Metal.Weighted>
-0.0000

> <Gold.Chemscore.Lipo.Weighted>
-2.9718

> <Gold.Chemscore.Internal_Hbond.Weighted>
0.0000

> <Gold.Chemscore.DEClash.Weighted>
0.2217

> <Gold.Chemscore.DEInternal.Weighted>
0.4039

> <Gold.Chemscore.Rot.Weighted>
10.3110

> <Gold.Chemscore.Internal.Correction.Weighted>
   9.000000E+99

> <Gold.Protein.RotatedTorsions>
[ 6907 6896 6895 6894 ] final  -53.55 input  -60.11 | X-H torsion
[ 7974 7965 7964 7962 ] final  117.63 input  175.53 | X-H torsion
[ 8008 7997 7996 7995 ] final   53.01 input   59.86 | X-H torsion
[ 10167 10162 10161 10158 ] final   86.84 input  -65.29 | X-H torsion
[ 10718 10713 10712 10709 ] final   51.56 input   66.30 | X-H torsion
[ 10763 10752 10751 10750 ] final -119.45 input  -60.55 | X-H torsion
[ 11005 11000 10999 10996 ] final  179.54 input  -57.11 | X-H torsion

> <Gold.Protein.ActiveResidues>
 VAL166  LYS551  ARG553  GLY616  TRP617  ASP618  TYR619  PRO620  LYS621  CYS622 
 ASP623  PHE694  ASN695  SER759  ASP760  ASP761  ALA762  ILE779  LEU786  VAL792 
 PHE793  MET794  SER795  GLU796  ALA797  LYS798  CYS799  TRP800  GLU811  SER814 

> <Gold.Protein.RotatedAtoms>
  150.8417  134.7711  159.6937 H   0  0  0  0  0  0  0  0  0  0  0  0  # atno 6907 bound_to 6896
  152.4503  134.5405  159.9847 H   0  0  0  0  0  0  0  0  0  0  0  0  # atno 6908 bound_to 6896
  151.5544  133.3375  159.2995 H   0  0  0  0  0  0  0  0  0  0  0  0  # atno 6909 bound_to 6896
  145.1651  139.3133  143.4497 H   0  0  0  0  0  0  0  0  0  0  0  0  # atno 7974 bound_to 7965
  155.4613  140.3462  155.4313 H   0  0  0  0  0  0  0  0  0  0  0  0  # atno 8008 bound_to 7997
  156.1159  140.1473  156.9303 H   0  0  0  0  0  0  0  0  0  0  0  0  # atno 8009 bound_to 7997
  154.4788  140.0876  156.7307 H   0  0  0  0  0  0  0  0  0  0  0  0  # atno 8010 bound_to 7997
  139.8834  144.6427  150.8817 H   0  0  0  0  0  0  0  0  0  0  0  0  # atno 10167 bound_to 10162
  157.4992  130.8427  149.8296 H   0  0  0  0  0  0  0  0  0  0  0  0  # atno 10718 bound_to 10713
  154.8617  135.4238  154.2300 H   0  0  0  0  0  0  0  0  0  0  0  0  # atno 10763 bound_to 10752
  153.3287  135.6987  153.6972 H   0  0  0  0  0  0  0  0  0  0  0  0  # atno 10764 bound_to 10752
  153.5998  135.3539  155.2914 H   0  0  0  0  0  0  0  0  0  0  0  0  # atno 10765 bound_to 10752
  140.4073  134.6723  157.4595 H   0  0  0  0  0  0  0  0  0  0  0  0  # atno 11005 bound_to 11000
  146.3477  140.1775  142.8589 LP  0  0  0  0  0  0  0  0  0  0  0  0  # atno 17320 bound_to 7965
  145.0291  140.8856  143.5120 LP  0  0  0  0  0  0  0  0  0  0  0  0  # atno 17321 bound_to 7965
  140.7740  143.3567  151.1907 LP  0  0  0  0  0  0  0  0  0  0  0  0  # atno 17342 bound_to 10162
  139.7175  143.9277  152.2972 LP  0  0  0  0  0  0  0  0  0  0  0  0  # atno 17343 bound_to 10162
  156.0219  130.3792  150.1936 LP  0  0  0  0  0  0  0  0  0  0  0  0  # atno 17370 bound_to 10713
  157.0126  130.9955  151.3362 LP  0  0  0  0  0  0  0  0  0  0  0  0  # atno 17371 bound_to 10713
  140.0293  134.6430  155.9129 LP  0  0  0  0  0  0  0  0  0  0  0  0  # atno 17394 bound_to 11000
  141.1834  133.6551  156.5116 LP  0  0  0  0  0  0  0  0  0  0  0  0  # atno 17395 bound_to 11000

$$$$
