AV-unprocessed.smi:259|AV-procd|sdf|1974|dock4
  -GOLD-   2262021143D 1   1.00000     0.00000
 Structure written by MMmdl.
 54 57  0  0  0  0  0  0  0  0  1 V2000
  152.3543  140.8154  157.8609 C   0  0  0  0  0  0  0  0  0  0  0  0
  151.4420  139.8537  157.2615 N   0  0  0  0  0  0  0  0  0  0  0  0
  151.4229  139.5437  155.9571 C   0  0  0  0  0  0  0  0  0  0  0  0
  152.1892  140.0515  155.1379 O   0  0  0  0  0  0  0  0  0  0  0  0
  150.3889  138.4923  155.5199 C   0  0  0  0  0  0  0  0  0  0  0  0
  149.2999  138.9745  154.5214 C   0  0  2  0  0  0  0  0  0  0  0  0
  149.7580  138.6952  153.2089 O   0  0  0  0  0  0  0  0  0  0  0  0
  148.9870  140.4860  154.6697 C   0  0  0  0  0  0  0  0  0  0  0  0
  147.7719  140.9142  153.8324 C   0  0  0  0  0  0  0  0  0  0  0  0
  146.5531  140.0362  154.1410 C   0  0  0  0  0  0  0  0  0  0  0  0
  146.8855  138.6263  153.9510 N   0  0  0  0  0  0  0  0  0  0  0  0
  145.8661  137.7438  153.7981 C   0  0  0  0  0  0  0  0  0  0  0  0
  144.9164  137.6310  154.7654 N   0  0  0  0  0  0  0  0  0  0  0  0
  143.9170  136.7543  154.6315 C   0  0  0  0  0  0  0  0  0  0  0  0
  143.6777  135.9082  153.6278 N   0  0  0  0  0  0  0  0  0  0  0  0
  144.6207  136.0227  152.6494 C   0  0  0  0  0  0  0  0  0  0  0  0
  145.7362  136.9071  152.6534 C   0  0  0  0  0  0  0  0  0  0  0  0
  146.4673  136.7483  151.4821 N   0  0  0  0  0  0  0  0  0  0  0  0
  145.8291  135.8158  150.8299 C   0  0  0  0  0  0  0  0  0  0  0  0
  144.7033  135.3281  151.4543 N   0  0  0  0  0  0  0  0  0  0  0  0
  143.8106  134.2914  150.9588 C   0  0  0  0  0  0  0  0  0  0  0  0
  144.4108  132.8740  151.0075 C   0  0  0  0  0  0  0  0  0  0  0  0
  143.3225  131.8632  150.5924 C   0  0  0  0  0  0  0  0  0  0  0  0
  142.7745  132.1489  149.3207 O   0  0  0  0  0  0  0  0  0  0  0  0
  145.7841  132.6960  150.3438 C   0  0  0  0  0  0  0  0  0  0  0  0
  146.3647  132.1539  151.5504 O   0  0  0  0  0  0  0  0  0  0  0  0
  145.1885  132.5483  152.2908 C   0  0  0  0  0  0  0  0  0  0  0  0
  148.0205  138.1292  154.7306 C   0  0  0  0  0  0  0  0  0  0  0  0
  152.1655  140.8893  158.9318 H   0  0  0  0  0  0  0  0  0  0  0  0
  152.2197  141.8047  157.4217 H   0  0  0  0  0  0  0  0  0  0  0  0
  153.3910  140.5081  157.7176 H   0  0  0  0  0  0  0  0  0  0  0  0
  150.7867  139.3926  157.8762 H   0  0  0  0  0  0  0  0  0  0  0  0
  150.9322  137.6467  155.0958 H   0  0  0  0  0  0  0  0  0  0  0  0
  149.8963  138.1075  156.4145 H   0  0  0  0  0  0  0  0  0  0  0  0
  149.3326  137.9073  152.9049 H   0  0  0  0  0  0  0  0  0  0  0  0
  148.7842  140.7084  155.7180 H   0  0  0  0  0  0  0  0  0  0  0  0
  149.8477  141.0941  154.3898 H   0  0  0  0  0  0  0  0  0  0  0  0
  147.5355  141.9608  154.0249 H   0  0  0  0  0  0  0  0  0  0  0  0
  148.0136  140.8426  152.7712 H   0  0  0  0  0  0  0  0  0  0  0  0
  146.2233  140.1961  155.1686 H   0  0  0  0  0  0  0  0  0  0  0  0
  145.7284  140.3223  153.4866 H   0  0  0  0  0  0  0  0  0  0  0  0
  143.2079  136.7266  155.4457 H   0  0  0  0  0  0  0  0  0  0  0  0
  146.1665  135.4583  149.8682 H   0  0  0  0  0  0  0  0  0  0  0  0
  142.8946  134.3386  151.5490 H   0  0  0  0  0  0  0  0  0  0  0  0
  143.5157  134.5462  149.9402 H   0  0  0  0  0  0  0  0  0  0  0  0
  143.7244  130.8499  150.5670 H   0  0  0  0  0  0  0  0  0  0  0  0
  142.4966  131.8592  151.3038 H   0  0  0  0  0  0  0  0  0  0  0  0
  142.1065  132.8099  149.4225 H   0  0  0  0  0  0  0  0  0  0  0  0
  145.7930  131.9846  149.5172 H   0  0  0  0  0  0  0  0  0  0  0  0
  146.2653  133.6309  150.0551 H   0  0  0  0  0  0  0  0  0  0  0  0
  145.3837  133.4159  152.9231 H   0  0  0  0  0  0  0  0  0  0  0  0
  144.7685  131.7318  152.8791 H   0  0  0  0  0  0  0  0  0  0  0  0
  148.2323  137.0828  154.5135 H   0  0  0  0  0  0  0  0  0  0  0  0
  147.7299  138.1653  155.7815 H   0  0  0  0  0  0  0  0  0  0  0  0
  1  2  1  0  0  0  0
  1 29  1  0  0  0  0
  1 30  1  0  0  0  0
  1 31  1  0  0  0  0
  2  3  1  0  0  0  0
  2 32  1  0  0  0  0
  3  4  2  0  0  0  0
  3  5  1  0  0  0  0
  5  6  1  0  0  0  0
  5 33  1  0  0  0  0
  5 34  1  0  0  0  0
  6 28  1  0  0  0  0
  6  7  1  0  0  0  0
  6  8  1  0  0  0  0
  7 35  1  0  0  0  0
  8  9  1  0  0  0  0
  8 36  1  0  0  0  0
  8 37  1  0  0  0  0
  9 10  1  0  0  0  0
  9 38  1  0  0  0  0
  9 39  1  0  0  0  0
 10 11  1  0  0  0  0
 10 40  1  0  0  0  0
 10 41  1  0  0  0  0
 11 12  1  0  0  0  0
 11 28  1  0  0  0  0
 12 17  1  0  0  0  0
 12 13  2  0  0  0  0
 13 14  1  0  0  0  0
 14 15  2  0  0  0  0
 14 42  1  0  0  0  0
 15 16  1  0  0  0  0
 16 20  1  0  0  0  0
 16 17  2  0  0  0  0
 17 18  1  0  0  0  0
 18 19  2  0  0  0  0
 19 20  1  0  0  0  0
 19 43  1  0  0  0  0
 20 21  1  0  0  0  0
 21 22  1  0  0  0  0
 21 44  1  0  0  0  0
 21 45  1  0  0  0  0
 22 27  1  0  0  0  0
 22 23  1  0  0  0  0
 22 25  1  0  0  0  0
 23 24  1  0  0  0  0
 23 46  1  0  0  0  0
 23 47  1  0  0  0  0
 24 48  1  0  0  0  0
 25 26  1  0  0  0  0
 25 49  1  0  0  0  0
 25 50  1  0  0  0  0
 26 27  1  0  0  0  0
 27 51  1  0  0  0  0
 27 52  1  0  0  0  0
 28 53  1  0  0  0  0
 28 54  1  0  0  0  0
M  END
> <s_m_source_file>
AV-unprocessed.smi

> <i_m_source_file_index>
259

> <i_lp_mmshare_version>
43012

> <i_f3d_flags>
0

> <s_epik_input>
W0NIM11bTkhdQyg9TylbQ0gyXVtDQEBdMShbT0hdKVtDSDJdW0NIMl1bQ0gyXU4oW0NIMl0xKWMobltjSF1uMiljKGMyMyluW2NIXW4zW0NIMl1DNChbQ0gyXVtPSF0pW0NIMl1PW0NIMl00

> <s_epik_cmdline>
J2VwaWtfcHl0aG9uJywgJy1waCcsICc3LjAnLCAnLXRuJywgJzgnLCAnLW1hJywgJzIwMCcsICctbWV0YWxfYmluZGluZycsICctaW1hZScsICc8aW5maWxlLm1hZT4nLCAnLW9tYWUnLCAnPG91dGZpbGUubWFlPic=

> <r_lp_tautomer_probability>
1

> <r_epik_Ionization_Penalty>
0.00366363

> <r_epik_Ionization_Penalty_Charging>
0

> <r_epik_Ionization_Penalty_Neutral>
0.00366363

> <r_epik_State_Penalty>
0.00243014

> <r_epik_Charging_Adjusted_Penalty>
0.00243014

> <i_epik_Tot_Q>
0

> <i_epik_Tot_abs_Q>
0

> <r_epik_Metal_State_Penalty>
-0

> <b_epik_Metal_Only>
0

> <s_lp_Force_Field>
OPLS_2005

> <r_lp_Energy>
39.9433

> <b_lp_Chiralities_Consistent>
1

> <s_lp_Variant>
AV-unprocessed.smi:259-2

> <Gold.Version>
5.8.1

> <Gold.Id.Protein>
6NUR|6NUR_protein|mol2

> <Gold.PLP.Fitness>
46.5567

> <Gold.PLP.PLP>
-35.7205

> <Gold.PLP.part.hbond>
-5.5315

> <Gold.PLP.part.metal>
0.0000

> <Gold.PLP.part.buried>
-4.9878

> <Gold.PLP.part.nonpolar>
-30.0671

> <Gold.PLP.part.repulsive>
4.6344

> <Gold.PLP.ligand.clash>
0.0000

> <Gold.PLP.ligand.torsion>
1.2771

> <Gold.PLP.Chemscore.Hbond>
3.1660

> <Gold.PLP.Chemscore.CHOScore>
1.0000

> <Gold.PLP.Chemscore.Metal>
0.0000

> <Gold.Chemscore.Hbonds>
donor molecule, donor type, donor heavy atom, donor atom, acceptor molecule, acceptor atom, score
      L1  H     7    35       P1  7948  1.00
      L1  H    24    48       P1 10186  1.00
      P1  H  7989  7998       L1     4  0.72
      P1  H 10785 10796       L1    24  0.34
      L1  C    19    43       P1  7921  1.00

> <Gold.PLP.Chemscore.Internal.Correction>
0.8924

> <Gold.Rescore>
     Score         DG    S(hbond)    S(metal)    S(lipo)     H(rot)  DE(clash)    DE(int)     intcor
      9.14     -13.80       2.85        0.00      79.26       4.09       1.85       2.82       ----

> <Gold.Chemscore.Fitness>
9.1361

> <Gold.Chemscore.DG>
-13.7997

> <Gold.Chemscore.ZeroCoef>
-5.4800

> <Gold.Chemscore.Hbond>
2.8497

> <Gold.Chemscore.Metal>
0.0000

> <Gold.Chemscore.Lipo>
79.2628

> <Gold.Chemscore.Internal_Hbond>
0.0000

> <Gold.Chemscore.DEClash>
1.8483

> <Gold.Chemscore.DEInternal>
2.8152

> <Gold.Chemscore.Rot>
4.0906

> <Gold.Chemscore.Internal.Correction>
   9.000000E+99

> <Gold.Chemscore.Hbonds>
donor molecule, donor type, donor heavy atom, donor atom, acceptor molecule, acceptor atom, score
      L1  H     7    35       P1  7948  0.92
      L1  H    24    48       P1 10186  0.99
      P1  H  7989  7998       L1     4  0.72
      P1  H  7997  8008       L1     4  0.02
      P1  H 10785 10796       L1    24  0.01

> <Gold.Chemscore.Hbond.Weighted>
-9.5179

> <Gold.Chemscore.Metal.Weighted>
-0.0000

> <Gold.Chemscore.Lipo.Weighted>
-9.2737

> <Gold.Chemscore.Internal_Hbond.Weighted>
0.0000

> <Gold.Chemscore.DEClash.Weighted>
1.8483

> <Gold.Chemscore.DEInternal.Weighted>
2.8152

> <Gold.Chemscore.Rot.Weighted>
10.4719

> <Gold.Chemscore.Internal.Correction.Weighted>
   9.000000E+99

> <Gold.Protein.RotatedTorsions>
[ 6907 6896 6895 6894 ] final -152.05 input  -60.11 | X-H torsion
[ 7974 7965 7964 7962 ] final -149.56 input  175.53 | X-H torsion
[ 8008 7997 7996 7995 ] final  -43.73 input   59.86 | X-H torsion
[ 10167 10162 10161 10158 ] final -160.54 input  -65.29 | X-H torsion
[ 10718 10713 10712 10709 ] final  -10.69 input   66.30 | X-H torsion
[ 10763 10752 10751 10750 ] final  164.71 input  -60.55 | X-H torsion
[ 11005 11000 10999 10996 ] final  110.64 input  -57.11 | X-H torsion

> <Gold.Protein.ActiveResidues>
 VAL166  LYS551  ARG553  GLY616  TRP617  ASP618  TYR619  PRO620  LYS621  CYS622 
 ASP623  PHE694  ASN695  SER759  ASP760  ASP761  ALA762  ILE779  LEU786  VAL792 
 PHE793  MET794  SER795  GLU796  ALA797  LYS798  CYS799  TRP800  GLU811  SER814 

> <Gold.Protein.RotatedAtoms>
  151.2221  133.4496  159.2600 H   0  0  0  0  0  0  0  0  0  0  0  0  # atno 6907 bound_to 6896
  151.0875  134.9896  159.8396 H   0  0  0  0  0  0  0  0  0  0  0  0  # atno 6908 bound_to 6896
  152.5431  134.2157  159.8820 H   0  0  0  0  0  0  0  0  0  0  0  0  # atno 6909 bound_to 6896
  144.7960  140.5048  143.5740 H   0  0  0  0  0  0  0  0  0  0  0  0  # atno 7974 bound_to 7965
  154.3997  140.1440  156.3566 H   0  0  0  0  0  0  0  0  0  0  0  0  # atno 8008 bound_to 7997
  155.8219  140.3469  155.5499 H   0  0  0  0  0  0  0  0  0  0  0  0  # atno 8009 bound_to 7997
  155.8278  140.0907  157.1801 H   0  0  0  0  0  0  0  0  0  0  0  0  # atno 8010 bound_to 7997
  139.6531  144.0047  152.2175 H   0  0  0  0  0  0  0  0  0  0  0  0  # atno 10167 bound_to 10162
  156.6699  130.5006  149.6003 H   0  0  0  0  0  0  0  0  0  0  0  0  # atno 10718 bound_to 10713
  154.3130  135.2757  155.2557 H   0  0  0  0  0  0  0  0  0  0  0  0  # atno 10763 bound_to 10752
  154.4943  135.5825  153.6486 H   0  0  0  0  0  0  0  0  0  0  0  0  # atno 10764 bound_to 10752
  152.9885  135.6142  154.3309 H   0  0  0  0  0  0  0  0  0  0  0  0  # atno 10765 bound_to 10752
  139.8886  134.9489  156.6309 H   0  0  0  0  0  0  0  0  0  0  0  0  # atno 11005 bound_to 11000
  145.5673  139.1482  143.3308 LP  0  0  0  0  0  0  0  0  0  0  0  0  # atno 17320 bound_to 7965
  146.2228  140.5807  142.9009 LP  0  0  0  0  0  0  0  0  0  0  0  0  # atno 17321 bound_to 7965
  139.9766  144.6457  150.7939 LP  0  0  0  0  0  0  0  0  0  0  0  0  # atno 17342 bound_to 10162
  140.7547  143.3032  151.3028 LP  0  0  0  0  0  0  0  0  0  0  0  0  # atno 17343 bound_to 10162
  156.1947  130.6582  151.1100 LP  0  0  0  0  0  0  0  0  0  0  0  0  # atno 17370 bound_to 10713
  157.7081  131.0747  150.6598 LP  0  0  0  0  0  0  0  0  0  0  0  0  # atno 17371 bound_to 10713
  140.7667  133.8772  155.8460 LP  0  0  0  0  0  0  0  0  0  0  0  0  # atno 17394 bound_to 11000
  140.9876  134.1321  157.4437 LP  0  0  0  0  0  0  0  0  0  0  0  0  # atno 17395 bound_to 11000

$$$$
