AV-unprocessed.smi:20|AV-procd|sdf|117|dock9
  -GOLD-   2262015283D 1   1.00000     0.00000
 Structure written by MMmdl.
 57 61  0  0  0  0  0  0  0  0  1 V2000
  152.6363  143.8290  163.3904 O   0  0  0  0  0  0  0  0  0  0  0  0
  152.6319  143.1892  162.3414 C   0  0  0  0  0  0  0  0  0  0  0  0
  151.6808  143.4637  161.1891 C   0  0  0  0  0  0  0  0  0  0  0  0
  152.3086  142.6804  160.0107 C   0  0  2  0  0  0  0  0  0  0  0  0
  153.2301  143.5841  159.1480 C   0  0  0  0  0  0  0  0  0  0  0  0
  152.4285  144.5757  158.2866 C   0  0  0  0  0  0  0  0  0  0  0  0
  151.3635  143.8490  157.4534 C   0  0  0  0  0  0  0  0  0  0  0  0
  150.5224  143.0116  158.3057 N   0  0  0  0  0  0  0  0  0  0  0  0
  149.3493  142.6305  157.7397 C   0  0  0  0  0  0  0  0  0  0  0  0
  148.1701  142.9598  158.3325 N   0  0  0  0  0  0  0  0  0  0  0  0
  147.0107  142.5823  157.7859 C   0  0  0  0  0  0  0  0  0  0  0  0
  146.8029  141.8844  156.6680 N   0  0  0  0  0  0  0  0  0  0  0  0
  147.9814  141.5552  156.0665 C   0  0  0  0  0  0  0  0  0  0  0  0
  149.2867  141.8846  156.5289 C   0  0  0  0  0  0  0  0  0  0  0  0
  150.2393  141.3912  155.6443 N   0  0  0  0  0  0  0  0  0  0  0  0
  149.5375  140.7973  154.7175 C   0  0  0  0  0  0  0  0  0  0  0  0
  148.1732  140.8434  154.8963 N   0  0  0  0  0  0  0  0  0  0  0  0
  147.1570  140.2778  154.0269 C   0  0  0  0  0  0  0  0  0  0  0  0
  147.2780  138.7430  153.8314 C   0  0  2  0  0  0  0  0  0  0  0  0
  146.3642  138.2224  152.6924 C   0  0  0  0  0  0  0  0  0  0  0  0
  146.9629  138.3745  151.4219 O   0  0  0  0  0  0  0  0  0  0  0  0
  146.9839  138.0008  155.1615 C   0  0  1  0  0  0  0  0  0  0  0  0
  147.9033  138.3762  156.3225 C   0  0  0  0  0  0  0  0  0  0  0  0
  147.0228  138.2711  157.5718 C   0  0  0  0  0  0  0  0  0  0  0  0
  145.7492  137.8464  157.1102 O   0  0  0  0  0  0  0  0  0  0  0  0
  145.6079  138.2821  155.7699 C   0  0  0  0  0  0  0  0  0  0  0  0
  151.2462  142.0195  159.1031 C   0  0  0  0  0  0  0  0  0  0  0  0
  153.1606  141.6103  160.7340 C   0  0  0  0  0  0  0  0  0  0  0  0
  153.4370  142.1731  162.0413 N   0  0  0  0  0  0  0  0  0  0  0  0
  150.6965  143.0756  161.4538 H   0  0  0  0  0  0  0  0  0  0  0  0
  151.5831  144.5328  161.0036 H   0  0  0  0  0  0  0  0  0  0  0  0
  153.9395  144.1257  159.7752 H   0  0  0  0  0  0  0  0  0  0  0  0
  153.8288  142.9605  158.4825 H   0  0  0  0  0  0  0  0  0  0  0  0
  151.9488  145.3243  158.9168 H   0  0  0  0  0  0  0  0  0  0  0  0
  153.1026  145.1230  157.6274 H   0  0  0  0  0  0  0  0  0  0  0  0
  150.7744  144.5813  156.9023 H   0  0  0  0  0  0  0  0  0  0  0  0
  151.8462  143.2141  156.7093 H   0  0  0  0  0  0  0  0  0  0  0  0
  146.1220  142.8822  158.3214 H   0  0  0  0  0  0  0  0  0  0  0  0
  149.9986  140.3022  153.8753 H   0  0  0  0  0  0  0  0  0  0  0  0
  146.1918  140.5365  154.4614 H   0  0  0  0  0  0  0  0  0  0  0  0
  147.2045  140.7840  153.0619 H   0  0  0  0  0  0  0  0  0  0  0  0
  148.3111  138.5164  153.5631 H   0  0  0  0  0  0  0  0  0  0  0  0
  146.1565  137.1592  152.8050 H   0  0  0  0  0  0  0  0  0  0  0  0
  145.4002  138.7315  152.7061 H   0  0  0  0  0  0  0  0  0  0  0  0
  146.8169  139.2596  151.1242 H   0  0  0  0  0  0  0  0  0  0  0  0
  147.0633  136.9245  154.9981 H   0  0  0  0  0  0  0  0  0  0  0  0
  148.7672  137.7133  156.3806 H   0  0  0  0  0  0  0  0  0  0  0  0
  148.2741  139.3970  156.2210 H   0  0  0  0  0  0  0  0  0  0  0  0
  147.4189  137.5632  158.3003 H   0  0  0  0  0  0  0  0  0  0  0  0
  146.9285  139.2424  158.0586 H   0  0  0  0  0  0  0  0  0  0  0  0
  145.3745  139.3483  155.7527 H   0  0  0  0  0  0  0  0  0  0  0  0
  144.8024  137.7419  155.2722 H   0  0  0  0  0  0  0  0  0  0  0  0
  151.7281  141.3120  158.4267 H   0  0  0  0  0  0  0  0  0  0  0  0
  150.5469  141.4463  159.7141 H   0  0  0  0  0  0  0  0  0  0  0  0
  152.6041  140.6823  160.8735 H   0  0  0  0  0  0  0  0  0  0  0  0
  154.0830  141.3672  160.2057 H   0  0  0  0  0  0  0  0  0  0  0  0
  154.1525  141.8107  162.6548 H   0  0  0  0  0  0  0  0  0  0  0  0
  1  2  2  0  0  0  0
  2 29  1  0  0  0  0
  2  3  1  0  0  0  0
  3  4  1  0  0  0  0
  3 30  1  0  0  0  0
  3 31  1  0  0  0  0
  4 27  1  0  0  0  0
  4  5  1  0  0  0  0
  4 28  1  0  0  0  0
  5  6  1  0  0  0  0
  5 32  1  0  0  0  0
  5 33  1  0  0  0  0
  6  7  1  0  0  0  0
  6 34  1  0  0  0  0
  6 35  1  0  0  0  0
  7  8  1  0  0  0  0
  7 36  1  0  0  0  0
  7 37  1  0  0  0  0
  8  9  1  0  0  0  0
  8 27  1  0  0  0  0
  9 14  1  0  0  0  0
  9 10  2  0  0  0  0
 10 11  1  0  0  0  0
 11 12  2  0  0  0  0
 11 38  1  0  0  0  0
 12 13  1  0  0  0  0
 13 17  1  0  0  0  0
 13 14  2  0  0  0  0
 14 15  1  0  0  0  0
 15 16  2  0  0  0  0
 16 17  1  0  0  0  0
 16 39  1  0  0  0  0
 17 18  1  0  0  0  0
 18 19  1  0  0  0  0
 18 40  1  0  0  0  0
 18 41  1  0  0  0  0
 19 20  1  0  0  0  0
 19 22  1  0  0  0  0
 19 42  1  0  0  0  0
 20 21  1  0  0  0  0
 20 43  1  0  0  0  0
 20 44  1  0  0  0  0
 21 45  1  0  0  0  0
 22 26  1  0  0  0  0
 22 23  1  0  0  0  0
 22 46  1  0  0  0  0
 23 24  1  0  0  0  0
 23 47  1  0  0  0  0
 23 48  1  0  0  0  0
 24 25  1  0  0  0  0
 24 49  1  0  0  0  0
 24 50  1  0  0  0  0
 25 26  1  0  0  0  0
 26 51  1  0  0  0  0
 26 52  1  0  0  0  0
 27 53  1  0  0  0  0
 27 54  1  0  0  0  0
 28 29  1  0  0  0  0
 28 55  1  0  0  0  0
 28 56  1  0  0  0  0
 29 57  1  0  0  0  0
M  END
> <s_m_source_file>
AV-unprocessed.smi

> <i_m_source_file_index>
20

> <i_lp_mmshare_version>
43012

> <i_f3d_flags>
0

> <s_epik_input>
W0NIMl0xW05IXUMoPU8pW0NIMl1bQ0BAXTEyW0NIMl1bQ0gyXVtDSDJdTihbQ0gyXTIpYyhuW2NIXW4zKWMoYzM0KW5bY0hdbjRbQ0gyXVtDQEhdKFtDSDJdW09IXSlbQ0BASF01W0NIMl1bQ0gyXU9bQ0gyXTU=

> <s_epik_cmdline>
J2VwaWtfcHl0aG9uJywgJy1waCcsICc3LjAnLCAnLXRuJywgJzgnLCAnLW1hJywgJzIwMCcsICctbWV0YWxfYmluZGluZycsICctaW1hZScsICc8aW5maWxlLm1hZT4nLCAnLW9tYWUnLCAnPG91dGZpbGUubWFlPic=

> <r_lp_tautomer_probability>
1

> <r_epik_Ionization_Penalty>
0.0019697

> <r_epik_Ionization_Penalty_Charging>
0

> <r_epik_Ionization_Penalty_Neutral>
0.0019697

> <r_epik_State_Penalty>
0.00113613

> <r_epik_Charging_Adjusted_Penalty>
0.00113613

> <i_epik_Tot_Q>
0

> <i_epik_Tot_abs_Q>
0

> <r_epik_Metal_State_Penalty>
-0

> <b_epik_Metal_Only>
0

> <s_lp_Force_Field>
OPLS_2005

> <r_lp_Energy>
58.6133

> <b_lp_Chiralities_Consistent>
1

> <s_lp_Variant>
AV-unprocessed.smi:20-5

> <Gold.Version>
5.8.1

> <Gold.Id.Protein>
6NUR|6NUR_protein|mol2

> <Gold.PLP.Fitness>
54.3773

> <Gold.PLP.PLP>
-49.2654

> <Gold.PLP.part.hbond>
-3.6877

> <Gold.PLP.part.metal>
0.0000

> <Gold.PLP.part.buried>
-4.7561

> <Gold.PLP.part.nonpolar>
-41.6225

> <Gold.PLP.part.repulsive>
0.5483

> <Gold.PLP.ligand.clash>
0.0000

> <Gold.PLP.ligand.torsion>
0.6392

> <Gold.PLP.Chemscore.Hbond>
0.9920

> <Gold.PLP.Chemscore.CHOScore>
1.0000

> <Gold.PLP.Chemscore.Metal>
0.0000

> <Gold.Chemscore.Hbonds>
donor molecule, donor type, donor heavy atom, donor atom, acceptor molecule, acceptor atom, score
      P1  H  7954  7966       L1    21  0.75
      L1  C    16    39       P1  7957  0.45

> <Gold.PLP.Chemscore.Internal.Correction>
0.4143

> <Gold.Rescore>
     Score         DG    S(hbond)    S(metal)    S(lipo)     H(rot)  DE(clash)    DE(int)     intcor
     11.57     -13.87       0.89        0.00     106.19       2.74       0.60       1.70       ----

> <Gold.Chemscore.Fitness>
11.5675

> <Gold.Chemscore.DG>
-13.8651

> <Gold.Chemscore.ZeroCoef>
-5.4800

> <Gold.Chemscore.Hbond>
0.8920

> <Gold.Chemscore.Metal>
0.0000

> <Gold.Chemscore.Lipo>
106.1882

> <Gold.Chemscore.Internal_Hbond>
0.0000

> <Gold.Chemscore.DEClash>
0.5989

> <Gold.Chemscore.DEInternal>
1.6987

> <Gold.Chemscore.Rot>
2.7415

> <Gold.Chemscore.Internal.Correction>
   9.000000E+99

> <Gold.Chemscore.Hbonds>
donor molecule, donor type, donor heavy atom, donor atom, acceptor molecule, acceptor atom, score
      P1  H  7954  7966       L1    21  0.09

> <Gold.Chemscore.Hbond.Weighted>
-2.9793

> <Gold.Chemscore.Metal.Weighted>
-0.0000

> <Gold.Chemscore.Lipo.Weighted>
-12.4240

> <Gold.Chemscore.Internal_Hbond.Weighted>
0.0000

> <Gold.Chemscore.DEClash.Weighted>
0.5989

> <Gold.Chemscore.DEInternal.Weighted>
1.6987

> <Gold.Chemscore.Rot.Weighted>
7.0182

> <Gold.Chemscore.Internal.Correction.Weighted>
   9.000000E+99

> <Gold.Protein.RotatedTorsions>
[ 6907 6896 6895 6894 ] final  -57.85 input  -60.11 | X-H torsion
[ 7974 7965 7964 7962 ] final  118.28 input  175.53 | X-H torsion
[ 8008 7997 7996 7995 ] final  -93.55 input   59.86 | X-H torsion
[ 10167 10162 10161 10158 ] final    9.64 input  -65.29 | X-H torsion
[ 10718 10713 10712 10709 ] final  133.78 input   66.30 | X-H torsion
[ 10763 10752 10751 10750 ] final -167.08 input  -60.55 | X-H torsion
[ 11005 11000 10999 10996 ] final  108.53 input  -57.11 | X-H torsion

> <Gold.Protein.ActiveResidues>
 VAL166  LYS551  ARG553  GLY616  TRP617  ASP618  TYR619  PRO620  LYS621  CYS622 
 ASP623  PHE694  ASN695  SER759  ASP760  ASP761  ALA762  ILE779  LEU786  VAL792 
 PHE793  MET794  SER795  GLU796  ALA797  LYS798  CYS799  TRP800  GLU811  SER814 

> <Gold.Protein.RotatedAtoms>
  150.8053  134.7173  159.6637 H   0  0  0  0  0  0  0  0  0  0  0  0  # atno 6907 bound_to 6896
  152.4172  134.6017  160.0012 H   0  0  0  0  0  0  0  0  0  0  0  0  # atno 6908 bound_to 6896
  151.6243  133.3299  159.3131 H   0  0  0  0  0  0  0  0  0  0  0  0  # atno 6909 bound_to 6896
  145.1571  139.3176  143.4536 H   0  0  0  0  0  0  0  0  0  0  0  0  # atno 7974 bound_to 7965
  154.7371  140.0498  157.0778 H   0  0  0  0  0  0  0  0  0  0  0  0  # atno 8008 bound_to 7997
  155.0226  140.3149  155.4768 H   0  0  0  0  0  0  0  0  0  0  0  0  # atno 8009 bound_to 7997
  156.2855  140.2164  156.5345 H   0  0  0  0  0  0  0  0  0  0  0  0  # atno 8010 bound_to 7997
  140.6243  143.8136  150.7213 H   0  0  0  0  0  0  0  0  0  0  0  0  # atno 10167 bound_to 10162
  157.4738  131.1082  150.9769 H   0  0  0  0  0  0  0  0  0  0  0  0  # atno 10718 bound_to 10713
  154.6769  135.2948  154.9667 H   0  0  0  0  0  0  0  0  0  0  0  0  # atno 10763 bound_to 10752
  154.0675  135.6623  153.4824 H   0  0  0  0  0  0  0  0  0  0  0  0  # atno 10764 bound_to 10752
  153.0522  135.5167  154.7792 H   0  0  0  0  0  0  0  0  0  0  0  0  # atno 10765 bound_to 10752
  139.8846  134.9433  156.5987 H   0  0  0  0  0  0  0  0  0  0  0  0  # atno 11005 bound_to 11000
  146.3487  140.1667  142.8590 LP  0  0  0  0  0  0  0  0  0  0  0  0  # atno 17320 bound_to 7965
  145.0370  140.8916  143.5075 LP  0  0  0  0  0  0  0  0  0  0  0  0  # atno 17321 bound_to 7965
  140.1733  143.4176  152.1985 LP  0  0  0  0  0  0  0  0  0  0  0  0  # atno 17342 bound_to 10162
  139.5466  144.7303  151.4565 LP  0  0  0  0  0  0  0  0  0  0  0  0  # atno 17343 bound_to 10162
  157.0524  130.5792  149.5372 LP  0  0  0  0  0  0  0  0  0  0  0  0  # atno 17370 bound_to 10713
  156.0087  130.5176  150.7916 LP  0  0  0  0  0  0  0  0  0  0  0  0  # atno 17371 bound_to 10713
  140.7900  133.8590  155.8638 LP  0  0  0  0  0  0  0  0  0  0  0  0  # atno 17394 bound_to 11000
  140.9685  134.1562  157.4596 LP  0  0  0  0  0  0  0  0  0  0  0  0  # atno 17395 bound_to 11000

$$$$
