AV-unprocessed.smi:1076|AV-procd|sdf|4698|dock8
  -GOLD-   22720 3223D 1   1.00000     0.00000
 Structure written by MMmdl.
 45 46  0  0  0  0  0  0  0  0  2 V2000
  155.0289  140.5870  161.1438 C   0  0  0  0  0  0  0  0  0  0  0  0
  153.9279  141.5888  160.9476 C   0  0  0  0  0  0  0  0  0  0  0  0
  153.2928  142.3931  161.9362 C   0  0  0  0  0  0  0  0  0  0  0  0
  152.3568  143.1814  161.4334 N   0  0  0  0  0  0  0  0  0  0  0  0
  152.3596  142.9071  160.1112 N   0  0  0  0  0  0  0  0  0  0  0  0
  151.4479  143.6111  159.2272 C   0  0  0  0  0  0  0  0  0  0  0  0
  150.5615  142.6572  158.3995 C   0  0  1  0  0  0  0  0  0  0  0  0
  149.0812  142.8347  158.7620 C   0  0  0  0  0  0  0  0  0  0  0  0
  150.7424  142.8889  156.9491 N   0  3  0  0  0  0  0  0  0  0  0  0
  150.3720  141.7481  156.0814 C   0  0  0  0  0  0  0  0  0  0  0  0
  151.5928  140.8840  155.7081 C   0  0  0  0  0  0  0  0  0  0  0  0
  151.2601  139.5777  154.9625 C   0  0  0  0  0  0  0  0  0  0  0  0
  150.6145  139.6364  153.9146 O   0  0  0  0  0  0  0  0  0  0  0  0
  151.6971  138.4022  155.4743 N   0  0  0  0  0  0  0  0  0  0  0  0
  152.3628  138.2913  156.7750 C   0  0  0  0  0  0  0  0  0  0  0  0
  151.4450  137.4904  157.7171 C   0  0  0  0  0  0  0  0  0  0  0  0
  151.1655  136.2131  157.1480 O   0  0  0  0  0  0  0  0  0  0  0  0
  150.5517  136.2907  155.8632 C   0  0  0  0  0  0  0  0  0  0  0  0
  151.4664  137.0718  154.9034 C   0  0  0  0  0  0  0  0  0  0  0  0
  153.2970  141.9488  159.7904 C   0  0  0  0  0  0  0  0  0  0  0  0
  155.0186  140.1663  162.1494 H   0  0  0  0  0  0  0  0  0  0  0  0
  156.0109  141.0357  160.9931 H   0  0  0  0  0  0  0  0  0  0  0  0
  154.9452  139.7529  160.4468 H   0  0  0  0  0  0  0  0  0  0  0  0
  153.4851  142.4285  162.9986 H   0  0  0  0  0  0  0  0  0  0  0  0
  150.8233  144.2615  159.8411 H   0  0  0  0  0  0  0  0  0  0  0  0
  152.0246  144.2665  158.5723 H   0  0  0  0  0  0  0  0  0  0  0  0
  150.8328  141.6270  158.6374 H   0  0  0  0  0  0  0  0  0  0  0  0
  148.9111  142.6518  159.8235 H   0  0  0  0  0  0  0  0  0  0  0  0
  148.4547  142.1373  158.2049 H   0  0  0  0  0  0  0  0  0  0  0  0
  148.7347  143.8446  158.5392 H   0  0  0  0  0  0  0  0  0  0  0  0
  150.1680  143.6750  156.6789 H   0  0  0  0  0  0  0  0  0  0  0  0
  149.6440  141.1233  156.5992 H   0  0  0  0  0  0  0  0  0  0  0  0
  149.8772  142.1204  155.1829 H   0  0  0  0  0  0  0  0  0  0  0  0
  152.2690  141.4837  155.0972 H   0  0  0  0  0  0  0  0  0  0  0  0
  152.1312  140.6266  156.6210 H   0  0  0  0  0  0  0  0  0  0  0  0
  153.3180  137.7788  156.6528 H   0  0  0  0  0  0  0  0  0  0  0  0
  152.5939  139.2597  157.2204 H   0  0  0  0  0  0  0  0  0  0  0  0
  151.9273  137.3481  158.6844 H   0  0  0  0  0  0  0  0  0  0  0  0
  150.5129  138.0276  157.9002 H   0  0  0  0  0  0  0  0  0  0  0  0
  150.3857  135.2804  155.4891 H   0  0  0  0  0  0  0  0  0  0  0  0
  149.5738  136.7678  155.9440 H   0  0  0  0  0  0  0  0  0  0  0  0
  151.0322  137.0873  153.9051 H   0  0  0  0  0  0  0  0  0  0  0  0
  152.4224  136.5565  154.7989 H   0  0  0  0  0  0  0  0  0  0  0  0
  153.4387  141.6077  158.7752 H   0  0  0  0  0  0  0  0  0  0  0  0
  151.7103  143.1273  156.7848 H   0  0  0  0  0  0  0  0  0  0  0  0
  1  2  1  0  0  0  0
  1 21  1  0  0  0  0
  1 22  1  0  0  0  0
  1 23  1  0  0  0  0
  2 20  2  0  0  0  0
  2  3  1  0  0  0  0
  3  4  2  0  0  0  0
  3 24  1  0  0  0  0
  4  5  1  0  0  0  0
  5  6  1  0  0  0  0
  5 20  1  0  0  0  0
  6  7  1  0  0  0  0
  6 25  1  0  0  0  0
  6 26  1  0  0  0  0
  7  8  1  0  0  0  0
  7  9  1  0  0  0  0
  7 27  1  0  0  0  0
  8 28  1  0  0  0  0
  8 29  1  0  0  0  0
  8 30  1  0  0  0  0
  9 10  1  0  0  0  0
  9 31  1  0  0  0  0
  9 45  1  0  0  0  0
 10 11  1  0  0  0  0
 10 32  1  0  0  0  0
 10 33  1  0  0  0  0
 11 12  1  0  0  0  0
 11 34  1  0  0  0  0
 11 35  1  0  0  0  0
 12 13  2  0  0  0  0
 12 14  1  0  0  0  0
 14 19  1  0  0  0  0
 14 15  1  0  0  0  0
 15 16  1  0  0  0  0
 15 36  1  0  0  0  0
 15 37  1  0  0  0  0
 16 17  1  0  0  0  0
 16 38  1  0  0  0  0
 16 39  1  0  0  0  0
 17 18  1  0  0  0  0
 18 19  1  0  0  0  0
 18 40  1  0  0  0  0
 18 41  1  0  0  0  0
 19 42  1  0  0  0  0
 19 43  1  0  0  0  0
 20 44  1  0  0  0  0
M  CHG  1   9   1
M  END
> <s_m_source_file>
AV-unprocessed.smi

> <i_m_source_file_index>
1076

> <i_lp_mmshare_version>
43012

> <i_f3d_flags>
0

> <s_epik_input>
W0NIM11jMVtjSF1ubihbY0hdMSlbQ0gyXVtDQEhdKFtDSDNdKVtOSF1bQ0gyXVtDSDJdQyg9TylOMltDSDJdW0NIMl1PW0NIMl1bQ0gyXTI=

> <s_epik_cmdline>
J2VwaWtfcHl0aG9uJywgJy1waCcsICc3LjAnLCAnLXRuJywgJzgnLCAnLW1hJywgJzIwMCcsICctbWV0YWxfYmluZGluZycsICctaW1hZScsICc8aW5maWxlLm1hZT4nLCAnLW9tYWUnLCAnPG91dGZpbGUubWFlPic=

> <r_lp_tautomer_probability>
1

> <r_epik_Ionization_Penalty>
0.00797518

> <r_epik_Ionization_Penalty_Charging>
0.0079672

> <r_epik_Ionization_Penalty_Neutral>
7.97619e-06

> <r_epik_State_Penalty>
0.00597998

> <r_epik_Charging_Adjusted_Penalty>
0.0139472

> <i_epik_Tot_Q>
1

> <i_epik_Tot_abs_Q>
1

> <r_epik_Metal_State_Penalty>
0.00598062

> <b_epik_Metal_Only>
0

> <s_lp_Force_Field>
OPLS_2005

> <r_lp_Energy>
23.7914

> <b_lp_Chiralities_Consistent>
1

> <s_lp_Variant>
AV-unprocessed.smi:1076-2

> <Gold.Version>
5.8.1

> <Gold.Id.Protein>
6NUR|6NUR_protein|mol2

> <Gold.PLP.Fitness>
49.1235

> <Gold.PLP.PLP>
-41.3881

> <Gold.PLP.part.hbond>
-3.0000

> <Gold.PLP.part.metal>
0.0000

> <Gold.PLP.part.buried>
-5.8095

> <Gold.PLP.part.nonpolar>
-33.1631

> <Gold.PLP.part.repulsive>
0.3263

> <Gold.PLP.ligand.clash>
0.0000

> <Gold.PLP.ligand.torsion>
1.2528

> <Gold.PLP.Chemscore.Hbond>
3.3801

> <Gold.PLP.Chemscore.CHOScore>
0.0000

> <Gold.PLP.Chemscore.Metal>
0.0000

> <Gold.Chemscore.Hbonds>
donor molecule, donor type, donor heavy atom, donor atom, acceptor molecule, acceptor atom, score
      L1  H     9    31       P1  8028  2.00
      P1  H  7989  7998       L1    13  0.35

> <Gold.PLP.Chemscore.Internal.Correction>
0.1007

> <Gold.Rescore>
     Score         DG    S(hbond)    S(metal)    S(lipo)     H(rot)  DE(clash)    DE(int)     intcor
     16.31     -17.81       1.96        0.00      92.92       1.98       0.08       1.42       ----

> <Gold.Chemscore.Fitness>
16.3117

> <Gold.Chemscore.DG>
-17.8114

> <Gold.Chemscore.ZeroCoef>
-5.4800

> <Gold.Chemscore.Hbond>
1.9576

> <Gold.Chemscore.Metal>
0.0000

> <Gold.Chemscore.Lipo>
92.9180

> <Gold.Chemscore.Internal_Hbond>
0.0000

> <Gold.Chemscore.DEClash>
0.0756

> <Gold.Chemscore.DEInternal>
1.4242

> <Gold.Chemscore.Rot>
1.9837

> <Gold.Chemscore.Internal.Correction>
   9.000000E+99

> <Gold.Chemscore.Hbonds>
donor molecule, donor type, donor heavy atom, donor atom, acceptor molecule, acceptor atom, score
      L1  H     9    31       P1  8028  0.99
      P1  H  7989  7998       L1    13  0.01

> <Gold.Chemscore.Hbond.Weighted>
-6.5382

> <Gold.Chemscore.Metal.Weighted>
-0.0000

> <Gold.Chemscore.Lipo.Weighted>
-10.8714

> <Gold.Chemscore.Internal_Hbond.Weighted>
0.0000

> <Gold.Chemscore.DEClash.Weighted>
0.0756

> <Gold.Chemscore.DEInternal.Weighted>
1.4242

> <Gold.Chemscore.Rot.Weighted>
5.0782

> <Gold.Chemscore.Internal.Correction.Weighted>
   9.000000E+99

> <Gold.Protein.RotatedTorsions>
[ 6907 6896 6895 6894 ] final -171.21 input  -60.11 | X-H torsion
[ 7974 7965 7964 7962 ] final  162.04 input  175.53 | X-H torsion
[ 8008 7997 7996 7995 ] final  111.54 input   59.86 | X-H torsion
[ 10167 10162 10161 10158 ] final   96.07 input  -65.29 | X-H torsion
[ 10718 10713 10712 10709 ] final  169.11 input   66.30 | X-H torsion
[ 10763 10752 10751 10750 ] final -101.13 input  -60.55 | X-H torsion
[ 11005 11000 10999 10996 ] final   69.53 input  -57.11 | X-H torsion

> <Gold.Protein.ActiveResidues>
 VAL166  LYS551  ARG553  GLY616  TRP617  ASP618  TYR619  PRO620  LYS621  CYS622 
 ASP623  PHE694  ASN695  SER759  ASP760  ASP761  ALA762  ILE779  LEU786  VAL792 
 PHE793  MET794  SER795  GLU796  ALA797  LYS798  CYS799  TRP800  GLU811  SER814 

> <Gold.Protein.RotatedAtoms>
  151.5202  133.3468  159.2899 H   0  0  0  0  0  0  0  0  0  0  0  0  # atno 6907 bound_to 6896
  150.8657  134.8022  159.7128 H   0  0  0  0  0  0  0  0  0  0  0  0  # atno 6908 bound_to 6896
  152.4662  134.5078  159.9796 H   0  0  0  0  0  0  0  0  0  0  0  0  # atno 6909 bound_to 6896
  144.7656  139.7983  143.6316 H   0  0  0  0  0  0  0  0  0  0  0  0  # atno 7974 bound_to 7965
  156.2131  140.3017  155.9778 H   0  0  0  0  0  0  0  0  0  0  0  0  # atno 8008 bound_to 7997
  155.2673  140.0432  157.3020 H   0  0  0  0  0  0  0  0  0  0  0  0  # atno 8009 bound_to 7997
  154.5728  140.2353  155.8174 H   0  0  0  0  0  0  0  0  0  0  0  0  # atno 8010 bound_to 7997
  139.7929  144.6845  150.9868 H   0  0  0  0  0  0  0  0  0  0  0  0  # atno 10167 bound_to 10162
  157.0274  131.0249  151.2755 H   0  0  0  0  0  0  0  0  0  0  0  0  # atno 10718 bound_to 10713
  154.7634  135.4909  153.9507 H   0  0  0  0  0  0  0  0  0  0  0  0  # atno 10763 bound_to 10752
  153.1278  135.6746  153.9235 H   0  0  0  0  0  0  0  0  0  0  0  0  # atno 10764 bound_to 10752
  153.8948  135.3116  155.3426 H   0  0  0  0  0  0  0  0  0  0  0  0  # atno 10765 bound_to 10752
  139.9648  134.6999  156.0568 H   0  0  0  0  0  0  0  0  0  0  0  0  # atno 11005 bound_to 11000
  146.1760  139.4931  142.9897 LP  0  0  0  0  0  0  0  0  0  0  0  0  # atno 17320 bound_to 7965
  145.6480  141.0269  143.1775 LP  0  0  0  0  0  0  0  0  0  0  0  0  # atno 17321 bound_to 7965
  140.7820  143.4362  151.0620 LP  0  0  0  0  0  0  0  0  0  0  0  0  # atno 17342 bound_to 10162
  139.8038  143.8047  152.3165 LP  0  0  0  0  0  0  0  0  0  0  0  0  # atno 17343 bound_to 10162
  157.5204  130.7994  149.7802 LP  0  0  0  0  0  0  0  0  0  0  0  0  # atno 17370 bound_to 10713
  156.0081  130.3846  150.2359 LP  0  0  0  0  0  0  0  0  0  0  0  0  # atno 17371 bound_to 10713
  141.1327  133.6582  156.3509 LP  0  0  0  0  0  0  0  0  0  0  0  0  # atno 17394 bound_to 11000
  140.5420  134.6111  157.5382 LP  0  0  0  0  0  0  0  0  0  0  0  0  # atno 17395 bound_to 11000

$$$$
