AV-unprocessed.smi:2460|AV-procd|sdf|9715|dock4
  -GOLD-   2272013353D 1   1.00000     0.00000
 Structure written by MMmdl.
 46 48  0  0  0  0  0  0  0  0  1 V2000
  144.2294  132.8051  149.7231 C   0  0  0  0  0  0  0  0  0  0  0  0
  144.9833  133.3603  150.9435 C   0  0  0  0  0  0  0  0  0  0  0  0
  146.1973  132.4838  151.2874 C   0  0  0  0  0  0  0  0  0  0  0  0
  145.3639  134.8349  150.7608 C   0  0  0  0  0  0  0  0  0  0  0  0
  144.1710  135.5733  151.3351 C   0  0  2  0  0  0  0  0  0  0  0  0
  144.5297  136.9219  151.7699 N   0  0  0  0  0  0  0  0  0  0  0  0
  145.6580  137.2494  152.4137 C   0  0  0  0  0  0  0  0  0  0  0  0
  146.5133  136.4299  152.7474 O   0  0  0  0  0  0  0  0  0  0  0  0
  145.7332  138.5753  152.6160 N   0  0  0  0  0  0  0  0  0  0  0  0
  146.7886  139.3092  153.2192 C   0  0  0  0  0  0  0  0  0  0  0  0
  147.9447  138.6232  153.6466 C   0  0  0  0  0  0  0  0  0  0  0  0
  148.9855  139.2634  154.2209 N   0  0  0  0  0  0  0  0  0  0  0  0
  148.8722  140.5864  154.3683 C   0  0  0  0  0  0  0  0  0  0  0  0
  150.0393  141.2978  154.9790 C   0  0  0  0  0  0  0  0  0  0  0  0
  151.2658  140.5309  155.4297 C   0  0  0  0  0  0  0  0  0  0  0  0
  150.3534  141.1461  156.4538 C   0  0  0  0  0  0  0  0  0  0  0  0
  147.8455  141.3460  153.9767 N   0  0  0  0  0  0  0  0  0  0  0  0
  146.7988  140.7138  153.4033 C   0  0  0  0  0  0  0  0  0  0  0  0
  143.7270  134.6441  152.4863 C   0  0  0  0  0  0  0  0  0  0  0  0
  144.4752  134.8764  153.8163 C   0  0  0  0  0  0  0  0  0  0  0  0
  142.2063  134.6729  152.7066 C   0  0  0  0  0  0  0  0  0  0  0  0
  144.0794  133.3332  152.0470 O   0  0  0  0  0  0  0  0  0  0  0  0
  144.8612  132.8053  148.8346 H   0  0  0  0  0  0  0  0  0  0  0  0
  143.3410  133.3958  149.4985 H   0  0  0  0  0  0  0  0  0  0  0  0
  143.9033  131.7794  149.8973 H   0  0  0  0  0  0  0  0  0  0  0  0
  146.9314  132.4937  150.4815 H   0  0  0  0  0  0  0  0  0  0  0  0
  145.9002  131.4482  151.4550 H   0  0  0  0  0  0  0  0  0  0  0  0
  146.6932  132.8336  152.1933 H   0  0  0  0  0  0  0  0  0  0  0  0
  146.2601  135.0690  151.3375 H   0  0  0  0  0  0  0  0  0  0  0  0
  145.5662  135.1008  149.7227 H   0  0  0  0  0  0  0  0  0  0  0  0
  143.3979  135.6150  150.5650 H   0  0  0  0  0  0  0  0  0  0  0  0
  143.8846  137.6614  151.5335 H   0  0  0  0  0  0  0  0  0  0  0  0
  144.9871  139.1299  152.2225 H   0  0  0  0  0  0  0  0  0  0  0  0
  148.0356  137.5528  153.5340 H   0  0  0  0  0  0  0  0  0  0  0  0
  150.1895  142.2757  154.5256 H   0  0  0  0  0  0  0  0  0  0  0  0
  151.2516  139.4468  155.3343 H   0  0  0  0  0  0  0  0  0  0  0  0
  152.2349  140.9996  155.2728 H   0  0  0  0  0  0  0  0  0  0  0  0
  150.7117  142.0262  156.9834 H   0  0  0  0  0  0  0  0  0  0  0  0
  149.7325  140.4710  157.0397 H   0  0  0  0  0  0  0  0  0  0  0  0
  145.9896  141.3505  153.0815 H   0  0  0  0  0  0  0  0  0  0  0  0
  144.2248  135.8425  154.2554 H   0  0  0  0  0  0  0  0  0  0  0  0
  145.5564  134.8413  153.6821 H   0  0  0  0  0  0  0  0  0  0  0  0
  144.2145  134.1115  154.5482 H   0  0  0  0  0  0  0  0  0  0  0  0
  141.8740  135.6527  153.0495 H   0  0  0  0  0  0  0  0  0  0  0  0
  141.9030  133.9410  153.4554 H   0  0  0  0  0  0  0  0  0  0  0  0
  141.6691  134.4425  151.7863 H   0  0  0  0  0  0  0  0  0  0  0  0
  1  2  1  0  0  0  0
  1 23  1  0  0  0  0
  1 24  1  0  0  0  0
  1 25  1  0  0  0  0
  2 22  1  0  0  0  0
  2  3  1  0  0  0  0
  2  4  1  0  0  0  0
  3 26  1  0  0  0  0
  3 27  1  0  0  0  0
  3 28  1  0  0  0  0
  4  5  1  0  0  0  0
  4 29  1  0  0  0  0
  4 30  1  0  0  0  0
  5  6  1  0  0  0  0
  5 19  1  0  0  0  0
  5 31  1  0  0  0  0
  6  7  1  0  0  0  0
  6 32  1  0  0  0  0
  7  8  2  0  0  0  0
  7  9  1  0  0  0  0
  9 10  1  0  0  0  0
  9 33  1  0  0  0  0
 10 18  1  0  0  0  0
 10 11  2  0  0  0  0
 11 12  1  0  0  0  0
 11 34  1  0  0  0  0
 12 13  2  0  0  0  0
 13 14  1  0  0  0  0
 13 17  1  0  0  0  0
 14 16  1  0  0  0  0
 14 15  1  0  0  0  0
 14 35  1  0  0  0  0
 15 16  1  0  0  0  0
 15 36  1  0  0  0  0
 15 37  1  0  0  0  0
 16 38  1  0  0  0  0
 16 39  1  0  0  0  0
 17 18  2  0  0  0  0
 18 40  1  0  0  0  0
 19 20  1  0  0  0  0
 19 21  1  0  0  0  0
 19 22  1  0  0  0  0
 20 41  1  0  0  0  0
 20 42  1  0  0  0  0
 20 43  1  0  0  0  0
 21 44  1  0  0  0  0
 21 45  1  0  0  0  0
 21 46  1  0  0  0  0
M  END
> <s_m_source_file>
AV-unprocessed.smi

> <i_m_source_file_index>
2460

> <i_lp_mmshare_version>
43012

> <i_f3d_flags>
0

> <s_epik_input>
W0NIM11DMShbQ0gzXSlbQ0gyXVtDQEhdKEMoTzEpKFtDSDNdKVtDSDNdKVtOSF1DKD1PKVtOSF1jMltjSF1uYyhuW2NIXTIpW0NIXTNbQ0gyXVtDSDJdMw==

> <s_epik_cmdline>
J2VwaWtfcHl0aG9uJywgJy1waCcsICc3LjAnLCAnLXRuJywgJzgnLCAnLW1hJywgJzIwMCcsICctbWV0YWxfYmluZGluZycsICctaW1hZScsICc8aW5maWxlLm1hZT4nLCAnLW9tYWUnLCAnPG91dGZpbGUubWFlPic=

> <r_lp_tautomer_probability>
1

> <r_epik_Ionization_Penalty>
2.38399e-05

> <r_epik_Ionization_Penalty_Charging>
0

> <r_epik_Ionization_Penalty_Neutral>
2.38399e-05

> <r_epik_State_Penalty>
-0

> <r_epik_Charging_Adjusted_Penalty>
0

> <i_epik_Tot_Q>
0

> <i_epik_Tot_abs_Q>
0

> <r_epik_Metal_State_Penalty>
-0

> <b_epik_Metal_Only>
0

> <s_lp_Force_Field>
OPLS_2005

> <r_lp_Energy>
17.9428

> <b_lp_Chiralities_Consistent>
1

> <s_lp_Variant>
AV-unprocessed.smi:2460-2

> <Gold.Version>
5.8.1

> <Gold.Id.Protein>
6NUR|6NUR_protein|mol2

> <Gold.PLP.Fitness>
43.0222

> <Gold.PLP.PLP>
-33.6154

> <Gold.PLP.part.hbond>
-2.0000

> <Gold.PLP.part.metal>
0.0000

> <Gold.PLP.part.buried>
-5.4121

> <Gold.PLP.part.nonpolar>
-29.8743

> <Gold.PLP.part.repulsive>
3.6185

> <Gold.PLP.ligand.clash>
0.0140

> <Gold.PLP.ligand.torsion>
0.3260

> <Gold.PLP.Chemscore.Hbond>
1.4800

> <Gold.PLP.Chemscore.CHOScore>
1.8345

> <Gold.PLP.Chemscore.Metal>
0.0000

> <Gold.Chemscore.Hbonds>
donor molecule, donor type, donor heavy atom, donor atom, acceptor molecule, acceptor atom, score
      L1  H     6    32       P1 10171  0.50
      L1  H     9    33       P1 10175  0.99
      L1  C    11    34       P1  7948  1.00
      L1  C    18    40       P1 10175  0.71

> <Gold.PLP.Chemscore.Internal.Correction>
0.1292

> <Gold.Rescore>
     Score         DG    S(hbond)    S(metal)    S(lipo)     H(rot)  DE(clash)    DE(int)     intcor
     10.75     -16.90       1.49        0.00      80.80       1.18       0.34       5.80       ----

> <Gold.Chemscore.Fitness>
10.7527

> <Gold.Chemscore.DG>
-16.8971

> <Gold.Chemscore.ZeroCoef>
-5.4800

> <Gold.Chemscore.Hbond>
1.4911

> <Gold.Chemscore.Metal>
0.0000

> <Gold.Chemscore.Lipo>
80.8007

> <Gold.Chemscore.Internal_Hbond>
0.0000

> <Gold.Chemscore.DEClash>
0.3431

> <Gold.Chemscore.DEInternal>
5.8013

> <Gold.Chemscore.Rot>
1.1785

> <Gold.Chemscore.Internal.Correction>
   9.000000E+99

> <Gold.Chemscore.Hbonds>
donor molecule, donor type, donor heavy atom, donor atom, acceptor molecule, acceptor atom, score
      L1  H     6    32       P1 10171  0.49
      L1  H     9    33       P1 10175  0.93

> <Gold.Chemscore.Hbond.Weighted>
-4.9803

> <Gold.Chemscore.Metal.Weighted>
-0.0000

> <Gold.Chemscore.Lipo.Weighted>
-9.4537

> <Gold.Chemscore.Internal_Hbond.Weighted>
0.0000

> <Gold.Chemscore.DEClash.Weighted>
0.3431

> <Gold.Chemscore.DEInternal.Weighted>
5.8013

> <Gold.Chemscore.Rot.Weighted>
3.0169

> <Gold.Chemscore.Internal.Correction.Weighted>
   9.000000E+99

> <Gold.Protein.RotatedTorsions>
[ 6907 6896 6895 6894 ] final   11.53 input  -60.11 | X-H torsion
[ 7974 7965 7964 7962 ] final   58.80 input  175.53 | X-H torsion
[ 8008 7997 7996 7995 ] final  -66.91 input   59.86 | X-H torsion
[ 10167 10162 10161 10158 ] final  162.71 input  -65.29 | X-H torsion
[ 10718 10713 10712 10709 ] final   90.03 input   66.30 | X-H torsion
[ 10763 10752 10751 10750 ] final  127.84 input  -60.55 | X-H torsion
[ 11005 11000 10999 10996 ] final  -25.62 input  -57.11 | X-H torsion

> <Gold.Protein.ActiveResidues>
 VAL166  LYS551  ARG553  GLY616  TRP617  ASP618  TYR619  PRO620  LYS621  CYS622 
 ASP623  PHE694  ASN695  SER759  ASP760  ASP761  ALA762  ILE779  LEU786  VAL792 
 PHE793  MET794  SER795  GLU796  ALA797  LYS798  CYS799  TRP800  GLU811  SER814 

> <Gold.Protein.RotatedAtoms>
  151.7557  135.0822  160.0337 H   0  0  0  0  0  0  0  0  0  0  0  0  # atno 6907 bound_to 6896
  152.3387  133.6037  159.5869 H   0  0  0  0  0  0  0  0  0  0  0  0  # atno 6908 bound_to 6896
  150.7466  133.9673  159.3576 H   0  0  0  0  0  0  0  0  0  0  0  0  # atno 6909 bound_to 6896
  145.9142  139.3677  143.0517 H   0  0  0  0  0  0  0  0  0  0  0  0  # atno 7974 bound_to 7965
  154.4765  140.0903  156.7274 H   0  0  0  0  0  0  0  0  0  0  0  0  # atno 8008 bound_to 7997
  155.4583  140.3460  155.4291 H   0  0  0  0  0  0  0  0  0  0  0  0  # atno 8009 bound_to 7997
  156.1124  140.1451  156.9308 H   0  0  0  0  0  0  0  0  0  0  0  0  # atno 8010 bound_to 7997
  139.4864  144.4410  151.8952 H   0  0  0  0  0  0  0  0  0  0  0  0  # atno 10167 bound_to 10162
  157.6957  131.0355  150.3515 H   0  0  0  0  0  0  0  0  0  0  0  0  # atno 10718 bound_to 10713
  153.7158  135.3261  155.3256 H   0  0  0  0  0  0  0  0  0  0  0  0  # atno 10763 bound_to 10752
  154.8371  135.4488  154.1267 H   0  0  0  0  0  0  0  0  0  0  0  0  # atno 10764 bound_to 10752
  153.2374  135.6967  153.7901 H   0  0  0  0  0  0  0  0  0  0  0  0  # atno 10765 bound_to 10752
  140.8955  133.7559  156.0475 H   0  0  0  0  0  0  0  0  0  0  0  0  # atno 11005 bound_to 11000
  145.8633  140.9462  143.0688 LP  0  0  0  0  0  0  0  0  0  0  0  0  # atno 17320 bound_to 7965
  144.6746  140.0559  143.7477 LP  0  0  0  0  0  0  0  0  0  0  0  0  # atno 17321 bound_to 7965
  140.3861  144.2674  150.5904 LP  0  0  0  0  0  0  0  0  0  0  0  0  # atno 17342 bound_to 10162
  140.5188  143.2271  151.8420 LP  0  0  0  0  0  0  0  0  0  0  0  0  # atno 17343 bound_to 10162
  156.3963  130.3907  149.6993 LP  0  0  0  0  0  0  0  0  0  0  0  0  # atno 17370 bound_to 10713
  156.4325  130.7822  151.2842 LP  0  0  0  0  0  0  0  0  0  0  0  0  # atno 17371 bound_to 10713
  140.8295  134.3195  157.5354 LP  0  0  0  0  0  0  0  0  0  0  0  0  # atno 17394 bound_to 11000
  139.8735  134.9355  156.3635 LP  0  0  0  0  0  0  0  0  0  0  0  0  # atno 17395 bound_to 11000

$$$$
