AV-unprocessed.smi:1795|AV-procd|sdf|7246|dock1
  -GOLD-   22720 8493D 1   1.00000     0.00000
 Structure written by MMmdl.
 48 49  0  0  0  0  0  0  0  0  2 V2000
  149.2399  141.2847  154.7852 C   0  0  0  0  0  0  0  0  0  0  0  0
  149.8745  139.9148  155.0477 C   0  0  1  0  0  0  0  0  0  0  0  0
  149.4593  138.8716  153.9908 C   0  0  0  0  0  0  0  0  0  0  0  0
  150.1246  137.5624  154.2330 N   0  3  2  0  0  0  0  0  0  0  0  0
  149.5955  136.7158  155.3554 C   0  0  1  0  0  0  0  0  0  0  0  0
  149.5808  137.4429  156.7220 C   0  0  0  0  0  0  0  0  0  0  0  0
  148.1731  136.2102  155.0095 C   0  0  0  0  0  0  0  0  0  0  0  0
  148.1887  135.1787  153.9790 N   0  0  0  0  0  0  0  0  0  0  0  0
  147.5265  134.0164  154.0639 C   0  0  0  0  0  0  0  0  0  0  0  0
  146.8326  133.7097  155.0343 O   0  0  0  0  0  0  0  0  0  0  0  0
  147.6581  133.0778  152.8559 C   0  0  0  0  0  0  0  0  0  0  0  0
  146.5641  133.2219  151.8813 N   0  0  0  0  0  0  0  0  0  0  0  0
  146.3052  134.5194  151.3961 C   0  0  0  0  0  0  0  0  0  0  0  0
  145.3302  134.7633  150.5065 C   0  0  0  0  0  0  0  0  0  0  0  0
  144.5357  133.6507  150.0425 C   0  0  0  0  0  0  0  0  0  0  0  0
  144.7713  132.4064  150.5041 C   0  0  0  0  0  0  0  0  0  0  0  0
  145.8320  132.1363  151.4820 C   0  0  0  0  0  0  0  0  0  0  0  0
  146.0496  131.0042  151.9153 O   0  0  0  0  0  0  0  0  0  0  0  0
  151.5976  137.7761  154.2752 C   0  0  0  0  0  0  0  0  0  0  0  0
  151.9890  138.8670  155.2977 C   0  0  1  0  0  0  0  0  0  0  0  0
  153.4905  139.1717  155.2637 C   0  0  0  0  0  0  0  0  0  0  0  0
  151.2886  140.0693  154.9984 O   0  0  0  0  0  0  0  0  0  0  0  0
  148.1517  141.2262  154.8183 H   0  0  0  0  0  0  0  0  0  0  0  0
  149.5248  141.6719  153.8063 H   0  0  0  0  0  0  0  0  0  0  0  0
  149.5565  142.0108  155.5343 H   0  0  0  0  0  0  0  0  0  0  0  0
  149.5809  139.5824  156.0446 H   0  0  0  0  0  0  0  0  0  0  0  0
  148.3768  138.7806  153.9154 H   0  0  0  0  0  0  0  0  0  0  0  0
  149.7745  139.2246  153.0076 H   0  0  0  0  0  0  0  0  0  0  0  0
  150.2462  135.8494  155.4712 H   0  0  0  0  0  0  0  0  0  0  0  0
  149.1553  136.8197  157.5082 H   0  0  0  0  0  0  0  0  0  0  0  0
  148.9912  138.3593  156.6793 H   0  0  0  0  0  0  0  0  0  0  0  0
  150.5845  137.6970  157.0623 H   0  0  0  0  0  0  0  0  0  0  0  0
  147.6951  135.8106  155.9058 H   0  0  0  0  0  0  0  0  0  0  0  0
  147.5366  137.0186  154.6525 H   0  0  0  0  0  0  0  0  0  0  0  0
  148.7369  135.3584  153.1501 H   0  0  0  0  0  0  0  0  0  0  0  0
  148.6192  133.2720  152.3780 H   0  0  0  0  0  0  0  0  0  0  0  0
  147.7178  132.0454  153.2056 H   0  0  0  0  0  0  0  0  0  0  0  0
  146.9395  135.2964  151.7980 H   0  0  0  0  0  0  0  0  0  0  0  0
  145.1426  135.7657  150.1506 H   0  0  0  0  0  0  0  0  0  0  0  0
  143.7483  133.8172  149.3221 H   0  0  0  0  0  0  0  0  0  0  0  0
  144.1662  131.5865  150.1457 H   0  0  0  0  0  0  0  0  0  0  0  0
  152.1365  136.8541  154.4845 H   0  0  0  0  0  0  0  0  0  0  0  0
  151.9199  138.0852  153.2797 H   0  0  0  0  0  0  0  0  0  0  0  0
  151.7329  138.5506  156.3094 H   0  0  0  0  0  0  0  0  0  0  0  0
  154.0763  138.2848  155.5067 H   0  0  0  0  0  0  0  0  0  0  0  0
  153.7479  139.9463  155.9865 H   0  0  0  0  0  0  0  0  0  0  0  0
  153.8019  139.5195  154.2781 H   0  0  0  0  0  0  0  0  0  0  0  0
  149.9409  137.0191  153.4013 H   0  0  0  0  0  0  0  0  0  0  0  0
  1  2  1  0  0  0  0
  1 23  1  0  0  0  0
  1 24  1  0  0  0  0
  1 25  1  0  0  0  0
  2 22  1  0  0  0  0
  2  3  1  0  0  0  0
  2 26  1  0  0  0  0
  3  4  1  0  0  0  0
  3 27  1  0  0  0  0
  3 28  1  0  0  0  0
  4  5  1  0  0  0  0
  4 19  1  0  0  0  0
  4 48  1  0  0  0  0
  5  6  1  0  0  0  0
  5  7  1  0  0  0  0
  5 29  1  0  0  0  0
  6 30  1  0  0  0  0
  6 31  1  0  0  0  0
  6 32  1  0  0  0  0
  7  8  1  0  0  0  0
  7 33  1  0  0  0  0
  7 34  1  0  0  0  0
  8  9  1  0  0  0  0
  8 35  1  0  0  0  0
  9 10  2  0  0  0  0
  9 11  1  0  0  0  0
 11 12  1  0  0  0  0
 11 36  1  0  0  0  0
 11 37  1  0  0  0  0
 12 17  1  0  0  0  0
 12 13  1  0  0  0  0
 13 14  2  0  0  0  0
 13 38  1  0  0  0  0
 14 15  1  0  0  0  0
 14 39  1  0  0  0  0
 15 16  2  0  0  0  0
 15 40  1  0  0  0  0
 16 17  1  0  0  0  0
 16 41  1  0  0  0  0
 17 18  2  0  0  0  0
 19 20  1  0  0  0  0
 19 42  1  0  0  0  0
 19 43  1  0  0  0  0
 20 21  1  0  0  0  0
 20 22  1  0  0  0  0
 20 44  1  0  0  0  0
 21 45  1  0  0  0  0
 21 46  1  0  0  0  0
 21 47  1  0  0  0  0
M  CHG  1   4   1
M  END
> <s_m_source_file>
AV-unprocessed.smi

> <i_m_source_file_index>
1795

> <i_lp_mmshare_version>
43012

> <i_f3d_flags>
0

> <s_epik_input>
W0NIM11bQ0BASF0xW0NIMl1OKFtDSDJdW0NASF0oTzEpW0NIM10pW0NASF0oW0NIM10pW0NIMl1bTkhdQyg9TylbQ0gyXW4yW2NIXVtjSF1bY0hdW2NIXWMyPU8=

> <s_epik_cmdline>
J2VwaWtfcHl0aG9uJywgJy1waCcsICc3LjAnLCAnLXRuJywgJzgnLCAnLW1hJywgJzIwMCcsICctbWV0YWxfYmluZGluZycsICctaW1hZScsICc8aW5maWxlLm1hZT4nLCAnLW9tYWUnLCAnPG91dGZpbGUubWFlPic=

> <r_lp_tautomer_probability>
1

> <r_epik_Ionization_Penalty>
0.656654

> <r_epik_Ionization_Penalty_Charging>
0.656654

> <r_epik_Ionization_Penalty_Neutral>
8.90321e-08

> <r_epik_State_Penalty>
0.675641

> <r_epik_Charging_Adjusted_Penalty>
1.33229

> <i_epik_Tot_Q>
1

> <i_epik_Tot_abs_Q>
1

> <r_epik_Metal_State_Penalty>
0.675691

> <b_epik_Metal_Only>
0

> <s_lp_Force_Field>
OPLS_2005

> <r_lp_Energy>
32.8471

> <b_lp_Chiralities_Consistent>
1

> <s_lp_Variant>
AV-unprocessed.smi:1795-10

> <Gold.Version>
5.8.1

> <Gold.Id.Protein>
6NUR|6NUR_protein|mol2

> <Gold.PLP.Fitness>
50.5677

> <Gold.PLP.PLP>
-36.8279

> <Gold.PLP.part.hbond>
-3.1067

> <Gold.PLP.part.metal>
0.0000

> <Gold.PLP.part.buried>
-1.0356

> <Gold.PLP.part.nonpolar>
-32.6376

> <Gold.PLP.part.repulsive>
0.2694

> <Gold.PLP.ligand.clash>
0.0000

> <Gold.PLP.ligand.torsion>
0.6962

> <Gold.PLP.Chemscore.Hbond>
3.9913

> <Gold.PLP.Chemscore.CHOScore>
1.0000

> <Gold.PLP.Chemscore.Metal>
0.0000

> <Gold.Chemscore.Hbonds>
donor molecule, donor type, donor heavy atom, donor atom, acceptor molecule, acceptor atom, score
      L1  H     4    48       P1  7948  2.00
      L1  H     8    35       P1  7948  0.99
      P1  H  7989  7998       L1    22  1.00
      L1  C    13    38       P1  7948  1.00

> <Gold.PLP.Chemscore.Internal.Correction>
0.1584

> <Gold.Rescore>
     Score         DG    S(hbond)    S(metal)    S(lipo)     H(rot)  DE(clash)    DE(int)     intcor
     15.74     -18.53       2.37        0.00      85.10       1.89       0.93       1.86       ----

> <Gold.Chemscore.Fitness>
15.7442

> <Gold.Chemscore.DG>
-18.5332

> <Gold.Chemscore.ZeroCoef>
-5.4800

> <Gold.Chemscore.Hbond>
2.3733

> <Gold.Chemscore.Metal>
0.0000

> <Gold.Chemscore.Lipo>
85.1023

> <Gold.Chemscore.Internal_Hbond>
0.0000

> <Gold.Chemscore.DEClash>
0.9276

> <Gold.Chemscore.DEInternal>
1.8613

> <Gold.Chemscore.Rot>
1.8870

> <Gold.Chemscore.Internal.Correction>
   9.000000E+99

> <Gold.Chemscore.Hbonds>
donor molecule, donor type, donor heavy atom, donor atom, acceptor molecule, acceptor atom, score
      L1  H     4    48       P1  7948  0.30
      L1  H     8    35       P1  7948  0.70
      P1  H  7989  7998       L1    22  0.57

> <Gold.Chemscore.Hbond.Weighted>
-7.9270

> <Gold.Chemscore.Metal.Weighted>
-0.0000

> <Gold.Chemscore.Lipo.Weighted>
-9.9570

> <Gold.Chemscore.Internal_Hbond.Weighted>
0.0000

> <Gold.Chemscore.DEClash.Weighted>
0.9276

> <Gold.Chemscore.DEInternal.Weighted>
1.8613

> <Gold.Chemscore.Rot.Weighted>
4.8308

> <Gold.Chemscore.Internal.Correction.Weighted>
   9.000000E+99

> <Gold.Protein.RotatedTorsions>
[ 6907 6896 6895 6894 ] final  -42.41 input  -60.11 | X-H torsion
[ 7974 7965 7964 7962 ] final -173.58 input  175.53 | X-H torsion
[ 8008 7997 7996 7995 ] final   98.83 input   59.86 | X-H torsion
[ 10167 10162 10161 10158 ] final -145.97 input  -65.29 | X-H torsion
[ 10718 10713 10712 10709 ] final  -56.68 input   66.30 | X-H torsion
[ 10763 10752 10751 10750 ] final  -61.44 input  -60.55 | X-H torsion
[ 11005 11000 10999 10996 ] final   46.07 input  -57.11 | X-H torsion

> <Gold.Protein.ActiveResidues>
 VAL166  LYS551  ARG553  GLY616  TRP617  ASP618  TYR619  PRO620  LYS621  CYS622 
 ASP623  PHE694  ASN695  SER759  ASP760  ASP761  ALA762  ILE779  LEU786  VAL792 
 PHE793  MET794  SER795  GLU796  ALA797  LYS798  CYS799  TRP800  GLU811  SER814 

> <Gold.Protein.RotatedAtoms>
  150.9556  134.8950  159.7698 H   0  0  0  0  0  0  0  0  0  0  0  0  # atno 6907 bound_to 6896
  152.5136  134.3745  159.9340 H   0  0  0  0  0  0  0  0  0  0  0  0  # atno 6908 bound_to 6896
  151.3760  133.3798  159.2739 H   0  0  0  0  0  0  0  0  0  0  0  0  # atno 6909 bound_to 6896
  144.7137  140.1600  143.6377 H   0  0  0  0  0  0  0  0  0  0  0  0  # atno 7974 bound_to 7965
  156.1044  140.3238  155.7986 H   0  0  0  0  0  0  0  0  0  0  0  0  # atno 8008 bound_to 7997
  155.4781  140.0552  157.2988 H   0  0  0  0  0  0  0  0  0  0  0  0  # atno 8009 bound_to 7997
  154.4718  140.2015  155.9990 H   0  0  0  0  0  0  0  0  0  0  0  0  # atno 8010 bound_to 7997
  139.7756  143.8174  152.2631 H   0  0  0  0  0  0  0  0  0  0  0  0  # atno 10167 bound_to 10162
  156.1269  130.4162  150.0338 H   0  0  0  0  0  0  0  0  0  0  0  0  # atno 10718 bound_to 10713
  154.2846  135.6265  153.5360 H   0  0  0  0  0  0  0  0  0  0  0  0  # atno 10763 bound_to 10752
  152.9861  135.5641  154.5458 H   0  0  0  0  0  0  0  0  0  0  0  0  # atno 10764 bound_to 10752
  154.5056  135.2874  155.1361 H   0  0  0  0  0  0  0  0  0  0  0  0  # atno 10765 bound_to 10752
  140.1402  134.4592  155.8455 H   0  0  0  0  0  0  0  0  0  0  0  0  # atno 11005 bound_to 11000
  145.9039  139.2446  143.1477 LP  0  0  0  0  0  0  0  0  0  0  0  0  # atno 17320 bound_to 7965
  145.9783  140.8703  143.0127 LP  0  0  0  0  0  0  0  0  0  0  0  0  # atno 17321 bound_to 7965
  139.8222  144.7291  150.9558 LP  0  0  0  0  0  0  0  0  0  0  0  0  # atno 17342 bound_to 10162
  140.7816  143.4149  151.0934 LP  0  0  0  0  0  0  0  0  0  0  0  0  # atno 17343 bound_to 10162
  156.8261  130.9376  151.3639 LP  0  0  0  0  0  0  0  0  0  0  0  0  # atno 17370 bound_to 10713
  157.6450  130.8837  149.9521 LP  0  0  0  0  0  0  0  0  0  0  0  0  # atno 17371 bound_to 10713
  141.2185  133.6830  156.7233 LP  0  0  0  0  0  0  0  0  0  0  0  0  # atno 17394 bound_to 11000
  140.2731  134.8376  157.3865 LP  0  0  0  0  0  0  0  0  0  0  0  0  # atno 17395 bound_to 11000

$$$$
