AV-unprocessed.smi:37|AV-procd|sdf|334|dock1
  -GOLD-   2262016163D 1   1.00000     0.00000
 Structure written by MMmdl.
 43 44  0  0  0  0  0  0  0  0  2 V2000
  147.0353  134.3017  162.3139 C   0  0  0  0  0  0  0  0  0  0  0  0
  147.1808  135.8307  162.3227 C   0  0  0  0  0  0  0  0  0  0  0  0
  147.4394  136.4312  160.9392 C   0  0  0  0  0  0  0  0  0  0  0  0
  147.2934  137.6317  160.7015 O   0  0  0  0  0  0  0  0  0  0  0  0
  147.8340  135.5019  160.0563 O   0  0  0  0  0  0  0  0  0  0  0  0
  148.0708  135.8686  158.7057 C   0  0  0  0  0  0  0  0  0  0  0  0
  149.0196  137.0727  158.6350 C   0  0  1  0  0  0  0  0  0  0  0  0
  150.3264  136.7325  159.0963 O   0  0  0  0  0  0  0  0  0  0  0  0
  151.2761  137.1708  158.1699 C   0  0  2  0  0  0  0  0  0  0  0  0
  152.5112  137.6684  158.8847 N   0  0  0  0  0  0  0  0  0  0  0  0
  152.6762  137.4887  160.2483 C   0  0  0  0  0  0  0  0  0  0  0  0
  153.7790  137.9362  160.8827 C   0  0  0  0  0  0  0  0  0  0  0  0
  153.9091  137.7523  162.2077 F   0  0  0  0  0  0  0  0  0  0  0  0
  154.8230  138.6216  160.1229 C   0  0  0  0  0  0  0  0  0  0  0  0
  155.8290  139.0226  160.7063 O   0  0  0  0  0  0  0  0  0  0  0  0
  154.6312  138.7877  158.7821 N   0  5  0  0  0  0  0  0  0  0  0  0
  153.5151  138.3393  158.1361 C   0  0  0  0  0  0  0  0  0  0  0  0
  153.3287  138.4879  156.9282 O   0  0  0  0  0  0  0  0  0  0  0  0
  150.5979  138.2552  157.3245 C   0  0  2  0  0  0  0  0  0  0  0  0
  150.5637  140.0226  158.2632 Br  0  0  0  0  0  0  0  0  0  0  0  0
  149.1963  137.6762  157.2363 C   0  0  2  0  0  0  0  0  0  0  0  0
  148.2037  138.6534  156.9526 O   0  0  0  0  0  0  0  0  0  0  0  0
  148.3849  139.5307  155.9495 C   0  0  0  0  0  0  0  0  0  0  0  0
  149.3641  139.5854  155.2054 O   0  0  0  0  0  0  0  0  0  0  0  0
  147.2238  140.5123  155.8094 C   0  0  0  0  0  0  0  0  0  0  0  0
  147.5397  141.6473  154.8258 C   0  0  0  0  0  0  0  0  0  0  0  0
  146.8650  133.9278  163.3237 H   0  0  0  0  0  0  0  0  0  0  0  0
  147.9351  133.8185  161.9312 H   0  0  0  0  0  0  0  0  0  0  0  0
  146.1925  133.9845  161.6987 H   0  0  0  0  0  0  0  0  0  0  0  0
  146.2761  136.2821  162.7305 H   0  0  0  0  0  0  0  0  0  0  0  0
  148.0003  136.1167  162.9823 H   0  0  0  0  0  0  0  0  0  0  0  0
  148.5160  135.0275  158.1719 H   0  0  0  0  0  0  0  0  0  0  0  0
  147.1253  136.1027  158.2150 H   0  0  0  0  0  0  0  0  0  0  0  0
  148.6545  137.8451  159.3136 H   0  0  0  0  0  0  0  0  0  0  0  0
  151.5931  136.3074  157.5814 H   0  0  0  0  0  0  0  0  0  0  0  0
  151.9128  136.9923  160.8281 H   0  0  0  0  0  0  0  0  0  0  0  0
  151.0870  138.3788  156.3578 H   0  0  0  0  0  0  0  0  0  0  0  0
  149.1859  136.8763  156.4944 H   0  0  0  0  0  0  0  0  0  0  0  0
  146.3385  139.9672  155.4812 H   0  0  0  0  0  0  0  0  0  0  0  0
  146.9936  140.9276  156.7909 H   0  0  0  0  0  0  0  0  0  0  0  0
  146.7144  142.3578  154.7825 H   0  0  0  0  0  0  0  0  0  0  0  0
  147.7003  141.2684  153.8158 H   0  0  0  0  0  0  0  0  0  0  0  0
  148.4329  142.1963  155.1262 H   0  0  0  0  0  0  0  0  0  0  0  0
  1  2  1  0  0  0  0
  1 27  1  0  0  0  0
  1 28  1  0  0  0  0
  1 29  1  0  0  0  0
  2  3  1  0  0  0  0
  2 30  1  0  0  0  0
  2 31  1  0  0  0  0
  3  4  2  0  0  0  0
  3  5  1  0  0  0  0
  5  6  1  0  0  0  0
  6  7  1  0  0  0  0
  6 32  1  0  0  0  0
  6 33  1  0  0  0  0
  7 21  1  0  0  0  0
  7  8  1  0  0  0  0
  7 34  1  0  0  0  0
  8  9  1  0  0  0  0
  9 10  1  0  0  0  0
  9 19  1  0  0  0  0
  9 35  1  0  0  0  0
 10 17  1  0  0  0  0
 10 11  1  0  0  0  0
 11 12  2  0  0  0  0
 11 36  1  0  0  0  0
 12 13  1  0  0  0  0
 12 14  1  0  0  0  0
 14 15  2  0  0  0  0
 14 16  1  0  0  0  0
 16 17  1  0  0  0  0
 17 18  2  0  0  0  0
 19 20  1  0  0  0  0
 19 21  1  0  0  0  0
 19 37  1  0  0  0  0
 21 22  1  0  0  0  0
 21 38  1  0  0  0  0
 22 23  1  0  0  0  0
 23 24  2  0  0  0  0
 23 25  1  0  0  0  0
 25 26  1  0  0  0  0
 25 39  1  0  0  0  0
 25 40  1  0  0  0  0
 26 41  1  0  0  0  0
 26 42  1  0  0  0  0
 26 43  1  0  0  0  0
M  CHG  1  16  -1
M  END
> <s_m_source_file>
AV-unprocessed.smi

> <i_m_source_file_index>
37

> <i_lp_mmshare_version>
43012

> <i_f3d_flags>
0

> <s_epik_input>
W0NIM11bQ0gyXUMoPU8pT1tDSDJdW0NAQEhdMU9bQ0BASF0objJbY0hdYyhGKWMoPU8pW25IXWMyPU8pW0NAQEhdKEJyKVtDQEhdMU9DKD1PKVtDSDJdW0NIM10=

> <s_epik_cmdline>
J2VwaWtfcHl0aG9uJywgJy1waCcsICc3LjAnLCAnLXRuJywgJzgnLCAnLW1hJywgJzIwMCcsICctbWV0YWxfYmluZGluZycsICctaW1hZScsICc8aW5maWxlLm1hZT4nLCAnLW9tYWUnLCAnPG91dGZpbGUubWFlPic=

> <r_epik_Ionization_Penalty>
1.08158

> <r_epik_Ionization_Penalty_Charging>
9.05154e-09

> <r_epik_Ionization_Penalty_Neutral>
1.08158

> <r_epik_State_Penalty>
1.13706

> <r_epik_Charging_Adjusted_Penalty>
1.13706

> <i_epik_Tot_Q>
-1

> <i_epik_Tot_abs_Q>
1

> <r_epik_Metal_State_Penalty>
0.00343535

> <b_epik_Metal_Only>
0

> <s_epik_Chemistry_Notes>
This compound has an ester and may undergo hydrolysis at high or low pH. This compound contains an acetal/aminal-like group ( X-CH(R)-Y where X, Y are N, S, or O) that may be acid/base labile, releasing an aldehyde.

> <s_lp_Force_Field>
OPLS_2005

> <r_lp_Energy>
36.4441

> <b_lp_Chiralities_Consistent>
1

> <s_lp_Variant>
AV-unprocessed.smi:37-32

> <Gold.Version>
5.8.1

> <Gold.Id.Protein>
6NUR|6NUR_protein|mol2

> <Gold.PLP.Fitness>
47.6115

> <Gold.PLP.PLP>
-33.4255

> <Gold.PLP.part.hbond>
-4.9191

> <Gold.PLP.part.metal>
0.0000

> <Gold.PLP.part.buried>
-3.4594

> <Gold.PLP.part.nonpolar>
-23.7183

> <Gold.PLP.part.repulsive>
0.0517

> <Gold.PLP.ligand.clash>
0.0003

> <Gold.PLP.ligand.torsion>
0.5955

> <Gold.PLP.Chemscore.Hbond>
5.0072

> <Gold.PLP.Chemscore.CHOScore>
0.0000

> <Gold.PLP.Chemscore.Metal>
0.0000

> <Gold.Chemscore.Hbonds>
donor molecule, donor type, donor heavy atom, donor atom, acceptor molecule, acceptor atom, score
      P1  H  6896  6909       L1     8  1.00
      P1  H  6931  6943       L1     4  0.25
      P1  H  6934  6947       L1     4  0.70
      P1  H  7997  8008       L1    16  1.75
      P1  H  7997  8009       L1    18  0.24

> <Gold.PLP.Chemscore.Internal.Correction>
0.3557

> <Gold.Rescore>
     Score         DG    S(hbond)    S(metal)    S(lipo)     H(rot)  DE(clash)    DE(int)     intcor
      9.64     -11.66       2.53        0.00      52.00       3.27       0.01       2.01       ----

> <Gold.Chemscore.Fitness>
9.6423

> <Gold.Chemscore.DG>
-11.6613

> <Gold.Chemscore.ZeroCoef>
-5.4800

> <Gold.Chemscore.Hbond>
2.5332

> <Gold.Chemscore.Metal>
0.0000

> <Gold.Chemscore.Lipo>
51.9971

> <Gold.Chemscore.Internal_Hbond>
0.0000

> <Gold.Chemscore.DEClash>
0.0073

> <Gold.Chemscore.DEInternal>
2.0117

> <Gold.Chemscore.Rot>
3.2669

> <Gold.Chemscore.Internal.Correction>
   9.000000E+99

> <Gold.Chemscore.Hbonds>
donor molecule, donor type, donor heavy atom, donor atom, acceptor molecule, acceptor atom, score
      P1  H  6896  6909       L1     8  0.49
      P1  H  6931  6943       L1     4  0.03
      P1  H  6934  6947       L1     4  0.70
      P1  H  7997  8008       L1    16  0.24
      P1  H  7997  8009       L1    18  0.22

> <Gold.Chemscore.Hbond.Weighted>
-8.4610

> <Gold.Chemscore.Metal.Weighted>
-0.0000

> <Gold.Chemscore.Lipo.Weighted>
-6.0837

> <Gold.Chemscore.Internal_Hbond.Weighted>
0.0000

> <Gold.Chemscore.DEClash.Weighted>
0.0073

> <Gold.Chemscore.DEInternal.Weighted>
2.0117

> <Gold.Chemscore.Rot.Weighted>
8.3634

> <Gold.Chemscore.Internal.Correction.Weighted>
   9.000000E+99

> <Gold.Protein.RotatedTorsions>
[ 6907 6896 6895 6894 ] final   88.52 input  -60.11 | X-H torsion
[ 7974 7965 7964 7962 ] final  -29.53 input  175.53 | X-H torsion
[ 8008 7997 7996 7995 ] final -141.05 input   59.86 | X-H torsion
[ 10167 10162 10161 10158 ] final  -96.10 input  -65.29 | X-H torsion
[ 10718 10713 10712 10709 ] final  123.22 input   66.30 | X-H torsion
[ 10763 10752 10751 10750 ] final   41.51 input  -60.55 | X-H torsion
[ 11005 11000 10999 10996 ] final   21.75 input  -57.11 | X-H torsion

> <Gold.Protein.ActiveResidues>
 VAL166  LYS551  ARG553  GLY616  TRP617  ASP618  TYR619  PRO620  LYS621  CYS622 
 ASP623  PHE694  ASN695  SER759  ASP760  ASP761  ALA762  ILE779  LEU786  VAL792 
 PHE793  MET794  SER795  GLU796  ALA797  LYS798  CYS799  TRP800  GLU811  SER814 

> <Gold.Protein.RotatedAtoms>
  152.5426  134.2109  159.8749 H   0  0  0  0  0  0  0  0  0  0  0  0  # atno 6907 bound_to 6896
  151.2092  133.4559  159.2605 H   0  0  0  0  0  0  0  0  0  0  0  0  # atno 6908 bound_to 6896
  151.0914  134.9931  159.8460 H   0  0  0  0  0  0  0  0  0  0  0  0  # atno 6909 bound_to 6896
  146.1210  140.5424  142.8735 H   0  0  0  0  0  0  0  0  0  0  0  0  # atno 7974 bound_to 7965
  155.4715  140.0553  157.2979 H   0  0  0  0  0  0  0  0  0  0  0  0  # atno 8008 bound_to 7997
  154.4696  140.2034  155.9981 H   0  0  0  0  0  0  0  0  0  0  0  0  # atno 8009 bound_to 7997
  156.1034  140.3215  155.7977 H   0  0  0  0  0  0  0  0  0  0  0  0  # atno 8010 bound_to 7997
  140.2973  143.3184  152.0285 H   0  0  0  0  0  0  0  0  0  0  0  0  # atno 10167 bound_to 10162
  157.5682  131.1085  150.8416 H   0  0  0  0  0  0  0  0  0  0  0  0  # atno 10718 bound_to 10713
  152.9906  135.6159  154.2799 H   0  0  0  0  0  0  0  0  0  0  0  0  # atno 10763 bound_to 10752
  154.2529  135.2785  155.2811 H   0  0  0  0  0  0  0  0  0  0  0  0  # atno 10764 bound_to 10752
  154.5272  135.5798  153.6786 H   0  0  0  0  0  0  0  0  0  0  0  0  # atno 10765 bound_to 10752
  140.3881  134.1849  155.7663 H   0  0  0  0  0  0  0  0  0  0  0  0  # atno 11005 bound_to 11000
  144.7597  140.5392  143.6744 LP  0  0  0  0  0  0  0  0  0  0  0  0  # atno 17320 bound_to 7965
  145.5466  139.1476  143.3417 LP  0  0  0  0  0  0  0  0  0  0  0  0  # atno 17321 bound_to 7965
  139.4923  144.6482  151.6733 LP  0  0  0  0  0  0  0  0  0  0  0  0  # atno 17342 bound_to 10162
  140.5681  144.0155  150.6203 LP  0  0  0  0  0  0  0  0  0  0  0  0  # atno 17343 bound_to 10162
  156.8895  130.5208  149.5287 LP  0  0  0  0  0  0  0  0  0  0  0  0  # atno 17370 bound_to 10713
  156.0728  130.5757  150.9417 LP  0  0  0  0  0  0  0  0  0  0  0  0  # atno 17371 bound_to 10713
  141.1900  133.8225  157.0934 LP  0  0  0  0  0  0  0  0  0  0  0  0  # atno 17394 bound_to 11000
  140.0427  134.9846  157.0992 LP  0  0  0  0  0  0  0  0  0  0  0  0  # atno 17395 bound_to 11000

$$$$
