AV-unprocessed.smi:1831|AV-procd|sdf|7456|dock6
  -GOLD-   22720 9143D 1   1.00000     0.00000
 Structure written by MMmdl.
 41 42  0  0  0  0  0  0  0  0  2 V2000
  151.0814  141.4148  157.0056 C   0  0  0  0  0  0  0  0  0  0  0  0
  150.8362  140.2314  156.1331 C   0  0  0  0  0  0  0  0  0  0  0  0
  151.2371  140.1752  154.8566 N   0  0  0  0  0  0  0  0  0  0  0  0
  150.8949  138.9752  154.2472 N   0  0  0  0  0  0  0  0  0  0  0  0
  150.2439  138.1597  155.0816 C   0  0  0  0  0  0  0  0  0  0  0  0
  149.8332  136.8943  154.5925 N   0  0  0  0  0  0  0  0  0  0  0  0
  149.9494  135.6993  155.1938 C   0  0  0  0  0  0  0  0  0  0  0  0
  150.4394  135.5059  156.3062 O   0  0  0  0  0  0  0  0  0  0  0  0
  149.4553  134.7186  154.4238 N   0  0  0  0  0  0  0  0  0  0  0  0
  149.4475  133.2983  154.7626 C   0  0  0  0  0  0  0  0  0  0  0  0
  148.1483  132.5997  154.3159 C   0  0  2  0  0  0  0  0  0  0  0  0
  148.2005  131.0730  154.2927 C   0  0  0  0  0  0  0  0  0  0  0  0
  147.0750  130.7165  153.3293 C   0  0  0  0  0  0  0  0  0  0  0  0
  147.1352  131.7472  152.2694 N   0  3  1  0  0  0  0  0  0  0  0  0
  145.8774  131.9544  151.4970 C   0  0  0  0  0  0  0  0  0  0  0  0
  145.1440  130.6254  151.2325 C   0  0  0  0  0  0  0  0  0  0  0  0
  146.1595  132.6581  150.1556 C   0  0  0  0  0  0  0  0  0  0  0  0
  147.7093  132.9696  152.8892 C   0  0  0  0  0  0  0  0  0  0  0  0
  149.9890  138.7998  156.7050 S   0  0  0  0  0  0  0  0  0  0  0  0
  151.8502  142.0572  156.5749 H   0  0  0  0  0  0  0  0  0  0  0  0
  151.4125  141.0897  157.9919 H   0  0  0  0  0  0  0  0  0  0  0  0
  150.1633  141.9919  157.1159 H   0  0  0  0  0  0  0  0  0  0  0  0
  149.4087  136.9019  153.6767 H   0  0  0  0  0  0  0  0  0  0  0  0
  149.0722  134.9715  153.5245 H   0  0  0  0  0  0  0  0  0  0  0  0
  150.2981  132.8371  154.2598 H   0  0  0  0  0  0  0  0  0  0  0  0
  149.6137  133.1544  155.8317 H   0  0  0  0  0  0  0  0  0  0  0  0
  147.3443  132.8914  154.9940 H   0  0  0  0  0  0  0  0  0  0  0  0
  149.1546  130.7290  153.8903 H   0  0  0  0  0  0  0  0  0  0  0  0
  148.0677  130.6270  155.2791 H   0  0  0  0  0  0  0  0  0  0  0  0
  147.1837  129.7095  152.9250 H   0  0  0  0  0  0  0  0  0  0  0  0
  146.1171  130.7749  153.8491 H   0  0  0  0  0  0  0  0  0  0  0  0
  145.2175  132.5915  152.0880 H   0  0  0  0  0  0  0  0  0  0  0  0
  144.2516  130.7869  150.6270 H   0  0  0  0  0  0  0  0  0  0  0  0
  144.8141  130.1481  152.1553 H   0  0  0  0  0  0  0  0  0  0  0  0
  145.7812  129.9200  150.6982 H   0  0  0  0  0  0  0  0  0  0  0  0
  145.2401  132.7925  149.5849 H   0  0  0  0  0  0  0  0  0  0  0  0
  146.8463  132.0756  149.5404 H   0  0  0  0  0  0  0  0  0  0  0  0
  146.5937  133.6483  150.2912 H   0  0  0  0  0  0  0  0  0  0  0  0
  146.9928  133.7910  152.9268 H   0  0  0  0  0  0  0  0  0  0  0  0
  148.5529  133.2968  152.2803 H   0  0  0  0  0  0  0  0  0  0  0  0
  147.8298  131.4211  151.6127 H   0  0  0  0  0  0  0  0  0  0  0  0
  1  2  1  0  0  0  0
  1 20  1  0  0  0  0
  1 21  1  0  0  0  0
  1 22  1  0  0  0  0
  2 19  1  0  0  0  0
  2  3  2  0  0  0  0
  3  4  1  0  0  0  0
  4  5  2  0  0  0  0
  5  6  1  0  0  0  0
  5 19  1  0  0  0  0
  6  7  1  0  0  0  0
  6 23  1  0  0  0  0
  7  8  2  0  0  0  0
  7  9  1  0  0  0  0
  9 10  1  0  0  0  0
  9 24  1  0  0  0  0
 10 11  1  0  0  0  0
 10 25  1  0  0  0  0
 10 26  1  0  0  0  0
 11 18  1  0  0  0  0
 11 12  1  0  0  0  0
 11 27  1  0  0  0  0
 12 13  1  0  0  0  0
 12 28  1  0  0  0  0
 12 29  1  0  0  0  0
 13 14  1  0  0  0  0
 13 30  1  0  0  0  0
 13 31  1  0  0  0  0
 14 15  1  0  0  0  0
 14 18  1  0  0  0  0
 14 41  1  0  0  0  0
 15 16  1  0  0  0  0
 15 17  1  0  0  0  0
 15 32  1  0  0  0  0
 16 33  1  0  0  0  0
 16 34  1  0  0  0  0
 16 35  1  0  0  0  0
 17 36  1  0  0  0  0
 17 37  1  0  0  0  0
 17 38  1  0  0  0  0
 18 39  1  0  0  0  0
 18 40  1  0  0  0  0
M  CHG  1  14   1
M  END
> <s_m_source_file>
AV-unprocessed.smi

> <i_m_source_file_index>
1831

> <i_lp_mmshare_version>
43012

> <i_f3d_flags>
0

> <s_epik_input>
W0NIM11jMW5uYyhzMSlbTkhdQyg9TylbTkhdW0NIMl1bQ0BASF0yW0NIMl1bQ0gyXU4oW0NIMl0yKVtDSF0oW0NIM10pW0NIM10=

> <s_epik_cmdline>
J2VwaWtfcHl0aG9uJywgJy1waCcsICc3LjAnLCAnLXRuJywgJzgnLCAnLW1hJywgJzIwMCcsICctbWV0YWxfYmluZGluZycsICctaW1hZScsICc8aW5maWxlLm1hZT4nLCAnLW9tYWUnLCAnPG91dGZpbGUubWFlPic=

> <r_lp_tautomer_probability>
1

> <r_epik_Ionization_Penalty>
0.00080807

> <r_epik_Ionization_Penalty_Charging>
0.000218981

> <r_epik_Ionization_Penalty_Neutral>
0.00058909

> <r_epik_State_Penalty>
-0

> <r_epik_Charging_Adjusted_Penalty>
0.000218981

> <i_epik_Tot_Q>
1

> <i_epik_Tot_abs_Q>
1

> <r_epik_Metal_State_Penalty>
0.236062

> <b_epik_Metal_Only>
0

> <s_lp_Force_Field>
OPLS_2005

> <r_lp_Energy>
28.9112

> <b_lp_Chiralities_Consistent>
1

> <s_lp_Variant>
AV-unprocessed.smi:1831-1

> <Gold.Version>
5.8.1

> <Gold.Id.Protein>
6NUR|6NUR_protein|mol2

> <Gold.PLP.Fitness>
41.1994

> <Gold.PLP.PLP>
-32.1347

> <Gold.PLP.part.hbond>
-4.7151

> <Gold.PLP.part.metal>
0.0000

> <Gold.PLP.part.buried>
-4.8910

> <Gold.PLP.part.nonpolar>
-23.7941

> <Gold.PLP.part.repulsive>
0.3631

> <Gold.PLP.ligand.clash>
0.0000

> <Gold.PLP.ligand.torsion>
0.9453

> <Gold.PLP.Chemscore.Hbond>
3.6434

> <Gold.PLP.Chemscore.CHOScore>
0.0000

> <Gold.PLP.Chemscore.Metal>
0.0000

> <Gold.Chemscore.Hbonds>
donor molecule, donor type, donor heavy atom, donor atom, acceptor molecule, acceptor atom, score
      L1  H     6    23       P1  7948  1.00
      L1  H     9    24       P1  7948  0.94
      L1  H    14    41       P1 10747  1.00
      P1  H  7989  7998       L1     3  0.70

> <Gold.PLP.Chemscore.Internal.Correction>
0.0250

> <Gold.Rescore>
     Score         DG    S(hbond)    S(metal)    S(lipo)     H(rot)  DE(clash)    DE(int)     intcor
     17.71     -18.97       2.75        0.00      70.49       1.54       0.14       1.13       ----

> <Gold.Chemscore.Fitness>
17.7060

> <Gold.Chemscore.DG>
-18.9733

> <Gold.Chemscore.ZeroCoef>
-5.4800

> <Gold.Chemscore.Hbond>
2.7505

> <Gold.Chemscore.Metal>
0.0000

> <Gold.Chemscore.Lipo>
70.4945

> <Gold.Chemscore.Internal_Hbond>
0.0000

> <Gold.Chemscore.DEClash>
0.1363

> <Gold.Chemscore.DEInternal>
1.1310

> <Gold.Chemscore.Rot>
1.5396

> <Gold.Chemscore.Internal.Correction>
   9.000000E+99

> <Gold.Chemscore.Hbonds>
donor molecule, donor type, donor heavy atom, donor atom, acceptor molecule, acceptor atom, score
      L1  H     6    23       P1  7948  0.90
      L1  H     9    24       P1  7948  0.22
      L1  H    14    41       P1 10747  1.00
      P1  H  7989  7998       L1     3  0.07

> <Gold.Chemscore.Hbond.Weighted>
-9.1868

> <Gold.Chemscore.Metal.Weighted>
-0.0000

> <Gold.Chemscore.Lipo.Weighted>
-8.2479

> <Gold.Chemscore.Internal_Hbond.Weighted>
0.0000

> <Gold.Chemscore.DEClash.Weighted>
0.1363

> <Gold.Chemscore.DEInternal.Weighted>
1.1310

> <Gold.Chemscore.Rot.Weighted>
3.9413

> <Gold.Chemscore.Internal.Correction.Weighted>
   9.000000E+99

> <Gold.Protein.RotatedTorsions>
[ 6907 6896 6895 6894 ] final  108.86 input  -60.11 | X-H torsion
[ 7974 7965 7964 7962 ] final  -58.48 input  175.53 | X-H torsion
[ 8008 7997 7996 7995 ] final  -66.28 input   59.86 | X-H torsion
[ 10167 10162 10161 10158 ] final -153.41 input  -65.29 | X-H torsion
[ 10718 10713 10712 10709 ] final -148.85 input   66.30 | X-H torsion
[ 10763 10752 10751 10750 ] final   86.86 input  -60.55 | X-H torsion
[ 11005 11000 10999 10996 ] final -158.21 input  -57.11 | X-H torsion

> <Gold.Protein.ActiveResidues>
 VAL166  LYS551  ARG553  GLY616  TRP617  ASP618  TYR619  PRO620  LYS621  CYS622 
 ASP623  PHE694  ASN695  SER759  ASP760  ASP761  ALA762  ILE779  LEU786  VAL792 
 PHE793  MET794  SER795  GLU796  ALA797  LYS798  CYS799  TRP800  GLU811  SER814 

> <Gold.Protein.RotatedAtoms>
  152.5093  133.9027  159.7448 H   0  0  0  0  0  0  0  0  0  0  0  0  # atno 6907 bound_to 6896
  150.9439  133.6616  159.2792 H   0  0  0  0  0  0  0  0  0  0  0  0  # atno 6908 bound_to 6896
  151.3918  135.0962  159.9581 H   0  0  0  0  0  0  0  0  0  0  0  0  # atno 6909 bound_to 6896
  145.8388  140.8431  143.0045 H   0  0  0  0  0  0  0  0  0  0  0  0  # atno 7974 bound_to 7965
  154.4724  140.0916  156.7179 H   0  0  0  0  0  0  0  0  0  0  0  0  # atno 8008 bound_to 7997
  155.4687  140.3463  155.4304 H   0  0  0  0  0  0  0  0  0  0  0  0  # atno 8009 bound_to 7997
  156.1061  140.1435  156.9390 H   0  0  0  0  0  0  0  0  0  0  0  0  # atno 8010 bound_to 7997
  139.7099  143.9125  152.2464 H   0  0  0  0  0  0  0  0  0  0  0  0  # atno 10167 bound_to 10162
  156.4255  130.8050  151.2275 H   0  0  0  0  0  0  0  0  0  0  0  0  # atno 10718 bound_to 10713
  153.1611  135.4565  154.9773 H   0  0  0  0  0  0  0  0  0  0  0  0  # atno 10763 bound_to 10752
  154.7898  135.3216  154.7805 H   0  0  0  0  0  0  0  0  0  0  0  0  # atno 10764 bound_to 10752
  153.8295  135.6940  153.4871 H   0  0  0  0  0  0  0  0  0  0  0  0  # atno 10765 bound_to 10752
  140.6562  134.4398  157.5235 H   0  0  0  0  0  0  0  0  0  0  0  0  # atno 11005 bound_to 11000
  144.6735  140.0781  143.7470 LP  0  0  0  0  0  0  0  0  0  0  0  0  # atno 17320 bound_to 7965
  145.9488  139.2719  143.1224 LP  0  0  0  0  0  0  0  0  0  0  0  0  # atno 17321 bound_to 7965
  139.8991  144.6922  150.8685 LP  0  0  0  0  0  0  0  0  0  0  0  0  # atno 17342 bound_to 10162
  140.7731  143.3527  151.1982 LP  0  0  0  0  0  0  0  0  0  0  0  0  # atno 17343 bound_to 10162
  157.7508  131.0214  150.3751 LP  0  0  0  0  0  0  0  0  0  0  0  0  # atno 17370 bound_to 10713
  156.4077  130.3928  149.6914 LP  0  0  0  0  0  0  0  0  0  0  0  0  # atno 17371 bound_to 10713
  139.9029  134.8515  156.1823 LP  0  0  0  0  0  0  0  0  0  0  0  0  # atno 17394 bound_to 11000
  141.0500  133.6894  156.1754 LP  0  0  0  0  0  0  0  0  0  0  0  0  # atno 17395 bound_to 11000

$$$$
