AV-unprocessed.smi:1897|AV-procd|sdf|7693|dock2
  -GOLD-   22720 9433D 1   1.00000     0.00000
 Structure written by MMmdl.
 38 40  0  0  0  0  0  0  0  0  3 V2000
  152.3356  138.7762  155.4104 C   0  0  0  0  0  0  0  0  0  0  0  0
  151.5052  137.5406  155.4784 C   0  0  0  0  0  0  0  0  0  0  0  0
  151.9740  136.3798  155.9429 N   0  0  0  0  0  0  0  0  0  0  0  0
  151.0165  135.3772  155.9055 N   0  0  0  0  0  0  0  0  0  0  0  0
  149.8443  135.7880  155.4001 C   0  0  0  0  0  0  0  0  0  0  0  0
  148.7879  134.9650  155.2620 N   0  5  0  0  0  0  0  0  0  0  0  0
  148.7905  133.9114  154.4047 C   0  0  0  0  0  0  0  0  0  0  0  0
  149.7977  133.2573  154.1379 O   0  0  0  0  0  0  0  0  0  0  0  0
  147.6266  133.5823  153.8127 N   0  0  0  0  0  0  0  0  0  0  0  0
  147.4437  132.5417  152.8065 C   0  0  1  0  0  0  0  0  0  0  0  0
  146.4990  131.4218  153.2620 C   0  0  0  0  0  0  0  0  0  0  0  0
  145.7864  130.9533  151.9809 C   0  0  0  0  0  0  0  0  0  0  0  0
  146.3084  131.8010  150.8858 N   0  3  1  0  0  0  0  0  0  0  0  0
  145.4286  131.9678  149.7009 C   0  0  0  0  0  0  0  0  0  0  0  0
  144.3007  132.9863  149.9368 C   0  0  0  0  0  0  0  0  0  0  0  0
  144.8711  134.3209  150.4270 C   0  0  0  0  0  0  0  0  0  0  0  0
  145.6798  134.0944  151.7084 C   0  0  0  0  0  0  0  0  0  0  0  0
  146.8078  133.0497  151.5019 C   0  0  1  0  0  0  0  0  0  0  0  0
  149.8333  137.4905  154.9445 S   0  0  0  0  0  0  0  0  0  0  0  0
  152.9528  138.7599  154.5122 H   0  0  0  0  0  0  0  0  0  0  0  0
  152.9854  138.8446  156.2834 H   0  0  0  0  0  0  0  0  0  0  0  0
  151.6976  139.6596  155.3816 H   0  0  0  0  0  0  0  0  0  0  0  0
  146.8144  134.1323  154.0523 H   0  0  0  0  0  0  0  0  0  0  0  0
  148.4102  132.0895  152.5743 H   0  0  0  0  0  0  0  0  0  0  0  0
  147.0431  130.6126  153.7499 H   0  0  0  0  0  0  0  0  0  0  0  0
  145.7625  131.7977  153.9741 H   0  0  0  0  0  0  0  0  0  0  0  0
  145.9809  129.9023  151.7656 H   0  0  0  0  0  0  0  0  0  0  0  0
  144.7082  131.0765  152.0905 H   0  0  0  0  0  0  0  0  0  0  0  0
  146.0489  132.3081  148.8707 H   0  0  0  0  0  0  0  0  0  0  0  0
  145.0201  131.0007  149.4060 H   0  0  0  0  0  0  0  0  0  0  0  0
  143.7411  133.1385  149.0133 H   0  0  0  0  0  0  0  0  0  0  0  0
  143.5883  132.5987  150.6657 H   0  0  0  0  0  0  0  0  0  0  0  0
  145.5065  134.7624  149.6584 H   0  0  0  0  0  0  0  0  0  0  0  0
  144.0637  135.0296  150.6129 H   0  0  0  0  0  0  0  0  0  0  0  0
  146.1031  135.0428  152.0410 H   0  0  0  0  0  0  0  0  0  0  0  0
  145.0039  133.7695  152.5004 H   0  0  0  0  0  0  0  0  0  0  0  0
  147.5704  133.4821  150.8522 H   0  0  0  0  0  0  0  0  0  0  0  0
  147.1337  131.3187  150.5595 H   0  0  0  0  0  0  0  0  0  0  0  0
  1  2  1  0  0  0  0
  1 20  1  0  0  0  0
  1 21  1  0  0  0  0
  1 22  1  0  0  0  0
  2 19  1  0  0  0  0
  2  3  2  0  0  0  0
  3  4  1  0  0  0  0
  4  5  2  0  0  0  0
  5  6  1  0  0  0  0
  5 19  1  0  0  0  0
  6  7  1  0  0  0  0
  7  8  2  0  0  0  0
  7  9  1  0  0  0  0
  9 10  1  0  0  0  0
  9 23  1  0  0  0  0
 10 18  1  0  0  0  0
 10 11  1  0  0  0  0
 10 24  1  0  0  0  0
 11 12  1  0  0  0  0
 11 25  1  0  0  0  0
 11 26  1  0  0  0  0
 12 13  1  0  0  0  0
 12 27  1  0  0  0  0
 12 28  1  0  0  0  0
 13 18  1  0  0  0  0
 13 14  1  0  0  0  0
 13 38  1  0  0  0  0
 14 15  1  0  0  0  0
 14 29  1  0  0  0  0
 14 30  1  0  0  0  0
 15 16  1  0  0  0  0
 15 31  1  0  0  0  0
 15 32  1  0  0  0  0
 16 17  1  0  0  0  0
 16 33  1  0  0  0  0
 16 34  1  0  0  0  0
 17 18  1  0  0  0  0
 17 35  1  0  0  0  0
 17 36  1  0  0  0  0
 18 37  1  0  0  0  0
M  CHG  1   6  -1
M  CHG  1  13   1
M  END
> <s_m_source_file>
AV-unprocessed.smi

> <i_m_source_file_index>
1897

> <i_lp_mmshare_version>
43012

> <i_f3d_flags>
0

> <s_epik_input>
W0NIM11jMW5uYyhzMSlbTkhdQyg9TylbTkhdW0NASF0oW0NIMl1bQ0gyXTIpW0NAQEhdKE4yMylbQ0gyXVtDSDJdW0NIMl1bQ0gyXTM=

> <s_epik_cmdline>
J2VwaWtfcHl0aG9uJywgJy1waCcsICc3LjAnLCAnLXRuJywgJzgnLCAnLW1hJywgJzIwMCcsICctbWV0YWxfYmluZGluZycsICctaW1hZScsICc8aW5maWxlLm1hZT4nLCAnLW9tYWUnLCAnPG91dGZpbGUubWFlPic=

> <r_lp_tautomer_probability>
1

> <r_epik_Ionization_Penalty>
3.77712

> <r_epik_Ionization_Penalty_Charging>
3.67739

> <r_epik_Ionization_Penalty_Neutral>
0.0997294

> <r_epik_State_Penalty>
3.67514

> <r_epik_Charging_Adjusted_Penalty>
7.35254

> <i_epik_Tot_Q>
0

> <i_epik_Tot_abs_Q>
2

> <r_epik_Metal_State_Penalty>
0.540795

> <b_epik_Metal_Only>
1

> <s_lp_Force_Field>
OPLS_2005

> <r_lp_Energy>
30.11

> <b_lp_Chiralities_Consistent>
1

> <s_lp_Variant>
AV-unprocessed.smi:1897-10

> <Gold.Version>
5.8.1

> <Gold.Id.Protein>
6NUR|6NUR_protein|mol2

> <Gold.PLP.Fitness>
35.5608

> <Gold.PLP.PLP>
-31.2743

> <Gold.PLP.part.hbond>
-2.4752

> <Gold.PLP.part.metal>
0.0000

> <Gold.PLP.part.buried>
-4.7608

> <Gold.PLP.part.nonpolar>
-25.5309

> <Gold.PLP.part.repulsive>
0.3341

> <Gold.PLP.ligand.clash>
0.0000

> <Gold.PLP.ligand.torsion>
0.8589

> <Gold.PLP.Chemscore.Hbond>
2.0000

> <Gold.PLP.Chemscore.CHOScore>
0.0000

> <Gold.PLP.Chemscore.Metal>
0.0000

> <Gold.Chemscore.Hbonds>
donor molecule, donor type, donor heavy atom, donor atom, acceptor molecule, acceptor atom, score
      L1  H    13    38       P1 10747  1.00
      P1  H 10752 10763       L1     3  0.82

> <Gold.PLP.Chemscore.Internal.Correction>
0.0042

> <Gold.Rescore>
     Score         DG    S(hbond)    S(metal)    S(lipo)     H(rot)  DE(clash)    DE(int)     intcor
     16.19     -17.21       1.48        0.00      79.80       1.00       0.11       0.91       ----

> <Gold.Chemscore.Fitness>
16.1911

> <Gold.Chemscore.DG>
-17.2087

> <Gold.Chemscore.ZeroCoef>
-5.4800

> <Gold.Chemscore.Hbond>
1.4827

> <Gold.Chemscore.Metal>
0.0000

> <Gold.Chemscore.Lipo>
79.7979

> <Gold.Chemscore.Internal_Hbond>
0.0000

> <Gold.Chemscore.DEClash>
0.1094

> <Gold.Chemscore.DEInternal>
0.9082

> <Gold.Chemscore.Rot>
1.0000

> <Gold.Chemscore.Internal.Correction>
   9.000000E+99

> <Gold.Chemscore.Hbonds>
donor molecule, donor type, donor heavy atom, donor atom, acceptor molecule, acceptor atom, score
      L1  H    13    38       P1 10747  0.99
      P1  H 10752 10763       L1     3  0.13

> <Gold.Chemscore.Hbond.Weighted>
-4.9523

> <Gold.Chemscore.Metal.Weighted>
-0.0000

> <Gold.Chemscore.Lipo.Weighted>
-9.3364

> <Gold.Chemscore.Internal_Hbond.Weighted>
0.0000

> <Gold.Chemscore.DEClash.Weighted>
0.1094

> <Gold.Chemscore.DEInternal.Weighted>
0.9082

> <Gold.Chemscore.Rot.Weighted>
2.5600

> <Gold.Chemscore.Internal.Correction.Weighted>
   9.000000E+99

> <Gold.Protein.RotatedTorsions>
[ 6907 6896 6895 6894 ] final   -3.89 input  -60.11 | X-H torsion
[ 7974 7965 7964 7962 ] final   28.74 input  175.53 | X-H torsion
[ 8008 7997 7996 7995 ] final  -77.51 input   59.86 | X-H torsion
[ 10167 10162 10161 10158 ] final  100.53 input  -65.29 | X-H torsion
[ 10718 10713 10712 10709 ] final -112.51 input   66.30 | X-H torsion
[ 10763 10752 10751 10750 ] final  104.35 input  -60.55 | X-H torsion
[ 11005 11000 10999 10996 ] final -165.71 input  -57.11 | X-H torsion

> <Gold.Protein.ActiveResidues>
 VAL166  LYS551  ARG553  GLY616  TRP617  ASP618  TYR619  PRO620  LYS621  CYS622 
 ASP623  PHE694  ASN695  SER759  ASP760  ASP761  ALA762  ILE779  LEU786  VAL792 
 PHE793  MET794  SER795  GLU796  ALA797  LYS798  CYS799  TRP800  GLU811  SER814 

> <Gold.Protein.RotatedAtoms>
  151.5064  135.1063  159.9842 H   0  0  0  0  0  0  0  0  0  0  0  0  # atno 6907 bound_to 6896
  152.4680  133.7962  159.6939 H   0  0  0  0  0  0  0  0  0  0  0  0  # atno 6908 bound_to 6896
  150.8674  133.7492  159.2998 H   0  0  0  0  0  0  0  0  0  0  0  0  # atno 6909 bound_to 6896
  146.1712  139.7016  142.8966 H   0  0  0  0  0  0  0  0  0  0  0  0  # atno 7974 bound_to 7965
  154.5603  140.0709  156.8808 H   0  0  0  0  0  0  0  0  0  0  0  0  # atno 8008 bound_to 7997
  155.2824  140.3372  155.4239 H   0  0  0  0  0  0  0  0  0  0  0  0  # atno 8009 bound_to 7997
  156.2036  140.1731  156.7832 H   0  0  0  0  0  0  0  0  0  0  0  0  # atno 8010 bound_to 7997
  139.7519  144.6981  151.0420 H   0  0  0  0  0  0  0  0  0  0  0  0  # atno 10167 bound_to 10162
  156.0710  130.5924  150.8519 H   0  0  0  0  0  0  0  0  0  0  0  0  # atno 10718 bound_to 10713
  153.3648  135.3946  155.1745 H   0  0  0  0  0  0  0  0  0  0  0  0  # atno 10763 bound_to 10752
  154.8685  135.3688  154.5053 H   0  0  0  0  0  0  0  0  0  0  0  0  # atno 10764 bound_to 10752
  153.5516  135.7083  153.5649 H   0  0  0  0  0  0  0  0  0  0  0  0  # atno 10765 bound_to 10752
  140.5726  134.5222  157.5164 H   0  0  0  0  0  0  0  0  0  0  0  0  # atno 11005 bound_to 11000
  145.4335  141.0417  143.2897 LP  0  0  0  0  0  0  0  0  0  0  0  0  # atno 17320 bound_to 7965
  144.8166  139.5866  143.7006 LP  0  0  0  0  0  0  0  0  0  0  0  0  # atno 17321 bound_to 7965
  140.7798  143.4799  151.0032 LP  0  0  0  0  0  0  0  0  0  0  0  0  # atno 17342 bound_to 10162
  139.8487  143.7467  152.3178 LP  0  0  0  0  0  0  0  0  0  0  0  0  # atno 17343 bound_to 10162
  157.5781  131.0946  150.9314 LP  0  0  0  0  0  0  0  0  0  0  0  0  # atno 17370 bound_to 10713
  156.9516  130.5421  149.5282 LP  0  0  0  0  0  0  0  0  0  0  0  0  # atno 17371 bound_to 10713
  139.9354  134.7884  156.0816 LP  0  0  0  0  0  0  0  0  0  0  0  0  # atno 17394 bound_to 11000
  141.1046  133.6664  156.2834 LP  0  0  0  0  0  0  0  0  0  0  0  0  # atno 17395 bound_to 11000

$$$$
