#       Name:                AV-unprocessed.smi:2742
#       Creating user name   scv26
#       Creation time:       Fri Mar 27 15:01:47 2020


#       File generated by GOLD software.
#

@<TRIPOS>MOLECULE
AV-unprocessed.smi:2742
    40    41     1
SMALL
NO_CHARGES


@<TRIPOS>ATOM
      1 ****        -4.3983   2.4030   2.7918 C.3            1 S1                 0.0000
      2 ****        -3.9518   1.0640   1.6537 S.3            1 S1                 0.0000
      3 ****        -2.1739   0.9081   1.9947 C.3            1 S1                 0.0000
      4 ****        -1.9188   0.1581   3.3162 C.3            1 S1                 0.0000
      5 ****        -0.4149  -0.0074   3.5860 C.3            1 S1                 0.0000
      6 ****         0.2892  -0.7083   2.4140 C.3            1 S1                 0.0000
      7 ****         0.0464   0.0388   1.0903 C.3            1 S1                 0.0000
      8 ****         0.6870  -0.6821  -0.0059 N.am           1 S1                 0.0000
      9 ****         1.1220  -0.1289  -1.1474 C.2            1 S1                 0.0000
     10 ****         1.0245   1.0722  -1.3971 O.2            1 S1                 0.0000
     11 ****         1.6766  -1.0526  -1.9514 N.am           1 S1                 0.0000
     12 ****         2.2698  -0.8901  -3.2343 C.ar           1 S1                 0.0000
     13 ****         2.0929   0.2456  -4.0622 C.ar           1 S1                 0.0000
     14 ****         2.7305   0.2713  -5.3189 C.ar           1 S1                 0.0000
     15 ****         3.5005  -0.7348  -5.7842 N.ar           1 S1                 0.0000
     16 ****         3.6578  -1.8204  -4.9980 C.ar           1 S1                 0.0000
     17 ****         3.0648  -1.9474  -3.7258 C.ar           1 S1                 0.0000
     18 ****         3.2611  -3.0683  -2.9899 F              1 S1                 0.0000
     19 ****        -1.4645   0.2018   0.8250 C.3            1 S1                 0.0000
     20 ****        -5.4550   2.6475   2.6835 H              1 S1                 0.0000
     21 ****        -3.8140   3.2978   2.5766 H              1 S1                 0.0000
     22 ****        -4.2204   2.1096   3.8259 H              1 S1                 0.0000
     23 ****        -1.7684   1.9176   2.0755 H              1 S1                 0.0000
     24 ****        -2.3772   0.6890   4.1501 H              1 S1                 0.0000
     25 ****        -2.3916  -0.8242   3.2789 H              1 S1                 0.0000
     26 ****         0.0365   0.9719   3.7504 H              1 S1                 0.0000
     27 ****        -0.2626  -0.5756   4.5040 H              1 S1                 0.0000
     28 ****         1.3590  -0.7751   2.6158 H              1 S1                 0.0000
     29 ****        -0.0754  -1.7337   2.3345 H              1 S1                 0.0000
     30 ****         0.4972   1.0295   1.1758 H              1 S1                 0.0000
     31 ****         0.8107  -1.6765   0.1174 H              1 S1                 0.0000
     32 ****         1.7289  -1.9878  -1.5750 H              1 S1                 0.0000
     33 ****         1.4816   1.0856  -3.7724 H              1 S1                 0.0000
     34 ****         2.6137   1.1240  -5.9714 H              1 S1                 0.0000
     35 ****         4.2736  -2.6134  -5.3957 H              1 S1                 0.0000
     36 ****        -1.9168  -0.7778   0.6621 H              1 S1                 0.0000
     37 ****        -1.6213   0.7699  -0.0929 H              1 S1                 0.0000
     38 ****         0.6035   1.6886  -0.7317 LP             1 S1                 0.0000
     39 ****         1.3663   1.4317  -2.2654 LP             1 S1                 0.0000
     40 ****         3.9395  -0.6778  -6.6809 LP             1 S1                 0.0000
@<TRIPOS>BOND
    1    1    2 1     
    2    1   20 1     
    3    1   21 1     
    4    1   22 1     
    5    2    3 1     
    6    3   19 1     
    7    3    4 1     
    8    3   23 1     
    9    4    5 1     
   10    4   24 1     
   11    4   25 1     
   12    5    6 1     
   13    5   26 1     
   14    5   27 1     
   15    6    7 1     
   16    6   28 1     
   17    6   29 1     
   18    7    8 1     
   19    7   19 1     
   20    7   30 1     
   21    8    9 am    
   22    8   31 1     
   23    9   10 2     
   24    9   11 am    
   25   11   12 1     
   26   11   32 1     
   27   12   17 ar    
   28   12   13 ar    
   29   13   14 ar    
   30   13   33 1     
   31   14   15 ar    
   32   14   34 1     
   33   15   16 ar    
   34   16   17 ar    
   35   16   35 1     
   36   17   18 1     
   37   19   36 1     
   38   19   37 1     
   39   10   38 1     
   40   10   39 1     
   41   15   40 1     
@<TRIPOS>SUBSTRUCTURE
      1 S1             1
@<TRIPOS>SET
LONE_PAIRS      STATIC     ATOMS    <user>   **** ""
3 38 39 40
DONOR_HYDROGENS      STATIC     ATOMS    <user>   **** ""
2 31 32
ATOM$BLUE        STATIC     ATOMS    COLORGROUP SYSTEM
3 38 39 40
ATOM$RED        STATIC     ATOMS    COLORGROUP SYSTEM
2 31 32
