AV-unprocessed.smi:761|AV-procd|sdf|3631|dock3
  -GOLD-   22720 1 23D 1   1.00000     0.00000
 Structure written by MMmdl.
 35 36  0  0  0  0  0  0  0  0  3 V2000
  145.4240  138.2494  153.5955 O   0  0  0  0  0  0  0  0  0  0  0  0
  146.4386  137.8579  153.0190 C   0  0  0  0  0  0  0  0  0  0  0  0
  146.4949  136.7083  152.3308 N   0  0  0  0  0  0  0  0  0  0  0  0
  145.3727  135.7940  152.1517 C   0  0  0  0  0  0  0  0  0  0  0  0
  145.0322  135.5997  150.6622 C   0  0  0  0  0  0  0  0  0  0  0  0
  145.2847  134.2115  150.2111 N   0  3  0  0  0  0  0  0  0  0  0  0
  144.1011  133.3063  150.2826 C   0  0  0  0  0  0  0  0  0  0  0  0
  144.6884  132.0059  150.7529 C   0  0  0  0  0  0  0  0  0  0  0  0
  145.9676  132.1418  151.0832 C   0  0  0  0  0  0  0  0  0  0  0  0
  146.4390  133.5551  150.8879 C   0  0  0  0  0  0  0  0  0  0  0  0
  147.6223  138.4952  153.0084 N   0  0  0  0  0  0  0  0  0  0  0  0
  147.9599  139.7441  153.5981 C   0  0  0  0  0  0  0  0  0  0  0  0
  146.9823  140.7638  153.5759 C   0  0  0  0  0  0  0  0  0  0  0  0
  147.2668  142.0130  154.1642 C   0  0  0  0  0  0  0  0  0  0  0  0
  148.4644  142.2228  154.7516 N   0  3  0  0  0  0  0  0  0  0  0  0
  149.4243  141.2753  154.8107 C   0  0  0  0  0  0  0  0  0  0  0  0
  149.1975  140.0063  154.2398 C   0  0  0  0  0  0  0  0  0  0  0  0
  147.3675  136.4533  151.8910 H   0  0  0  0  0  0  0  0  0  0  0  0
  145.6017  134.8408  152.6312 H   0  0  0  0  0  0  0  0  0  0  0  0
  144.5118  136.2058  152.6791 H   0  0  0  0  0  0  0  0  0  0  0  0
  143.9768  135.8298  150.5086 H   0  0  0  0  0  0  0  0  0  0  0  0
  145.5987  136.2907  150.0357 H   0  0  0  0  0  0  0  0  0  0  0  0
  143.3577  133.6510  151.0029 H   0  0  0  0  0  0  0  0  0  0  0  0
  143.6305  133.2018  149.3047 H   0  0  0  0  0  0  0  0  0  0  0  0
  144.1114  131.0953  150.8233 H   0  0  0  0  0  0  0  0  0  0  0  0
  146.6065  131.3603  151.4676 H   0  0  0  0  0  0  0  0  0  0  0  0
  147.3325  133.5977  150.2647 H   0  0  0  0  0  0  0  0  0  0  0  0
  146.6571  134.0018  151.8591 H   0  0  0  0  0  0  0  0  0  0  0  0
  148.3855  138.0059  152.5645 H   0  0  0  0  0  0  0  0  0  0  0  0
  146.0223  140.5963  153.1089 H   0  0  0  0  0  0  0  0  0  0  0  0
  146.5761  142.8433  154.1849 H   0  0  0  0  0  0  0  0  0  0  0  0
  150.3373  141.5553  155.3159 H   0  0  0  0  0  0  0  0  0  0  0  0
  149.9714  139.2583  154.3182 H   0  0  0  0  0  0  0  0  0  0  0  0
  145.5392  134.2598  149.2348 H   0  0  0  0  0  0  0  0  0  0  0  0
  148.6501  143.1336  155.1729 H   0  0  0  0  0  0  0  0  0  0  0  0
  1  2  2  0  0  0  0
  2  3  1  0  0  0  0
  2 11  1  0  0  0  0
  3  4  1  0  0  0  0
  3 18  1  0  0  0  0
  4  5  1  0  0  0  0
  4 19  1  0  0  0  0
  4 20  1  0  0  0  0
  5  6  1  0  0  0  0
  5 21  1  0  0  0  0
  5 22  1  0  0  0  0
  6 10  1  0  0  0  0
  6  7  1  0  0  0  0
  6 34  1  0  0  0  0
  7  8  1  0  0  0  0
  7 23  1  0  0  0  0
  7 24  1  0  0  0  0
  8  9  2  0  0  0  0
  8 25  1  0  0  0  0
  9 10  1  0  0  0  0
  9 26  1  0  0  0  0
 10 27  1  0  0  0  0
 10 28  1  0  0  0  0
 11 12  1  0  0  0  0
 11 29  1  0  0  0  0
 12 17  1  0  0  0  0
 12 13  2  0  0  0  0
 13 14  1  0  0  0  0
 13 30  1  0  0  0  0
 14 15  2  0  0  0  0
 14 31  1  0  0  0  0
 15 16  1  0  0  0  0
 15 35  1  0  0  0  0
 16 17  2  0  0  0  0
 16 32  1  0  0  0  0
 17 33  1  0  0  0  0
M  CHG  1   6   1
M  CHG  1  15   1
M  END
> <s_m_source_file>
AV-unprocessed.smi

> <i_m_source_file_index>
761

> <i_lp_mmshare_version>
43012

> <i_f3d_flags>
0

> <s_epik_input>
W2NIXTFbY0hdbltjSF1bY0hdYzFbTkhdQyg9TylbTkhdW0NIMl1bQ0gyXU4yW0NIMl1bQ0hdPVtDSF1bQ0gyXTI=

> <s_epik_cmdline>
J2VwaWtfcHl0aG9uJywgJy1waCcsICc3LjAnLCAnLXRuJywgJzgnLCAnLW1hJywgJzIwMCcsICctbWV0YWxfYmluZGluZycsICctaW1hZScsICc8aW5maWxlLm1hZT4nLCAnLW9tYWUnLCAnPG91dGZpbGUubWFlPic=

> <r_epik_Ionization_Penalty>
1.1155

> <r_epik_Ionization_Penalty_Charging>
1.11548

> <r_epik_Ionization_Penalty_Neutral>
1.98533e-05

> <r_epik_State_Penalty>
1.13758

> <r_epik_Charging_Adjusted_Penalty>
2.25306

> <i_epik_Tot_Q>
2

> <i_epik_Tot_abs_Q>
2

> <r_epik_Metal_State_Penalty>
1.22141

> <b_epik_Metal_Only>
0

> <s_lp_Force_Field>
OPLS_2005

> <r_lp_Energy>
33.0614

> <b_lp_Chiralities_Consistent>
1

> <s_lp_Variant>
AV-unprocessed.smi:761-2

> <Gold.Version>
5.8.1

> <Gold.Id.Protein>
6NUR|6NUR_protein|mol2

> <Gold.PLP.Fitness>
46.7115

> <Gold.PLP.PLP>
-34.0319

> <Gold.PLP.part.hbond>
-4.7616

> <Gold.PLP.part.metal>
0.0000

> <Gold.PLP.part.buried>
-3.2021

> <Gold.PLP.part.nonpolar>
-28.2273

> <Gold.PLP.part.repulsive>
1.1611

> <Gold.PLP.ligand.clash>
0.0000

> <Gold.PLP.ligand.torsion>
1.0231

> <Gold.PLP.Chemscore.Hbond>
4.8960

> <Gold.PLP.Chemscore.CHOScore>
0.0000

> <Gold.PLP.Chemscore.Metal>
0.0000

> <Gold.Chemscore.Hbonds>
donor molecule, donor type, donor heavy atom, donor atom, acceptor molecule, acceptor atom, score
      L1  H     3    18       P1  7948  1.00
      L1  H     6    34       P1  7921  1.00
      L1  H    11    29       P1  7948  0.90
      L1  H    15    35       P1  8028  2.00

> <Gold.PLP.Chemscore.Internal.Correction>
0.0378

> <Gold.Rescore>
     Score         DG    S(hbond)    S(metal)    S(lipo)     H(rot)  DE(clash)    DE(int)     intcor
     21.22     -23.48       3.86        0.00      77.36       1.54       0.06       2.21       ----

> <Gold.Chemscore.Fitness>
21.2160

> <Gold.Chemscore.DG>
-23.4825

> <Gold.Chemscore.ZeroCoef>
-5.4800

> <Gold.Chemscore.Hbond>
3.8627

> <Gold.Chemscore.Metal>
0.0000

> <Gold.Chemscore.Lipo>
77.3643

> <Gold.Chemscore.Internal_Hbond>
0.0000

> <Gold.Chemscore.DEClash>
0.0588

> <Gold.Chemscore.DEInternal>
2.2077

> <Gold.Chemscore.Rot>
1.5432

> <Gold.Chemscore.Internal.Correction>
   9.000000E+99

> <Gold.Chemscore.Hbonds>
donor molecule, donor type, donor heavy atom, donor atom, acceptor molecule, acceptor atom, score
      L1  H     3    18       P1  7948  0.96
      L1  H     6    34       P1  7921  0.88
      L1  H    11    29       P1  7948  0.87
      L1  H    15    35       P1  8028  1.00

> <Gold.Chemscore.Hbond.Weighted>
-12.9015

> <Gold.Chemscore.Metal.Weighted>
-0.0000

> <Gold.Chemscore.Lipo.Weighted>
-9.0516

> <Gold.Chemscore.Internal_Hbond.Weighted>
0.0000

> <Gold.Chemscore.DEClash.Weighted>
0.0588

> <Gold.Chemscore.DEInternal.Weighted>
2.2077

> <Gold.Chemscore.Rot.Weighted>
3.9505

> <Gold.Chemscore.Internal.Correction.Weighted>
   9.000000E+99

> <Gold.Protein.RotatedTorsions>
[ 6907 6896 6895 6894 ] final  -38.82 input  -60.11 | X-H torsion
[ 7974 7965 7964 7962 ] final  -28.95 input  175.53 | X-H torsion
[ 8008 7997 7996 7995 ] final  171.81 input   59.86 | X-H torsion
[ 10167 10162 10161 10158 ] final  -34.95 input  -65.29 | X-H torsion
[ 10718 10713 10712 10709 ] final -103.15 input   66.30 | X-H torsion
[ 10763 10752 10751 10750 ] final   56.73 input  -60.55 | X-H torsion
[ 11005 11000 10999 10996 ] final -144.05 input  -57.11 | X-H torsion

> <Gold.Protein.ActiveResidues>
 VAL166  LYS551  ARG553  GLY616  TRP617  ASP618  TYR619  PRO620  LYS621  CYS622 
 ASP623  PHE694  ASN695  SER759  ASP760  ASP761  ALA762  ILE779  LEU786  VAL792 
 PHE793  MET794  SER795  GLU796  ALA797  LYS798  CYS799  TRP800  GLU811  SER814 

> <Gold.Protein.RotatedAtoms>
  150.9978  134.9297  159.7936 H   0  0  0  0  0  0  0  0  0  0  0  0  # atno 6907 bound_to 6896
  152.5269  134.3195  159.9153 H   0  0  0  0  0  0  0  0  0  0  0  0  # atno 6908 bound_to 6896
  151.3201  133.4002  159.2688 H   0  0  0  0  0  0  0  0  0  0  0  0  # atno 6909 bound_to 6896
  146.1251  140.5350  142.8718 H   0  0  0  0  0  0  0  0  0  0  0  0  # atno 7974 bound_to 7965
  156.1235  140.1502  156.9170 H   0  0  0  0  0  0  0  0  0  0  0  0  # atno 8008 bound_to 7997
  154.4854  140.0867  156.7515 H   0  0  0  0  0  0  0  0  0  0  0  0  # atno 8009 bound_to 7997
  155.4385  140.3430  155.4289 H   0  0  0  0  0  0  0  0  0  0  0  0  # atno 8010 bound_to 7997
  140.7175  143.3512  151.2152 H   0  0  0  0  0  0  0  0  0  0  0  0  # atno 10167 bound_to 10162
  156.0255  130.5454  150.7211 H   0  0  0  0  0  0  0  0  0  0  0  0  # atno 10718 bound_to 10713
  152.9837  135.5666  154.5275 H   0  0  0  0  0  0  0  0  0  0  0  0  # atno 10763 bound_to 10752
  154.4753  135.2786  155.1614 H   0  0  0  0  0  0  0  0  0  0  0  0  # atno 10764 bound_to 10752
  154.3145  135.6281  153.5533 H   0  0  0  0  0  0  0  0  0  0  0  0  # atno 10765 bound_to 10752
  140.8064  134.2796  157.4958 H   0  0  0  0  0  0  0  0  0  0  0  0  # atno 11005 bound_to 11000
  144.7635  140.5476  143.6719 LP  0  0  0  0  0  0  0  0  0  0  0  0  # atno 17320 bound_to 7965
  145.5382  139.1475  143.3461 LP  0  0  0  0  0  0  0  0  0  0  0  0  # atno 17321 bound_to 7965
  139.7043  143.9481  152.2919 LP  0  0  0  0  0  0  0  0  0  0  0  0  # atno 17342 bound_to 10162
  139.9185  144.6814  150.8487 LP  0  0  0  0  0  0  0  0  0  0  0  0  # atno 17343 bound_to 10162
  157.4827  131.0904  151.0518 LP  0  0  0  0  0  0  0  0  0  0  0  0  # atno 17370 bound_to 10713
  157.0947  130.5957  149.5447 LP  0  0  0  0  0  0  0  0  0  0  0  0  # atno 17371 bound_to 10713
  139.8717  134.9458  156.3921 LP  0  0  0  0  0  0  0  0  0  0  0  0  # atno 17394 bound_to 11000
  140.9243  133.7623  155.9945 LP  0  0  0  0  0  0  0  0  0  0  0  0  # atno 17395 bound_to 11000

$$$$
