AV-unprocessed.smi:278|AV-procd|sdf|2089|dock5
  -GOLD-   2262021363D 1   1.00000     0.00000
 Structure written by MMmdl.
 50 54  0  0  0  0  0  0  0  0  1 V2000
  149.8719  143.7851  160.2700 O   0  0  0  0  0  0  0  0  0  0  0  0
  151.0980  144.5445  159.9791 S   0  0  0  0  0  0  0  0  0  0  0  0
  151.0379  145.8692  159.3434 O   0  0  0  0  0  0  0  0  0  0  0  0
  152.1183  144.6270  161.4889 C   0  0  0  0  0  0  0  0  0  0  0  0
  152.7658  143.2406  161.5899 C   0  0  0  0  0  0  0  0  0  0  0  0
  153.0773  142.7070  160.1679 C   0  0  1  0  0  0  0  0  0  0  0  0
  152.6856  141.2420  159.9425 C   0  0  0  0  0  0  0  0  0  0  0  0
  152.3049  141.1566  158.5415 N   0  0  0  0  0  0  0  0  0  0  0  0
  151.6407  140.0331  158.1959 C   0  0  0  0  0  0  0  0  0  0  0  0
  151.4654  139.1035  159.1664 N   0  0  0  0  0  0  0  0  0  0  0  0
  150.8141  137.9682  158.8947 C   0  0  0  0  0  0  0  0  0  0  0  0
  150.2685  137.5727  157.7423 N   0  0  0  0  0  0  0  0  0  0  0  0
  150.4447  138.5071  156.7643 C   0  0  0  0  0  0  0  0  0  0  0  0
  151.1130  139.7560  156.9020 C   0  0  0  0  0  0  0  0  0  0  0  0
  151.0914  140.4397  155.6916 N   0  0  0  0  0  0  0  0  0  0  0  0
  150.4495  139.6395  154.8845 C   0  0  0  0  0  0  0  0  0  0  0  0
  150.0265  138.4565  155.4470 N   0  0  0  0  0  0  0  0  0  0  0  0
  149.2931  137.3893  154.7894 C   0  0  0  0  0  0  0  0  0  0  0  0
  149.9307  136.0054  155.0226 C   0  0  2  0  0  0  0  0  0  0  0  0
  151.2185  135.9823  154.4362 O   0  0  0  0  0  0  0  0  0  0  0  0
  149.0878  134.8660  154.4204 C   0  0  1  0  0  0  0  0  0  0  0  0
  149.6312  133.4643  154.6912 C   0  0  0  0  0  0  0  0  0  0  0  0
  148.4093  132.5984  154.4627 C   0  0  0  0  0  0  0  0  0  0  0  0
  147.2478  133.5154  154.8543 C   0  0  0  0  0  0  0  0  0  0  0  0
  147.8068  134.8138  155.0332 O   0  0  0  0  0  0  0  0  0  0  0  0
  151.6359  142.4045  158.2033 C   0  0  0  0  0  0  0  0  0  0  0  0
  152.2896  143.4714  159.0910 C   0  0  1  0  0  0  0  0  0  0  0  0
  154.1402  142.8291  159.9555 H   0  0  0  0  0  0  0  0  0  0  0  0
  152.9632  144.1088  158.5172 H   0  0  0  0  0  0  0  0  0  0  0  0
  152.8742  145.3997  161.3462 H   0  0  0  0  0  0  0  0  0  0  0  0
  151.5035  144.8839  162.3514 H   0  0  0  0  0  0  0  0  0  0  0  0
  153.6589  143.2615  162.2147 H   0  0  0  0  0  0  0  0  0  0  0  0
  152.0577  142.5767  162.0872 H   0  0  0  0  0  0  0  0  0  0  0  0
  153.5142  140.5691  160.1651 H   0  0  0  0  0  0  0  0  0  0  0  0
  151.8467  140.9598  160.5789 H   0  0  0  0  0  0  0  0  0  0  0  0
  150.7159  137.2775  159.7193 H   0  0  0  0  0  0  0  0  0  0  0  0
  150.2683  139.8915  153.8497 H   0  0  0  0  0  0  0  0  0  0  0  0
  148.2700  137.4034  155.1669 H   0  0  0  0  0  0  0  0  0  0  0  0
  149.2344  137.6095  153.7226 H   0  0  0  0  0  0  0  0  0  0  0  0
  150.0466  135.8378  156.0943 H   0  0  0  0  0  0  0  0  0  0  0  0
  151.1392  136.2342  153.5289 H   0  0  0  0  0  0  0  0  0  0  0  0
  148.9547  135.0110  153.3466 H   0  0  0  0  0  0  0  0  0  0  0  0
  150.4671  133.1972  154.0439 H   0  0  0  0  0  0  0  0  0  0  0  0
  149.9603  133.3771  155.7277 H   0  0  0  0  0  0  0  0  0  0  0  0
  148.3328  132.3316  153.4079 H   0  0  0  0  0  0  0  0  0  0  0  0
  148.4344  131.6760  155.0434 H   0  0  0  0  0  0  0  0  0  0  0  0
  146.4851  133.5367  154.0753 H   0  0  0  0  0  0  0  0  0  0  0  0
  146.7752  133.1940  155.7826 H   0  0  0  0  0  0  0  0  0  0  0  0
  151.7815  142.6347  157.1476 H   0  0  0  0  0  0  0  0  0  0  0  0
  150.5625  142.3379  158.3762 H   0  0  0  0  0  0  0  0  0  0  0  0
  1  2  2  0  0  0  0
  2 27  1  0  0  0  0
  2  3  2  0  0  0  0
  2  4  1  0  0  0  0
  4  5  1  0  0  0  0
  4 30  1  0  0  0  0
  4 31  1  0  0  0  0
  5  6  1  0  0  0  0
  5 32  1  0  0  0  0
  5 33  1  0  0  0  0
  6 28  1  0  0  0  0
  6 27  1  0  0  0  0
  6  7  1  0  0  0  0
  7  8  1  0  0  0  0
  7 34  1  0  0  0  0
  7 35  1  0  0  0  0
  8  9  1  0  0  0  0
  8 26  1  0  0  0  0
  9 14  1  0  0  0  0
  9 10  2  0  0  0  0
 10 11  1  0  0  0  0
 11 12  2  0  0  0  0
 11 36  1  0  0  0  0
 12 13  1  0  0  0  0
 13 17  1  0  0  0  0
 13 14  2  0  0  0  0
 14 15  1  0  0  0  0
 15 16  2  0  0  0  0
 16 17  1  0  0  0  0
 16 37  1  0  0  0  0
 17 18  1  0  0  0  0
 18 19  1  0  0  0  0
 18 38  1  0  0  0  0
 18 39  1  0  0  0  0
 19 20  1  0  0  0  0
 19 21  1  0  0  0  0
 19 40  1  0  0  0  0
 20 41  1  0  0  0  0
 21 25  1  0  0  0  0
 21 22  1  0  0  0  0
 21 42  1  0  0  0  0
 22 23  1  0  0  0  0
 22 43  1  0  0  0  0
 22 44  1  0  0  0  0
 23 24  1  0  0  0  0
 23 45  1  0  0  0  0
 23 46  1  0  0  0  0
 24 25  1  0  0  0  0
 24 47  1  0  0  0  0
 24 48  1  0  0  0  0
 26 27  1  0  0  0  0
 26 49  1  0  0  0  0
 26 50  1  0  0  0  0
 27 29  1  0  0  0  0
M  END
> <s_m_source_file>
AV-unprocessed.smi

> <i_m_source_file_index>
278

> <i_lp_mmshare_version>
43012

> <i_f3d_flags>
0

> <s_epik_input>
W0NIMl0xW0NIMl1TKD1PKSg9TylbQ0BASF0oW0NAQEhdMTIpW0NIMl1OKFtDSDJdMiljKG5bY0hdbjMpYyhjMzQpbltjSF1uNFtDSDJdW0NASF0oW09IXSlbQ0BASF01W0NIMl1bQ0gyXVtDSDJdTzU=

> <s_epik_cmdline>
J2VwaWtfcHl0aG9uJywgJy1waCcsICc3LjAnLCAnLXRuJywgJzgnLCAnLW1hJywgJzIwMCcsICctbWV0YWxfYmluZGluZycsICctaW1hZScsICc8aW5maWxlLm1hZT4nLCAnLW9tYWUnLCAnPG91dGZpbGUubWFlPic=

> <r_lp_tautomer_probability>
1

> <r_epik_Ionization_Penalty>
0.000636766

> <r_epik_Ionization_Penalty_Charging>
0

> <r_epik_Ionization_Penalty_Neutral>
0.000636766

> <r_epik_State_Penalty>
0.000329976

> <r_epik_Charging_Adjusted_Penalty>
0.000329976

> <i_epik_Tot_Q>
0

> <i_epik_Tot_abs_Q>
0

> <r_epik_Metal_State_Penalty>
-0

> <b_epik_Metal_Only>
0

> <s_lp_Force_Field>
OPLS_2005

> <r_lp_Energy>
53.1939

> <b_lp_Chiralities_Consistent>
1

> <s_lp_Variant>
AV-unprocessed.smi:278-3

> <Gold.Version>
5.8.1

> <Gold.Id.Protein>
6NUR|6NUR_protein|mol2

> <Gold.PLP.Fitness>
48.2645

> <Gold.PLP.PLP>
-41.1408

> <Gold.PLP.part.hbond>
-5.4912

> <Gold.PLP.part.metal>
0.0000

> <Gold.PLP.part.buried>
0.4756

> <Gold.PLP.part.nonpolar>
-35.4270

> <Gold.PLP.part.repulsive>
0.4342

> <Gold.PLP.ligand.clash>
0.0000

> <Gold.PLP.ligand.torsion>
0.1906

> <Gold.PLP.Chemscore.Hbond>
2.0884

> <Gold.PLP.Chemscore.CHOScore>
0.3927

> <Gold.PLP.Chemscore.Metal>
0.0000

> <Gold.Chemscore.Hbonds>
donor molecule, donor type, donor heavy atom, donor atom, acceptor molecule, acceptor atom, score
      L1  H    20    41       P1  7949  0.96
      P1  H  6933  6944       L1     1  0.08
      P1  H 10752 10763       L1    20  1.00
      L1  C    16    37       P1  7957  0.41

> <Gold.PLP.Chemscore.Internal.Correction>
0.0617

> <Gold.Rescore>
     Score         DG    S(hbond)    S(metal)    S(lipo)     H(rot)  DE(clash)    DE(int)     intcor
     11.10     -17.06       1.80        0.00     101.63       2.46       5.77       0.20       ----

> <Gold.Chemscore.Fitness>
11.1022

> <Gold.Chemscore.DG>
-17.0630

> <Gold.Chemscore.ZeroCoef>
-5.4800

> <Gold.Chemscore.Hbond>
1.7960

> <Gold.Chemscore.Metal>
0.0000

> <Gold.Chemscore.Lipo>
101.6331

> <Gold.Chemscore.Internal_Hbond>
0.0000

> <Gold.Chemscore.DEClash>
5.7657

> <Gold.Chemscore.DEInternal>
0.1952

> <Gold.Chemscore.Rot>
2.4636

> <Gold.Chemscore.Internal.Correction>
   9.000000E+99

> <Gold.Chemscore.Hbonds>
donor molecule, donor type, donor heavy atom, donor atom, acceptor molecule, acceptor atom, score
      L1  H    20    41       P1  7949  0.36
      P1  H  6933  6944       L1     1  0.08
      P1  H 10752 10763       L1    20  0.35

> <Gold.Chemscore.Hbond.Weighted>
-5.9988

> <Gold.Chemscore.Metal.Weighted>
-0.0000

> <Gold.Chemscore.Lipo.Weighted>
-11.8911

> <Gold.Chemscore.Internal_Hbond.Weighted>
0.0000

> <Gold.Chemscore.DEClash.Weighted>
5.7657

> <Gold.Chemscore.DEInternal.Weighted>
0.1952

> <Gold.Chemscore.Rot.Weighted>
6.3068

> <Gold.Chemscore.Internal.Correction.Weighted>
   9.000000E+99

> <Gold.Protein.RotatedTorsions>
[ 6907 6896 6895 6894 ] final  -15.41 input  -60.11 | X-H torsion
[ 7974 7965 7964 7962 ] final -178.14 input  175.53 | X-H torsion
[ 8008 7997 7996 7995 ] final  -69.27 input   59.86 | X-H torsion
[ 10167 10162 10161 10158 ] final  119.34 input  -65.29 | X-H torsion
[ 10718 10713 10712 10709 ] final  -38.67 input   66.30 | X-H torsion
[ 10763 10752 10751 10750 ] final   59.42 input  -60.55 | X-H torsion
[ 11005 11000 10999 10996 ] final  -81.83 input  -57.11 | X-H torsion

> <Gold.Protein.ActiveResidues>
 VAL166  LYS551  ARG553  GLY616  TRP617  ASP618  TYR619  PRO620  LYS621  CYS622 
 ASP623  PHE694  ASN695  SER759  ASP760  ASP761  ALA762  ILE779  LEU786  VAL792 
 PHE793  MET794  SER795  GLU796  ALA797  LYS798  CYS799  TRP800  GLU811  SER814 

> <Gold.Protein.RotatedAtoms>
  151.3243  135.0826  159.9316 H   0  0  0  0  0  0  0  0  0  0  0  0  # atno 6907 bound_to 6896
  152.5249  133.9607  159.7726 H   0  0  0  0  0  0  0  0  0  0  0  0  # atno 6908 bound_to 6896
  150.9934  133.6075  159.2735 H   0  0  0  0  0  0  0  0  0  0  0  0  # atno 6909 bound_to 6896
  144.7130  140.0913  143.6421 H   0  0  0  0  0  0  0  0  0  0  0  0  # atno 7974 bound_to 7965
  154.4926  140.0857  156.7628 H   0  0  0  0  0  0  0  0  0  0  0  0  # atno 8008 bound_to 7997
  155.4193  140.3445  155.4252 H   0  0  0  0  0  0  0  0  0  0  0  0  # atno 8009 bound_to 7997
  156.1351  140.1512  156.8995 H   0  0  0  0  0  0  0  0  0  0  0  0  # atno 8010 bound_to 7997
  139.6052  144.7068  151.2969 H   0  0  0  0  0  0  0  0  0  0  0  0  # atno 10167 bound_to 10162
  156.3011  130.4240  149.8142 H   0  0  0  0  0  0  0  0  0  0  0  0  # atno 10718 bound_to 10713
  152.9894  135.5572  154.5710 H   0  0  0  0  0  0  0  0  0  0  0  0  # atno 10763 bound_to 10752
  154.5110  135.2802  155.1344 H   0  0  0  0  0  0  0  0  0  0  0  0  # atno 10764 bound_to 10752
  154.2736  135.6358  153.5372 H   0  0  0  0  0  0  0  0  0  0  0  0  # atno 10765 bound_to 10752
  141.1665  133.7215  156.8480 H   0  0  0  0  0  0  0  0  0  0  0  0  # atno 11005 bound_to 11000
  145.9617  139.2806  143.1151 LP  0  0  0  0  0  0  0  0  0  0  0  0  # atno 17320 bound_to 7965
  145.9213  140.9113  143.0404 LP  0  0  0  0  0  0  0  0  0  0  0  0  # atno 17321 bound_to 7965
  140.7280  143.6948  150.7892 LP  0  0  0  0  0  0  0  0  0  0  0  0  # atno 17342 bound_to 10162
  140.0533  143.5228  152.2663 LP  0  0  0  0  0  0  0  0  0  0  0  0  # atno 17343 bound_to 10162
  156.5519  130.8346  151.3302 LP  0  0  0  0  0  0  0  0  0  0  0  0  # atno 17370 bound_to 10713
  157.7368  130.9785  150.2157 LP  0  0  0  0  0  0  0  0  0  0  0  0  # atno 17371 bound_to 10713
  140.1936  134.8948  157.3088 LP  0  0  0  0  0  0  0  0  0  0  0  0  # atno 17394 bound_to 11000
  140.2264  134.3962  155.7542 LP  0  0  0  0  0  0  0  0  0  0  0  0  # atno 17395 bound_to 11000

$$$$
