AV-unprocessed.smi:3294|AV-procd|sdf|12634|dock6
  -GOLD-   2272018573D 1   1.00000     0.00000
 Structure written by MMmdl.
 38 40  0  0  0  0  0  0  0  0  2 V2000
  147.5322  139.2217  153.3096 C   0  0  0  0  0  0  0  0  0  0  0  0
  148.8372  139.2763  154.0754 C   0  0  0  0  0  0  0  0  0  0  0  0
  149.1181  140.2910  155.0155 C   0  0  0  0  0  0  0  0  0  0  0  0
  150.3618  140.2849  155.6968 C   0  0  0  0  0  0  0  0  0  0  0  0
  150.7310  141.2492  156.6735 N   0  0  0  0  0  0  0  0  0  0  0  0
  151.7250  141.1823  157.5759 C   0  0  0  0  0  0  0  0  0  0  0  0
  152.4799  140.2219  157.7253 O   0  0  0  0  0  0  0  0  0  0  0  0
  151.7806  142.2986  158.3189 N   0  0  0  0  0  0  0  0  0  0  0  0
  152.7192  142.5801  159.4043 C   0  0  0  0  0  0  0  0  0  0  0  0
  152.4407  141.7958  160.6785 C   0  0  0  0  0  0  0  0  0  0  0  0
  152.6268  142.4210  162.0404 C   0  0  0  0  0  0  0  0  0  0  0  0
  153.5656  141.3317  161.5718 C   0  0  0  0  0  0  0  0  0  0  0  0
  152.8828  144.0628  159.7044 C   0  0  0  0  0  0  0  0  0  0  0  0
  151.8073  144.8368  160.4280 C   0  0  0  0  0  0  0  0  0  0  0  0
  152.0786  145.1051  158.9644 C   0  0  0  0  0  0  0  0  0  0  0  0
  151.2732  139.2399  155.4293 C   0  0  0  0  0  0  0  0  0  0  0  0
  150.9395  138.2531  154.4798 C   0  0  0  0  0  0  0  0  0  0  0  0
  149.7499  138.3072  153.8435 N   0  3  0  0  0  0  0  0  0  0  0  0
  146.9284  140.1100  153.4977 H   0  0  0  0  0  0  0  0  0  0  0  0
  146.9539  138.3470  153.6083 H   0  0  0  0  0  0  0  0  0  0  0  0
  147.7210  139.1607  152.2374 H   0  0  0  0  0  0  0  0  0  0  0  0
  148.3728  141.0478  155.2079 H   0  0  0  0  0  0  0  0  0  0  0  0
  150.1329  142.0604  156.7317 H   0  0  0  0  0  0  0  0  0  0  0  0
  151.1099  143.0258  158.1179 H   0  0  0  0  0  0  0  0  0  0  0  0
  153.6809  142.2301  159.0262 H   0  0  0  0  0  0  0  0  0  0  0  0
  151.5950  141.1157  160.5964 H   0  0  0  0  0  0  0  0  0  0  0  0
  153.0217  143.4337  162.0884 H   0  0  0  0  0  0  0  0  0  0  0  0
  151.9034  142.1656  162.8121 H   0  0  0  0  0  0  0  0  0  0  0  0
  153.4681  140.3503  162.0313 H   0  0  0  0  0  0  0  0  0  0  0  0
  154.5794  141.6242  161.3058 H   0  0  0  0  0  0  0  0  0  0  0  0
  153.9064  144.3501  159.9378 H   0  0  0  0  0  0  0  0  0  0  0  0
  150.8871  144.3134  160.6800 H   0  0  0  0  0  0  0  0  0  0  0  0
  152.1283  145.5882  161.1463 H   0  0  0  0  0  0  0  0  0  0  0  0
  152.5806  146.0355  158.7069 H   0  0  0  0  0  0  0  0  0  0  0  0
  151.3343  144.7633  158.2480 H   0  0  0  0  0  0  0  0  0  0  0  0
  152.2243  139.1955  155.9402 H   0  0  0  0  0  0  0  0  0  0  0  0
  151.5824  137.4269  154.2138 H   0  0  0  0  0  0  0  0  0  0  0  0
  149.5279  137.5818  153.1610 H   0  0  0  0  0  0  0  0  0  0  0  0
  1  2  1  0  0  0  0
  1 19  1  0  0  0  0
  1 20  1  0  0  0  0
  1 21  1  0  0  0  0
  2 18  1  0  0  0  0
  2  3  2  0  0  0  0
  3  4  1  0  0  0  0
  3 22  1  0  0  0  0
  4  5  1  0  0  0  0
  4 16  2  0  0  0  0
  5  6  1  0  0  0  0
  5 23  1  0  0  0  0
  6  7  2  0  0  0  0
  6  8  1  0  0  0  0
  8  9  1  0  0  0  0
  8 24  1  0  0  0  0
  9 10  1  0  0  0  0
  9 13  1  0  0  0  0
  9 25  1  0  0  0  0
 10 12  1  0  0  0  0
 10 11  1  0  0  0  0
 10 26  1  0  0  0  0
 11 12  1  0  0  0  0
 11 27  1  0  0  0  0
 11 28  1  0  0  0  0
 12 29  1  0  0  0  0
 12 30  1  0  0  0  0
 13 15  1  0  0  0  0
 13 14  1  0  0  0  0
 13 31  1  0  0  0  0
 14 15  1  0  0  0  0
 14 32  1  0  0  0  0
 14 33  1  0  0  0  0
 15 34  1  0  0  0  0
 15 35  1  0  0  0  0
 16 17  1  0  0  0  0
 16 36  1  0  0  0  0
 17 18  2  0  0  0  0
 17 37  1  0  0  0  0
 18 38  1  0  0  0  0
M  CHG  1  18   1
M  END
> <s_m_source_file>
AV-unprocessed.smi

> <i_m_source_file_index>
3294

> <i_lp_mmshare_version>
43012

> <i_f3d_flags>
0

> <s_epik_input>
W0NIM11jMVtjSF1jKFtjSF1bY0hdbjEpW05IXUMoPU8pW05IXVtDSF0oW0NIXTJbQ0gyXVtDSDJdMilbQ0hdM1tDSDJdW0NIMl0z

> <s_epik_cmdline>
J2VwaWtfcHl0aG9uJywgJy1waCcsICc3LjAnLCAnLXRuJywgJzgnLCAnLW1hJywgJzIwMCcsICctbWV0YWxfYmluZGluZycsICctaW1hZScsICc8aW5maWxlLm1hZT4nLCAnLW9tYWUnLCAnPG91dGZpbGUubWFlPic=

> <r_epik_Ionization_Penalty>
0.432398

> <r_epik_Ionization_Penalty_Charging>
0.432376

> <r_epik_Ionization_Penalty_Neutral>
2.18467e-05

> <r_epik_State_Penalty>
0.433859

> <r_epik_Charging_Adjusted_Penalty>
0.866235

> <i_epik_Tot_Q>
1

> <i_epik_Tot_abs_Q>
1

> <r_epik_Metal_State_Penalty>
0.667026

> <b_epik_Metal_Only>
0

> <s_lp_Force_Field>
OPLS_2005

> <r_lp_Energy>
34.1615

> <b_lp_Chiralities_Consistent>
1

> <s_lp_Variant>
AV-unprocessed.smi:3294-2

> <Gold.Version>
5.8.1

> <Gold.Id.Protein>
6NUR|6NUR_protein|mol2

> <Gold.PLP.Fitness>
52.6925

> <Gold.PLP.PLP>
-45.6357

> <Gold.PLP.part.hbond>
-3.0000

> <Gold.PLP.part.metal>
0.0000

> <Gold.PLP.part.buried>
-3.2298

> <Gold.PLP.part.nonpolar>
-39.0718

> <Gold.PLP.part.repulsive>
0.1992

> <Gold.PLP.ligand.clash>
0.0000

> <Gold.PLP.ligand.torsion>
2.0206

> <Gold.PLP.Chemscore.Hbond>
2.9760

> <Gold.PLP.Chemscore.CHOScore>
0.0000

> <Gold.PLP.Chemscore.Metal>
0.0000

> <Gold.Chemscore.Hbonds>
donor molecule, donor type, donor heavy atom, donor atom, acceptor molecule, acceptor atom, score
      L1  H    18    38       P1  7948  2.00
      P1  H  7997  8009       L1     7  0.64

> <Gold.PLP.Chemscore.Internal.Correction>
2.1699

> <Gold.Rescore>
     Score         DG    S(hbond)    S(metal)    S(lipo)     H(rot)  DE(clash)    DE(int)     intcor
     19.60     -23.00       1.93        0.00     123.36       1.31       0.06       3.34       ----

> <Gold.Chemscore.Fitness>
19.6019

> <Gold.Chemscore.DG>
-22.9990

> <Gold.Chemscore.ZeroCoef>
-5.4800

> <Gold.Chemscore.Hbond>
1.9290

> <Gold.Chemscore.Metal>
0.0000

> <Gold.Chemscore.Lipo>
123.3565

> <Gold.Chemscore.Internal_Hbond>
0.0000

> <Gold.Chemscore.DEClash>
0.0593

> <Gold.Chemscore.DEInternal>
3.3378

> <Gold.Chemscore.Rot>
1.3111

> <Gold.Chemscore.Internal.Correction>
   9.000000E+99

> <Gold.Chemscore.Hbonds>
donor molecule, donor type, donor heavy atom, donor atom, acceptor molecule, acceptor atom, score
      L1  H    18    38       P1  7948  0.85
      P1  H  7997  8009       L1     7  0.60

> <Gold.Chemscore.Hbond.Weighted>
-6.4427

> <Gold.Chemscore.Metal.Weighted>
-0.0000

> <Gold.Chemscore.Lipo.Weighted>
-14.4327

> <Gold.Chemscore.Internal_Hbond.Weighted>
0.0000

> <Gold.Chemscore.DEClash.Weighted>
0.0593

> <Gold.Chemscore.DEInternal.Weighted>
3.3378

> <Gold.Chemscore.Rot.Weighted>
3.3564

> <Gold.Chemscore.Internal.Correction.Weighted>
   9.000000E+99

> <Gold.Protein.RotatedTorsions>
[ 6907 6896 6895 6894 ] final   56.86 input  -60.11 | X-H torsion
[ 7974 7965 7964 7962 ] final    8.16 input  175.53 | X-H torsion
[ 8008 7997 7996 7995 ] final  176.38 input   59.86 | X-H torsion
[ 10167 10162 10161 10158 ] final -108.02 input  -65.29 | X-H torsion
[ 10718 10713 10712 10709 ] final   82.78 input   66.30 | X-H torsion
[ 10763 10752 10751 10750 ] final -156.67 input  -60.55 | X-H torsion
[ 11005 11000 10999 10996 ] final  156.28 input  -57.11 | X-H torsion

> <Gold.Protein.ActiveResidues>
 VAL166  LYS551  ARG553  GLY616  TRP617  ASP618  TYR619  PRO620  LYS621  CYS622 
 ASP623  PHE694  ASN695  SER759  ASP760  ASP761  ALA762  ILE779  LEU786  VAL792 
 PHE793  MET794  SER795  GLU796  ALA797  LYS798  CYS799  TRP800  GLU811  SER814 

> <Gold.Protein.RotatedAtoms>
  152.3676  134.6781  160.0186 H   0  0  0  0  0  0  0  0  0  0  0  0  # atno 6907 bound_to 6896
  151.7084  133.3306  159.3292 H   0  0  0  0  0  0  0  0  0  0  0  0  # atno 6908 bound_to 6896
  150.7650  134.6488  159.6322 H   0  0  0  0  0  0  0  0  0  0  0  0  # atno 6909 bound_to 6896
  146.2419  139.9975  142.8419 H   0  0  0  0  0  0  0  0  0  0  0  0  # atno 7974 bound_to 7965
  156.0771  140.1385  156.9758 H   0  0  0  0  0  0  0  0  0  0  0  0  # atno 8008 bound_to 7997
  154.4564  140.0960  156.6818 H   0  0  0  0  0  0  0  0  0  0  0  0  # atno 8009 bound_to 7997
  155.5136  140.3454  155.4395 H   0  0  0  0  0  0  0  0  0  0  0  0  # atno 8010 bound_to 7997
  140.1707  143.4045  152.1357 H   0  0  0  0  0  0  0  0  0  0  0  0  # atno 10167 bound_to 10162
  157.6865  131.0062  150.2425 H   0  0  0  0  0  0  0  0  0  0  0  0  # atno 10718 bound_to 10713
  154.7695  135.3141  154.8218 H   0  0  0  0  0  0  0  0  0  0  0  0  # atno 10763 bound_to 10752
  153.8958  135.6821  153.4762 H   0  0  0  0  0  0  0  0  0  0  0  0  # atno 10764 bound_to 10752
  153.1306  135.4782  154.9277 H   0  0  0  0  0  0  0  0  0  0  0  0  # atno 10765 bound_to 10752
  140.1660  134.8576  157.2632 H   0  0  0  0  0  0  0  0  0  0  0  0  # atno 11005 bound_to 11000
  145.1446  140.9590  143.4469 LP  0  0  0  0  0  0  0  0  0  0  0  0  # atno 17320 bound_to 7965
  145.0263  139.3379  143.6047 LP  0  0  0  0  0  0  0  0  0  0  0  0  # atno 17321 bound_to 7965
  139.5339  144.7189  151.4959 LP  0  0  0  0  0  0  0  0  0  0  0  0  # atno 17342 bound_to 10162
  140.6584  143.8551  150.6860 LP  0  0  0  0  0  0  0  0  0  0  0  0  # atno 17343 bound_to 10162
  156.3037  130.3762  149.7726 LP  0  0  0  0  0  0  0  0  0  0  0  0  # atno 17370 bound_to 10713
  156.5348  130.8274  151.3249 LP  0  0  0  0  0  0  0  0  0  0  0  0  # atno 17371 bound_to 10713
  140.2433  134.3769  155.7471 LP  0  0  0  0  0  0  0  0  0  0  0  0  # atno 17394 bound_to 11000
  141.2213  133.7277  156.8823 LP  0  0  0  0  0  0  0  0  0  0  0  0  # atno 17395 bound_to 11000

$$$$
