#       Name:                AV-unprocessed.smi:1252
#       Creating user name   scv26
#       Creation time:       Fri Mar 27 04:37:48 2020


#       File generated by GOLD software.
#

@<TRIPOS>MOLECULE
AV-unprocessed.smi:1252
    50    51     1
SMALL
NO_CHARGES


@<TRIPOS>ATOM
      1 ****        -3.3887   1.8821   0.7453 C.3            1 S1                 0.0000
      2 ****        -2.5255   1.3920  -0.4308 C.3            1 S1                 0.0000
      3 ****        -1.0381   1.7212  -0.2369 C.2            1 S1                 0.0000
      4 ****        -0.6958   2.7928   0.2650 O.2            1 S1                 0.0000
      5 ****        -0.1664   0.7838  -0.6402 N.am           1 S1                 0.0000
      6 ****         1.2901   0.8637  -0.5359 C.3            1 S1                 0.0000
      7 ****         1.8632   0.0459   0.6606 C.3            1 S1                 0.0000
      8 ****         3.4061   0.1257   0.5677 C.3            1 S1                 0.0000
      9 ****         1.4496   0.7956   1.9525 C.3            1 S1                 0.0000
     10 ****         1.3509  -1.3537   0.6678 N.3            1 S1                 0.0000
     11 ****         1.6310  -2.1204  -0.5521 C.3            1 S1                 0.0000
     12 ****         0.9688  -3.5085  -0.5275 C.3            1 S1                 0.0000
     13 ****         1.4028  -4.2258   0.6215 O.3            1 S1                 0.0000
     14 ****         1.0972  -3.5450   1.8324 C.3            1 S1                 0.0000
     15 ****         1.7577  -2.1557   1.8278 C.3            1 S1                 0.0000
     16 ****        -3.0079   1.9348  -1.6932 N.pl3          1 S1                 0.0000
     17 ****        -3.0197   3.1853  -2.1652 C.2            1 S1                 0.0000
     18 ****        -3.5642   3.3006  -3.3683 N.2            1 S1                 0.0000
     19 ****        -3.8952   1.9947  -3.5939 C.2            1 S1                 0.0000
     20 ****        -3.5879   1.1366  -2.6212 N.2            1 S1                 0.0000
     21 ****        -3.0239   1.4870   1.6943 H              1 S1                 0.0000
     22 ****        -4.4220   1.5538   0.6295 H              1 S1                 0.0000
     23 ****        -3.3954   2.9704   0.8184 H              1 S1                 0.0000
     24 ****        -2.6204   0.3049  -0.4735 H              1 S1                 0.0000
     25 ****        -0.5417  -0.0660  -1.0359 H              1 S1                 0.0000
     26 ****         1.7059   0.5118  -1.4796 H              1 S1                 0.0000
     27 ****         1.6095   1.9058  -0.4734 H              1 S1                 0.0000
     28 ****         3.7446   1.1626   0.5764 H              1 S1                 0.0000
     29 ****         3.7870  -0.3207  -0.3506 H              1 S1                 0.0000
     30 ****         3.8959  -0.3702   1.4054 H              1 S1                 0.0000
     31 ****         1.6535   1.8645   1.8778 H              1 S1                 0.0000
     32 ****         1.9965   0.4441   2.8273 H              1 S1                 0.0000
     33 ****         0.3857   0.6810   2.1626 H              1 S1                 0.0000
     34 ****         1.2681  -1.5963  -1.4343 H              1 S1                 0.0000
     35 ****         2.7062  -2.2475  -0.6790 H              1 S1                 0.0000
     36 ****        -0.1187  -3.4178  -0.5206 H              1 S1                 0.0000
     37 ****         1.2377  -4.0717  -1.4212 H              1 S1                 0.0000
     38 ****         0.0157  -3.4578   1.9469 H              1 S1                 0.0000
     39 ****         1.4615  -4.1341   2.6742 H              1 S1                 0.0000
     40 ****         2.8402  -2.2823   1.8384 H              1 S1                 0.0000
     41 ****         1.4873  -1.6596   2.7580 H              1 S1                 0.0000
     42 ****        -2.6236   4.0274  -1.6164 H              1 S1                 0.0000
     43 ****        -4.3797   1.6668  -4.5019 H              1 S1                 0.0000
     44 ****        -1.3884   3.4556   0.5495 LP             1 S1                 0.0000
     45 ****         0.2748   2.9999   0.3880 LP             1 S1                 0.0000
     46 ****         0.3650  -1.1962   0.7232 LP             1 S1                 0.0000
     47 ****         2.3931  -4.3532   0.5657 LP             1 S1                 0.0000
     48 ****         0.9521  -5.1184   0.6323 LP             1 S1                 0.0000
     49 ****        -3.6946   4.1083  -3.9432 LP             1 S1                 0.0000
     50 ****        -3.7460   0.1498  -2.5855 LP             1 S1                 0.0000
@<TRIPOS>BOND
    1    1    2 1     
    2    1   21 1     
    3    1   22 1     
    4    1   23 1     
    5    2    3 1     
    6    2   16 1     
    7    2   24 1     
    8    3    4 2     
    9    3    5 am    
   10    5    6 1     
   11    5   25 1     
   12    6    7 1     
   13    6   26 1     
   14    6   27 1     
   15    7    8 1     
   16    7    9 1     
   17    7   10 1     
   18    8   28 1     
   19    8   29 1     
   20    8   30 1     
   21    9   31 1     
   22    9   32 1     
   23    9   33 1     
   24   10   15 1     
   25   10   11 1     
   26   11   12 1     
   27   11   34 1     
   28   11   35 1     
   29   12   13 1     
   30   12   36 1     
   31   12   37 1     
   32   13   14 1     
   33   14   15 1     
   34   14   38 1     
   35   14   39 1     
   36   15   40 1     
   37   15   41 1     
   38   16   20 1     
   39   16   17 1     
   40   17   18 2     
   41   17   42 1     
   42   18   19 1     
   43   19   20 2     
   44   19   43 1     
   45    4   44 1     
   46    4   45 1     
   47   10   46 1     
   48   13   47 1     
   49   13   48 1     
   50   18   49 1     
   51   20   50 1     
@<TRIPOS>SUBSTRUCTURE
      1 S1             1
@<TRIPOS>SET
LONE_PAIRS      STATIC     ATOMS    <user>   **** ""
7 44 45 46 47 48 49 50
DONOR_HYDROGENS      STATIC     ATOMS    <user>   **** ""
1 25
ATOM$BLUE        STATIC     ATOMS    COLORGROUP SYSTEM
7 44 45 46 47 48 49 50
ATOM$RED        STATIC     ATOMS    COLORGROUP SYSTEM
1 25
