AV-unprocessed.smi:1047|AV-procd|sdf|4592|dock1
  -GOLD-   22720 3 73D 1   1.00000     0.00000
 Structure written by MMmdl.
 55 57  0  0  0  0  0  0  0  0  1 V2000
  143.1353  147.0628  153.9174 C   0  0  0  0  0  0  0  0  0  0  0  0
  144.2676  146.1282  153.4684 C   0  0  0  0  0  0  0  0  0  0  0  0
  144.6565  145.1167  154.4494 N   0  0  0  0  0  0  0  0  0  0  0  0
  143.4886  144.4112  154.9641 C   0  0  0  0  0  0  0  0  0  0  0  0
  143.8754  143.3408  155.9978 C   0  0  0  0  0  0  0  0  0  0  0  0
  144.8026  142.4319  155.4133 O   0  0  0  0  0  0  0  0  0  0  0  0
  145.9884  143.0684  154.9441 C   0  0  1  0  0  0  0  0  0  0  0  0
  146.9020  141.9825  154.3562 C   0  0  0  0  0  0  0  0  0  0  0  0
  148.2635  142.4746  154.1676 N   0  0  0  0  0  0  0  0  0  0  0  0
  149.2802  141.4369  154.3111 C   0  0  0  0  0  0  0  0  0  0  0  0
  149.7226  141.2852  155.7761 C   0  0  2  0  0  0  0  0  0  0  0  0
  149.4180  142.4856  156.4588 O   0  0  0  0  0  0  0  0  0  0  0  0
  151.2354  141.0141  155.8871 C   0  0  0  0  0  0  0  0  0  0  0  0
  151.6634  140.7751  157.2544 N   0  0  0  0  0  0  0  0  0  0  0  0
  151.9652  139.5866  157.8112 C   0  0  0  0  0  0  0  0  0  0  0  0
  152.3453  139.5893  159.0855 N   0  0  0  0  0  0  0  0  0  0  0  0
  152.2819  140.9380  159.3919 C   0  0  0  0  0  0  0  0  0  0  0  0
  152.5671  141.6182  160.5961 C   0  0  0  0  0  0  0  0  0  0  0  0
  152.4316  143.0220  160.6855 C   0  0  0  0  0  0  0  0  0  0  0  0
  152.7513  143.7129  161.9994 C   0  0  0  0  0  0  0  0  0  0  0  0
  152.0013  143.7672  159.5582 C   0  0  0  0  0  0  0  0  0  0  0  0
  151.8425  145.2755  159.6320 C   0  0  0  0  0  0  0  0  0  0  0  0
  151.7146  143.1036  158.3468 C   0  0  0  0  0  0  0  0  0  0  0  0
  151.8563  141.7068  158.2693 C   0  0  0  0  0  0  0  0  0  0  0  0
  145.5965  144.1398  153.9044 C   0  0  0  0  0  0  0  0  0  0  0  0
  142.8272  147.7116  153.0973 H   0  0  0  0  0  0  0  0  0  0  0  0
  143.4397  147.7070  154.7416 H   0  0  0  0  0  0  0  0  0  0  0  0
  142.2609  146.4951  154.2362 H   0  0  0  0  0  0  0  0  0  0  0  0
  143.9335  145.6257  152.5598 H   0  0  0  0  0  0  0  0  0  0  0  0
  145.1372  146.7209  153.1808 H   0  0  0  0  0  0  0  0  0  0  0  0
  142.7988  145.1211  155.4223 H   0  0  0  0  0  0  0  0  0  0  0  0
  142.9490  143.9385  154.1417 H   0  0  0  0  0  0  0  0  0  0  0  0
  144.3128  143.7997  156.8860 H   0  0  0  0  0  0  0  0  0  0  0  0
  142.9926  142.7904  156.3231 H   0  0  0  0  0  0  0  0  0  0  0  0
  146.4861  143.5376  155.7954 H   0  0  0  0  0  0  0  0  0  0  0  0
  146.9200  141.1310  155.0376 H   0  0  0  0  0  0  0  0  0  0  0  0
  146.4922  141.6165  153.4140 H   0  0  0  0  0  0  0  0  0  0  0  0
  148.4478  143.2286  154.8216 H   0  0  0  0  0  0  0  0  0  0  0  0
  148.8623  140.4889  153.9697 H   0  0  0  0  0  0  0  0  0  0  0  0
  150.1391  141.6421  153.6705 H   0  0  0  0  0  0  0  0  0  0  0  0
  149.1804  140.4637  156.2472 H   0  0  0  0  0  0  0  0  0  0  0  0
  149.4169  143.1922  155.8311 H   0  0  0  0  0  0  0  0  0  0  0  0
  151.5049  140.1405  155.2919 H   0  0  0  0  0  0  0  0  0  0  0  0
  151.8054  141.8514  155.4823 H   0  0  0  0  0  0  0  0  0  0  0  0
  151.9033  138.6673  157.2474 H   0  0  0  0  0  0  0  0  0  0  0  0
  152.8928  141.0498  161.4545 H   0  0  0  0  0  0  0  0  0  0  0  0
  153.5433  144.4491  161.8610 H   0  0  0  0  0  0  0  0  0  0  0  0
  153.0862  142.9999  162.7534 H   0  0  0  0  0  0  0  0  0  0  0  0
  151.8690  144.2216  162.3879 H   0  0  0  0  0  0  0  0  0  0  0  0
  151.4716  145.6827  158.6913 H   0  0  0  0  0  0  0  0  0  0  0  0
  152.7997  145.7503  159.8488 H   0  0  0  0  0  0  0  0  0  0  0  0
  151.1347  145.5481  160.4151 H   0  0  0  0  0  0  0  0  0  0  0  0
  151.3849  143.6585  157.4809 H   0  0  0  0  0  0  0  0  0  0  0  0
  145.1590  143.6555  153.0299 H   0  0  0  0  0  0  0  0  0  0  0  0
  146.5008  144.6421  153.5620 H   0  0  0  0  0  0  0  0  0  0  0  0
  1  2  1  0  0  0  0
  1 26  1  0  0  0  0
  1 27  1  0  0  0  0
  1 28  1  0  0  0  0
  2  3  1  0  0  0  0
  2 29  1  0  0  0  0
  2 30  1  0  0  0  0
  3 25  1  0  0  0  0
  3  4  1  0  0  0  0
  4  5  1  0  0  0  0
  4 31  1  0  0  0  0
  4 32  1  0  0  0  0
  5  6  1  0  0  0  0
  5 33  1  0  0  0  0
  5 34  1  0  0  0  0
  6  7  1  0  0  0  0
  7  8  1  0  0  0  0
  7 25  1  0  0  0  0
  7 35  1  0  0  0  0
  8  9  1  0  0  0  0
  8 36  1  0  0  0  0
  8 37  1  0  0  0  0
  9 10  1  0  0  0  0
  9 38  1  0  0  0  0
 10 11  1  0  0  0  0
 10 39  1  0  0  0  0
 10 40  1  0  0  0  0
 11 12  1  0  0  0  0
 11 13  1  0  0  0  0
 11 41  1  0  0  0  0
 12 42  1  0  0  0  0
 13 14  1  0  0  0  0
 13 43  1  0  0  0  0
 13 44  1  0  0  0  0
 14 24  1  0  0  0  0
 14 15  1  0  0  0  0
 15 16  2  0  0  0  0
 15 45  1  0  0  0  0
 16 17  1  0  0  0  0
 17 24  2  0  0  0  0
 17 18  1  0  0  0  0
 18 19  2  0  0  0  0
 18 46  1  0  0  0  0
 19 20  1  0  0  0  0
 19 21  1  0  0  0  0
 20 47  1  0  0  0  0
 20 48  1  0  0  0  0
 20 49  1  0  0  0  0
 21 22  1  0  0  0  0
 21 23  2  0  0  0  0
 22 50  1  0  0  0  0
 22 51  1  0  0  0  0
 22 52  1  0  0  0  0
 23 24  1  0  0  0  0
 23 53  1  0  0  0  0
 25 54  1  0  0  0  0
 25 55  1  0  0  0  0
M  END
> <s_m_source_file>
AV-unprocessed.smi

> <i_m_source_file_index>
1047

> <i_lp_mmshare_version>
43012

> <i_f3d_flags>
0

> <s_epik_input>
W0NIM11bQ0gyXU4xW0NIMl1bQ0gyXU9bQ0BIXShbQ0gyXTEpW0NIMl1bTkhdW0NIMl1bQ0BIXShbT0hdKVtDSDJdbihbY0hdbjIpYyhjMjMpW2NIXWMoW0NIM10pYyhbY0hdMylbQ0gzXQ==

> <s_epik_cmdline>
J2VwaWtfcHl0aG9uJywgJy1waCcsICc3LjAnLCAnLXRuJywgJzgnLCAnLW1hJywgJzIwMCcsICctbWV0YWxfYmluZGluZycsICctaW1hZScsICc8aW5maWxlLm1hZT4nLCAnLW9tYWUnLCAnPG91dGZpbGUubWFlPic=

> <r_epik_Ionization_Penalty>
2.74124

> <r_epik_Ionization_Penalty_Charging>
0

> <r_epik_Ionization_Penalty_Neutral>
2.74124

> <r_epik_State_Penalty>
2.37482

> <r_epik_Charging_Adjusted_Penalty>
2.37482

> <i_epik_Tot_Q>
0

> <i_epik_Tot_abs_Q>
0

> <r_epik_Metal_State_Penalty>
2.25944

> <b_epik_Metal_Only>
0

> <s_lp_Force_Field>
OPLS_2005

> <r_lp_Energy>
35.4924

> <b_lp_Chiralities_Consistent>
1

> <s_lp_Variant>
AV-unprocessed.smi:1047-33

> <Gold.Version>
5.8.1

> <Gold.Id.Protein>
6NUR|6NUR_protein|mol2

> <Gold.PLP.Fitness>
58.6681

> <Gold.PLP.PLP>
-54.8105

> <Gold.PLP.part.hbond>
-2.7494

> <Gold.PLP.part.metal>
0.0000

> <Gold.PLP.part.buried>
-6.5340

> <Gold.PLP.part.nonpolar>
-44.1065

> <Gold.PLP.part.repulsive>
0.2334

> <Gold.PLP.ligand.clash>
0.0000

> <Gold.PLP.ligand.torsion>
1.2664

> <Gold.PLP.Chemscore.Hbond>
1.9920

> <Gold.PLP.Chemscore.CHOScore>
0.0000

> <Gold.PLP.Chemscore.Metal>
0.0000

> <Gold.Chemscore.Hbonds>
donor molecule, donor type, donor heavy atom, donor atom, acceptor molecule, acceptor atom, score
      L1  H     9    38       P1  8028  1.00
      L1  H    12    42       P1  8028  0.82

> <Gold.PLP.Chemscore.Internal.Correction>
0.4144

> <Gold.Rescore>
     Score         DG    S(hbond)    S(metal)    S(lipo)     H(rot)  DE(clash)    DE(int)     intcor
     21.01     -22.43       1.94        0.00     144.73       2.52       0.11       1.31       ----

> <Gold.Chemscore.Fitness>
21.0132

> <Gold.Chemscore.DG>
-22.4339

> <Gold.Chemscore.ZeroCoef>
-5.4800

> <Gold.Chemscore.Hbond>
1.9404

> <Gold.Chemscore.Metal>
0.0000

> <Gold.Chemscore.Lipo>
144.7305

> <Gold.Chemscore.Internal_Hbond>
0.0000

> <Gold.Chemscore.DEClash>
0.1087

> <Gold.Chemscore.DEInternal>
1.3120

> <Gold.Chemscore.Rot>
2.5237

> <Gold.Chemscore.Internal.Correction>
   9.000000E+99

> <Gold.Chemscore.Hbonds>
donor molecule, donor type, donor heavy atom, donor atom, acceptor molecule, acceptor atom, score
      L1  H     9    38       P1  8028  1.00
      L1  H    12    42       P1  8028  0.81

> <Gold.Chemscore.Hbond.Weighted>
-6.4810

> <Gold.Chemscore.Metal.Weighted>
-0.0000

> <Gold.Chemscore.Lipo.Weighted>
-16.9335

> <Gold.Chemscore.Internal_Hbond.Weighted>
0.0000

> <Gold.Chemscore.DEClash.Weighted>
0.1087

> <Gold.Chemscore.DEInternal.Weighted>
1.3120

> <Gold.Chemscore.Rot.Weighted>
6.4607

> <Gold.Chemscore.Internal.Correction.Weighted>
   9.000000E+99

> <Gold.Protein.RotatedTorsions>
[ 6907 6896 6895 6894 ] final   28.30 input  -60.11 | X-H torsion
[ 7974 7965 7964 7962 ] final  127.30 input  175.53 | X-H torsion
[ 8008 7997 7996 7995 ] final -150.74 input   59.86 | X-H torsion
[ 10167 10162 10161 10158 ] final   82.61 input  -65.29 | X-H torsion
[ 10718 10713 10712 10709 ] final -105.37 input   66.30 | X-H torsion
[ 10763 10752 10751 10750 ] final  -66.05 input  -60.55 | X-H torsion
[ 11005 11000 10999 10996 ] final  147.19 input  -57.11 | X-H torsion

> <Gold.Protein.ActiveResidues>
 VAL166  LYS551  ARG553  GLY616  TRP617  ASP618  TYR619  PRO620  LYS621  CYS622 
 ASP623  PHE694  ASN695  SER759  ASP760  ASP761  ALA762  ILE779  LEU786  VAL792 
 PHE793  MET794  SER795  GLU796  ALA797  LYS798  CYS799  TRP800  GLU811  SER814 

> <Gold.Protein.RotatedAtoms>
  152.0150  134.9855  160.0568 H   0  0  0  0  0  0  0  0  0  0  0  0  # atno 6907 bound_to 6896
  152.1393  133.4449  159.4767 H   0  0  0  0  0  0  0  0  0  0  0  0  # atno 6908 bound_to 6896
  150.6863  134.2244  159.4452 H   0  0  0  0  0  0  0  0  0  0  0  0  # atno 6909 bound_to 6896
  145.0521  139.3874  143.5049 H   0  0  0  0  0  0  0  0  0  0  0  0  # atno 7974 bound_to 7965
  155.6284  140.0689  157.2656 H   0  0  0  0  0  0  0  0  0  0  0  0  # atno 8008 bound_to 7997
  154.4212  140.1772  156.1494 H   0  0  0  0  0  0  0  0  0  0  0  0  # atno 8009 bound_to 7997
  155.9953  140.3341  155.6796 H   0  0  0  0  0  0  0  0  0  0  0  0  # atno 8010 bound_to 7997
  139.9270  144.6176  150.8382 H   0  0  0  0  0  0  0  0  0  0  0  0  # atno 10167 bound_to 10162
  156.0343  130.5560  150.7529 H   0  0  0  0  0  0  0  0  0  0  0  0  # atno 10718 bound_to 10713
  154.3541  135.6130  153.5657 H   0  0  0  0  0  0  0  0  0  0  0  0  # atno 10763 bound_to 10752
  152.9796  135.5799  154.4709 H   0  0  0  0  0  0  0  0  0  0  0  0  # atno 10764 bound_to 10752
  154.4435  135.2851  155.1808 H   0  0  0  0  0  0  0  0  0  0  0  0  # atno 10765 bound_to 10752
  140.0856  134.9071  157.1569 H   0  0  0  0  0  0  0  0  0  0  0  0  # atno 11005 bound_to 11000
  146.3518  140.0176  142.8661 LP  0  0  0  0  0  0  0  0  0  0  0  0  # atno 17320 bound_to 7965
  145.1514  140.9625  143.4430 LP  0  0  0  0  0  0  0  0  0  0  0  0  # atno 17321 bound_to 7965
  140.7647  143.3256  151.2523 LP  0  0  0  0  0  0  0  0  0  0  0  0  # atno 17342 bound_to 10162
  139.6813  143.9849  152.2810 LP  0  0  0  0  0  0  0  0  0  0  0  0  # atno 17343 bound_to 10162
  157.5069  131.0922  151.0246 LP  0  0  0  0  0  0  0  0  0  0  0  0  # atno 17370 bound_to 10713
  157.0612  130.5826  149.5386 LP  0  0  0  0  0  0  0  0  0  0  0  0  # atno 17371 bound_to 10713
  140.3426  134.2687  155.7210 LP  0  0  0  0  0  0  0  0  0  0  0  0  # atno 17394 bound_to 11000
  141.2061  133.7842  157.0195 LP  0  0  0  0  0  0  0  0  0  0  0  0  # atno 17395 bound_to 11000

$$$$
