AV-unprocessed.smi:53|AV-procd|sdf|528|dock5
  -GOLD-   2262016403D 1   1.00000     0.00000
 Structure written by MMmdl.
 30 31  0  0  0  0  0  0  0  0  1 V2000
  153.8422  143.1648  159.2878 N   0  0  0  0  0  0  0  0  0  0  0  0
  152.8722  142.5024  158.6418 C   0  0  0  0  0  0  0  0  0  0  0  0
  151.7045  143.2045  158.1586 C   0  0  0  0  0  0  0  0  0  0  0  0
  150.7702  142.4663  157.5200 C   0  0  0  0  0  0  0  0  0  0  0  0
  150.9082  141.0976  157.3372 N   0  0  0  0  0  0  0  0  0  0  0  0
  149.8413  140.3029  156.6151 C   0  0  1  0  0  0  0  0  0  0  0  0
  148.7372  141.1278  156.4180 O   0  0  0  0  0  0  0  0  0  0  0  0
  148.0724  140.7165  155.2341 C   0  0  1  0  0  0  0  0  0  0  0  0
  147.1789  141.8532  154.7156 C   0  0  0  0  0  0  0  0  0  0  0  0
  147.9769  142.8958  154.1976 O   0  0  0  0  0  0  0  0  0  0  0  0
  149.2354  140.3748  154.2957 C   0  0  2  0  0  0  0  0  0  0  0  0
  148.8245  139.4224  153.3344 O   0  0  0  0  0  0  0  0  0  0  0  0
  150.2899  139.7843  155.2293 C   0  0  1  0  0  0  0  0  0  0  0  0
  151.5880  140.1978  154.8407 O   0  0  0  0  0  0  0  0  0  0  0  0
  152.0716  140.4405  157.8037 C   0  0  0  0  0  0  0  0  0  0  0  0
  152.2534  139.2362  157.6284 O   0  0  0  0  0  0  0  0  0  0  0  0
  153.0054  141.2037  158.4520 N   0  0  0  0  0  0  0  0  0  0  0  0
  149.5255  139.4987  157.2822 H   0  0  0  0  0  0  0  0  0  0  0  0
  147.4888  139.8181  155.4482 H   0  0  0  0  0  0  0  0  0  0  0  0
  149.6061  141.2788  153.8091 H   0  0  0  0  0  0  0  0  0  0  0  0
  150.2481  138.6942  155.2526 H   0  0  0  0  0  0  0  0  0  0  0  0
  154.6587  142.6733  159.6213 H   0  0  0  0  0  0  0  0  0  0  0  0
  153.7536  144.1593  159.4401 H   0  0  0  0  0  0  0  0  0  0  0  0
  151.5548  144.2674  158.2836 H   0  0  0  0  0  0  0  0  0  0  0  0
  149.8949  142.9724  157.1394 H   0  0  0  0  0  0  0  0  0  0  0  0
  146.4794  141.4960  153.9590 H   0  0  0  0  0  0  0  0  0  0  0  0
  146.5886  142.2693  155.5326 H   0  0  0  0  0  0  0  0  0  0  0  0
  148.3529  143.3725  154.9221 H   0  0  0  0  0  0  0  0  0  0  0  0
  149.2243  139.6386  152.5060 H   0  0  0  0  0  0  0  0  0  0  0  0
  152.2146  139.5898  155.2026 H   0  0  0  0  0  0  0  0  0  0  0  0
  1  2  1  0  0  0  0
  1 22  1  0  0  0  0
  1 23  1  0  0  0  0
  2 17  2  0  0  0  0
  2  3  1  0  0  0  0
  3  4  2  0  0  0  0
  3 24  1  0  0  0  0
  4  5  1  0  0  0  0
  4 25  1  0  0  0  0
  5  6  1  0  0  0  0
  5 15  1  0  0  0  0
  6 18  1  0  0  0  0
  6 13  1  0  0  0  0
  6  7  1  0  0  0  0
  7  8  1  0  0  0  0
  8 19  1  0  0  0  0
  8  9  1  0  0  0  0
  8 11  1  0  0  0  0
  9 10  1  0  0  0  0
  9 26  1  0  0  0  0
  9 27  1  0  0  0  0
 10 28  1  0  0  0  0
 11 20  1  0  0  0  0
 11 12  1  0  0  0  0
 11 13  1  0  0  0  0
 12 29  1  0  0  0  0
 13 21  1  0  0  0  0
 13 14  1  0  0  0  0
 14 30  1  0  0  0  0
 15 16  2  0  0  0  0
 15 17  1  0  0  0  0
M  END
> <s_m_source_file>
AV-unprocessed.smi

> <i_m_source_file_index>
53

> <i_lp_mmshare_version>
43012

> <i_f3d_flags>
0

> <s_epik_input>
W05IMl1jMVtjSF1bY0hdbihjKD1PKW4xKVtDQEBIXTJPW0NASF0oW0NIMl1bT0hdKVtDQEBIXShbT0hdKVtDQEBIXTJbT0hd

> <s_epik_cmdline>
J2VwaWtfcHl0aG9uJywgJy1waCcsICc3LjAnLCAnLXRuJywgJzgnLCAnLW1hJywgJzIwMCcsICctbWV0YWxfYmluZGluZycsICctaW1hZScsICc8aW5maWxlLm1hZT4nLCAnLW9tYWUnLCAnPG91dGZpbGUubWFlPic=

> <r_lp_tautomer_probability>
0.99996

> <r_epik_Ionization_Penalty>
0.00069087

> <r_epik_Ionization_Penalty_Charging>
2.61959e-08

> <r_epik_Ionization_Penalty_Neutral>
0.000690844

> <r_epik_State_Penalty>
1.15523e-05

> <r_epik_Charging_Adjusted_Penalty>
1.15785e-05

> <i_epik_Tot_Q>
0

> <i_epik_Tot_abs_Q>
0

> <r_epik_Metal_State_Penalty>
-0

> <b_epik_Metal_Only>
0

> <s_epik_Chemistry_Notes>
This compound contains an acetal/aminal-like group ( X-CH(R)-Y where X, Y are N, S, or O) that may be acid/base labile, releasing an aldehyde.

> <s_lp_Force_Field>
OPLS_2005

> <r_lp_Energy>
34.4985

> <b_lp_Chiralities_Consistent>
1

> <s_lp_Variant>
AV-unprocessed.smi:53-16

> <Gold.Version>
5.8.1

> <Gold.Id.Protein>
6NUR|6NUR_protein|mol2

> <Gold.PLP.Fitness>
39.3311

> <Gold.PLP.PLP>
-27.5544

> <Gold.PLP.part.hbond>
-4.4916

> <Gold.PLP.part.metal>
0.0000

> <Gold.PLP.part.buried>
-4.6704

> <Gold.PLP.part.nonpolar>
-18.5690

> <Gold.PLP.part.repulsive>
0.1055

> <Gold.PLP.ligand.clash>
0.0000

> <Gold.PLP.ligand.torsion>
0.2381

> <Gold.PLP.Chemscore.Hbond>
3.0000

> <Gold.PLP.Chemscore.CHOScore>
1.0000

> <Gold.PLP.Chemscore.Metal>
0.0000

> <Gold.Chemscore.Hbonds>
donor molecule, donor type, donor heavy atom, donor atom, acceptor molecule, acceptor atom, score
      L1  H    10    28       P1  8028  1.00
      L1  H    12    29       P1  7957  0.81
      P1  H  7989  7998       L1    14  0.91
      L1  C     4    25       P1  8028  1.00

> <Gold.PLP.Chemscore.Internal.Correction>
0.2529

> <Gold.Rescore>
     Score         DG    S(hbond)    S(metal)    S(lipo)     H(rot)  DE(clash)    DE(int)     intcor
     10.13     -10.69       2.92        0.00      42.33       3.71       0.00       0.56       ----

> <Gold.Chemscore.Fitness>
10.1287

> <Gold.Chemscore.DG>
-10.6863

> <Gold.Chemscore.ZeroCoef>
-5.4800

> <Gold.Chemscore.Hbond>
2.9191

> <Gold.Chemscore.Metal>
0.0000

> <Gold.Chemscore.Lipo>
42.3340

> <Gold.Chemscore.Internal_Hbond>
0.0000

> <Gold.Chemscore.DEClash>
0.0000

> <Gold.Chemscore.DEInternal>
0.5577

> <Gold.Chemscore.Rot>
3.7095

> <Gold.Chemscore.Internal.Correction>
   9.000000E+99

> <Gold.Chemscore.Hbonds>
donor molecule, donor type, donor heavy atom, donor atom, acceptor molecule, acceptor atom, score
      L1  H    10    28       P1  8028  0.94
      L1  H    12    29       P1  7957  0.80
      P1  H  7989  7998       L1    14  0.76

> <Gold.Chemscore.Hbond.Weighted>
-9.7496

> <Gold.Chemscore.Metal.Weighted>
-0.0000

> <Gold.Chemscore.Lipo.Weighted>
-4.9531

> <Gold.Chemscore.Internal_Hbond.Weighted>
0.0000

> <Gold.Chemscore.DEClash.Weighted>
0.0000

> <Gold.Chemscore.DEInternal.Weighted>
0.5577

> <Gold.Chemscore.Rot.Weighted>
9.4964

> <Gold.Chemscore.Internal.Correction.Weighted>
   9.000000E+99

> <Gold.Protein.RotatedTorsions>
[ 6907 6896 6895 6894 ] final  143.07 input  -60.11 | X-H torsion
[ 7974 7965 7964 7962 ] final -154.68 input  175.53 | X-H torsion
[ 8008 7997 7996 7995 ] final -166.74 input   59.86 | X-H torsion
[ 10167 10162 10161 10158 ] final -108.82 input  -65.29 | X-H torsion
[ 10718 10713 10712 10709 ] final  175.90 input   66.30 | X-H torsion
[ 10763 10752 10751 10750 ] final -138.20 input  -60.55 | X-H torsion
[ 11005 11000 10999 10996 ] final  103.31 input  -57.11 | X-H torsion

> <Gold.Protein.ActiveResidues>
 VAL166  LYS551  ARG553  GLY616  TRP617  ASP618  TYR619  PRO620  LYS621  CYS622 
 ASP623  PHE694  ASN695  SER759  ASP760  ASP761  ALA762  ILE779  LEU786  VAL792 
 PHE793  MET794  SER795  GLU796  ALA797  LYS798  CYS799  TRP800  GLU811  SER814 

> <Gold.Protein.RotatedAtoms>
  152.2109  133.4910  159.5109 H   0  0  0  0  0  0  0  0  0  0  0  0  # atno 6907 bound_to 6896
  150.6990  134.1468  159.4134 H   0  0  0  0  0  0  0  0  0  0  0  0  # atno 6908 bound_to 6896
  151.9388  135.0223  160.0585 H   0  0  0  0  0  0  0  0  0  0  0  0  # atno 6909 bound_to 6896
  144.7677  140.4355  143.5930 H   0  0  0  0  0  0  0  0  0  0  0  0  # atno 7974 bound_to 7965
  155.8680  140.0989  157.1569 H   0  0  0  0  0  0  0  0  0  0  0  0  # atno 8008 bound_to 7997
  154.3995  140.1352  156.4105 H   0  0  0  0  0  0  0  0  0  0  0  0  # atno 8009 bound_to 7997
  155.7782  140.3459  155.5286 H   0  0  0  0  0  0  0  0  0  0  0  0  # atno 8010 bound_to 7997
  140.1620  143.4112  152.1418 H   0  0  0  0  0  0  0  0  0  0  0  0  # atno 10167 bound_to 10162
  156.9280  130.9962  151.2992 H   0  0  0  0  0  0  0  0  0  0  0  0  # atno 10718 bound_to 10713
  154.8643  135.3619  154.5346 H   0  0  0  0  0  0  0  0  0  0  0  0  # atno 10763 bound_to 10752
  153.5970  135.7014  153.5404 H   0  0  0  0  0  0  0  0  0  0  0  0  # atno 10764 bound_to 10752
  153.3323  135.4121  155.1467 H   0  0  0  0  0  0  0  0  0  0  0  0  # atno 10765 bound_to 10752
  139.8783  134.9258  156.5191 H   0  0  0  0  0  0  0  0  0  0  0  0  # atno 11005 bound_to 11000
  145.6418  139.1551  143.2911 LP  0  0  0  0  0  0  0  0  0  0  0  0  # atno 17320 bound_to 7965
  146.1799  140.6514  142.9194 LP  0  0  0  0  0  0  0  0  0  0  0  0  # atno 17321 bound_to 7965
  139.5377  144.7225  151.4839 LP  0  0  0  0  0  0  0  0  0  0  0  0  # atno 17342 bound_to 10162
  140.6637  143.8444  150.6917 LP  0  0  0  0  0  0  0  0  0  0  0  0  # atno 17343 bound_to 10162
  157.5865  130.8413  149.8597 LP  0  0  0  0  0  0  0  0  0  0  0  0  # atno 17370 bound_to 10713
  156.0460  130.3728  150.1316 LP  0  0  0  0  0  0  0  0  0  0  0  0  # atno 17371 bound_to 10713
  140.8464  133.8166  155.9125 LP  0  0  0  0  0  0  0  0  0  0  0  0  # atno 17394 bound_to 11000
  140.9187  134.2168  157.4940 LP  0  0  0  0  0  0  0  0  0  0  0  0  # atno 17395 bound_to 11000

$$$$
