AV-unprocessed.smi:1047|AV-procd|sdf|4574|dock10
  -GOLD-   22720 3 33D 1   1.00000     0.00000
 Structure written by MMmdl.
 56 58  0  0  0  0  0  0  0  0  2 V2000
  144.5289  134.5456  150.6907 C   0  0  0  0  0  0  0  0  0  0  0  0
  145.4406  135.7508  150.9597 C   0  0  0  0  0  0  0  0  0  0  0  0
  144.7296  136.8564  151.6550 N   0  3  1  0  0  0  0  0  0  0  0  0
  143.6706  136.4176  152.5994 C   0  0  0  0  0  0  0  0  0  0  0  0
  144.2707  135.9229  153.9289 C   0  0  0  0  0  0  0  0  0  0  0  0
  145.1048  136.9334  154.4822 O   0  0  0  0  0  0  0  0  0  0  0  0
  146.2026  137.2614  153.6356 C   0  0  2  0  0  0  0  0  0  0  0  0
  147.0747  138.2906  154.3694 C   0  0  0  0  0  0  0  0  0  0  0  0
  148.3776  138.4219  153.7262 N   0  0  0  0  0  0  0  0  0  0  0  0
  149.3969  139.0103  154.5900 C   0  0  0  0  0  0  0  0  0  0  0  0
  149.1084  140.5014  154.8525 C   0  0  2  0  0  0  0  0  0  0  0  0
  148.3601  141.0137  153.7688 O   0  0  0  0  0  0  0  0  0  0  0  0
  150.3794  141.3648  154.9725 C   0  0  0  0  0  0  0  0  0  0  0  0
  151.2282  140.9689  156.0815 N   0  0  0  0  0  0  0  0  0  0  0  0
  151.8877  139.8025  156.2191 C   0  0  0  0  0  0  0  0  0  0  0  0
  152.6097  139.6378  157.3237 N   0  0  0  0  0  0  0  0  0  0  0  0
  152.3879  140.8349  157.9826 C   0  0  0  0  0  0  0  0  0  0  0  0
  152.8677  141.2981  159.2273 C   0  0  0  0  0  0  0  0  0  0  0  0
  152.5056  142.5742  159.7144 C   0  0  0  0  0  0  0  0  0  0  0  0
  153.0397  143.0299  161.0611 C   0  0  0  0  0  0  0  0  0  0  0  0
  151.6528  143.4106  158.9501 C   0  0  0  0  0  0  0  0  0  0  0  0
  151.2528  144.7868  159.4515 C   0  0  0  0  0  0  0  0  0  0  0  0
  151.1646  142.9637  157.7046 C   0  0  0  0  0  0  0  0  0  0  0  0
  151.5286  141.6901  157.2323 C   0  0  0  0  0  0  0  0  0  0  0  0
  145.6409  137.8253  152.3133 C   0  0  0  0  0  0  0  0  0  0  0  0
  145.0482  133.8007  150.0874 H   0  0  0  0  0  0  0  0  0  0  0  0
  143.6324  134.8431  150.1459 H   0  0  0  0  0  0  0  0  0  0  0  0
  144.2172  134.0531  151.6111 H   0  0  0  0  0  0  0  0  0  0  0  0
  146.3237  135.4416  151.5187 H   0  0  0  0  0  0  0  0  0  0  0  0
  145.8003  136.1124  149.9957 H   0  0  0  0  0  0  0  0  0  0  0  0
  143.0216  137.2713  152.7987 H   0  0  0  0  0  0  0  0  0  0  0  0
  143.0344  135.6526  152.1561 H   0  0  0  0  0  0  0  0  0  0  0  0
  143.4731  135.7012  154.6379 H   0  0  0  0  0  0  0  0  0  0  0  0
  144.8353  134.9995  153.7952 H   0  0  0  0  0  0  0  0  0  0  0  0
  146.7974  136.3687  153.4322 H   0  0  0  0  0  0  0  0  0  0  0  0
  146.5743  139.2597  154.3672 H   0  0  0  0  0  0  0  0  0  0  0  0
  147.1895  138.0011  155.4148 H   0  0  0  0  0  0  0  0  0  0  0  0
  148.6904  137.5101  153.4084 H   0  0  0  0  0  0  0  0  0  0  0  0
  149.4085  138.4640  155.5333 H   0  0  0  0  0  0  0  0  0  0  0  0
  150.3898  138.8911  154.1537 H   0  0  0  0  0  0  0  0  0  0  0  0
  148.5203  140.6119  155.7650 H   0  0  0  0  0  0  0  0  0  0  0  0
  148.7773  140.7478  152.9640 H   0  0  0  0  0  0  0  0  0  0  0  0
  150.9614  141.3128  154.0515 H   0  0  0  0  0  0  0  0  0  0  0  0
  150.1117  142.4133  155.1104 H   0  0  0  0  0  0  0  0  0  0  0  0
  151.8351  139.0314  155.4643 H   0  0  0  0  0  0  0  0  0  0  0  0
  153.5173  140.6605  159.8090 H   0  0  0  0  0  0  0  0  0  0  0  0
  152.2187  143.2202  161.7530 H   0  0  0  0  0  0  0  0  0  0  0  0
  153.6215  143.9456  160.9521 H   0  0  0  0  0  0  0  0  0  0  0  0
  153.6862  142.2750  161.5094 H   0  0  0  0  0  0  0  0  0  0  0  0
  150.5962  145.2929  158.7432 H   0  0  0  0  0  0  0  0  0  0  0  0
  152.1343  145.4118  159.5957 H   0  0  0  0  0  0  0  0  0  0  0  0
  150.7238  144.7087  160.4014 H   0  0  0  0  0  0  0  0  0  0  0  0
  150.5142  143.5916  157.1137 H   0  0  0  0  0  0  0  0  0  0  0  0
  146.4479  138.1082  151.6361 H   0  0  0  0  0  0  0  0  0  0  0  0
  145.0795  138.7384  152.5165 H   0  0  0  0  0  0  0  0  0  0  0  0
  144.2648  137.3714  150.9206 H   0  0  0  0  0  0  0  0  0  0  0  0
  1  2  1  0  0  0  0
  1 26  1  0  0  0  0
  1 27  1  0  0  0  0
  1 28  1  0  0  0  0
  2  3  1  0  0  0  0
  2 29  1  0  0  0  0
  2 30  1  0  0  0  0
  3 25  1  0  0  0  0
  3  4  1  0  0  0  0
  3 56  1  0  0  0  0
  4  5  1  0  0  0  0
  4 31  1  0  0  0  0
  4 32  1  0  0  0  0
  5  6  1  0  0  0  0
  5 33  1  0  0  0  0
  5 34  1  0  0  0  0
  6  7  1  0  0  0  0
  7  8  1  0  0  0  0
  7 25  1  0  0  0  0
  7 35  1  0  0  0  0
  8  9  1  0  0  0  0
  8 36  1  0  0  0  0
  8 37  1  0  0  0  0
  9 10  1  0  0  0  0
  9 38  1  0  0  0  0
 10 11  1  0  0  0  0
 10 39  1  0  0  0  0
 10 40  1  0  0  0  0
 11 12  1  0  0  0  0
 11 13  1  0  0  0  0
 11 41  1  0  0  0  0
 12 42  1  0  0  0  0
 13 14  1  0  0  0  0
 13 43  1  0  0  0  0
 13 44  1  0  0  0  0
 14 24  1  0  0  0  0
 14 15  1  0  0  0  0
 15 16  2  0  0  0  0
 15 45  1  0  0  0  0
 16 17  1  0  0  0  0
 17 24  2  0  0  0  0
 17 18  1  0  0  0  0
 18 19  2  0  0  0  0
 18 46  1  0  0  0  0
 19 20  1  0  0  0  0
 19 21  1  0  0  0  0
 20 47  1  0  0  0  0
 20 48  1  0  0  0  0
 20 49  1  0  0  0  0
 21 22  1  0  0  0  0
 21 23  2  0  0  0  0
 22 50  1  0  0  0  0
 22 51  1  0  0  0  0
 22 52  1  0  0  0  0
 23 24  1  0  0  0  0
 23 53  1  0  0  0  0
 25 54  1  0  0  0  0
 25 55  1  0  0  0  0
M  CHG  1   3   1
M  END
> <s_m_source_file>
AV-unprocessed.smi

> <i_m_source_file_index>
1047

> <i_lp_mmshare_version>
43012

> <i_f3d_flags>
0

> <s_epik_input>
W0NIM11bQ0gyXU4xW0NIMl1bQ0gyXU9bQ0BIXShbQ0gyXTEpW0NIMl1bTkhdW0NIMl1bQ0BIXShbT0hdKVtDSDJdbihbY0hdbjIpYyhjMjMpW2NIXWMoW0NIM10pYyhbY0hdMylbQ0gzXQ==

> <s_epik_cmdline>
J2VwaWtfcHl0aG9uJywgJy1waCcsICc3LjAnLCAnLXRuJywgJzgnLCAnLW1hJywgJzIwMCcsICctbWV0YWxfYmluZGluZycsICctaW1hZScsICc8aW5maWxlLm1hZT4nLCAnLW9tYWUnLCAnPG91dGZpbGUubWFlPic=

> <r_epik_Ionization_Penalty>
1.19246

> <r_epik_Ionization_Penalty_Charging>
0.210041

> <r_epik_Ionization_Penalty_Neutral>
0.982415

> <r_epik_State_Penalty>
1.57595

> <r_epik_Charging_Adjusted_Penalty>
1.78599

> <i_epik_Tot_Q>
1

> <i_epik_Tot_abs_Q>
1

> <r_epik_Metal_State_Penalty>
1.46172

> <b_epik_Metal_Only>
0

> <s_lp_Force_Field>
OPLS_2005

> <r_lp_Energy>
32.9743

> <b_lp_Chiralities_Consistent>
1

> <s_lp_Variant>
AV-unprocessed.smi:1047-15

> <Gold.Version>
5.8.1

> <Gold.Id.Protein>
6NUR|6NUR_protein|mol2

> <Gold.PLP.Fitness>
55.6903

> <Gold.PLP.PLP>
-46.1313

> <Gold.PLP.part.hbond>
-4.4755

> <Gold.PLP.part.metal>
0.0000

> <Gold.PLP.part.buried>
-3.6685

> <Gold.PLP.part.nonpolar>
-38.3781

> <Gold.PLP.part.repulsive>
0.0965

> <Gold.PLP.ligand.clash>
0.0000

> <Gold.PLP.ligand.torsion>
0.9514

> <Gold.PLP.Chemscore.Hbond>
3.8040

> <Gold.PLP.Chemscore.CHOScore>
0.0000

> <Gold.PLP.Chemscore.Metal>
0.0000

> <Gold.Chemscore.Hbonds>
donor molecule, donor type, donor heavy atom, donor atom, acceptor molecule, acceptor atom, score
      L1  H     3    56       P1 10171  1.00
      L1  H     9    38       P1  7948  0.96
      L1  H    12    42       P1  7957  0.81
      P1  H  7997  8009       L1    16  0.75

> <Gold.PLP.Chemscore.Internal.Correction>
0.0498

> <Gold.Rescore>
     Score         DG    S(hbond)    S(metal)    S(lipo)     H(rot)  DE(clash)    DE(int)     intcor
     20.45     -22.84       2.82        0.00     125.13       2.62       1.53       0.86       ----

> <Gold.Chemscore.Fitness>
20.4451

> <Gold.Chemscore.DG>
-22.8356

> <Gold.Chemscore.ZeroCoef>
-5.4800

> <Gold.Chemscore.Hbond>
2.8218

> <Gold.Chemscore.Metal>
0.0000

> <Gold.Chemscore.Lipo>
125.1320

> <Gold.Chemscore.Internal_Hbond>
0.0000

> <Gold.Chemscore.DEClash>
1.5270

> <Gold.Chemscore.DEInternal>
0.8634

> <Gold.Chemscore.Rot>
2.6209

> <Gold.Chemscore.Internal.Correction>
   9.000000E+99

> <Gold.Chemscore.Hbonds>
donor molecule, donor type, donor heavy atom, donor atom, acceptor molecule, acceptor atom, score
      L1  H     3    56       P1 10171  1.00
      L1  H     9    38       P1  7948  0.88
      L1  H    12    42       P1  7957  0.80
      P1  H  7997  8009       L1    16  0.04

> <Gold.Chemscore.Hbond.Weighted>
-9.4247

> <Gold.Chemscore.Metal.Weighted>
-0.0000

> <Gold.Chemscore.Lipo.Weighted>
-14.6404

> <Gold.Chemscore.Internal_Hbond.Weighted>
0.0000

> <Gold.Chemscore.DEClash.Weighted>
1.5270

> <Gold.Chemscore.DEInternal.Weighted>
0.8634

> <Gold.Chemscore.Rot.Weighted>
6.7096

> <Gold.Chemscore.Internal.Correction.Weighted>
   9.000000E+99

> <Gold.Protein.RotatedTorsions>
[ 6907 6896 6895 6894 ] final   77.43 input  -60.11 | X-H torsion
[ 7974 7965 7964 7962 ] final -113.18 input  175.53 | X-H torsion
[ 8008 7997 7996 7995 ] final  172.68 input   59.86 | X-H torsion
[ 10167 10162 10161 10158 ] final  148.67 input  -65.29 | X-H torsion
[ 10718 10713 10712 10709 ] final  124.60 input   66.30 | X-H torsion
[ 10763 10752 10751 10750 ] final  -51.11 input  -60.55 | X-H torsion
[ 11005 11000 10999 10996 ] final  123.73 input  -57.11 | X-H torsion

> <Gold.Protein.ActiveResidues>
 VAL166  LYS551  ARG553  GLY616  TRP617  ASP618  TYR619  PRO620  LYS621  CYS622 
 ASP623  PHE694  ASN695  SER759  ASP760  ASP761  ALA762  ILE779  LEU786  VAL792 
 PHE793  MET794  SER795  GLU796  ALA797  LYS798  CYS799  TRP800  GLU811  SER814 

> <Gold.Protein.RotatedAtoms>
  152.5117  134.3817  159.9353 H   0  0  0  0  0  0  0  0  0  0  0  0  # atno 6907 bound_to 6896
  151.3775  133.3827  159.2714 H   0  0  0  0  0  0  0  0  0  0  0  0  # atno 6908 bound_to 6896
  150.9530  134.8948  159.7742 H   0  0  0  0  0  0  0  0  0  0  0  0  # atno 6909 bound_to 6896
  145.1351  140.8746  143.3735 H   0  0  0  0  0  0  0  0  0  0  0  0  # atno 7974 bound_to 7965
  156.1150  140.1479  156.9285 H   0  0  0  0  0  0  0  0  0  0  0  0  # atno 8008 bound_to 7997
  154.4794  140.0884  156.7383 H   0  0  0  0  0  0  0  0  0  0  0  0  # atno 8009 bound_to 7997
  155.4529  140.3435  155.4305 H   0  0  0  0  0  0  0  0  0  0  0  0  # atno 8010 bound_to 7997
  139.4872  144.5662  151.7141 H   0  0  0  0  0  0  0  0  0  0  0  0  # atno 10167 bound_to 10162
  157.5571  131.1091  150.8602 H   0  0  0  0  0  0  0  0  0  0  0  0  # atno 10718 bound_to 10713
  154.1213  135.6534  153.4903 H   0  0  0  0  0  0  0  0  0  0  0  0  # atno 10763 bound_to 10752
  153.0224  135.5271  154.7094 H   0  0  0  0  0  0  0  0  0  0  0  0  # atno 10764 bound_to 10752
  154.6302  135.2975  155.0195 H   0  0  0  0  0  0  0  0  0  0  0  0  # atno 10765 bound_to 10752
  139.9326  134.9641  156.8304 H   0  0  0  0  0  0  0  0  0  0  0  0  # atno 11005 bound_to 11000
  145.0593  139.3118  143.5888 LP  0  0  0  0  0  0  0  0  0  0  0  0  # atno 17320 bound_to 7965
  146.3510  140.0029  142.8674 LP  0  0  0  0  0  0  0  0  0  0  0  0  # atno 17321 bound_to 7965
  140.5240  144.0834  150.6031 LP  0  0  0  0  0  0  0  0  0  0  0  0  # atno 17342 bound_to 10162
  140.3802  143.2807  152.0179 LP  0  0  0  0  0  0  0  0  0  0  0  0  # atno 17343 bound_to 10162
  156.9110  130.5281  149.5280 LP  0  0  0  0  0  0  0  0  0  0  0  0  # atno 17370 bound_to 10713
  156.0629  130.5678  150.9229 LP  0  0  0  0  0  0  0  0  0  0  0  0  # atno 17371 bound_to 10713
  140.6161  134.0037  155.7598 LP  0  0  0  0  0  0  0  0  0  0  0  0  # atno 17394 bound_to 11000
  141.0923  133.9897  157.3217 LP  0  0  0  0  0  0  0  0  0  0  0  0  # atno 17395 bound_to 11000

$$$$
