AV-unprocessed.smi:1830|AV-procd|sdf|7442|dock2
  -GOLD-   22720 9133D 1   1.00000     0.00000
 Structure written by MMmdl.
 52 55  0  0  0  0  0  0  0  0  1 V2000
  149.9383  133.9286  155.7739 O   0  0  0  0  0  0  0  0  0  0  0  0
  149.5070  134.5874  154.8283 C   0  0  0  0  0  0  0  0  0  0  0  0
  149.7439  135.8963  154.6648 N   0  0  0  0  0  0  0  0  0  0  0  0
  150.4769  136.7452  155.5982 C   0  0  0  0  0  0  0  0  0  0  0  0
  151.0736  137.9705  154.8766 C   0  0  2  0  0  0  0  0  0  0  0  0
  151.7961  138.9415  155.8406 C   0  0  0  0  0  0  0  0  0  0  0  0
  150.8352  139.7158  156.6042 N   0  0  0  0  0  0  0  0  0  0  0  0
  151.3682  140.7333  157.4799 C   0  0  0  0  0  0  0  0  0  0  0  0
  150.1572  141.6230  157.8103 C   0  0  0  0  0  0  0  0  0  0  0  0
  149.1480  141.3356  156.6769 C   0  0  0  0  0  0  0  0  0  0  0  0
  149.9439  140.4321  155.7332 C   0  0  2  0  0  0  0  0  0  0  0  0
  149.1500  139.4598  154.8521 C   0  0  0  0  0  0  0  0  0  0  0  0
  150.0802  138.6679  154.1070 O   0  0  0  0  0  0  0  0  0  0  0  0
  148.7542  134.1069  153.8247 N   0  0  0  0  0  0  0  0  0  0  0  0
  148.3236  132.7686  153.5911 C   0  0  0  0  0  0  0  0  0  0  0  0
  148.8307  131.6632  154.3179 C   0  0  0  0  0  0  0  0  0  0  0  0
  148.3329  130.3761  154.0484 C   0  0  0  0  0  0  0  0  0  0  0  0
  147.3366  130.2384  153.0670 C   0  0  0  0  0  0  0  0  0  0  0  0
  146.8319  131.2813  152.3779 N   0  0  0  0  0  0  0  0  0  0  0  0
  147.3018  132.5270  152.6325 C   0  0  0  0  0  0  0  0  0  0  0  0
  146.7680  133.5934  151.8778 N   0  0  0  0  0  0  0  0  0  0  0  0
  145.9677  133.1656  150.7337 C   0  0  0  0  0  0  0  0  0  0  0  0
  144.8419  134.1906  150.5874 C   0  0  0  0  0  0  0  0  0  0  0  0
  144.6523  134.6957  152.0121 C   0  0  0  0  0  0  0  0  0  0  0  0
  146.0789  134.6894  152.5584 C   0  0  0  0  0  0  0  0  0  0  0  0
  149.3547  136.3500  153.8516 H   0  0  0  0  0  0  0  0  0  0  0  0
  149.8528  137.0498  156.4394 H   0  0  0  0  0  0  0  0  0  0  0  0
  151.2818  136.1471  156.0257 H   0  0  0  0  0  0  0  0  0  0  0  0
  151.8127  137.5996  154.1653 H   0  0  0  0  0  0  0  0  0  0  0  0
  152.4572  138.3928  156.5122 H   0  0  0  0  0  0  0  0  0  0  0  0
  152.4293  139.6150  155.2614 H   0  0  0  0  0  0  0  0  0  0  0  0
  151.8269  140.3001  158.3693 H   0  0  0  0  0  0  0  0  0  0  0  0
  152.1269  141.3191  156.9580 H   0  0  0  0  0  0  0  0  0  0  0  0
  149.7278  141.3551  158.7763 H   0  0  0  0  0  0  0  0  0  0  0  0
  150.4407  142.6750  157.8490 H   0  0  0  0  0  0  0  0  0  0  0  0
  148.2775  140.8103  157.0726 H   0  0  0  0  0  0  0  0  0  0  0  0
  148.8015  142.2429  156.1814 H   0  0  0  0  0  0  0  0  0  0  0  0
  150.5341  141.0767  155.0779 H   0  0  0  0  0  0  0  0  0  0  0  0
  148.5028  138.8226  155.4550 H   0  0  0  0  0  0  0  0  0  0  0  0
  148.5085  140.0042  154.1590 H   0  0  0  0  0  0  0  0  0  0  0  0
  148.5350  134.7601  153.0868 H   0  0  0  0  0  0  0  0  0  0  0  0
  149.5785  131.7764  155.0870 H   0  0  0  0  0  0  0  0  0  0  0  0
  148.7030  129.5158  154.5861 H   0  0  0  0  0  0  0  0  0  0  0  0
  146.9295  129.2659  152.8326 H   0  0  0  0  0  0  0  0  0  0  0  0
  146.5714  133.1090  149.8275 H   0  0  0  0  0  0  0  0  0  0  0  0
  145.5489  132.1750  150.9190 H   0  0  0  0  0  0  0  0  0  0  0  0
  145.1677  135.0107  149.9459 H   0  0  0  0  0  0  0  0  0  0  0  0
  143.9340  133.7656  150.1589 H   0  0  0  0  0  0  0  0  0  0  0  0
  144.1825  135.6784  152.0601 H   0  0  0  0  0  0  0  0  0  0  0  0
  144.0352  133.9947  152.5760 H   0  0  0  0  0  0  0  0  0  0  0  0
  146.0943  134.6317  153.6468 H   0  0  0  0  0  0  0  0  0  0  0  0
  146.5843  135.6162  152.2852 H   0  0  0  0  0  0  0  0  0  0  0  0
  1  2  2  0  0  0  0
  2  3  1  0  0  0  0
  2 14  1  0  0  0  0
  3  4  1  0  0  0  0
  3 26  1  0  0  0  0
  4  5  1  0  0  0  0
  4 27  1  0  0  0  0
  4 28  1  0  0  0  0
  5 13  1  0  0  0  0
  5  6  1  0  0  0  0
  5 29  1  0  0  0  0
  6  7  1  0  0  0  0
  6 30  1  0  0  0  0
  6 31  1  0  0  0  0
  7 11  1  0  0  0  0
  7  8  1  0  0  0  0
  8  9  1  0  0  0  0
  8 32  1  0  0  0  0
  8 33  1  0  0  0  0
  9 10  1  0  0  0  0
  9 34  1  0  0  0  0
  9 35  1  0  0  0  0
 10 11  1  0  0  0  0
 10 36  1  0  0  0  0
 10 37  1  0  0  0  0
 11 12  1  0  0  0  0
 11 38  1  0  0  0  0
 12 13  1  0  0  0  0
 12 39  1  0  0  0  0
 12 40  1  0  0  0  0
 14 15  1  0  0  0  0
 14 41  1  0  0  0  0
 15 20  1  0  0  0  0
 15 16  2  0  0  0  0
 16 17  1  0  0  0  0
 16 42  1  0  0  0  0
 17 18  2  0  0  0  0
 17 43  1  0  0  0  0
 18 19  1  0  0  0  0
 18 44  1  0  0  0  0
 19 20  2  0  0  0  0
 20 21  1  0  0  0  0
 21 25  1  0  0  0  0
 21 22  1  0  0  0  0
 22 23  1  0  0  0  0
 22 45  1  0  0  0  0
 22 46  1  0  0  0  0
 23 24  1  0  0  0  0
 23 47  1  0  0  0  0
 23 48  1  0  0  0  0
 24 25  1  0  0  0  0
 24 49  1  0  0  0  0
 24 50  1  0  0  0  0
 25 51  1  0  0  0  0
 25 52  1  0  0  0  0
M  END
> <s_m_source_file>
AV-unprocessed.smi

> <i_m_source_file_index>
1830

> <i_lp_mmshare_version>
43012

> <i_f3d_flags>
0

> <s_epik_input>
W0NIMl0xW0NIMl1bQ0gyXVtDQEhdKE4xMilbQ0gyXU9bQ0BASF0oW0NIMl0yKVtDSDJdW05IXUMoPU8pW05IXWMzW2NIXVtjSF1bY0hdbmMzTjRbQ0gyXVtDSDJdW0NIMl1bQ0gyXTQ=

> <s_epik_cmdline>
J2VwaWtfcHl0aG9uJywgJy1waCcsICc3LjAnLCAnLXRuJywgJzgnLCAnLW1hJywgJzIwMCcsICctbWV0YWxfYmluZGluZycsICctaW1hZScsICc8aW5maWxlLm1hZT4nLCAnLW9tYWUnLCAnPG91dGZpbGUubWFlPic=

> <r_lp_tautomer_probability>
1

> <r_epik_Ionization_Penalty>
1.16487

> <r_epik_Ionization_Penalty_Charging>
0

> <r_epik_Ionization_Penalty_Neutral>
1.16487

> <r_epik_State_Penalty>
1.21807

> <r_epik_Charging_Adjusted_Penalty>
1.21807

> <i_epik_Tot_Q>
0

> <i_epik_Tot_abs_Q>
0

> <r_epik_Metal_State_Penalty>
1.19922

> <b_epik_Metal_Only>
0

> <s_lp_Force_Field>
OPLS_2005

> <r_lp_Energy>
77.9026

> <b_lp_Chiralities_Consistent>
1

> <s_lp_Variant>
AV-unprocessed.smi:1830-11

> <Gold.Version>
5.8.1

> <Gold.Id.Protein>
6NUR|6NUR_protein|mol2

> <Gold.PLP.Fitness>
46.8820

> <Gold.PLP.PLP>
-41.4645

> <Gold.PLP.part.hbond>
-2.4447

> <Gold.PLP.part.metal>
0.0000

> <Gold.PLP.part.buried>
-4.2848

> <Gold.PLP.part.nonpolar>
-34.4449

> <Gold.PLP.part.repulsive>
1.1134

> <Gold.PLP.ligand.clash>
0.0000

> <Gold.PLP.ligand.torsion>
0.3693

> <Gold.PLP.Chemscore.Hbond>
1.9760

> <Gold.PLP.Chemscore.CHOScore>
0.0000

> <Gold.PLP.Chemscore.Metal>
0.0000

> <Gold.Chemscore.Hbonds>
donor molecule, donor type, donor heavy atom, donor atom, acceptor molecule, acceptor atom, score
      L1  H     3    26       P1  7948  0.93
      L1  H    14    41       P1  7948  1.00

> <Gold.PLP.Chemscore.Internal.Correction>
0.2281

> <Gold.Rescore>
     Score         DG    S(hbond)    S(metal)    S(lipo)     H(rot)  DE(clash)    DE(int)     intcor
     15.93     -17.66       1.65        0.00      87.04       1.37       0.02       1.71       ----

> <Gold.Chemscore.Fitness>
15.9298

> <Gold.Chemscore.DG>
-17.6602

> <Gold.Chemscore.ZeroCoef>
-5.4800

> <Gold.Chemscore.Hbond>
1.6513

> <Gold.Chemscore.Metal>
0.0000

> <Gold.Chemscore.Lipo>
87.0396

> <Gold.Chemscore.Internal_Hbond>
0.0000

> <Gold.Chemscore.DEClash>
0.0234

> <Gold.Chemscore.DEInternal>
1.7069

> <Gold.Chemscore.Rot>
1.3746

> <Gold.Chemscore.Internal.Correction>
   9.000000E+99

> <Gold.Chemscore.Hbonds>
donor molecule, donor type, donor heavy atom, donor atom, acceptor molecule, acceptor atom, score
      L1  H     3    26       P1  7948  0.75
      L1  H    14    41       P1  7948  0.43

> <Gold.Chemscore.Hbond.Weighted>
-5.5154

> <Gold.Chemscore.Metal.Weighted>
-0.0000

> <Gold.Chemscore.Lipo.Weighted>
-10.1836

> <Gold.Chemscore.Internal_Hbond.Weighted>
0.0000

> <Gold.Chemscore.DEClash.Weighted>
0.0234

> <Gold.Chemscore.DEInternal.Weighted>
1.7069

> <Gold.Chemscore.Rot.Weighted>
3.5189

> <Gold.Chemscore.Internal.Correction.Weighted>
   9.000000E+99

> <Gold.Protein.RotatedTorsions>
[ 6907 6896 6895 6894 ] final -138.94 input  -60.11 | X-H torsion
[ 7974 7965 7964 7962 ] final  -49.90 input  175.53 | X-H torsion
[ 8008 7997 7996 7995 ] final -153.31 input   59.86 | X-H torsion
[ 10167 10162 10161 10158 ] final  145.26 input  -65.29 | X-H torsion
[ 10718 10713 10712 10709 ] final -114.64 input   66.30 | X-H torsion
[ 10763 10752 10751 10750 ] final  -46.61 input  -60.55 | X-H torsion
[ 11005 11000 10999 10996 ] final  110.00 input  -57.11 | X-H torsion

> <Gold.Protein.ActiveResidues>
 VAL166  LYS551  ARG553  GLY616  TRP617  ASP618  TYR619  PRO620  LYS621  CYS622 
 ASP623  PHE694  ASN695  SER759  ASP760  ASP761  ALA762  ILE779  LEU786  VAL792 
 PHE793  MET794  SER795  GLU796  ALA797  LYS798  CYS799  TRP800  GLU811  SER814 

> <Gold.Protein.RotatedAtoms>
  151.0414  133.5703  159.2650 H   0  0  0  0  0  0  0  0  0  0  0  0  # atno 6907 bound_to 6896
  151.2748  135.0695  159.9157 H   0  0  0  0  0  0  0  0  0  0  0  0  # atno 6908 bound_to 6896
  152.5365  134.0138  159.8004 H   0  0  0  0  0  0  0  0  0  0  0  0  # atno 6909 bound_to 6896
  145.9357  140.7709  142.9577 H   0  0  0  0  0  0  0  0  0  0  0  0  # atno 7974 bound_to 7965
  155.6688  140.0731  157.2527 H   0  0  0  0  0  0  0  0  0  0  0  0  # atno 8008 bound_to 7997
  154.4127  140.1703  156.1907 H   0  0  0  0  0  0  0  0  0  0  0  0  # atno 8009 bound_to 7997
  155.9634  140.3368  155.6514 H   0  0  0  0  0  0  0  0  0  0  0  0  # atno 8010 bound_to 7997
  139.4930  144.5914  151.6672 H   0  0  0  0  0  0  0  0  0  0  0  0  # atno 10167 bound_to 10162
  156.0843  130.6038  150.8802 H   0  0  0  0  0  0  0  0  0  0  0  0  # atno 10718 bound_to 10713
  154.0478  135.6635  153.4797 H   0  0  0  0  0  0  0  0  0  0  0  0  # atno 10763 bound_to 10752
  153.0476  135.5105  154.7780 H   0  0  0  0  0  0  0  0  0  0  0  0  # atno 10764 bound_to 10752
  154.6777  135.3040  154.9622 H   0  0  0  0  0  0  0  0  0  0  0  0  # atno 10765 bound_to 10752
  139.8873  134.9473  156.6212 H   0  0  0  0  0  0  0  0  0  0  0  0  # atno 11005 bound_to 11000
  144.6771  140.2198  143.7367 LP  0  0  0  0  0  0  0  0  0  0  0  0  # atno 17320 bound_to 7965
  145.8367  139.2111  143.1851 LP  0  0  0  0  0  0  0  0  0  0  0  0  # atno 17321 bound_to 7965
  140.5542  144.0375  150.6140 LP  0  0  0  0  0  0  0  0  0  0  0  0  # atno 17342 bound_to 10162
  140.3439  143.3003  152.0558 LP  0  0  0  0  0  0  0  0  0  0  0  0  # atno 17343 bound_to 10162
  157.5972  131.0942  150.9021 LP  0  0  0  0  0  0  0  0  0  0  0  0  # atno 17370 bound_to 10713
  156.9185  130.5306  149.5279 LP  0  0  0  0  0  0  0  0  0  0  0  0  # atno 17371 bound_to 10713
  140.7738  133.8717  155.8512 LP  0  0  0  0  0  0  0  0  0  0  0  0  # atno 17394 bound_to 11000
  140.9819  134.1394  157.4486 LP  0  0  0  0  0  0  0  0  0  0  0  0  # atno 17395 bound_to 11000

$$$$
