AV-unprocessed.smi:1966|AV-procd|sdf|7951|dock1
  -GOLD-   2272010123D 1   1.00000     0.00000
 Structure written by MMmdl.
 53 54  0  0  0  0  0  0  0  0  1 V2000
  156.9951  132.7177  158.9318 C   0  0  0  0  0  0  0  0  0  0  0  0
  156.0980  133.4869  159.8952 C   0  0  0  0  0  0  0  0  0  0  0  0
  154.8815  133.3007  159.8908 O   0  0  0  0  0  0  0  0  0  0  0  0
  156.7143  134.3514  160.7168 N   0  0  0  0  0  0  0  0  0  0  0  0
  156.0550  135.1833  161.7266 C   0  0  1  0  0  0  0  0  0  0  0  0
  155.0824  136.1502  161.0211 C   0  0  0  0  0  0  0  0  0  0  0  0
  154.1713  135.7028  160.3238 O   0  0  0  0  0  0  0  0  0  0  0  0
  155.3125  137.4592  161.2348 N   0  0  0  0  0  0  0  0  0  0  0  0
  154.6037  138.5906  160.7461 C   0  0  0  0  0  0  0  0  0  0  0  0
  154.4156  139.7972  161.4601 C   0  0  0  0  0  0  0  0  0  0  0  0
  153.7030  140.8476  160.8498 C   0  0  0  0  0  0  0  0  0  0  0  0
  153.2017  140.6761  159.5379 C   0  0  0  0  0  0  0  0  0  0  0  0
  152.4833  141.7167  158.9094 N   0  0  0  0  0  0  0  0  0  0  0  0
  152.5934  143.0628  159.4649 C   0  0  0  0  0  0  0  0  0  0  0  0
  152.0507  144.1011  158.4672 C   0  0  2  0  0  0  0  0  0  0  0  0
  152.0267  145.5110  159.0668 C   0  0  0  0  0  0  0  0  0  0  0  0
  150.7169  143.7562  158.0948 O   0  0  0  0  0  0  0  0  0  0  0  0
  150.5729  142.4555  157.5198 C   0  0  1  0  0  0  0  0  0  0  0  0
  151.1667  142.3764  156.1020 C   0  0  0  0  0  0  0  0  0  0  0  0
  151.1287  141.3830  158.4777 C   0  0  0  0  0  0  0  0  0  0  0  0
  153.3895  139.5205  158.8549 N   0  0  0  0  0  0  0  0  0  0  0  0
  154.0725  138.5168  159.4433 C   0  0  0  0  0  0  0  0  0  0  0  0
  155.2719  134.2600  162.7067 C   0  0  0  0  0  0  0  0  0  0  0  0
  154.4402  135.0444  163.7429 C   0  0  0  0  0  0  0  0  0  0  0  0
  156.2071  133.2849  163.4490 C   0  0  0  0  0  0  0  0  0  0  0  0
  157.7600  132.1667  159.4800 H   0  0  0  0  0  0  0  0  0  0  0  0
  157.4893  133.4032  158.2431 H   0  0  0  0  0  0  0  0  0  0  0  0
  156.4144  132.0039  158.3467 H   0  0  0  0  0  0  0  0  0  0  0  0
  157.7187  134.4304  160.6519 H   0  0  0  0  0  0  0  0  0  0  0  0
  156.8063  135.7479  162.2831 H   0  0  0  0  0  0  0  0  0  0  0  0
  156.1319  137.6726  161.7849 H   0  0  0  0  0  0  0  0  0  0  0  0
  154.8052  139.9481  162.4541 H   0  0  0  0  0  0  0  0  0  0  0  0
  153.5405  141.7633  161.3983 H   0  0  0  0  0  0  0  0  0  0  0  0
  152.0352  143.1102  160.4010 H   0  0  0  0  0  0  0  0  0  0  0  0
  153.6348  143.2936  159.6935 H   0  0  0  0  0  0  0  0  0  0  0  0
  152.6853  144.1232  157.5810 H   0  0  0  0  0  0  0  0  0  0  0  0
  153.0264  145.8284  159.3635 H   0  0  0  0  0  0  0  0  0  0  0  0
  151.3860  145.5544  159.9481 H   0  0  0  0  0  0  0  0  0  0  0  0
  151.6488  146.2349  158.3443 H   0  0  0  0  0  0  0  0  0  0  0  0
  149.5005  142.2856  157.4207 H   0  0  0  0  0  0  0  0  0  0  0  0
  150.9307  141.4183  155.6384 H   0  0  0  0  0  0  0  0  0  0  0  0
  152.2518  142.4756  156.1010 H   0  0  0  0  0  0  0  0  0  0  0  0
  150.7572  143.1603  155.4647 H   0  0  0  0  0  0  0  0  0  0  0  0
  151.0790  140.4078  157.9954 H   0  0  0  0  0  0  0  0  0  0  0  0
  150.4960  141.3234  159.3642 H   0  0  0  0  0  0  0  0  0  0  0  0
  154.1956  137.6218  158.8512 H   0  0  0  0  0  0  0  0  0  0  0  0
  154.5744  133.6527  162.1268 H   0  0  0  0  0  0  0  0  0  0  0  0
  155.0699  135.7177  164.3254 H   0  0  0  0  0  0  0  0  0  0  0  0
  153.9457  134.3686  164.4411 H   0  0  0  0  0  0  0  0  0  0  0  0
  153.6559  135.6403  163.2762 H   0  0  0  0  0  0  0  0  0  0  0  0
  156.9607  133.8232  164.0247 H   0  0  0  0  0  0  0  0  0  0  0  0
  156.7269  132.6147  162.7642 H   0  0  0  0  0  0  0  0  0  0  0  0
  155.6481  132.6560  164.1425 H   0  0  0  0  0  0  0  0  0  0  0  0
  1  2  1  0  0  0  0
  1 26  1  0  0  0  0
  1 27  1  0  0  0  0
  1 28  1  0  0  0  0
  2  3  2  0  0  0  0
  2  4  1  0  0  0  0
  4  5  1  0  0  0  0
  4 29  1  0  0  0  0
  5  6  1  0  0  0  0
  5 23  1  0  0  0  0
  5 30  1  0  0  0  0
  6  7  2  0  0  0  0
  6  8  1  0  0  0  0
  8  9  1  0  0  0  0
  8 31  1  0  0  0  0
  9 22  1  0  0  0  0
  9 10  2  0  0  0  0
 10 11  1  0  0  0  0
 10 32  1  0  0  0  0
 11 12  2  0  0  0  0
 11 33  1  0  0  0  0
 12 13  1  0  0  0  0
 12 21  1  0  0  0  0
 13 20  1  0  0  0  0
 13 14  1  0  0  0  0
 14 15  1  0  0  0  0
 14 34  1  0  0  0  0
 14 35  1  0  0  0  0
 15 16  1  0  0  0  0
 15 17  1  0  0  0  0
 15 36  1  0  0  0  0
 16 37  1  0  0  0  0
 16 38  1  0  0  0  0
 16 39  1  0  0  0  0
 17 18  1  0  0  0  0
 18 19  1  0  0  0  0
 18 20  1  0  0  0  0
 18 40  1  0  0  0  0
 19 41  1  0  0  0  0
 19 42  1  0  0  0  0
 19 43  1  0  0  0  0
 20 44  1  0  0  0  0
 20 45  1  0  0  0  0
 21 22  2  0  0  0  0
 22 46  1  0  0  0  0
 23 24  1  0  0  0  0
 23 25  1  0  0  0  0
 23 47  1  0  0  0  0
 24 48  1  0  0  0  0
 24 49  1  0  0  0  0
 24 50  1  0  0  0  0
 25 51  1  0  0  0  0
 25 52  1  0  0  0  0
 25 53  1  0  0  0  0
M  END
> <s_m_source_file>
AV-unprocessed.smi

> <i_m_source_file_index>
1966

> <i_lp_mmshare_version>
43012

> <i_f3d_flags>
0

> <s_epik_input>
W0NIM11DKD1PKVtOSF1bQ0BASF0oW0NIXShbQ0gzXSlbQ0gzXSlDKD1PKVtOSF1jMVtjSF1bY0hdYyhuW2NIXTEpTjJbQ0gyXVtDQEBIXShbQ0gzXSlPW0NAQEhdKFtDSDNdKVtDSDJdMg==

> <s_epik_cmdline>
J2VwaWtfcHl0aG9uJywgJy1waCcsICc3LjAnLCAnLXRuJywgJzgnLCAnLW1hJywgJzIwMCcsICctbWV0YWxfYmluZGluZycsICctaW1hZScsICc8aW5maWxlLm1hZT4nLCAnLW9tYWUnLCAnPG91dGZpbGUubWFlPic=

> <r_lp_tautomer_probability>
1

> <r_epik_Ionization_Penalty>
0.000679699

> <r_epik_Ionization_Penalty_Charging>
0

> <r_epik_Ionization_Penalty_Neutral>
0.000679699

> <r_epik_State_Penalty>
0.000430485

> <r_epik_Charging_Adjusted_Penalty>
0.000430485

> <i_epik_Tot_Q>
0

> <i_epik_Tot_abs_Q>
0

> <r_epik_Metal_State_Penalty>
-0

> <b_epik_Metal_Only>
0

> <s_lp_Force_Field>
OPLS_2005

> <r_lp_Energy>
28.9115

> <b_lp_Chiralities_Consistent>
1

> <s_lp_Variant>
AV-unprocessed.smi:1966-4

> <Gold.Version>
5.8.1

> <Gold.Id.Protein>
6NUR|6NUR_protein|mol2

> <Gold.PLP.Fitness>
39.8705

> <Gold.PLP.PLP>
-36.6799

> <Gold.PLP.part.hbond>
-1.7973

> <Gold.PLP.part.metal>
0.0000

> <Gold.PLP.part.buried>
-4.6091

> <Gold.PLP.part.nonpolar>
-27.4917

> <Gold.PLP.part.repulsive>
0.1664

> <Gold.PLP.ligand.clash>
0.0000

> <Gold.PLP.ligand.torsion>
0.4928

> <Gold.PLP.Chemscore.Hbond>
1.2600

> <Gold.PLP.Chemscore.CHOScore>
0.0000

> <Gold.PLP.Chemscore.Metal>
0.0000

> <Gold.Chemscore.Hbonds>
donor molecule, donor type, donor heavy atom, donor atom, acceptor molecule, acceptor atom, score
      P1  H  6896  6909       L1     7  0.86
      P1  H  7997  8010       L1    21  0.52

> <Gold.PLP.Chemscore.Internal.Correction>
0.3963

> <Gold.Rescore>
     Score         DG    S(hbond)    S(metal)    S(lipo)     H(rot)  DE(clash)    DE(int)     intcor
     12.32     -17.14       1.01        0.00     107.40       1.68       0.21       4.61       ----

> <Gold.Chemscore.Fitness>
12.3185

> <Gold.Chemscore.DG>
-17.1380

> <Gold.Chemscore.ZeroCoef>
-5.4800

> <Gold.Chemscore.Hbond>
1.0128

> <Gold.Chemscore.Metal>
0.0000

> <Gold.Chemscore.Lipo>
107.3967

> <Gold.Chemscore.Internal_Hbond>
0.0000

> <Gold.Chemscore.DEClash>
0.2106

> <Gold.Chemscore.DEInternal>
4.6089

> <Gold.Chemscore.Rot>
1.6759

> <Gold.Chemscore.Internal.Correction>
   9.000000E+99

> <Gold.Chemscore.Hbonds>
donor molecule, donor type, donor heavy atom, donor atom, acceptor molecule, acceptor atom, score
      P1  H  6896  6909       L1     7  0.82
      P1  H  7997  8010       L1    21  0.09

> <Gold.Chemscore.Hbond.Weighted>
-3.3828

> <Gold.Chemscore.Metal.Weighted>
-0.0000

> <Gold.Chemscore.Lipo.Weighted>
-12.5654

> <Gold.Chemscore.Internal_Hbond.Weighted>
0.0000

> <Gold.Chemscore.DEClash.Weighted>
0.2106

> <Gold.Chemscore.DEInternal.Weighted>
4.6089

> <Gold.Chemscore.Rot.Weighted>
4.2902

> <Gold.Chemscore.Internal.Correction.Weighted>
   9.000000E+99

> <Gold.Protein.RotatedTorsions>
[ 6907 6896 6895 6894 ] final  162.69 input  -60.11 | X-H torsion
[ 7974 7965 7964 7962 ] final  172.77 input  175.53 | X-H torsion
[ 8008 7997 7996 7995 ] final   22.60 input   59.86 | X-H torsion
[ 10167 10162 10161 10158 ] final   13.96 input  -65.29 | X-H torsion
[ 10718 10713 10712 10709 ] final    8.47 input   66.30 | X-H torsion
[ 10763 10752 10751 10750 ] final  -69.17 input  -60.55 | X-H torsion
[ 11005 11000 10999 10996 ] final -166.75 input  -57.11 | X-H torsion

> <Gold.Protein.ActiveResidues>
 VAL166  LYS551  ARG553  GLY616  TRP617  ASP618  TYR619  PRO620  LYS621  CYS622 
 ASP623  PHE694  ASN695  SER759  ASP760  ASP761  ALA762  ILE779  LEU786  VAL792 
 PHE793  MET794  SER795  GLU796  ALA797  LYS798  CYS799  TRP800  GLU811  SER814 

> <Gold.Protein.RotatedAtoms>
  151.9365  133.3626  159.3949 H   0  0  0  0  0  0  0  0  0  0  0  0  # atno 6907 bound_to 6896
  150.7006  134.4483  159.5333 H   0  0  0  0  0  0  0  0  0  0  0  0  # atno 6908 bound_to 6896
  152.2133  134.8481  160.0545 H   0  0  0  0  0  0  0  0  0  0  0  0  # atno 6909 bound_to 6896
  144.7260  139.9548  143.6433 H   0  0  0  0  0  0  0  0  0  0  0  0  # atno 7974 bound_to 7965
  154.9682  140.3087  155.5000 H   0  0  0  0  0  0  0  0  0  0  0  0  # atno 8008 bound_to 7997
  156.2969  140.2289  156.4712 H   0  0  0  0  0  0  0  0  0  0  0  0  # atno 8009 bound_to 7997
  154.7901  140.0440  157.1182 H   0  0  0  0  0  0  0  0  0  0  0  0  # atno 8010 bound_to 7997
  140.5968  143.8686  150.6926 H   0  0  0  0  0  0  0  0  0  0  0  0  # atno 10167 bound_to 10162
  156.9521  130.5901  149.5657 H   0  0  0  0  0  0  0  0  0  0  0  0  # atno 10718 bound_to 10713
  154.3995  135.6034  153.5889 H   0  0  0  0  0  0  0  0  0  0  0  0  # atno 10763 bound_to 10752
  152.9788  135.5903  154.4201 H   0  0  0  0  0  0  0  0  0  0  0  0  # atno 10764 bound_to 10752
  154.3997  135.2843  155.2082 H   0  0  0  0  0  0  0  0  0  0  0  0  # atno 10765 bound_to 10752
  140.5610  134.5334  157.5143 H   0  0  0  0  0  0  0  0  0  0  0  0  # atno 11005 bound_to 11000
  146.0683  139.3673  143.0539 LP  0  0  0  0  0  0  0  0  0  0  0  0  # atno 17320 bound_to 7965
  145.8002  140.9774  143.1003 LP  0  0  0  0  0  0  0  0  0  0  0  0  # atno 17321 bound_to 7965
  140.2222  143.3800  152.1634 LP  0  0  0  0  0  0  0  0  0  0  0  0  # atno 17342 bound_to 10162
  139.5263  144.7106  151.5216 LP  0  0  0  0  0  0  0  0  0  0  0  0  # atno 17343 bound_to 10162
  156.0358  130.5446  150.8650 LP  0  0  0  0  0  0  0  0  0  0  0  0  # atno 17370 bound_to 10713
  157.5715  131.0946  150.9411 LP  0  0  0  0  0  0  0  0  0  0  0  0  # atno 17371 bound_to 10713
  139.9408  134.7791  156.0684 LP  0  0  0  0  0  0  0  0  0  0  0  0  # atno 17394 bound_to 11000
  141.1115  133.6642  156.2989 LP  0  0  0  0  0  0  0  0  0  0  0  0  # atno 17395 bound_to 11000

$$$$
