AV-unprocessed.smi:234|AV-procd|sdf|1786|dock5
  -GOLD-   2262020343D 1   1.00000     0.00000
 Structure written by MMmdl.
 59 62  0  0  0  0  0  0  0  0  1 V2000
  152.8483  144.5634  158.4050 C   0  0  0  0  0  0  0  0  0  0  0  0
  152.1658  143.4573  159.2209 C   0  0  0  0  0  0  0  0  0  0  0  0
  151.2911  142.6779  158.4168 O   0  0  0  0  0  0  0  0  0  0  0  0
  151.9179  141.5875  157.7543 C   0  0  1  0  0  0  0  0  0  0  0  0
  152.3143  140.4295  158.6738 C   0  0  0  0  0  0  0  0  0  0  0  0
  151.8897  139.5183  157.5190 C   0  0  1  0  0  0  0  0  0  0  0  0
  151.2567  138.2717  157.9565 N   0  0  0  0  0  0  0  0  0  0  0  0
  151.9832  137.4905  158.9491 C   0  0  0  0  0  0  0  0  0  0  0  0
  150.7980  137.4696  156.9675 C   0  0  0  0  0  0  0  0  0  0  0  0
  151.1564  137.6985  155.6762 N   0  0  0  0  0  0  0  0  0  0  0  0
  150.6998  136.9018  154.7050 C   0  0  0  0  0  0  0  0  0  0  0  0
  149.8935  135.8425  154.8039 N   0  0  0  0  0  0  0  0  0  0  0  0
  149.5368  135.6090  156.0996 C   0  0  0  0  0  0  0  0  0  0  0  0
  149.9492  136.3629  157.2334 C   0  0  0  0  0  0  0  0  0  0  0  0
  149.3939  135.8308  158.3896 N   0  0  0  0  0  0  0  0  0  0  0  0
  148.6874  134.8198  157.9629 C   0  0  0  0  0  0  0  0  0  0  0  0
  148.7058  134.6215  156.5999 N   0  0  0  0  0  0  0  0  0  0  0  0
  147.9998  133.5828  155.8644 C   0  0  0  0  0  0  0  0  0  0  0  0
  148.9369  132.6860  155.0125 C   0  0  1  0  0  0  0  0  0  0  0  0
  149.4831  133.4853  153.9757 O   0  0  0  0  0  0  0  0  0  0  0  0
  150.0993  132.0898  155.8020 C   0  0  0  0  0  0  0  0  0  0  0  0
  150.3975  130.8003  155.0532 C   0  0  0  0  0  0  0  0  0  0  0  0
  149.0998  130.3292  154.7358 O   0  0  0  0  0  0  0  0  0  0  0  0
  148.2875  131.4363  154.3522 C   0  0  1  0  0  0  0  0  0  0  0  0
  146.8404  131.1127  154.7556 C   0  0  0  0  0  0  0  0  0  0  0  0
  150.9123  140.6385  157.0552 C   0  0  0  0  0  0  0  0  0  0  0  0
  149.4888  140.6364  157.6432 C   0  0  0  0  0  0  0  0  0  0  0  0
  150.7723  140.8353  155.5457 C   0  0  0  0  0  0  0  0  0  0  0  0
  153.4419  145.2089  159.0528 H   0  0  0  0  0  0  0  0  0  0  0  0
  152.1101  145.1874  157.9011 H   0  0  0  0  0  0  0  0  0  0  0  0
  153.5180  144.1564  157.6481 H   0  0  0  0  0  0  0  0  0  0  0  0
  152.9021  142.8306  159.7256 H   0  0  0  0  0  0  0  0  0  0  0  0
  151.5655  143.9199  160.0045 H   0  0  0  0  0  0  0  0  0  0  0  0
  152.7273  141.8868  157.0854 H   0  0  0  0  0  0  0  0  0  0  0  0
  153.3751  140.3877  158.9215 H   0  0  0  0  0  0  0  0  0  0  0  0
  151.6860  140.3470  159.5624 H   0  0  0  0  0  0  0  0  0  0  0  0
  152.7121  139.3707  156.8157 H   0  0  0  0  0  0  0  0  0  0  0  0
  151.4215  136.6031  159.2456 H   0  0  0  0  0  0  0  0  0  0  0  0
  152.1601  138.0823  159.8473 H   0  0  0  0  0  0  0  0  0  0  0  0
  152.9495  137.1709  158.5560 H   0  0  0  0  0  0  0  0  0  0  0  0
  151.0257  137.1498  153.7057 H   0  0  0  0  0  0  0  0  0  0  0  0
  148.1206  134.1914  158.6348 H   0  0  0  0  0  0  0  0  0  0  0  0
  147.4433  132.9830  156.5850 H   0  0  0  0  0  0  0  0  0  0  0  0
  147.2585  134.0677  155.2278 H   0  0  0  0  0  0  0  0  0  0  0  0
  149.9185  132.9173  153.3586 H   0  0  0  0  0  0  0  0  0  0  0  0
  150.9634  132.7503  155.8868 H   0  0  0  0  0  0  0  0  0  0  0  0
  149.7754  131.8342  156.8114 H   0  0  0  0  0  0  0  0  0  0  0  0
  150.9574  130.9949  154.1373 H   0  0  0  0  0  0  0  0  0  0  0  0
  150.9523  130.0798  155.6547 H   0  0  0  0  0  0  0  0  0  0  0  0
  148.3309  131.5153  153.2642 H   0  0  0  0  0  0  0  0  0  0  0  0
  146.1586  131.9147  154.4729 H   0  0  0  0  0  0  0  0  0  0  0  0
  146.7508  130.9488  155.8297 H   0  0  0  0  0  0  0  0  0  0  0  0
  146.4977  130.2054  154.2576 H   0  0  0  0  0  0  0  0  0  0  0  0
  148.8600  139.8763  157.1798 H   0  0  0  0  0  0  0  0  0  0  0  0
  148.9943  141.5958  157.4883 H   0  0  0  0  0  0  0  0  0  0  0  0
  149.4855  140.4451  158.7163 H   0  0  0  0  0  0  0  0  0  0  0  0
  150.1246  140.0806  155.0987 H   0  0  0  0  0  0  0  0  0  0  0  0
  151.7375  140.7704  155.0426 H   0  0  0  0  0  0  0  0  0  0  0  0
  150.3492  141.8124  155.3103 H   0  0  0  0  0  0  0  0  0  0  0  0
  1  2  1  0  0  0  0
  1 29  1  0  0  0  0
  1 30  1  0  0  0  0
  1 31  1  0  0  0  0
  2  3  1  0  0  0  0
  2 32  1  0  0  0  0
  2 33  1  0  0  0  0
  3  4  1  0  0  0  0
  4 26  1  0  0  0  0
  4  5  1  0  0  0  0
  4 34  1  0  0  0  0
  5  6  1  0  0  0  0
  5 35  1  0  0  0  0
  5 36  1  0  0  0  0
  6  7  1  0  0  0  0
  6 26  1  0  0  0  0
  6 37  1  0  0  0  0
  7  8  1  0  0  0  0
  7  9  1  0  0  0  0
  8 38  1  0  0  0  0
  8 39  1  0  0  0  0
  8 40  1  0  0  0  0
  9 14  1  0  0  0  0
  9 10  2  0  0  0  0
 10 11  1  0  0  0  0
 11 12  2  0  0  0  0
 11 41  1  0  0  0  0
 12 13  1  0  0  0  0
 13 17  1  0  0  0  0
 13 14  2  0  0  0  0
 14 15  1  0  0  0  0
 15 16  2  0  0  0  0
 16 17  1  0  0  0  0
 16 42  1  0  0  0  0
 17 18  1  0  0  0  0
 18 19  1  0  0  0  0
 18 43  1  0  0  0  0
 18 44  1  0  0  0  0
 19 24  1  0  0  0  0
 19 20  1  0  0  0  0
 19 21  1  0  0  0  0
 20 45  1  0  0  0  0
 21 22  1  0  0  0  0
 21 46  1  0  0  0  0
 21 47  1  0  0  0  0
 22 23  1  0  0  0  0
 22 48  1  0  0  0  0
 22 49  1  0  0  0  0
 23 24  1  0  0  0  0
 24 25  1  0  0  0  0
 24 50  1  0  0  0  0
 25 51  1  0  0  0  0
 25 52  1  0  0  0  0
 25 53  1  0  0  0  0
 26 27  1  0  0  0  0
 26 28  1  0  0  0  0
 27 54  1  0  0  0  0
 27 55  1  0  0  0  0
 27 56  1  0  0  0  0
 28 57  1  0  0  0  0
 28 58  1  0  0  0  0
 28 59  1  0  0  0  0
M  END
> <s_m_source_file>
AV-unprocessed.smi

> <i_m_source_file_index>
234

> <i_lp_mmshare_version>
43012

> <i_f3d_flags>
0

> <s_epik_input>
W0NIM11bQ0gyXU9bQ0BASF0oQzEoW0NIM10pW0NIM10pW0NIMl1bQ0BIXTFOKFtDSDNdKWMobltjSF1uMiljKGMyMyluW2NIXW4zW0NIMl1bQ0BAXTQoW09IXSlbQ0gyXVtDSDJdT1tDQEhdNFtDSDNd

> <s_epik_cmdline>
J2VwaWtfcHl0aG9uJywgJy1waCcsICc3LjAnLCAnLXRuJywgJzgnLCAnLW1hJywgJzIwMCcsICctbWV0YWxfYmluZGluZycsICctaW1hZScsICc8aW5maWxlLm1hZT4nLCAnLW9tYWUnLCAnPG91dGZpbGUubWFlPic=

> <r_lp_tautomer_probability>
1

> <r_epik_Ionization_Penalty>
0.00349132

> <r_epik_Ionization_Penalty_Charging>
0

> <r_epik_Ionization_Penalty_Neutral>
0.00349132

> <r_epik_State_Penalty>
0.00242418

> <r_epik_Charging_Adjusted_Penalty>
0.00242418

> <i_epik_Tot_Q>
0

> <i_epik_Tot_abs_Q>
0

> <r_epik_Metal_State_Penalty>
-0

> <b_epik_Metal_Only>
0

> <s_lp_Force_Field>
OPLS_2005

> <r_lp_Energy>
47.6345

> <b_lp_Chiralities_Consistent>
1

> <s_lp_Variant>
AV-unprocessed.smi:234-2

> <Gold.Version>
5.8.1

> <Gold.Id.Protein>
6NUR|6NUR_protein|mol2

> <Gold.PLP.Fitness>
40.7983

> <Gold.PLP.PLP>
-35.3466

> <Gold.PLP.part.hbond>
-1.0000

> <Gold.PLP.part.metal>
0.0000

> <Gold.PLP.part.buried>
-5.2855

> <Gold.PLP.part.nonpolar>
-29.0199

> <Gold.PLP.part.repulsive>
0.3926

> <Gold.PLP.ligand.clash>
0.0000

> <Gold.PLP.ligand.torsion>
0.6695

> <Gold.PLP.Chemscore.Hbond>
0.9920

> <Gold.PLP.Chemscore.CHOScore>
1.0368

> <Gold.PLP.Chemscore.Metal>
0.0000

> <Gold.Chemscore.Hbonds>
donor molecule, donor type, donor heavy atom, donor atom, acceptor molecule, acceptor atom, score
      P1  H  6896  6907       L1    15  0.60
      L1  C    11    41       P1  7948  0.03
      L1  C    11    41       P1  7949  1.00

> <Gold.PLP.Chemscore.Internal.Correction>
0.7044

> <Gold.Rescore>
     Score         DG    S(hbond)    S(metal)    S(lipo)     H(rot)  DE(clash)    DE(int)     intcor
      9.47     -11.59       0.61        0.00      92.13       2.62       0.06       2.06       ----

> <Gold.Chemscore.Fitness>
9.4699

> <Gold.Chemscore.DG>
-11.5907

> <Gold.Chemscore.ZeroCoef>
-5.4800

> <Gold.Chemscore.Hbond>
0.6119

> <Gold.Chemscore.Metal>
0.0000

> <Gold.Chemscore.Lipo>
92.1282

> <Gold.Chemscore.Internal_Hbond>
0.0000

> <Gold.Chemscore.DEClash>
0.0574

> <Gold.Chemscore.DEInternal>
2.0634

> <Gold.Chemscore.Rot>
2.6219

> <Gold.Chemscore.Internal.Correction>
   9.000000E+99

> <Gold.Chemscore.Hbonds>
donor molecule, donor type, donor heavy atom, donor atom, acceptor molecule, acceptor atom, score
      P1  H  6896  6907       L1    15  0.20

> <Gold.Chemscore.Hbond.Weighted>
-2.0438

> <Gold.Chemscore.Metal.Weighted>
-0.0000

> <Gold.Chemscore.Lipo.Weighted>
-10.7790

> <Gold.Chemscore.Internal_Hbond.Weighted>
0.0000

> <Gold.Chemscore.DEClash.Weighted>
0.0574

> <Gold.Chemscore.DEInternal.Weighted>
2.0634

> <Gold.Chemscore.Rot.Weighted>
6.7121

> <Gold.Chemscore.Internal.Correction.Weighted>
   9.000000E+99

> <Gold.Protein.RotatedTorsions>
[ 6907 6896 6895 6894 ] final  -46.28 input  -60.11 | X-H torsion
[ 7974 7965 7964 7962 ] final   62.97 input  175.53 | X-H torsion
[ 8008 7997 7996 7995 ] final  173.81 input   59.86 | X-H torsion
[ 10167 10162 10161 10158 ] final -107.36 input  -65.29 | X-H torsion
[ 10718 10713 10712 10709 ] final -172.10 input   66.30 | X-H torsion
[ 10763 10752 10751 10750 ] final -171.28 input  -60.55 | X-H torsion
[ 11005 11000 10999 10996 ] final -123.00 input  -57.11 | X-H torsion

> <Gold.Protein.ActiveResidues>
 VAL166  LYS551  ARG553  GLY616  TRP617  ASP618  TYR619  PRO620  LYS621  CYS622 
 ASP623  PHE694  ASN695  SER759  ASP760  ASP761  ALA762  ILE779  LEU786  VAL792 
 PHE793  MET794  SER795  GLU796  ALA797  LYS798  CYS799  TRP800  GLU811  SER814 

> <Gold.Protein.RotatedAtoms>
  150.9129  134.8546  159.7436 H   0  0  0  0  0  0  0  0  0  0  0  0  # atno 6907 bound_to 6896
  152.4953  134.4332  159.9529 H   0  0  0  0  0  0  0  0  0  0  0  0  # atno 6908 bound_to 6896
  151.4373  133.3614  159.2812 H   0  0  0  0  0  0  0  0  0  0  0  0  # atno 6909 bound_to 6896
  145.8673  139.3354  143.0783 H   0  0  0  0  0  0  0  0  0  0  0  0  # atno 7974 bound_to 7965
  156.1038  140.1450  156.9431 H   0  0  0  0  0  0  0  0  0  0  0  0  # atno 8008 bound_to 7997
  154.4720  140.0906  156.7213 H   0  0  0  0  0  0  0  0  0  0  0  0  # atno 8009 bound_to 7997
  155.4714  140.3442  155.4328 H   0  0  0  0  0  0  0  0  0  0  0  0  # atno 8010 bound_to 7997
  140.1778  143.3991  152.1305 H   0  0  0  0  0  0  0  0  0  0  0  0  # atno 10167 bound_to 10162
  156.7506  130.9377  151.3114 H   0  0  0  0  0  0  0  0  0  0  0  0  # atno 10718 bound_to 10713
  154.6323  135.2888  155.0202 H   0  0  0  0  0  0  0  0  0  0  0  0  # atno 10763 bound_to 10752
  154.1358  135.6526  153.4935 H   0  0  0  0  0  0  0  0  0  0  0  0  # atno 10764 bound_to 10752
  153.0285  135.5321  154.7155 H   0  0  0  0  0  0  0  0  0  0  0  0  # atno 10765 bound_to 10752
  140.9952  134.0482  157.3606 H   0  0  0  0  0  0  0  0  0  0  0  0  # atno 11005 bound_to 11000
  145.9178  140.9136  143.0420 LP  0  0  0  0  0  0  0  0  0  0  0  0  # atno 17320 bound_to 7965
  144.6726  140.1248  143.7447 LP  0  0  0  0  0  0  0  0  0  0  0  0  # atno 17321 bound_to 7965
  139.5309  144.7158  151.5059 LP  0  0  0  0  0  0  0  0  0  0  0  0  # atno 17342 bound_to 10162
  140.6540  143.8638  150.6815 LP  0  0  0  0  0  0  0  0  0  0  0  0  # atno 17343 bound_to 10162
  157.6778  130.9111  150.0194 LP  0  0  0  0  0  0  0  0  0  0  0  0  # atno 17370 bound_to 10713
  156.1403  130.3642  149.9592 LP  0  0  0  0  0  0  0  0  0  0  0  0  # atno 17371 bound_to 10713
  139.9011  135.0165  156.7273 LP  0  0  0  0  0  0  0  0  0  0  0  0  # atno 17394 bound_to 11000
  140.6977  133.9334  155.8005 LP  0  0  0  0  0  0  0  0  0  0  0  0  # atno 17395 bound_to 11000

$$$$
