AV-unprocessed.smi:1127|AV-procd|sdf|4841|dock5
  -GOLD-   22720 3403D 1   1.00000     0.00000
 Structure written by MMmdl.
 42 43  0  0  0  0  0  0  0  0  1 V2000
  150.7681  141.5034  156.8803 C   0  0  0  0  0  0  0  0  0  0  0  0
  150.1913  139.8914  156.1676 S   0  0  1  0  0  0  0  0  0  0  0  0
  150.9335  139.6921  154.8448 O   0  0  0  0  0  0  0  0  0  0  0  0
  151.1129  138.8636  157.3641 C   0  0  0  0  0  0  0  0  0  0  0  0
  152.4357  138.9328  157.5413 N   0  0  0  0  0  0  0  0  0  0  0  0
  152.7109  138.0083  158.5311 N   0  0  0  0  0  0  0  0  0  0  0  0
  151.5248  137.4818  158.8431 C   0  0  0  0  0  0  0  0  0  0  0  0
  150.4834  137.9709  158.1513 N   0  0  0  0  0  0  0  0  0  0  0  0
  149.0772  137.6162  158.2491 C   0  0  0  0  0  0  0  0  0  0  0  0
  148.8504  136.4590  159.2258 C   0  0  0  0  0  0  0  0  0  0  0  0
  149.2280  135.3221  158.9418 O   0  0  0  0  0  0  0  0  0  0  0  0
  148.2478  136.7717  160.3833 N   0  0  0  0  0  0  0  0  0  0  0  0
  147.9838  135.8482  161.4842 C   0  0  0  0  0  0  0  0  0  0  0  0
  147.2516  134.6032  160.9386 C   0  0  0  0  0  0  0  0  0  0  0  0
  146.6916  133.6412  162.0057 C   0  0  0  0  0  0  0  0  0  0  0  0
  145.1687  133.7463  162.2276 C   0  0  0  0  0  0  0  0  0  0  0  0
  144.6482  135.0338  162.8995 C   0  0  0  0  0  0  0  0  0  0  0  0
  144.7627  136.3056  162.0347 C   0  0  0  0  0  0  0  0  0  0  0  0
  145.9340  137.2427  162.3864 C   0  0  0  0  0  0  0  0  0  0  0  0
  147.2998  136.5821  162.6608 C   0  0  0  0  0  0  0  0  0  0  0  0
  150.8174  141.4523  157.9683 H   0  0  0  0  0  0  0  0  0  0  0  0
  150.0806  142.3024  156.6050 H   0  0  0  0  0  0  0  0  0  0  0  0
  151.7580  141.7527  156.4984 H   0  0  0  0  0  0  0  0  0  0  0  0
  151.4138  136.7183  159.5991 H   0  0  0  0  0  0  0  0  0  0  0  0
  148.5148  138.5000  158.5542 H   0  0  0  0  0  0  0  0  0  0  0  0
  148.7144  137.3272  157.2622 H   0  0  0  0  0  0  0  0  0  0  0  0
  147.9724  137.7328  160.5258 H   0  0  0  0  0  0  0  0  0  0  0  0
  148.9405  135.4867  161.8661 H   0  0  0  0  0  0  0  0  0  0  0  0
  146.4694  134.8815  160.2336 H   0  0  0  0  0  0  0  0  0  0  0  0
  147.9711  134.0502  160.3329 H   0  0  0  0  0  0  0  0  0  0  0  0
  146.8903  132.6242  161.6650 H   0  0  0  0  0  0  0  0  0  0  0  0
  147.2329  133.7297  162.9475 H   0  0  0  0  0  0  0  0  0  0  0  0
  144.6522  133.5978  161.2786 H   0  0  0  0  0  0  0  0  0  0  0  0
  144.8679  132.9044  162.8522 H   0  0  0  0  0  0  0  0  0  0  0  0
  143.5891  134.8744  163.1059 H   0  0  0  0  0  0  0  0  0  0  0  0
  145.1041  135.1768  163.8792 H   0  0  0  0  0  0  0  0  0  0  0  0
  144.7784  136.0491  160.9767 H   0  0  0  0  0  0  0  0  0  0  0  0
  143.8457  136.8835  162.1547 H   0  0  0  0  0  0  0  0  0  0  0  0
  146.0352  137.9940  161.6033 H   0  0  0  0  0  0  0  0  0  0  0  0
  145.6576  137.7974  163.2838 H   0  0  0  0  0  0  0  0  0  0  0  0
  147.2260  135.9203  163.5220 H   0  0  0  0  0  0  0  0  0  0  0  0
  147.9769  137.3688  162.9958 H   0  0  0  0  0  0  0  0  0  0  0  0
  1  2  1  0  0  0  0
  1 21  1  0  0  0  0
  1 22  1  0  0  0  0
  1 23  1  0  0  0  0
  2  3  2  0  0  0  0
  2  4  1  0  0  0  0
  4  8  1  0  0  0  0
  4  5  2  0  0  0  0
  5  6  1  0  0  0  0
  6  7  2  0  0  0  0
  7  8  1  0  0  0  0
  7 24  1  0  0  0  0
  8  9  1  0  0  0  0
  9 10  1  0  0  0  0
  9 25  1  0  0  0  0
  9 26  1  0  0  0  0
 10 11  2  0  0  0  0
 10 12  1  0  0  0  0
 12 13  1  0  0  0  0
 12 27  1  0  0  0  0
 13 20  1  0  0  0  0
 13 14  1  0  0  0  0
 13 28  1  0  0  0  0
 14 15  1  0  0  0  0
 14 29  1  0  0  0  0
 14 30  1  0  0  0  0
 15 16  1  0  0  0  0
 15 31  1  0  0  0  0
 15 32  1  0  0  0  0
 16 17  1  0  0  0  0
 16 33  1  0  0  0  0
 16 34  1  0  0  0  0
 17 18  1  0  0  0  0
 17 35  1  0  0  0  0
 17 36  1  0  0  0  0
 18 19  1  0  0  0  0
 18 37  1  0  0  0  0
 18 38  1  0  0  0  0
 19 20  1  0  0  0  0
 19 39  1  0  0  0  0
 19 40  1  0  0  0  0
 20 41  1  0  0  0  0
 20 42  1  0  0  0  0
M  END
> <s_m_source_file>
AV-unprocessed.smi

> <i_m_source_file_index>
1127

> <i_lp_mmshare_version>
43012

> <i_f3d_flags>
0

> <s_epik_input>
W0NIM11bU0BdKD1PKWMxbm5bY0hdbjFbQ0gyXUMoPU8pW05IXVtDSF0yW0NIMl1bQ0gyXVtDSDJdW0NIMl1bQ0gyXVtDSDJdW0NIMl0y

> <s_epik_cmdline>
J2VwaWtfcHl0aG9uJywgJy1waCcsICc3LjAnLCAnLXRuJywgJzgnLCAnLW1hJywgJzIwMCcsICctbWV0YWxfYmluZGluZycsICctaW1hZScsICc8aW5maWxlLm1hZT4nLCAnLW9tYWUnLCAnPG91dGZpbGUubWFlPic=

> <r_lp_tautomer_probability>
1

> <r_epik_Ionization_Penalty>
7.34999e-08

> <r_epik_Ionization_Penalty_Charging>
0

> <r_epik_Ionization_Penalty_Neutral>
7.34999e-08

> <r_epik_State_Penalty>
-0

> <r_epik_Charging_Adjusted_Penalty>
0

> <i_epik_Tot_Q>
0

> <i_epik_Tot_abs_Q>
0

> <r_epik_Metal_State_Penalty>
-0

> <b_epik_Metal_Only>
0

> <s_lp_Force_Field>
OPLS_2005

> <r_lp_Energy>
17.4242

> <b_lp_Chiralities_Consistent>
1

> <s_lp_Variant>
AV-unprocessed.smi:1127-2

> <Gold.Version>
5.8.1

> <Gold.Id.Protein>
6NUR|6NUR_protein|mol2

> <Gold.PLP.Fitness>
39.2175

> <Gold.PLP.PLP>
-34.4463

> <Gold.PLP.part.hbond>
-2.0000

> <Gold.PLP.part.metal>
0.0000

> <Gold.PLP.part.buried>
-7.1519

> <Gold.PLP.part.nonpolar>
-26.9891

> <Gold.PLP.part.repulsive>
1.1857

> <Gold.PLP.ligand.clash>
0.0000

> <Gold.PLP.ligand.torsion>
1.1444

> <Gold.PLP.Chemscore.Hbond>
2.0000

> <Gold.PLP.Chemscore.CHOScore>
0.0000

> <Gold.PLP.Chemscore.Metal>
0.0000

> <Gold.Chemscore.Hbonds>
donor molecule, donor type, donor heavy atom, donor atom, acceptor molecule, acceptor atom, score
      P1  H  6896  6908       L1    11  1.00
      P1  H  7989  7998       L1     3  1.00

> <Gold.PLP.Chemscore.Internal.Correction>
1.0601

> <Gold.Rescore>
     Score         DG    S(hbond)    S(metal)    S(lipo)     H(rot)  DE(clash)    DE(int)     intcor
     13.75     -16.09       1.99        0.00      71.15       1.70       0.30       2.05       ----

> <Gold.Chemscore.Fitness>
13.7450

> <Gold.Chemscore.DG>
-16.0942

> <Gold.Chemscore.ZeroCoef>
-5.4800

> <Gold.Chemscore.Hbond>
1.9918

> <Gold.Chemscore.Metal>
0.0000

> <Gold.Chemscore.Lipo>
71.1503

> <Gold.Chemscore.Internal_Hbond>
0.0000

> <Gold.Chemscore.DEClash>
0.2959

> <Gold.Chemscore.DEInternal>
2.0533

> <Gold.Chemscore.Rot>
1.7044

> <Gold.Chemscore.Internal.Correction>
   9.000000E+99

> <Gold.Chemscore.Hbonds>
donor molecule, donor type, donor heavy atom, donor atom, acceptor molecule, acceptor atom, score
      P1  H  6896  6908       L1    11  0.99
      P1  H  7989  7998       L1     3  1.00

> <Gold.Chemscore.Hbond.Weighted>
-6.6527

> <Gold.Chemscore.Metal.Weighted>
-0.0000

> <Gold.Chemscore.Lipo.Weighted>
-8.3246

> <Gold.Chemscore.Internal_Hbond.Weighted>
0.0000

> <Gold.Chemscore.DEClash.Weighted>
0.2959

> <Gold.Chemscore.DEInternal.Weighted>
2.0533

> <Gold.Chemscore.Rot.Weighted>
4.3631

> <Gold.Chemscore.Internal.Correction.Weighted>
   9.000000E+99

> <Gold.Protein.RotatedTorsions>
[ 6907 6896 6895 6894 ] final  175.57 input  -60.11 | X-H torsion
[ 7974 7965 7964 7962 ] final   62.00 input  175.53 | X-H torsion
[ 8008 7997 7996 7995 ] final -127.20 input   59.86 | X-H torsion
[ 10167 10162 10161 10158 ] final  -74.37 input  -65.29 | X-H torsion
[ 10718 10713 10712 10709 ] final   -5.45 input   66.30 | X-H torsion
[ 10763 10752 10751 10750 ] final   -4.13 input  -60.55 | X-H torsion
[ 11005 11000 10999 10996 ] final  179.43 input  -57.11 | X-H torsion

> <Gold.Protein.ActiveResidues>
 VAL166  LYS551  ARG553  GLY616  TRP617  ASP618  TYR619  PRO620  LYS621  CYS622 
 ASP623  PHE694  ASN695  SER759  ASP760  ASP761  ALA762  ILE779  LEU786  VAL792 
 PHE793  MET794  SER795  GLU796  ALA797  LYS798  CYS799  TRP800  GLU811  SER814 

> <Gold.Protein.RotatedAtoms>
  151.7341  133.3319  159.3347 H   0  0  0  0  0  0  0  0  0  0  0  0  # atno 6907 bound_to 6896
  150.7600  134.6337  159.6209 H   0  0  0  0  0  0  0  0  0  0  0  0  # atno 6908 bound_to 6896
  152.3573  134.6924  160.0270 H   0  0  0  0  0  0  0  0  0  0  0  0  # atno 6909 bound_to 6896
  145.8783  139.3426  143.0721 H   0  0  0  0  0  0  0  0  0  0  0  0  # atno 7974 bound_to 7965
  155.2423  140.0429  157.2976 H   0  0  0  0  0  0  0  0  0  0  0  0  # atno 8008 bound_to 7997
  154.5820  140.2403  155.8010 H   0  0  0  0  0  0  0  0  0  0  0  0  # atno 8009 bound_to 7997
  156.2200  140.2973  155.9938 H   0  0  0  0  0  0  0  0  0  0  0  0  # atno 8010 bound_to 7997
  140.5033  143.2357  151.7717 H   0  0  0  0  0  0  0  0  0  0  0  0  # atno 10167 bound_to 10162
  156.7464  130.5225  149.5813 H   0  0  0  0  0  0  0  0  0  0  0  0  # atno 10718 bound_to 10713
  153.3807  135.6998  153.6568 H   0  0  0  0  0  0  0  0  0  0  0  0  # atno 10763 bound_to 10752
  153.5180  135.3618  155.2619 H   0  0  0  0  0  0  0  0  0  0  0  0  # atno 10764 bound_to 10752
  154.8692  135.4151  154.3104 H   0  0  0  0  0  0  0  0  0  0  0  0  # atno 10765 bound_to 10752
  140.4061  134.6733  157.4589 H   0  0  0  0  0  0  0  0  0  0  0  0  # atno 11005 bound_to 11000
  145.9054  140.9215  143.0481 LP  0  0  0  0  0  0  0  0  0  0  0  0  # atno 17320 bound_to 7965
  144.6727  140.1088  143.7456 LP  0  0  0  0  0  0  0  0  0  0  0  0  # atno 17321 bound_to 7965
  139.4877  144.4493  151.9673 LP  0  0  0  0  0  0  0  0  0  0  0  0  # atno 17342 bound_to 10162
  140.3582  144.3005  150.5938 LP  0  0  0  0  0  0  0  0  0  0  0  0  # atno 17343 bound_to 10162
  156.1430  130.6258  151.0493 LP  0  0  0  0  0  0  0  0  0  0  0  0  # atno 17370 bound_to 10713
  157.6796  131.0841  150.7404 LP  0  0  0  0  0  0  0  0  0  0  0  0  # atno 17371 bound_to 10713
  140.0301  134.6419  155.9119 LP  0  0  0  0  0  0  0  0  0  0  0  0  # atno 17394 bound_to 11000
  141.1838  133.6551  156.5133 LP  0  0  0  0  0  0  0  0  0  0  0  0  # atno 17395 bound_to 11000

$$$$
