AV-unprocessed.smi:2898|AV-procd|sdf|11141|dock7
  -GOLD-   2272016 23D 1   1.00000     0.00000
 Structure written by MMmdl.
 44 45  0  0  0  0  0  0  0  0  1 V2000
  152.2457  143.7506  162.1106 C   0  0  0  0  0  0  0  0  0  0  0  0
  152.0500  144.1093  160.6654 C   0  0  0  0  0  0  0  0  0  0  0  0
  151.7881  145.3619  160.3359 N   0  0  0  0  0  0  0  0  0  0  0  0
  151.6341  145.3660  158.9475 O   0  0  0  0  0  0  0  0  0  0  0  0
  151.8086  144.1003  158.4892 C   0  0  0  0  0  0  0  0  0  0  0  0
  151.6558  143.9083  157.0178 C   0  0  0  0  0  0  0  0  0  0  0  0
  152.0847  143.2504  159.5283 C   0  0  0  0  0  0  0  0  0  0  0  0
  152.3299  141.7550  159.5233 C   0  0  2  0  0  0  0  0  0  0  0  0
  153.5271  141.3706  160.4064 C   0  0  0  0  0  0  0  0  0  0  0  0
  152.4778  141.1905  158.0937 C   0  0  0  0  0  0  0  0  0  0  0  0
  151.1786  140.9617  157.4653 N   0  0  0  0  0  0  0  0  0  0  0  0
  150.9740  140.6372  156.1765 C   0  0  0  0  0  0  0  0  0  0  0  0
  151.9006  140.4004  155.3995 O   0  0  0  0  0  0  0  0  0  0  0  0
  149.5159  140.5991  155.6675 C   0  0  0  0  0  0  0  0  0  0  0  0
  148.5564  140.8411  156.7659 C   0  0  0  0  0  0  0  0  0  0  0  0
  147.8056  141.0303  157.6268 N   0  0  0  0  0  0  0  0  0  0  0  0
  149.3337  141.6903  154.5817 C   0  0  0  0  0  0  0  0  0  0  0  0
  147.9382  141.6420  153.9350 C   0  0  0  0  0  0  0  0  0  0  0  0
  147.6553  140.2551  153.3382 C   0  0  0  0  0  0  0  0  0  0  0  0
  147.8364  139.1465  154.3857 C   0  0  0  0  0  0  0  0  0  0  0  0
  149.2331  139.2165  155.0285 C   0  0  0  0  0  0  0  0  0  0  0  0
  151.4917  143.0339  162.4372 H   0  0  0  0  0  0  0  0  0  0  0  0
  152.1726  144.6244  162.7594 H   0  0  0  0  0  0  0  0  0  0  0  0
  153.2252  143.3003  162.2713 H   0  0  0  0  0  0  0  0  0  0  0  0
  151.1111  142.9905  156.7986 H   0  0  0  0  0  0  0  0  0  0  0  0
  152.6302  143.8503  156.5331 H   0  0  0  0  0  0  0  0  0  0  0  0
  151.1055  144.7363  156.5705 H   0  0  0  0  0  0  0  0  0  0  0  0
  151.4633  141.2583  159.9614 H   0  0  0  0  0  0  0  0  0  0  0  0
  153.3938  141.7315  161.4266 H   0  0  0  0  0  0  0  0  0  0  0  0
  154.4613  141.7823  160.0255 H   0  0  0  0  0  0  0  0  0  0  0  0
  153.6435  140.2877  160.4541 H   0  0  0  0  0  0  0  0  0  0  0  0
  153.0908  141.8551  157.4833 H   0  0  0  0  0  0  0  0  0  0  0  0
  153.0092  140.2389  158.1262 H   0  0  0  0  0  0  0  0  0  0  0  0
  150.3663  141.1287  158.0414 H   0  0  0  0  0  0  0  0  0  0  0  0
  149.4940  142.6785  155.0154 H   0  0  0  0  0  0  0  0  0  0  0  0
  150.0846  141.5789  153.7977 H   0  0  0  0  0  0  0  0  0  0  0  0
  147.1746  141.8876  154.6736 H   0  0  0  0  0  0  0  0  0  0  0  0
  147.8652  142.4010  153.1558 H   0  0  0  0  0  0  0  0  0  0  0  0
  146.6434  140.2232  152.9333 H   0  0  0  0  0  0  0  0  0  0  0  0
  148.3292  140.0762  152.4995 H   0  0  0  0  0  0  0  0  0  0  0  0
  147.0667  139.2357  155.1529 H   0  0  0  0  0  0  0  0  0  0  0  0
  147.6923  138.1713  153.9198 H   0  0  0  0  0  0  0  0  0  0  0  0
  149.9795  138.9893  154.2654 H   0  0  0  0  0  0  0  0  0  0  0  0
  149.3217  138.4329  155.7823 H   0  0  0  0  0  0  0  0  0  0  0  0
  1  2  1  0  0  0  0
  1 22  1  0  0  0  0
  1 23  1  0  0  0  0
  1 24  1  0  0  0  0
  2  7  1  0  0  0  0
  2  3  2  0  0  0  0
  3  4  1  0  0  0  0
  4  5  1  0  0  0  0
  5  6  1  0  0  0  0
  5  7  2  0  0  0  0
  6 25  1  0  0  0  0
  6 26  1  0  0  0  0
  6 27  1  0  0  0  0
  7  8  1  0  0  0  0
  8  9  1  0  0  0  0
  8 10  1  0  0  0  0
  8 28  1  0  0  0  0
  9 29  1  0  0  0  0
  9 30  1  0  0  0  0
  9 31  1  0  0  0  0
 10 11  1  0  0  0  0
 10 32  1  0  0  0  0
 10 33  1  0  0  0  0
 11 12  1  0  0  0  0
 11 34  1  0  0  0  0
 12 13  2  0  0  0  0
 12 14  1  0  0  0  0
 14 21  1  0  0  0  0
 14 15  1  0  0  0  0
 14 17  1  0  0  0  0
 15 16  3  0  0  0  0
 17 18  1  0  0  0  0
 17 35  1  0  0  0  0
 17 36  1  0  0  0  0
 18 19  1  0  0  0  0
 18 37  1  0  0  0  0
 18 38  1  0  0  0  0
 19 20  1  0  0  0  0
 19 39  1  0  0  0  0
 19 40  1  0  0  0  0
 20 21  1  0  0  0  0
 20 41  1  0  0  0  0
 20 42  1  0  0  0  0
 21 43  1  0  0  0  0
 21 44  1  0  0  0  0
M  END
> <s_m_source_file>
AV-unprocessed.smi

> <i_m_source_file_index>
2898

> <i_lp_mmshare_version>
43012

> <i_f3d_flags>
0

> <s_epik_input>
W0NIM11jMW5vYyhbQ0gzXSljMVtDQEhdKFtDSDNdKVtDSDJdW05IXUMoPU8pQzIoQyNOKVtDSDJdW0NIMl1bQ0gyXVtDSDJdW0NIMl0y

> <s_epik_cmdline>
J2VwaWtfcHl0aG9uJywgJy1waCcsICc3LjAnLCAnLXRuJywgJzgnLCAnLW1hJywgJzIwMCcsICctbWV0YWxfYmluZGluZycsICctaW1hZScsICc8aW5maWxlLm1hZT4nLCAnLW9tYWUnLCAnPG91dGZpbGUubWFlPic=

> <r_lp_tautomer_probability>
1

> <r_epik_Ionization_Penalty>
4.33734e-07

> <r_epik_Ionization_Penalty_Charging>
0

> <r_epik_Ionization_Penalty_Neutral>
4.33734e-07

> <r_epik_State_Penalty>
-0

> <r_epik_Charging_Adjusted_Penalty>
0

> <i_epik_Tot_Q>
0

> <i_epik_Tot_abs_Q>
0

> <r_epik_Metal_State_Penalty>
-0

> <b_epik_Metal_Only>
0

> <s_lp_Force_Field>
OPLS_2005

> <r_lp_Energy>
7.89046

> <b_lp_Chiralities_Consistent>
1

> <s_lp_Variant>
AV-unprocessed.smi:2898-1

> <Gold.Version>
5.8.1

> <Gold.Id.Protein>
6NUR|6NUR_protein|mol2

> <Gold.PLP.Fitness>
41.3994

> <Gold.PLP.PLP>
-41.3149

> <Gold.PLP.part.hbond>
-1.3901

> <Gold.PLP.part.metal>
0.0000

> <Gold.PLP.part.buried>
-3.8970

> <Gold.PLP.part.nonpolar>
-35.6294

> <Gold.PLP.part.repulsive>
0.3804

> <Gold.PLP.ligand.clash>
1.2082

> <Gold.PLP.ligand.torsion>
0.6113

> <Gold.PLP.Chemscore.Hbond>
0.8160

> <Gold.PLP.Chemscore.CHOScore>
0.0000

> <Gold.PLP.Chemscore.Metal>
0.0000

> <Gold.Chemscore.Hbonds>
donor molecule, donor type, donor heavy atom, donor atom, acceptor molecule, acceptor atom, score
      P1  H  7989  7998       L1    13  0.72

> <Gold.PLP.Chemscore.Internal.Correction>
0.0674

> <Gold.Rescore>
     Score         DG    S(hbond)    S(metal)    S(lipo)     H(rot)  DE(clash)    DE(int)     intcor
     16.16     -19.05       0.87        0.00     124.46       1.52       1.42       1.47       ----

> <Gold.Chemscore.Fitness>
16.1584

> <Gold.Chemscore.DG>
-19.0487

> <Gold.Chemscore.ZeroCoef>
-5.4800

> <Gold.Chemscore.Hbond>
0.8709

> <Gold.Chemscore.Metal>
0.0000

> <Gold.Chemscore.Lipo>
124.4630

> <Gold.Chemscore.Internal_Hbond>
0.0000

> <Gold.Chemscore.DEClash>
1.4206

> <Gold.Chemscore.DEInternal>
1.4697

> <Gold.Chemscore.Rot>
1.5243

> <Gold.Chemscore.Internal.Correction>
   9.000000E+99

> <Gold.Chemscore.Hbonds>
donor molecule, donor type, donor heavy atom, donor atom, acceptor molecule, acceptor atom, score
      P1  H  7989  7998       L1    13  0.68

> <Gold.Chemscore.Hbond.Weighted>
-2.9087

> <Gold.Chemscore.Metal.Weighted>
-0.0000

> <Gold.Chemscore.Lipo.Weighted>
-14.5622

> <Gold.Chemscore.Internal_Hbond.Weighted>
0.0000

> <Gold.Chemscore.DEClash.Weighted>
1.4206

> <Gold.Chemscore.DEInternal.Weighted>
1.4697

> <Gold.Chemscore.Rot.Weighted>
3.9022

> <Gold.Chemscore.Internal.Correction.Weighted>
   9.000000E+99

> <Gold.Protein.RotatedTorsions>
[ 6907 6896 6895 6894 ] final -157.36 input  -60.11 | X-H torsion
[ 7974 7965 7964 7962 ] final  -69.61 input  175.53 | X-H torsion
[ 8008 7997 7996 7995 ] final  -75.61 input   59.86 | X-H torsion
[ 10167 10162 10161 10158 ] final  146.05 input  -65.29 | X-H torsion
[ 10718 10713 10712 10709 ] final   26.58 input   66.30 | X-H torsion
[ 10763 10752 10751 10750 ] final -165.15 input  -60.55 | X-H torsion
[ 11005 11000 10999 10996 ] final  155.18 input  -57.11 | X-H torsion

> <Gold.Protein.ActiveResidues>
 VAL166  LYS551  ARG553  GLY616  TRP617  ASP618  TYR619  PRO620  LYS621  CYS622 
 ASP623  PHE694  ASN695  SER759  ASP760  ASP761  ALA762  ILE779  LEU786  VAL792 
 PHE793  MET794  SER795  GLU796  ALA797  LYS798  CYS799  TRP800  GLU811  SER814 

> <Gold.Protein.RotatedAtoms>
  151.3017  133.4119  159.2639 H   0  0  0  0  0  0  0  0  0  0  0  0  # atno 6907 bound_to 6896
  151.0190  134.9455  159.8059 H   0  0  0  0  0  0  0  0  0  0  0  0  # atno 6908 bound_to 6896
  152.5319  134.2980  159.9120 H   0  0  0  0  0  0  0  0  0  0  0  0  # atno 6909 bound_to 6896
  145.7016  140.9114  143.0728 H   0  0  0  0  0  0  0  0  0  0  0  0  # atno 7974 bound_to 7965
  154.5431  140.0741  156.8544 H   0  0  0  0  0  0  0  0  0  0  0  0  # atno 8008 bound_to 7997
  155.3140  140.3392  155.4225 H   0  0  0  0  0  0  0  0  0  0  0  0  # atno 8009 bound_to 7997
  156.1893  140.1680  156.8109 H   0  0  0  0  0  0  0  0  0  0  0  0  # atno 8010 bound_to 7997
  139.4914  144.5857  151.6782 H   0  0  0  0  0  0  0  0  0  0  0  0  # atno 10167 bound_to 10162
  157.2087  130.6924  149.6219 H   0  0  0  0  0  0  0  0  0  0  0  0  # atno 10718 bound_to 10713
  154.6960  135.2979  154.9411 H   0  0  0  0  0  0  0  0  0  0  0  0  # atno 10763 bound_to 10752
  154.0359  135.6664  153.4789 H   0  0  0  0  0  0  0  0  0  0  0  0  # atno 10764 bound_to 10752
  153.0646  135.5096  154.8078 H   0  0  0  0  0  0  0  0  0  0  0  0  # atno 10765 bound_to 10752
  140.1558  134.8644  157.2512 H   0  0  0  0  0  0  0  0  0  0  0  0  # atno 11005 bound_to 11000
  144.6967  139.8955  143.7455 LP  0  0  0  0  0  0  0  0  0  0  0  0  # atno 17320 bound_to 7965
  146.0793  139.3781  143.0474 LP  0  0  0  0  0  0  0  0  0  0  0  0  # atno 17321 bound_to 7965
  140.5473  144.0482  150.6112 LP  0  0  0  0  0  0  0  0  0  0  0  0  # atno 17342 bound_to 10162
  140.3525  143.2955  152.0472 LP  0  0  0  0  0  0  0  0  0  0  0  0  # atno 17343 bound_to 10162
  155.9693  130.4558  150.5902 LP  0  0  0  0  0  0  0  0  0  0  0  0  # atno 17370 bound_to 10713
  157.3694  131.0763  151.1571 LP  0  0  0  0  0  0  0  0  0  0  0  0  # atno 17371 bound_to 10713
  140.2549  134.3639  155.7428 LP  0  0  0  0  0  0  0  0  0  0  0  0  # atno 17394 bound_to 11000
  141.2204  133.7337  156.8993 LP  0  0  0  0  0  0  0  0  0  0  0  0  # atno 17395 bound_to 11000

$$$$
