AV-unprocessed.smi:2814|AV-procd|sdf|10840|dock5
  -GOLD-   2272015283D 1   1.00000     0.00000
 Structure written by MMmdl.
 38 39  0  0  0  0  0  0  0  0  2 V2000
  150.7789  141.2539  155.6351 C   0  0  0  0  0  0  0  0  0  0  0  0
  149.4768  140.9762  154.9138 C   0  0  0  0  0  0  0  0  0  0  0  0
  149.1538  139.6992  154.4062 C   0  0  0  0  0  0  0  0  0  0  0  0
  147.9149  139.5065  153.7435 C   0  0  0  0  0  0  0  0  0  0  0  0
  147.5045  138.2672  153.1821 N   0  0  0  0  0  0  0  0  0  0  0  0
  146.2785  137.7167  153.1840 C   0  0  0  0  0  0  0  0  0  0  0  0
  145.2704  138.2323  153.6665 O   0  0  0  0  0  0  0  0  0  0  0  0
  146.2832  136.5236  152.5729 N   0  0  0  0  0  0  0  0  0  0  0  0
  145.1252  135.6497  152.3939 C   0  0  0  0  0  0  0  0  0  0  0  0
  145.2585  134.7398  151.1519 C   0  0  0  0  0  0  0  0  0  0  0  0
  145.2608  135.5640  149.9993 O   0  0  0  0  0  0  0  0  0  0  0  0
  146.4922  133.8254  151.1315 C   0  0  0  0  0  0  0  0  0  0  0  0
  146.1426  132.6735  150.1809 C   0  0  0  0  0  0  0  0  0  0  0  0
  144.6092  132.6287  150.0988 C   0  0  0  0  0  0  0  0  0  0  0  0
  144.0940  133.7507  151.0100 C   0  0  0  0  0  0  0  0  0  0  0  0
  147.0521  140.6137  153.5884 C   0  0  0  0  0  0  0  0  0  0  0  0
  147.4266  141.8655  154.1167 C   0  0  0  0  0  0  0  0  0  0  0  0
  148.6088  141.9995  154.7548 N   0  3  0  0  0  0  0  0  0  0  0  0
  151.3921  140.3545  155.7003 H   0  0  0  0  0  0  0  0  0  0  0  0
  150.5845  141.6072  156.6482 H   0  0  0  0  0  0  0  0  0  0  0  0
  151.3506  142.0177  155.1072 H   0  0  0  0  0  0  0  0  0  0  0  0
  149.8638  138.8943  154.5213 H   0  0  0  0  0  0  0  0  0  0  0  0
  148.2135  137.7665  152.6665 H   0  0  0  0  0  0  0  0  0  0  0  0
  147.1600  136.1796  152.2096 H   0  0  0  0  0  0  0  0  0  0  0  0
  144.9778  135.0420  153.2883 H   0  0  0  0  0  0  0  0  0  0  0  0
  144.2334  136.2719  152.3095 H   0  0  0  0  0  0  0  0  0  0  0  0
  145.4701  135.0279  149.2497 H   0  0  0  0  0  0  0  0  0  0  0  0
  147.4064  134.3450  150.8416 H   0  0  0  0  0  0  0  0  0  0  0  0
  146.6555  133.4152  152.1288 H   0  0  0  0  0  0  0  0  0  0  0  0
  146.5594  132.8639  149.1912 H   0  0  0  0  0  0  0  0  0  0  0  0
  146.5595  131.7293  150.5326 H   0  0  0  0  0  0  0  0  0  0  0  0
  144.2904  132.8037  149.0705 H   0  0  0  0  0  0  0  0  0  0  0  0
  144.2130  131.6585  150.4007 H   0  0  0  0  0  0  0  0  0  0  0  0
  143.8547  133.3248  151.9856 H   0  0  0  0  0  0  0  0  0  0  0  0
  143.1814  134.2135  150.6313 H   0  0  0  0  0  0  0  0  0  0  0  0
  146.1070  140.5070  153.0757 H   0  0  0  0  0  0  0  0  0  0  0  0
  146.8210  142.7572  154.0469 H   0  0  0  0  0  0  0  0  0  0  0  0
  148.8603  142.9150  155.1286 H   0  0  0  0  0  0  0  0  0  0  0  0
  1  2  1  0  0  0  0
  1 19  1  0  0  0  0
  1 20  1  0  0  0  0
  1 21  1  0  0  0  0
  2 18  1  0  0  0  0
  2  3  2  0  0  0  0
  3  4  1  0  0  0  0
  3 22  1  0  0  0  0
  4  5  1  0  0  0  0
  4 16  2  0  0  0  0
  5  6  1  0  0  0  0
  5 23  1  0  0  0  0
  6  7  2  0  0  0  0
  6  8  1  0  0  0  0
  8  9  1  0  0  0  0
  8 24  1  0  0  0  0
  9 10  1  0  0  0  0
  9 25  1  0  0  0  0
  9 26  1  0  0  0  0
 10 15  1  0  0  0  0
 10 11  1  0  0  0  0
 10 12  1  0  0  0  0
 11 27  1  0  0  0  0
 12 13  1  0  0  0  0
 12 28  1  0  0  0  0
 12 29  1  0  0  0  0
 13 14  1  0  0  0  0
 13 30  1  0  0  0  0
 13 31  1  0  0  0  0
 14 15  1  0  0  0  0
 14 32  1  0  0  0  0
 14 33  1  0  0  0  0
 15 34  1  0  0  0  0
 15 35  1  0  0  0  0
 16 17  1  0  0  0  0
 16 36  1  0  0  0  0
 17 18  2  0  0  0  0
 17 37  1  0  0  0  0
 18 38  1  0  0  0  0
M  CHG  1  18   1
M  END
> <s_m_source_file>
AV-unprocessed.smi

> <i_m_source_file_index>
2814

> <i_lp_mmshare_version>
43012

> <i_f3d_flags>
0

> <s_epik_input>
W0NIM11jMVtjSF1jKFtjSF1bY0hdbjEpW05IXUMoPU8pW05IXVtDSDJdQzIoW09IXSlbQ0gyXVtDSDJdW0NIMl1bQ0gyXTI=

> <s_epik_cmdline>
J2VwaWtfcHl0aG9uJywgJy1waCcsICc3LjAnLCAnLXRuJywgJzgnLCAnLW1hJywgJzIwMCcsICctbWV0YWxfYmluZGluZycsICctaW1hZScsICc8aW5maWxlLm1hZT4nLCAnLW9tYWUnLCAnPG91dGZpbGUubWFlPic=

> <r_epik_Ionization_Penalty>
0.41638

> <r_epik_Ionization_Penalty_Charging>
0.416357

> <r_epik_Ionization_Penalty_Neutral>
2.25049e-05

> <r_epik_State_Penalty>
0.41674

> <r_epik_Charging_Adjusted_Penalty>
0.833097

> <i_epik_Tot_Q>
1

> <i_epik_Tot_abs_Q>
1

> <r_epik_Metal_State_Penalty>
0.654825

> <b_epik_Metal_Only>
0

> <s_lp_Force_Field>
OPLS_2005

> <r_lp_Energy>
34.0796

> <b_lp_Chiralities_Consistent>
1

> <s_lp_Variant>
AV-unprocessed.smi:2814-2

> <Gold.Version>
5.8.1

> <Gold.Id.Protein>
6NUR|6NUR_protein|mol2

> <Gold.PLP.Fitness>
49.2751

> <Gold.PLP.PLP>
-35.2821

> <Gold.PLP.part.hbond>
-4.1009

> <Gold.PLP.part.metal>
0.0000

> <Gold.PLP.part.buried>
-5.1140

> <Gold.PLP.part.nonpolar>
-26.4657

> <Gold.PLP.part.repulsive>
1.4923

> <Gold.PLP.ligand.clash>
0.0000

> <Gold.PLP.ligand.torsion>
0.5056

> <Gold.PLP.Chemscore.Hbond>
5.0000

> <Gold.PLP.Chemscore.CHOScore>
0.0000

> <Gold.PLP.Chemscore.Metal>
0.0000

> <Gold.Chemscore.Hbonds>
donor molecule, donor type, donor heavy atom, donor atom, acceptor molecule, acceptor atom, score
      L1  H     5    23       P1  7948  1.00
      L1  H     8    24       P1  7948  1.00
      L1  H    11    27       P1  7921  1.00
      L1  H    18    38       P1  8028  2.00

> <Gold.PLP.Chemscore.Internal.Correction>
0.0042

> <Gold.Rescore>
     Score         DG    S(hbond)    S(metal)    S(lipo)     H(rot)  DE(clash)    DE(int)     intcor
     21.87     -23.66       3.94        0.00      80.79       1.74       0.16       1.62       ----

> <Gold.Chemscore.Fitness>
21.8712

> <Gold.Chemscore.DG>
-23.6571

> <Gold.Chemscore.ZeroCoef>
-5.4800

> <Gold.Chemscore.Hbond>
3.9445

> <Gold.Chemscore.Metal>
0.0000

> <Gold.Chemscore.Lipo>
80.7867

> <Gold.Chemscore.Internal_Hbond>
0.0000

> <Gold.Chemscore.DEClash>
0.1626

> <Gold.Chemscore.DEInternal>
1.6233

> <Gold.Chemscore.Rot>
1.7382

> <Gold.Chemscore.Internal.Correction>
   9.000000E+99

> <Gold.Chemscore.Hbonds>
donor molecule, donor type, donor heavy atom, donor atom, acceptor molecule, acceptor atom, score
      L1  H     5    23       P1  7948  0.98
      L1  H     8    24       P1  7948  0.99
      L1  H    11    27       P1  7921  0.95
      L1  H    18    38       P1  8028  1.00

> <Gold.Chemscore.Hbond.Weighted>
-13.1747

> <Gold.Chemscore.Metal.Weighted>
-0.0000

> <Gold.Chemscore.Lipo.Weighted>
-9.4520

> <Gold.Chemscore.Internal_Hbond.Weighted>
0.0000

> <Gold.Chemscore.DEClash.Weighted>
0.1626

> <Gold.Chemscore.DEInternal.Weighted>
1.6233

> <Gold.Chemscore.Rot.Weighted>
4.4497

> <Gold.Chemscore.Internal.Correction.Weighted>
   9.000000E+99

> <Gold.Protein.RotatedTorsions>
[ 6907 6896 6895 6894 ] final  106.34 input  -60.11 | X-H torsion
[ 7974 7965 7964 7962 ] final -127.04 input  175.53 | X-H torsion
[ 8008 7997 7996 7995 ] final  148.44 input   59.86 | X-H torsion
[ 10167 10162 10161 10158 ] final  -28.21 input  -65.29 | X-H torsion
[ 10718 10713 10712 10709 ] final   58.00 input   66.30 | X-H torsion
[ 10763 10752 10751 10750 ] final  119.56 input  -60.55 | X-H torsion
[ 11005 11000 10999 10996 ] final  -79.69 input  -57.11 | X-H torsion

> <Gold.Protein.ActiveResidues>
 VAL166  LYS551  ARG553  GLY616  TRP617  ASP618  TYR619  PRO620  LYS621  CYS622 
 ASP623  PHE694  ASN695  SER759  ASP760  ASP761  ALA762  ILE779  LEU786  VAL792 
 PHE793  MET794  SER795  GLU796  ALA797  LYS798  CYS799  TRP800  GLU811  SER814 

> <Gold.Protein.RotatedAtoms>
  152.5197  133.9395  159.7619 H   0  0  0  0  0  0  0  0  0  0  0  0  # atno 6907 bound_to 6896
  150.9728  133.6317  159.2742 H   0  0  0  0  0  0  0  0  0  0  0  0  # atno 6908 bound_to 6896
  151.3523  135.0892  159.9460 H   0  0  0  0  0  0  0  0  0  0  0  0  # atno 6909 bound_to 6896
  144.9811  140.7641  143.4612 H   0  0  0  0  0  0  0  0  0  0  0  0  # atno 7974 bound_to 7965
  156.2791  140.2128  156.5699 H   0  0  0  0  0  0  0  0  0  0  0  0  # atno 8008 bound_to 7997
  154.7144  140.0509  157.0604 H   0  0  0  0  0  0  0  0  0  0  0  0  # atno 8009 bound_to 7997
  155.0562  140.3161  155.4678 H   0  0  0  0  0  0  0  0  0  0  0  0  # atno 8010 bound_to 7997
  140.7271  143.4028  151.1235 H   0  0  0  0  0  0  0  0  0  0  0  0  # atno 10167 bound_to 10162
  157.5560  130.8800  149.9037 H   0  0  0  0  0  0  0  0  0  0  0  0  # atno 10718 bound_to 10713
  153.5849  135.3477  155.2889 H   0  0  0  0  0  0  0  0  0  0  0  0  # atno 10763 bound_to 10752
  154.8662  135.4191  154.2580 H   0  0  0  0  0  0  0  0  0  0  0  0  # atno 10764 bound_to 10752
  153.3374  135.7048  153.6966 H   0  0  0  0  0  0  0  0  0  0  0  0  # atno 10765 bound_to 10752
  141.1667  133.7117  156.8160 H   0  0  0  0  0  0  0  0  0  0  0  0  # atno 11005 bound_to 11000
  145.2420  139.2068  143.4988 LP  0  0  0  0  0  0  0  0  0  0  0  0  # atno 17320 bound_to 7965
  146.3408  140.2317  142.8593 LP  0  0  0  0  0  0  0  0  0  0  0  0  # atno 17321 bound_to 7965
  139.7651  143.8578  152.3109 LP  0  0  0  0  0  0  0  0  0  0  0  0  # atno 17342 bound_to 10162
  139.8477  144.7180  150.9253 LP  0  0  0  0  0  0  0  0  0  0  0  0  # atno 17343 bound_to 10162
  156.0619  130.3698  150.0963 LP  0  0  0  0  0  0  0  0  0  0  0  0  # atno 17370 bound_to 10713
  156.9132  130.9658  151.3560 LP  0  0  0  0  0  0  0  0  0  0  0  0  # atno 17371 bound_to 10713
  140.2153  134.8797  157.3319 LP  0  0  0  0  0  0  0  0  0  0  0  0  # atno 17394 bound_to 11000
  140.2044  134.4215  155.7645 LP  0  0  0  0  0  0  0  0  0  0  0  0  # atno 17395 bound_to 11000

$$$$
