AV-unprocessed.smi:3178|AV-procd|sdf|12131|dock7
  -GOLD-   2272017573D 1   1.00000     0.00000
 Structure written by MMmdl.
 35 35  0  0  0  0  0  0  0  0  1 V2000
  146.3210  142.7227  154.9496 C   0  0  0  0  0  0  0  0  0  0  0  0
  146.8006  141.4222  155.2717 O   0  0  0  0  0  0  0  0  0  0  0  0
  147.7271  140.8014  154.3736 C   0  0  0  0  0  0  0  0  0  0  0  0
  147.8844  139.3658  154.9115 C   0  0  0  0  0  0  0  0  0  0  0  0
  147.1441  140.7382  152.9471 C   0  0  0  0  0  0  0  0  0  0  0  0
  149.0910  141.5348  154.3703 C   0  0  0  0  0  0  0  0  0  0  0  0
  149.7080  141.5153  155.6917 N   0  0  0  0  0  0  0  0  0  0  0  0
  150.8391  140.8714  156.0185 C   0  0  0  0  0  0  0  0  0  0  0  0
  151.5346  140.2653  155.2040 O   0  0  0  0  0  0  0  0  0  0  0  0
  151.2552  140.9203  157.4909 C   0  0  0  0  0  0  0  0  0  0  0  0
  151.3705  142.3294  157.9840 C   0  0  0  0  0  0  0  0  0  0  0  0
  151.8851  142.8441  159.1413 C   0  0  0  0  0  0  0  0  0  0  0  0
  151.6826  144.2503  159.0230 C   0  0  0  0  0  0  0  0  0  0  0  0
  152.0496  145.3235  160.0052 C   0  0  0  0  0  0  0  0  0  0  0  0
  151.0966  144.5827  157.8823 N   0  0  0  0  0  0  0  0  0  0  0  0
  150.9123  143.4053  157.2575 N   0  0  0  0  0  0  0  0  0  0  0  0
  150.4765  143.3517  156.3478 H   0  0  0  0  0  0  0  0  0  0  0  0
  145.6426  143.0507  155.7369 H   0  0  0  0  0  0  0  0  0  0  0  0
  145.7588  142.7354  154.0166 H   0  0  0  0  0  0  0  0  0  0  0  0
  147.1238  143.4569  154.8914 H   0  0  0  0  0  0  0  0  0  0  0  0
  148.5997  138.7960  154.3176 H   0  0  0  0  0  0  0  0  0  0  0  0
  146.9345  138.8307  154.8863 H   0  0  0  0  0  0  0  0  0  0  0  0
  148.2318  139.3551  155.9454 H   0  0  0  0  0  0  0  0  0  0  0  0
  147.7755  140.1354  152.2937 H   0  0  0  0  0  0  0  0  0  0  0  0
  147.0677  141.7247  152.4904 H   0  0  0  0  0  0  0  0  0  0  0  0
  146.1493  140.2916  152.9463 H   0  0  0  0  0  0  0  0  0  0  0  0
  149.7468  141.0623  153.6367 H   0  0  0  0  0  0  0  0  0  0  0  0
  148.9834  142.5709  154.0501 H   0  0  0  0  0  0  0  0  0  0  0  0
  149.2046  141.9880  156.4285 H   0  0  0  0  0  0  0  0  0  0  0  0
  150.5240  140.3797  158.0929 H   0  0  0  0  0  0  0  0  0  0  0  0
  152.2043  140.3957  157.6069 H   0  0  0  0  0  0  0  0  0  0  0  0
  152.3338  142.2957  159.9563 H   0  0  0  0  0  0  0  0  0  0  0  0
  152.1627  144.9147  161.0095 H   0  0  0  0  0  0  0  0  0  0  0  0
  151.2858  146.1006  160.0492 H   0  0  0  0  0  0  0  0  0  0  0  0
  152.9926  145.7966  159.7311 H   0  0  0  0  0  0  0  0  0  0  0  0
  1  2  1  0  0  0  0
  1 18  1  0  0  0  0
  1 19  1  0  0  0  0
  1 20  1  0  0  0  0
  2  3  1  0  0  0  0
  3  4  1  0  0  0  0
  3  5  1  0  0  0  0
  3  6  1  0  0  0  0
  4 21  1  0  0  0  0
  4 22  1  0  0  0  0
  4 23  1  0  0  0  0
  5 24  1  0  0  0  0
  5 25  1  0  0  0  0
  5 26  1  0  0  0  0
  6  7  1  0  0  0  0
  6 27  1  0  0  0  0
  6 28  1  0  0  0  0
  7  8  1  0  0  0  0
  7 29  1  0  0  0  0
  8  9  2  0  0  0  0
  8 10  1  0  0  0  0
 10 30  1  0  0  0  0
 10 31  1  0  0  0  0
 10 11  1  0  0  0  0
 11 16  1  0  0  0  0
 11 12  2  0  0  0  0
 12 13  1  0  0  0  0
 12 32  1  0  0  0  0
 13 14  1  0  0  0  0
 13 15  2  0  0  0  0
 14 33  1  0  0  0  0
 14 34  1  0  0  0  0
 14 35  1  0  0  0  0
 15 16  1  0  0  0  0
 16 17  1  0  0  0  0
M  END
> <s_m_source_file>
AV-unprocessed.smi

> <i_m_source_file_index>
3178

> <i_lp_mmshare_version>
43012

> <i_f3d_flags>
0

> <s_epik_input>
W0NIM11PQyhbQ0gzXSkoW0NIM10pW0NIMl1bTkhdQyg9TylbQ0gyXWMxW2NIXWMoW0NIM10pW25IXW4x

> <s_epik_cmdline>
J2VwaWtfcHl0aG9uJywgJy1waCcsICc3LjAnLCAnLXRuJywgJzgnLCAnLW1hJywgJzIwMCcsICctbWV0YWxfYmluZGluZycsICctaW1hZScsICc8aW5maWxlLm1hZT4nLCAnLW9tYWUnLCAnPG91dGZpbGUubWFlPic=

> <r_lp_tautomer_probability>
0.5

> <r_epik_Ionization_Penalty>
0.000125824

> <r_epik_Ionization_Penalty_Charging>
0

> <r_epik_Ionization_Penalty_Neutral>
0.000125824

> <r_epik_State_Penalty>
0.41068

> <r_epik_Charging_Adjusted_Penalty>
0.41068

> <i_epik_Tot_Q>
0

> <i_epik_Tot_abs_Q>
0

> <r_epik_Metal_State_Penalty>
0.410657

> <b_epik_Metal_Only>
0

> <s_lp_Force_Field>
OPLS_2005

> <r_lp_Energy>
5.55187

> <b_lp_Chiralities_Consistent>
1

> <s_lp_Variant>
AV-unprocessed.smi:3178-2

> <Gold.Version>
5.8.1

> <Gold.Id.Protein>
6NUR|6NUR_protein|mol2

> <Gold.PLP.Fitness>
35.5735

> <Gold.PLP.PLP>
-31.9955

> <Gold.PLP.part.hbond>
-2.1550

> <Gold.PLP.part.metal>
0.0000

> <Gold.PLP.part.buried>
-4.7676

> <Gold.PLP.part.nonpolar>
-25.5460

> <Gold.PLP.part.repulsive>
0.7249

> <Gold.PLP.ligand.clash>
0.0000

> <Gold.PLP.ligand.torsion>
0.1930

> <Gold.PLP.Chemscore.Hbond>
1.3101

> <Gold.PLP.Chemscore.CHOScore>
0.0000

> <Gold.PLP.Chemscore.Metal>
0.0000

> <Gold.Chemscore.Hbonds>
donor molecule, donor type, donor heavy atom, donor atom, acceptor molecule, acceptor atom, score
      L1  H    16    17       P1  8028  0.26
      P1  H  7989  7998       L1     9  0.96

> <Gold.PLP.Chemscore.Internal.Correction>
0.0338

> <Gold.Rescore>
     Score         DG    S(hbond)    S(metal)    S(lipo)     H(rot)  DE(clash)    DE(int)     intcor
     12.64     -14.61       1.41        0.00      79.16       1.89       0.13       1.85       ----

> <Gold.Chemscore.Fitness>
12.6359

> <Gold.Chemscore.DG>
-14.6148

> <Gold.Chemscore.ZeroCoef>
-5.4800

> <Gold.Chemscore.Hbond>
1.4088

> <Gold.Chemscore.Metal>
0.0000

> <Gold.Chemscore.Lipo>
79.1628

> <Gold.Chemscore.Internal_Hbond>
0.0000

> <Gold.Chemscore.DEClash>
0.1277

> <Gold.Chemscore.DEInternal>
1.8513

> <Gold.Chemscore.Rot>
1.8877

> <Gold.Chemscore.Internal.Correction>
   9.000000E+99

> <Gold.Chemscore.Hbonds>
donor molecule, donor type, donor heavy atom, donor atom, acceptor molecule, acceptor atom, score
      L1  H    16    17       P1  8028  0.28
      P1  H  7989  7998       L1     9  0.89

> <Gold.Chemscore.Hbond.Weighted>
-4.7053

> <Gold.Chemscore.Metal.Weighted>
-0.0000

> <Gold.Chemscore.Lipo.Weighted>
-9.2620

> <Gold.Chemscore.Internal_Hbond.Weighted>
0.0000

> <Gold.Chemscore.DEClash.Weighted>
0.1277

> <Gold.Chemscore.DEInternal.Weighted>
1.8513

> <Gold.Chemscore.Rot.Weighted>
4.8325

> <Gold.Chemscore.Internal.Correction.Weighted>
   9.000000E+99

> <Gold.Protein.RotatedTorsions>
[ 6907 6896 6895 6894 ] final -141.47 input  -60.11 | X-H torsion
[ 7974 7965 7964 7962 ] final  140.88 input  175.53 | X-H torsion
[ 8008 7997 7996 7995 ] final   17.17 input   59.86 | X-H torsion
[ 10167 10162 10161 10158 ] final  171.41 input  -65.29 | X-H torsion
[ 10718 10713 10712 10709 ] final   -1.12 input   66.30 | X-H torsion
[ 10763 10752 10751 10750 ] final   74.46 input  -60.55 | X-H torsion
[ 11005 11000 10999 10996 ] final   95.13 input  -57.11 | X-H torsion

> <Gold.Protein.ActiveResidues>
 VAL166  LYS551  ARG553  GLY616  TRP617  ASP618  TYR619  PRO620  LYS621  CYS622 
 ASP623  PHE694  ASN695  SER759  ASP760  ASP761  ALA762  ILE779  LEU786  VAL792 
 PHE793  MET794  SER795  GLU796  ALA797  LYS798  CYS799  TRP800  GLU811  SER814 

> <Gold.Protein.RotatedAtoms>
  151.0742  133.5442  159.2624 H   0  0  0  0  0  0  0  0  0  0  0  0  # atno 6907 bound_to 6896
  151.2369  135.0574  159.9020 H   0  0  0  0  0  0  0  0  0  0  0  0  # atno 6908 bound_to 6896
  152.5415  134.0523  159.8169 H   0  0  0  0  0  0  0  0  0  0  0  0  # atno 6909 bound_to 6896
  144.9146  139.5247  143.5692 H   0  0  0  0  0  0  0  0  0  0  0  0  # atno 7974 bound_to 7965
  154.8875  140.2982  155.5389 H   0  0  0  0  0  0  0  0  0  0  0  0  # atno 8008 bound_to 7997
  156.3021  140.2430  156.3821 H   0  0  0  0  0  0  0  0  0  0  0  0  # atno 8009 bound_to 7997
  154.8652  140.0403  157.1679 H   0  0  0  0  0  0  0  0  0  0  0  0  # atno 8010 bound_to 7997
  139.5046  144.3488  151.9943 H   0  0  0  0  0  0  0  0  0  0  0  0  # atno 10167 bound_to 10162
  156.8102  130.5422  149.5710 H   0  0  0  0  0  0  0  0  0  0  0  0  # atno 10718 bound_to 10713
  153.0588  135.5025  154.8045 H   0  0  0  0  0  0  0  0  0  0  0  0  # atno 10763 bound_to 10752
  154.6850  135.2974  154.9562 H   0  0  0  0  0  0  0  0  0  0  0  0  # atno 10764 bound_to 10752
  154.0336  135.6726  153.4836 H   0  0  0  0  0  0  0  0  0  0  0  0  # atno 10765 bound_to 10752
  139.8792  134.8883  156.3966 H   0  0  0  0  0  0  0  0  0  0  0  0  # atno 11005 bound_to 11000
  146.3175  139.7979  142.8971 LP  0  0  0  0  0  0  0  0  0  0  0  0  # atno 17320 bound_to 7965
  145.3397  141.0285  143.3400 LP  0  0  0  0  0  0  0  0  0  0  0  0  # atno 17321 bound_to 7965
  140.2925  144.3737  150.6084 LP  0  0  0  0  0  0  0  0  0  0  0  0  # atno 17342 bound_to 10162
  140.5935  143.2167  151.7207 LP  0  0  0  0  0  0  0  0  0  0  0  0  # atno 17343 bound_to 10162
  156.1049  130.5997  150.9954 LP  0  0  0  0  0  0  0  0  0  0  0  0  # atno 17370 bound_to 10713
  157.6509  131.0897  150.8052 LP  0  0  0  0  0  0  0  0  0  0  0  0  # atno 17371 bound_to 10713
  140.9296  133.7589  156.0007 LP  0  0  0  0  0  0  0  0  0  0  0  0  # atno 17394 bound_to 11000
  140.8346  134.3138  157.5336 LP  0  0  0  0  0  0  0  0  0  0  0  0  # atno 17395 bound_to 11000

$$$$
