AV-unprocessed.smi:1452|AV-procd|sdf|5909|dock10
  -GOLD-   22720 5593D 1   1.00000     0.00000
 Structure written by MMmdl.
 40 42  0  0  0  0  0  0  0  0  2 V2000
  144.7941  136.8344  152.5694 O   0  0  0  0  0  0  0  0  0  0  0  0
  145.9905  136.6113  152.3939 C   0  0  0  0  0  0  0  0  0  0  0  0
  146.4091  135.4854  151.7785 N   0  0  0  0  0  0  0  0  0  0  0  0
  145.6787  134.3885  151.2333 C   0  0  0  0  0  0  0  0  0  0  0  0
  146.4775  133.2992  150.8177 C   0  0  0  0  0  0  0  0  0  0  0  0
  145.8666  132.1653  150.2482 C   0  0  0  0  0  0  0  0  0  0  0  0
  144.4681  132.1499  150.1037 C   0  0  0  0  0  0  0  0  0  0  0  0
  143.7450  133.2756  150.5372 C   0  0  0  0  0  0  0  0  0  0  0  0
  144.3290  134.3634  151.0835 N   0  0  0  0  0  0  0  0  0  0  0  0
  146.9545  137.4568  152.7950 N   0  0  0  0  0  0  0  0  0  0  0  0
  146.7496  138.7059  153.5243 C   0  0  2  0  0  0  0  0  0  0  0  0
  146.5921  139.9219  152.5904 C   0  0  0  0  0  0  0  0  0  0  0  0
  147.4223  141.0288  153.2479 C   0  0  0  0  0  0  0  0  0  0  0  0
  148.5161  140.2857  153.8837 N   0  3  1  0  0  0  0  0  0  0  0  0
  149.3965  140.9994  154.8305 C   0  0  0  0  0  0  0  0  0  0  0  0
  150.5608  140.0620  155.2163 C   0  0  0  0  0  0  0  0  0  0  0  0
  150.0636  138.6880  155.7205 C   0  0  0  0  0  0  0  0  0  0  0  0
  149.0482  138.0537  154.7460 C   0  0  0  0  0  0  0  0  0  0  0  0
  147.9243  139.0674  154.4627 C   0  0  2  0  0  0  0  0  0  0  0  0
  147.4036  135.4476  151.6072 H   0  0  0  0  0  0  0  0  0  0  0  0
  147.5514  133.3273  150.9326 H   0  0  0  0  0  0  0  0  0  0  0  0
  146.4617  131.3234  149.9267 H   0  0  0  0  0  0  0  0  0  0  0  0
  143.9633  131.2989  149.6706 H   0  0  0  0  0  0  0  0  0  0  0  0
  142.6697  133.3054  150.4422 H   0  0  0  0  0  0  0  0  0  0  0  0
  147.9106  137.1921  152.6033 H   0  0  0  0  0  0  0  0  0  0  0  0
  145.8419  138.6263  154.1258 H   0  0  0  0  0  0  0  0  0  0  0  0
  147.0066  139.7000  151.6056 H   0  0  0  0  0  0  0  0  0  0  0  0
  145.5501  140.2117  152.4498 H   0  0  0  0  0  0  0  0  0  0  0  0
  147.7892  141.7631  152.5303 H   0  0  0  0  0  0  0  0  0  0  0  0
  146.8375  141.5474  154.0093 H   0  0  0  0  0  0  0  0  0  0  0  0
  149.7821  141.9062  154.3633 H   0  0  0  0  0  0  0  0  0  0  0  0
  148.8319  141.3038  155.7133 H   0  0  0  0  0  0  0  0  0  0  0  0
  151.1989  139.9095  154.3448 H   0  0  0  0  0  0  0  0  0  0  0  0
  151.1866  140.5347  155.9738 H   0  0  0  0  0  0  0  0  0  0  0  0
  150.9087  138.0154  155.8709 H   0  0  0  0  0  0  0  0  0  0  0  0
  149.5942  138.8128  156.6973 H   0  0  0  0  0  0  0  0  0  0  0  0
  149.5487  137.7694  153.8192 H   0  0  0  0  0  0  0  0  0  0  0  0
  148.6403  137.1407  155.1808 H   0  0  0  0  0  0  0  0  0  0  0  0
  147.4761  139.3449  155.4195 H   0  0  0  0  0  0  0  0  0  0  0  0
  149.1047  139.9737  153.1245 H   0  0  0  0  0  0  0  0  0  0  0  0
  1  2  2  0  0  0  0
  2  3  1  0  0  0  0
  2 10  1  0  0  0  0
  3  4  1  0  0  0  0
  3 20  1  0  0  0  0
  4  9  1  0  0  0  0
  4  5  2  0  0  0  0
  5  6  1  0  0  0  0
  5 21  1  0  0  0  0
  6  7  2  0  0  0  0
  6 22  1  0  0  0  0
  7  8  1  0  0  0  0
  7 23  1  0  0  0  0
  8  9  2  0  0  0  0
  8 24  1  0  0  0  0
 10 11  1  0  0  0  0
 10 25  1  0  0  0  0
 11 19  1  0  0  0  0
 11 12  1  0  0  0  0
 11 26  1  0  0  0  0
 12 13  1  0  0  0  0
 12 27  1  0  0  0  0
 12 28  1  0  0  0  0
 13 14  1  0  0  0  0
 13 29  1  0  0  0  0
 13 30  1  0  0  0  0
 14 19  1  0  0  0  0
 14 15  1  0  0  0  0
 14 40  1  0  0  0  0
 15 16  1  0  0  0  0
 15 31  1  0  0  0  0
 15 32  1  0  0  0  0
 16 17  1  0  0  0  0
 16 33  1  0  0  0  0
 16 34  1  0  0  0  0
 17 18  1  0  0  0  0
 17 35  1  0  0  0  0
 17 36  1  0  0  0  0
 18 19  1  0  0  0  0
 18 37  1  0  0  0  0
 18 38  1  0  0  0  0
 19 39  1  0  0  0  0
M  CHG  1  14   1
M  END
> <s_m_source_file>
AV-unprocessed.smi

> <i_m_source_file_index>
1452

> <i_lp_mmshare_version>
43012

> <i_f3d_flags>
0

> <s_epik_input>
W0NIMl0xW0NIMl1bQ0gyXVtDSDJdW0NASF0oTjEyKVtDQEBIXShbQ0gyXVtDSDJdMilbTkhdQyg9TylbTkhdYzNbY0hdW2NIXVtjSF1bY0hdbjM=

> <s_epik_cmdline>
J2VwaWtfcHl0aG9uJywgJy1waCcsICc3LjAnLCAnLXRuJywgJzgnLCAnLW1hJywgJzIwMCcsICctbWV0YWxfYmluZGluZycsICctaW1hZScsICc8aW5maWxlLm1hZT4nLCAnLW9tYWUnLCAnPG91dGZpbGUubWFlPic=

> <r_epik_Ionization_Penalty>
0.00100813

> <r_epik_Ionization_Penalty_Charging>
0.000974069

> <r_epik_Ionization_Penalty_Neutral>
3.40643e-05

> <r_epik_State_Penalty>
0.000633842

> <r_epik_Charging_Adjusted_Penalty>
0.00160791

> <i_epik_Tot_Q>
1

> <i_epik_Tot_abs_Q>
1

> <r_epik_Metal_State_Penalty>
-0

> <b_epik_Metal_Only>
0

> <s_lp_Force_Field>
OPLS_2005

> <r_lp_Energy>
45.6992

> <b_lp_Chiralities_Consistent>
1

> <s_lp_Variant>
AV-unprocessed.smi:1452-7

> <Gold.Version>
5.8.1

> <Gold.Id.Protein>
6NUR|6NUR_protein|mol2

> <Gold.PLP.Fitness>
41.0033

> <Gold.PLP.PLP>
-29.9756

> <Gold.PLP.part.hbond>
-2.8429

> <Gold.PLP.part.metal>
0.0000

> <Gold.PLP.part.buried>
0.6598

> <Gold.PLP.part.nonpolar>
-28.1676

> <Gold.PLP.part.repulsive>
0.5534

> <Gold.PLP.ligand.clash>
0.0000

> <Gold.PLP.ligand.torsion>
0.3904

> <Gold.PLP.Chemscore.Hbond>
2.9360

> <Gold.PLP.Chemscore.CHOScore>
1.0000

> <Gold.PLP.Chemscore.Metal>
0.0000

> <Gold.Chemscore.Hbonds>
donor molecule, donor type, donor heavy atom, donor atom, acceptor molecule, acceptor atom, score
      L1  H     3    20       P1  7948  0.96
      L1  H    10    25       P1  7948  0.99
      L1  H    14    40       P1  7957  0.99
      L1  C     8    24       P1 10186  1.00

> <Gold.PLP.Chemscore.Internal.Correction>
0.0006

> <Gold.Rescore>
     Score         DG    S(hbond)    S(metal)    S(lipo)     H(rot)  DE(clash)    DE(int)     intcor
     18.61     -21.71       2.74        0.00      82.50       1.00       1.49       1.61       ----

> <Gold.Chemscore.Fitness>
18.6065

> <Gold.Chemscore.DG>
-21.7088

> <Gold.Chemscore.ZeroCoef>
-5.4800

> <Gold.Chemscore.Hbond>
2.7354

> <Gold.Chemscore.Metal>
0.0000

> <Gold.Chemscore.Lipo>
82.5001

> <Gold.Chemscore.Internal_Hbond>
0.0000

> <Gold.Chemscore.DEClash>
1.4941

> <Gold.Chemscore.DEInternal>
1.6082

> <Gold.Chemscore.Rot>
1.0000

> <Gold.Chemscore.Internal.Correction>
   9.000000E+99

> <Gold.Chemscore.Hbonds>
donor molecule, donor type, donor heavy atom, donor atom, acceptor molecule, acceptor atom, score
      L1  H     3    20       P1  7948  0.88
      L1  H    10    25       P1  7948  0.93
      L1  H    14    40       P1  7957  0.88

> <Gold.Chemscore.Hbond.Weighted>
-9.1363

> <Gold.Chemscore.Metal.Weighted>
-0.0000

> <Gold.Chemscore.Lipo.Weighted>
-9.6525

> <Gold.Chemscore.Internal_Hbond.Weighted>
0.0000

> <Gold.Chemscore.DEClash.Weighted>
1.4941

> <Gold.Chemscore.DEInternal.Weighted>
1.6082

> <Gold.Chemscore.Rot.Weighted>
2.5600

> <Gold.Chemscore.Internal.Correction.Weighted>
   9.000000E+99

> <Gold.Protein.RotatedTorsions>
[ 6907 6896 6895 6894 ] final   -2.65 input  -60.11 | X-H torsion
[ 7974 7965 7964 7962 ] final   90.51 input  175.53 | X-H torsion
[ 8008 7997 7996 7995 ] final  169.52 input   59.86 | X-H torsion
[ 10167 10162 10161 10158 ] final  143.89 input  -65.29 | X-H torsion
[ 10718 10713 10712 10709 ] final  -86.10 input   66.30 | X-H torsion
[ 10763 10752 10751 10750 ] final  167.82 input  -60.55 | X-H torsion
[ 11005 11000 10999 10996 ] final  -75.03 input  -57.11 | X-H torsion

> <Gold.Protein.ActiveResidues>
 VAL166  LYS551  ARG553  GLY616  TRP617  ASP618  TYR619  PRO620  LYS621  CYS622 
 ASP623  PHE694  ASN695  SER759  ASP760  ASP761  ALA762  ILE779  LEU786  VAL792 
 PHE793  MET794  SER795  GLU796  ALA797  LYS798  CYS799  TRP800  GLU811  SER814 

> <Gold.Protein.RotatedAtoms>
  151.5265  135.1068  159.9891 H   0  0  0  0  0  0  0  0  0  0  0  0  # atno 6907 bound_to 6896
  152.4597  133.7793  159.6852 H   0  0  0  0  0  0  0  0  0  0  0  0  # atno 6908 bound_to 6896
  150.8555  133.7657  159.3035 H   0  0  0  0  0  0  0  0  0  0  0  0  # atno 6909 bound_to 6896
  145.5181  139.2278  143.2687 H   0  0  0  0  0  0  0  0  0  0  0  0  # atno 7974 bound_to 7965
  156.1450  140.1562  156.8861 H   0  0  0  0  0  0  0  0  0  0  0  0  # atno 8008 bound_to 7997
  154.5020  140.0823  156.7855 H   0  0  0  0  0  0  0  0  0  0  0  0  # atno 8009 bound_to 7997
  155.4006  140.3414  155.4259 H   0  0  0  0  0  0  0  0  0  0  0  0  # atno 8010 bound_to 7997
  139.4959  144.6009  151.6482 H   0  0  0  0  0  0  0  0  0  0  0  0  # atno 10167 bound_to 10162
  155.9992  130.4753  150.4663 H   0  0  0  0  0  0  0  0  0  0  0  0  # atno 10718 bound_to 10713
  154.3594  135.2753  155.2328 H   0  0  0  0  0  0  0  0  0  0  0  0  # atno 10763 bound_to 10752
  154.4523  135.5928  153.6203 H   0  0  0  0  0  0  0  0  0  0  0  0  # atno 10764 bound_to 10752
  152.9844  135.6045  154.3813 H   0  0  0  0  0  0  0  0  0  0  0  0  # atno 10765 bound_to 10752
  141.1641  133.6932  156.7454 H   0  0  0  0  0  0  0  0  0  0  0  0  # atno 11005 bound_to 11000
  146.2124  140.5991  142.9054 LP  0  0  0  0  0  0  0  0  0  0  0  0  # atno 17320 bound_to 7965
  144.7691  140.5597  143.6682 LP  0  0  0  0  0  0  0  0  0  0  0  0  # atno 17321 bound_to 7965
  140.5659  144.0191  150.6192 LP  0  0  0  0  0  0  0  0  0  0  0  0  # atno 17342 bound_to 10162
  140.3292  143.3088  152.0704 LP  0  0  0  0  0  0  0  0  0  0  0  0  # atno 17343 bound_to 10162
  157.2682  131.0581  151.2277 LP  0  0  0  0  0  0  0  0  0  0  0  0  # atno 17370 bound_to 10713
  157.3366  130.7012  149.6356 LP  0  0  0  0  0  0  0  0  0  0  0  0  # atno 17371 bound_to 10713
  140.2643  134.8442  157.3788 LP  0  0  0  0  0  0  0  0  0  0  0  0  # atno 17394 bound_to 11000
  140.1581  134.4763  155.7913 LP  0  0  0  0  0  0  0  0  0  0  0  0  # atno 17395 bound_to 11000

$$$$
