#       Name:                AV-unprocessed.smi:265
#       Creating user name   scv26
#       Creation time:       Thu Mar 26 21:21:44 2020


#       File generated by GOLD software.
#

@<TRIPOS>MOLECULE
AV-unprocessed.smi:265
    64    68     1
SMALL
NO_CHARGES


@<TRIPOS>ATOM
      1 ****        -3.2469   4.1985   3.1551 C.3            1 S1                 0.0000
      2 ****        -3.1821   3.3567   1.8713 C.3            1 S1                 0.0000
      3 ****        -4.4884   3.0040   1.4181 O.3            1 S1                 0.0000
      4 ****        -4.6038   3.2206   0.0164 C.3            1 S1                 0.0000
      5 ****        -3.1699   3.3150  -0.4943 C.3            1 S1                 0.0000
      6 ****        -2.4515   3.9905   0.6658 C.3            1 S1                 0.0000
      7 ****        -2.7123   5.3833   0.6091 O.3            1 S1                 0.0000
      8 ****        -0.9079   3.8454   0.6681 C.3            1 S1                 0.0000
      9 ****        -0.4173   2.4764   0.6423 N.pl3          1 S1                 0.0000
     10 ****        -0.1422   1.6761   1.7294 C.2            1 S1                 0.0000
     11 ****         0.3012   0.4817   1.4455 N.2            1 S1                 0.0000
     12 ****         0.3533   0.4653   0.0580 C.ar           1 S1                 0.0000
     13 ****         0.7499  -0.5005  -0.9024 C.ar           1 S1                 0.0000
     14 ****         1.1911  -1.7240  -0.5436 N.3            1 S1                 0.0000
     15 ****         0.2112  -2.7843  -0.7793 C.3            1 S1                 0.0000
     16 ****         0.6714  -4.1134  -0.1501 C.3            1 S1                 0.0000
     17 ****         2.0821  -4.4663  -0.6433 C.3            1 S1                 0.0000
     18 ****         2.5961  -5.6228  -0.0005 O.3            1 S1                 0.0000
     19 ****         3.8432  -6.0707  -0.5435 C.3            1 S1                 0.0000
     20 ****         4.8582  -4.9242  -0.7431 C.2            1 S1                 0.0000
     21 ****         6.0370  -5.1840  -0.9731 O.2            1 S1                 0.0000
     22 ****         4.4051  -3.6605  -0.6993 N.am           1 S1                 0.0000
     23 ****         3.0449  -3.3154  -0.3095 C.3            1 S1                 0.0000
     24 ****         2.5574  -2.0188  -0.9745 C.3            1 S1                 0.0000
     25 ****         0.6730  -0.1647  -2.2169 N.ar           1 S1                 0.0000
     26 ****         0.2364   1.0490  -2.5683 C.ar           1 S1                 0.0000
     27 ****        -0.1634   2.0528  -1.7833 N.ar           1 S1                 0.0000
     28 ****        -0.0892   1.7120  -0.4641 C.ar           1 S1                 0.0000
     29 ****         2.0443  -4.6368  -1.7217 H              1 S1                 0.0000
     30 ****         3.0582  -3.1659   0.7718 H              1 S1                 0.0000
     31 ****        -2.2477   4.4695   3.4963 H              1 S1                 0.0000
     32 ****        -3.7308   3.6412   3.9572 H              1 S1                 0.0000
     33 ****        -3.8147   5.1175   3.0075 H              1 S1                 0.0000
     34 ****        -2.7123   2.4055   2.1159 H              1 S1                 0.0000
     35 ****        -5.1691   2.4230  -0.4657 H              1 S1                 0.0000
     36 ****        -5.1329   4.1596  -0.1515 H              1 S1                 0.0000
     37 ****        -2.7950   2.3040  -0.6513 H              1 S1                 0.0000
     38 ****        -3.0836   3.8540  -1.4385 H              1 S1                 0.0000
     39 ****        -2.3370   5.7266  -0.1872 H              1 S1                 0.0000
     40 ****        -0.4860   4.3656  -0.1933 H              1 S1                 0.0000
     41 ****        -0.4902   4.3351   1.5489 H              1 S1                 0.0000
     42 ****        -0.2867   2.0076   2.7476 H              1 S1                 0.0000
     43 ****        -0.7554  -2.4945  -0.3647 H              1 S1                 0.0000
     44 ****         0.0712  -2.9128  -1.8537 H              1 S1                 0.0000
     45 ****         0.6703  -4.0244   0.9371 H              1 S1                 0.0000
     46 ****        -0.0286  -4.9108  -0.4001 H              1 S1                 0.0000
     47 ****         4.2664  -6.8262   0.1187 H              1 S1                 0.0000
     48 ****         3.6638  -6.5503  -1.5065 H              1 S1                 0.0000
     49 ****         5.0546  -2.9046  -0.8615 H              1 S1                 0.0000
     50 ****         2.5891  -2.1176  -2.0607 H              1 S1                 0.0000
     51 ****         3.2137  -1.1899  -0.7052 H              1 S1                 0.0000
     52 ****         0.2036   1.2445  -3.6302 H              1 S1                 0.0000
     53 ****        -5.1650   3.5652   1.8948 LP             1 S1                 0.0000
     54 ****        -4.6565   2.0385   1.6170 LP             1 S1                 0.0000
     55 ****        -2.2993   5.8363   1.3992 LP             1 S1                 0.0000
     56 ****        -3.6997   5.5420   0.6124 LP             1 S1                 0.0000
     57 ****         0.5464  -0.2513   2.0799 LP             1 S1                 0.0000
     58 ****         1.2776  -1.6970   0.4523 LP             1 S1                 0.0000
     59 ****         1.9272  -6.3604  -0.0934 LP             1 S1                 0.0000
     60 ****         2.7293  -5.4138   0.9683 LP             1 S1                 0.0000
     61 ****         6.3371  -6.1361  -1.0306 LP             1 S1                 0.0000
     62 ****         6.6961  -4.4432  -1.1027 LP             1 S1                 0.0000
     63 ****         0.9422  -0.8235  -2.9193 LP             1 S1                 0.0000
     64 ****        -0.4771   2.9409  -2.1194 LP             1 S1                 0.0000
@<TRIPOS>BOND
    1    1    2 1     
    2    1   31 1     
    3    1   32 1     
    4    1   33 1     
    5    2    6 1     
    6    2    3 1     
    7    2   34 1     
    8    3    4 1     
    9    4    5 1     
   10    4   35 1     
   11    4   36 1     
   12    5    6 1     
   13    5   37 1     
   14    5   38 1     
   15    6    7 1     
   16    6    8 1     
   17    7   39 1     
   18    8    9 1     
   19    8   40 1     
   20    8   41 1     
   21    9   28 1     
   22    9   10 1     
   23   10   11 2     
   24   10   42 1     
   25   11   12 1     
   26   12   28 ar    
   27   12   13 ar    
   28   13   14 1     
   29   13   25 ar    
   30   14   24 1     
   31   14   15 1     
   32   15   16 1     
   33   15   43 1     
   34   15   44 1     
   35   16   17 1     
   36   16   45 1     
   37   16   46 1     
   38   17   29 1     
   39   17   23 1     
   40   17   18 1     
   41   18   19 1     
   42   19   20 1     
   43   19   47 1     
   44   19   48 1     
   45   20   21 2     
   46   20   22 am    
   47   22   23 1     
   48   22   49 1     
   49   23   30 1     
   50   23   24 1     
   51   24   50 1     
   52   24   51 1     
   53   25   26 ar    
   54   26   27 ar    
   55   26   52 1     
   56   27   28 ar    
   57    3   53 1     
   58    3   54 1     
   59    7   55 1     
   60    7   56 1     
   61   11   57 1     
   62   14   58 1     
   63   18   59 1     
   64   18   60 1     
   65   21   61 1     
   66   21   62 1     
   67   25   63 1     
   68   27   64 1     
@<TRIPOS>SUBSTRUCTURE
      1 S1             1
@<TRIPOS>SET
LONE_PAIRS      STATIC     ATOMS    <user>   **** ""
12 53 54 55 56 57 58 59 60 61 62 63 64
DONOR_HYDROGENS      STATIC     ATOMS    <user>   **** ""
2 39 49
ATOM$BLUE        STATIC     ATOMS    COLORGROUP SYSTEM
12 53 54 55 56 57 58 59 60 61 62 63 64
ATOM$RED        STATIC     ATOMS    COLORGROUP SYSTEM
2 39 49
