AV-unprocessed.smi:2510|AV-procd|sdf|9874|dock7
  -GOLD-   2272013503D 1   1.00000     0.00000
 Structure written by MMmdl.
 48 49  0  0  0  0  0  0  0  0  1 V2000
  149.3686  138.1569  157.1764 C   0  0  0  0  0  0  0  0  0  0  0  0
  148.8124  138.2523  155.7460 C   0  0  0  0  0  0  0  0  0  0  0  0
  148.9316  139.6296  155.0327 C   0  0  0  0  0  0  0  0  0  0  0  0
  150.4464  139.9094  154.8742 C   0  0  0  0  0  0  0  0  0  0  0  0
  151.2743  138.7216  154.3520 C   0  0  0  0  0  0  0  0  0  0  0  0
  148.1187  139.8660  153.7234 C   0  0  1  0  0  0  0  0  0  0  0  0
  146.9005  139.0613  153.6176 N   0  0  0  0  0  0  0  0  0  0  0  0
  146.4657  138.4821  152.4879 C   0  0  0  0  0  0  0  0  0  0  0  0
  147.0606  138.5623  151.4133 O   0  0  0  0  0  0  0  0  0  0  0  0
  145.1619  137.6886  152.5826 C   0  0  0  0  0  0  0  0  0  0  0  0
  145.3904  136.2591  152.1691 C   0  0  0  0  0  0  0  0  0  0  0  0
  144.8279  135.5639  151.0574 C   0  0  0  0  0  0  0  0  0  0  0  0
  145.3693  134.3116  151.1315 C   0  0  0  0  0  0  0  0  0  0  0  0
  145.2016  133.1116  150.2630 C   0  0  0  0  0  0  0  0  0  0  0  0
  146.1879  134.3121  152.2370 N   0  0  0  0  0  0  0  0  0  0  0  0
  146.2075  135.4942  152.8804 N   0  0  0  0  0  0  0  0  0  0  0  0
  147.8235  141.3071  154.1775 C   0  0  1  0  0  0  0  0  0  0  0  0
  146.4866  141.9657  153.8445 C   0  0  0  0  0  0  0  0  0  0  0  0
  148.1058  140.8177  155.6053 C   0  0  2  0  0  0  0  0  0  0  0  0
  148.8892  141.6931  156.4037 O   0  0  0  0  0  0  0  0  0  0  0  0
  149.2463  141.1395  157.6582 C   0  0  0  0  0  0  0  0  0  0  0  0
  146.7306  133.5237  152.5603 H   0  0  0  0  0  0  0  0  0  0  0  0
  149.1748  137.1695  157.5959 H   0  0  0  0  0  0  0  0  0  0  0  0
  148.9154  138.8870  157.8443 H   0  0  0  0  0  0  0  0  0  0  0  0
  150.4482  138.3071  157.1926 H   0  0  0  0  0  0  0  0  0  0  0  0
  149.3228  137.4781  155.1721 H   0  0  0  0  0  0  0  0  0  0  0  0
  147.7678  137.9409  155.7637 H   0  0  0  0  0  0  0  0  0  0  0  0
  150.6072  140.7454  154.1936 H   0  0  0  0  0  0  0  0  0  0  0  0
  150.8687  140.2409  155.8236 H   0  0  0  0  0  0  0  0  0  0  0  0
  152.3196  139.0082  154.2361 H   0  0  0  0  0  0  0  0  0  0  0  0
  150.9225  138.3771  153.3801 H   0  0  0  0  0  0  0  0  0  0  0  0
  151.2466  137.8738  155.0361 H   0  0  0  0  0  0  0  0  0  0  0  0
  148.7230  139.8547  152.8155 H   0  0  0  0  0  0  0  0  0  0  0  0
  146.3537  138.9396  154.4579 H   0  0  0  0  0  0  0  0  0  0  0  0
  144.7783  137.7494  153.6022 H   0  0  0  0  0  0  0  0  0  0  0  0
  144.4104  138.1495  151.9406 H   0  0  0  0  0  0  0  0  0  0  0  0
  144.1384  135.9351  150.3135 H   0  0  0  0  0  0  0  0  0  0  0  0
  144.3462  133.2294  149.5974 H   0  0  0  0  0  0  0  0  0  0  0  0
  145.0409  132.2151  150.8624 H   0  0  0  0  0  0  0  0  0  0  0  0
  146.0876  132.9544  149.6476 H   0  0  0  0  0  0  0  0  0  0  0  0
  148.6441  141.9453  153.8457 H   0  0  0  0  0  0  0  0  0  0  0  0
  145.6518  141.4509  154.3208 H   0  0  0  0  0  0  0  0  0  0  0  0
  146.3058  141.9640  152.7694 H   0  0  0  0  0  0  0  0  0  0  0  0
  146.4616  143.0028  154.1775 H   0  0  0  0  0  0  0  0  0  0  0  0
  147.1824  140.5187  156.1020 H   0  0  0  0  0  0  0  0  0  0  0  0
  149.8883  141.8380  158.1947 H   0  0  0  0  0  0  0  0  0  0  0  0
  149.7944  140.2041  157.5372 H   0  0  0  0  0  0  0  0  0  0  0  0
  148.3676  140.9550  158.2759 H   0  0  0  0  0  0  0  0  0  0  0  0
  1  2  1  0  0  0  0
  1 23  1  0  0  0  0
  1 24  1  0  0  0  0
  1 25  1  0  0  0  0
  2  3  1  0  0  0  0
  2 26  1  0  0  0  0
  2 27  1  0  0  0  0
  3 19  1  0  0  0  0
  3  4  1  0  0  0  0
  3  6  1  0  0  0  0
  4  5  1  0  0  0  0
  4 28  1  0  0  0  0
  4 29  1  0  0  0  0
  5 30  1  0  0  0  0
  5 31  1  0  0  0  0
  5 32  1  0  0  0  0
  6  7  1  0  0  0  0
  6 17  1  0  0  0  0
  6 33  1  0  0  0  0
  7  8  1  0  0  0  0
  7 34  1  0  0  0  0
  8  9  2  0  0  0  0
  8 10  1  0  0  0  0
 10 11  1  0  0  0  0
 10 35  1  0  0  0  0
 10 36  1  0  0  0  0
 11 16  2  0  0  0  0
 11 12  1  0  0  0  0
 12 13  2  0  0  0  0
 12 37  1  0  0  0  0
 13 14  1  0  0  0  0
 13 15  1  0  0  0  0
 14 38  1  0  0  0  0
 14 39  1  0  0  0  0
 14 40  1  0  0  0  0
 15 22  1  0  0  0  0
 15 16  1  0  0  0  0
 17 18  1  0  0  0  0
 17 19  1  0  0  0  0
 17 41  1  0  0  0  0
 18 42  1  0  0  0  0
 18 43  1  0  0  0  0
 18 44  1  0  0  0  0
 19 20  1  0  0  0  0
 19 45  1  0  0  0  0
 20 21  1  0  0  0  0
 21 46  1  0  0  0  0
 21 47  1  0  0  0  0
 21 48  1  0  0  0  0
M  END
> <s_m_source_file>
AV-unprocessed.smi

> <i_m_source_file_index>
2510

> <i_lp_mmshare_version>
43012

> <i_f3d_flags>
0

> <s_epik_input>
W0NIM11PW0NAQEhdMVtDQEhdKFtDSDNdKVtDQEBIXShDMShbQ0gyXVtDSDNdKVtDSDJdW0NIM10pW05IXUMoPU8pW0NIMl1jMltjSF1jKFtDSDNdKVtuSF1uMg==

> <s_epik_cmdline>
J2VwaWtfcHl0aG9uJywgJy1waCcsICc3LjAnLCAnLXRuJywgJzgnLCAnLW1hJywgJzIwMCcsICctbWV0YWxfYmluZGluZycsICctaW1hZScsICc8aW5maWxlLm1hZT4nLCAnLW9tYWUnLCAnPG91dGZpbGUubWFlPic=

> <r_lp_tautomer_probability>
0.5

> <r_epik_Ionization_Penalty>
9.73156e-05

> <r_epik_Ionization_Penalty_Charging>
0

> <r_epik_Ionization_Penalty_Neutral>
9.73156e-05

> <r_epik_State_Penalty>
0.41068

> <r_epik_Charging_Adjusted_Penalty>
0.41068

> <i_epik_Tot_Q>
0

> <i_epik_Tot_abs_Q>
0

> <r_epik_Metal_State_Penalty>
0.410699

> <b_epik_Metal_Only>
0

> <s_lp_Force_Field>
OPLS_2005

> <r_lp_Energy>
25.9502

> <b_lp_Chiralities_Consistent>
1

> <s_lp_Variant>
AV-unprocessed.smi:2510-5

> <Gold.Version>
5.8.1

> <Gold.Id.Protein>
6NUR|6NUR_protein|mol2

> <Gold.PLP.Fitness>
31.4997

> <Gold.PLP.PLP>
-28.8723

> <Gold.PLP.part.hbond>
-1.0000

> <Gold.PLP.part.metal>
0.0000

> <Gold.PLP.part.buried>
-2.7773

> <Gold.PLP.part.nonpolar>
-27.6105

> <Gold.PLP.part.repulsive>
3.9449

> <Gold.PLP.ligand.clash>
0.0000

> <Gold.PLP.ligand.torsion>
0.4644

> <Gold.PLP.Chemscore.Hbond>
1.0000

> <Gold.PLP.Chemscore.CHOScore>
0.0000

> <Gold.PLP.Chemscore.Metal>
0.0000

> <Gold.Chemscore.Hbonds>
donor molecule, donor type, donor heavy atom, donor atom, acceptor molecule, acceptor atom, score
      P1  H  7954  7966       L1     9  1.00

> <Gold.PLP.Chemscore.Internal.Correction>
0.5563

> <Gold.Rescore>
     Score         DG    S(hbond)    S(metal)    S(lipo)     H(rot)  DE(clash)    DE(int)     intcor
     11.26     -13.24       0.99        0.00      77.59       1.81       1.62       0.36       ----

> <Gold.Chemscore.Fitness>
11.2550

> <Gold.Chemscore.DG>
-13.2397

> <Gold.Chemscore.ZeroCoef>
-5.4800

> <Gold.Chemscore.Hbond>
0.9928

> <Gold.Chemscore.Metal>
0.0000

> <Gold.Chemscore.Lipo>
77.5870

> <Gold.Chemscore.Internal_Hbond>
0.0000

> <Gold.Chemscore.DEClash>
1.6242

> <Gold.Chemscore.DEInternal>
0.3605

> <Gold.Chemscore.Rot>
1.8102

> <Gold.Chemscore.Internal.Correction>
   9.000000E+99

> <Gold.Chemscore.Hbonds>
donor molecule, donor type, donor heavy atom, donor atom, acceptor molecule, acceptor atom, score
      P1  H  7954  7966       L1     9  0.94

> <Gold.Chemscore.Hbond.Weighted>
-3.3161

> <Gold.Chemscore.Metal.Weighted>
-0.0000

> <Gold.Chemscore.Lipo.Weighted>
-9.0777

> <Gold.Chemscore.Internal_Hbond.Weighted>
0.0000

> <Gold.Chemscore.DEClash.Weighted>
1.6242

> <Gold.Chemscore.DEInternal.Weighted>
0.3605

> <Gold.Chemscore.Rot.Weighted>
4.6341

> <Gold.Chemscore.Internal.Correction.Weighted>
   9.000000E+99

> <Gold.Protein.RotatedTorsions>
[ 6907 6896 6895 6894 ] final  -23.13 input  -60.11 | X-H torsion
[ 7974 7965 7964 7962 ] final -105.98 input  175.53 | X-H torsion
[ 8008 7997 7996 7995 ] final   42.38 input   59.86 | X-H torsion
[ 10167 10162 10161 10158 ] final -126.17 input  -65.29 | X-H torsion
[ 10718 10713 10712 10709 ] final -118.31 input   66.30 | X-H torsion
[ 10763 10752 10751 10750 ] final   11.44 input  -60.55 | X-H torsion
[ 11005 11000 10999 10996 ] final -159.64 input  -57.11 | X-H torsion

> <Gold.Protein.ActiveResidues>
 VAL166  LYS551  ARG553  GLY616  TRP617  ASP618  TYR619  PRO620  LYS621  CYS622 
 ASP623  PHE694  ASN695  SER759  ASP760  ASP761  ALA762  ILE779  LEU786  VAL792 
 PHE793  MET794  SER795  GLU796  ALA797  LYS798  CYS799  TRP800  GLU811  SER814 

> <Gold.Protein.RotatedAtoms>
  151.2085  135.0471  159.8901 H   0  0  0  0  0  0  0  0  0  0  0  0  # atno 6907 bound_to 6896
  152.5427  134.0771  159.8229 H   0  0  0  0  0  0  0  0  0  0  0  0  # atno 6908 bound_to 6896
  151.0921  133.5260  159.2646 H   0  0  0  0  0  0  0  0  0  0  0  0  # atno 6909 bound_to 6896
  145.2236  140.9144  143.3245 H   0  0  0  0  0  0  0  0  0  0  0  0  # atno 7974 bound_to 7965
  155.2852  140.3375  155.4256 H   0  0  0  0  0  0  0  0  0  0  0  0  # atno 8008 bound_to 7997
  156.2071  140.1755  156.7816 H   0  0  0  0  0  0  0  0  0  0  0  0  # atno 8009 bound_to 7997
  154.5636  140.0683  156.8841 H   0  0  0  0  0  0  0  0  0  0  0  0  # atno 8010 bound_to 7997
  139.9743  143.5811  152.2401 H   0  0  0  0  0  0  0  0  0  0  0  0  # atno 10167 bound_to 10162
  156.1097  130.6239  150.9275 H   0  0  0  0  0  0  0  0  0  0  0  0  # atno 10718 bound_to 10713
  153.1926  135.6844  153.8333 H   0  0  0  0  0  0  0  0  0  0  0  0  # atno 10763 bound_to 10752
  153.7627  135.3207  155.3341 H   0  0  0  0  0  0  0  0  0  0  0  0  # atno 10764 bound_to 10752
  154.8126  135.4707  154.0655 H   0  0  0  0  0  0  0  0  0  0  0  0  # atno 10765 bound_to 10752
  140.6404  134.4557  157.5233 H   0  0  0  0  0  0  0  0  0  0  0  0  # atno 11005 bound_to 11000
  144.9742  139.3849  143.6294 LP  0  0  0  0  0  0  0  0  0  0  0  0  # atno 17320 bound_to 7965
  146.3370  139.8853  142.8817 LP  0  0  0  0  0  0  0  0  0  0  0  0  # atno 17321 bound_to 7965
  139.6457  144.7658  151.2248 LP  0  0  0  0  0  0  0  0  0  0  0  0  # atno 17342 bound_to 10162
  140.7511  143.6243  150.8484 LP  0  0  0  0  0  0  0  0  0  0  0  0  # atno 17343 bound_to 10162
  157.6277  131.0924  150.8501 LP  0  0  0  0  0  0  0  0  0  0  0  0  # atno 17370 bound_to 10713
  156.8614  130.5114  149.5303 LP  0  0  0  0  0  0  0  0  0  0  0  0  # atno 17371 bound_to 10713
  139.9082  134.8402  156.1625 LP  0  0  0  0  0  0  0  0  0  0  0  0  # atno 17394 bound_to 11000
  141.0611  133.6841  156.1954 LP  0  0  0  0  0  0  0  0  0  0  0  0  # atno 17395 bound_to 11000

$$$$
