AV-unprocessed.smi:858|AV-procd|sdf|3962|dock2
  -GOLD-   22720 1433D 1   1.00000     0.00000
 Structure written by MMmdl.
 44 45  0  0  0  0  0  0  0  0  1 V2000
  150.9401  141.2666  156.0387 C   0  0  0  0  0  0  0  0  0  0  0  0
  151.7037  139.9430  156.1420 C   0  0  0  0  0  0  0  0  0  0  0  0
  152.5320  139.8205  157.0452 O   0  0  0  0  0  0  0  0  0  0  0  0
  151.4505  138.9571  155.2467 N   0  0  0  0  0  0  0  0  0  0  0  0
  152.1630  137.6801  155.3473 C   0  0  0  0  0  0  0  0  0  0  0  0
  150.4811  139.0771  154.1451 C   0  0  0  0  0  0  0  0  0  0  0  0
  149.0412  138.7410  154.5577 C   0  0  0  0  0  0  0  0  0  0  0  0
  148.7858  138.3413  155.6946 O   0  0  0  0  0  0  0  0  0  0  0  0
  148.1078  138.8964  153.6065 N   0  0  0  0  0  0  0  0  0  0  0  0
  146.6876  138.6073  153.7676 C   0  0  0  0  0  0  0  0  0  0  0  0
  146.2798  137.3164  153.0821 C   0  0  0  0  0  0  0  0  0  0  0  0
  146.7251  136.0695  153.5618 C   0  0  0  0  0  0  0  0  0  0  0  0
  146.3077  134.8974  152.9029 C   0  0  0  0  0  0  0  0  0  0  0  0
  145.4510  135.0037  151.7812 C   0  0  0  0  0  0  0  0  0  0  0  0
  145.0162  133.8407  151.1103 N   0  0  0  0  0  0  0  0  0  0  0  0
  144.2263  134.0673  149.9029 C   0  0  0  0  0  0  0  0  0  0  0  0
  144.0804  132.7594  149.1057 C   0  0  0  0  0  0  0  0  0  0  0  0
  143.5379  131.7419  149.9410 O   0  0  0  0  0  0  0  0  0  0  0  0
  144.3830  131.4617  151.0519 C   0  0  0  0  0  0  0  0  0  0  0  0
  144.5328  132.7232  151.9188 C   0  0  0  0  0  0  0  0  0  0  0  0
  145.0202  136.2072  151.3279 N   0  0  0  0  0  0  0  0  0  0  0  0
  145.4269  137.3279  151.9605 C   0  0  0  0  0  0  0  0  0  0  0  0
  151.1977  141.7918  155.1190 H   0  0  0  0  0  0  0  0  0  0  0  0
  151.1932  141.9199  156.8747 H   0  0  0  0  0  0  0  0  0  0  0  0
  149.8629  141.1025  156.0629 H   0  0  0  0  0  0  0  0  0  0  0  0
  153.2065  137.8028  155.0540 H   0  0  0  0  0  0  0  0  0  0  0  0
  151.7234  136.9139  154.7075 H   0  0  0  0  0  0  0  0  0  0  0  0
  152.1370  137.2929  156.3675 H   0  0  0  0  0  0  0  0  0  0  0  0
  150.5127  140.0740  153.7039 H   0  0  0  0  0  0  0  0  0  0  0  0
  150.7628  138.4047  153.3337 H   0  0  0  0  0  0  0  0  0  0  0  0
  148.4051  139.2271  152.6998 H   0  0  0  0  0  0  0  0  0  0  0  0
  146.4174  138.5663  154.8244 H   0  0  0  0  0  0  0  0  0  0  0  0
  146.1192  139.4344  153.3412 H   0  0  0  0  0  0  0  0  0  0  0  0
  147.3723  136.0089  154.4244 H   0  0  0  0  0  0  0  0  0  0  0  0
  146.6321  133.9363  153.2729 H   0  0  0  0  0  0  0  0  0  0  0  0
  143.2423  134.4387  150.1922 H   0  0  0  0  0  0  0  0  0  0  0  0
  144.6755  134.8256  149.2630 H   0  0  0  0  0  0  0  0  0  0  0  0
  143.4156  132.9110  148.2552 H   0  0  0  0  0  0  0  0  0  0  0  0
  145.0432  132.4399  148.7038 H   0  0  0  0  0  0  0  0  0  0  0  0
  143.9445  130.6537  151.6376 H   0  0  0  0  0  0  0  0  0  0  0  0
  145.3561  131.1111  150.7038 H   0  0  0  0  0  0  0  0  0  0  0  0
  145.2267  132.5208  152.7356 H   0  0  0  0  0  0  0  0  0  0  0  0
  143.5720  132.9869  152.3631 H   0  0  0  0  0  0  0  0  0  0  0  0
  145.0547  138.2603  151.5621 H   0  0  0  0  0  0  0  0  0  0  0  0
  1  2  1  0  0  0  0
  1 23  1  0  0  0  0
  1 24  1  0  0  0  0
  1 25  1  0  0  0  0
  2  3  2  0  0  0  0
  2  4  1  0  0  0  0
  4  5  1  0  0  0  0
  4  6  1  0  0  0  0
  5 26  1  0  0  0  0
  5 27  1  0  0  0  0
  5 28  1  0  0  0  0
  6  7  1  0  0  0  0
  6 29  1  0  0  0  0
  6 30  1  0  0  0  0
  7  8  2  0  0  0  0
  7  9  1  0  0  0  0
  9 10  1  0  0  0  0
  9 31  1  0  0  0  0
 10 11  1  0  0  0  0
 10 32  1  0  0  0  0
 10 33  1  0  0  0  0
 11 22  1  0  0  0  0
 11 12  2  0  0  0  0
 12 13  1  0  0  0  0
 12 34  1  0  0  0  0
 13 14  2  0  0  0  0
 13 35  1  0  0  0  0
 14 15  1  0  0  0  0
 14 21  1  0  0  0  0
 15 20  1  0  0  0  0
 15 16  1  0  0  0  0
 16 17  1  0  0  0  0
 16 36  1  0  0  0  0
 16 37  1  0  0  0  0
 17 18  1  0  0  0  0
 17 38  1  0  0  0  0
 17 39  1  0  0  0  0
 18 19  1  0  0  0  0
 19 20  1  0  0  0  0
 19 40  1  0  0  0  0
 19 41  1  0  0  0  0
 20 42  1  0  0  0  0
 20 43  1  0  0  0  0
 21 22  2  0  0  0  0
 22 44  1  0  0  0  0
M  END
> <s_m_source_file>
AV-unprocessed.smi

> <i_m_source_file_index>
858

> <i_lp_mmshare_version>
43012

> <i_f3d_flags>
0

> <s_epik_input>
W0NIM11DKD1PKU4oW0NIM10pW0NIMl1DKD1PKVtOSF1bQ0gyXWMxW2NIXVtjSF1jKG5bY0hdMSlOMltDSDJdW0NIMl1PW0NIMl1bQ0gyXTI=

> <s_epik_cmdline>
J2VwaWtfcHl0aG9uJywgJy1waCcsICc3LjAnLCAnLXRuJywgJzgnLCAnLW1hJywgJzIwMCcsICctbWV0YWxfYmluZGluZycsICctaW1hZScsICc8aW5maWxlLm1hZT4nLCAnLW9tYWUnLCAnPG91dGZpbGUubWFlPic=

> <r_lp_tautomer_probability>
1

> <r_epik_Ionization_Penalty>
0.00462928

> <r_epik_Ionization_Penalty_Charging>
0

> <r_epik_Ionization_Penalty_Neutral>
0.00462928

> <r_epik_State_Penalty>
0.00334737

> <r_epik_Charging_Adjusted_Penalty>
0.00334737

> <i_epik_Tot_Q>
0

> <i_epik_Tot_abs_Q>
0

> <r_epik_Metal_State_Penalty>
-0

> <b_epik_Metal_Only>
0

> <s_lp_Force_Field>
OPLS_2005

> <r_lp_Energy>
20.1823

> <b_lp_Chiralities_Consistent>
1

> <s_lp_Variant>
AV-unprocessed.smi:858-1

> <Gold.Version>
5.8.1

> <Gold.Id.Protein>
6NUR|6NUR_protein|mol2

> <Gold.PLP.Fitness>
41.6103

> <Gold.PLP.PLP>
-29.3852

> <Gold.PLP.part.hbond>
-3.0668

> <Gold.PLP.part.metal>
0.0000

> <Gold.PLP.part.buried>
4.7118

> <Gold.PLP.part.nonpolar>
-31.1666

> <Gold.PLP.part.repulsive>
1.6285

> <Gold.PLP.ligand.clash>
0.0000

> <Gold.PLP.ligand.torsion>
0.7139

> <Gold.PLP.Chemscore.Hbond>
2.9100

> <Gold.PLP.Chemscore.CHOScore>
1.5178

> <Gold.PLP.Chemscore.Metal>
0.0000

> <Gold.Chemscore.Hbonds>
donor molecule, donor type, donor heavy atom, donor atom, acceptor molecule, acceptor atom, score
      L1  H     9    31       P1  7957  0.81
      P1  H  7997  8009       L1     3  1.00
      P1  H 10785 10796       L1    18  0.98
      L1  C    22    44       P1 10171  0.99
      L1  C    22    44       P1 10175  0.50

> <Gold.PLP.Chemscore.Internal.Correction>
0.3697

> <Gold.Rescore>
     Score         DG    S(hbond)    S(metal)    S(lipo)     H(rot)  DE(clash)    DE(int)     intcor
     13.66     -16.90       2.18        0.00      78.98       2.00       2.50       0.75       ----

> <Gold.Chemscore.Fitness>
13.6557

> <Gold.Chemscore.DG>
-16.9031

> <Gold.Chemscore.ZeroCoef>
-5.4800

> <Gold.Chemscore.Hbond>
2.1829

> <Gold.Chemscore.Metal>
0.0000

> <Gold.Chemscore.Lipo>
78.9818

> <Gold.Chemscore.Internal_Hbond>
0.0000

> <Gold.Chemscore.DEClash>
2.5024

> <Gold.Chemscore.DEInternal>
0.7450

> <Gold.Chemscore.Rot>
1.9956

> <Gold.Chemscore.Internal.Correction>
   9.000000E+99

> <Gold.Chemscore.Hbonds>
donor molecule, donor type, donor heavy atom, donor atom, acceptor molecule, acceptor atom, score
      L1  H     9    31       P1  7957  0.80
      P1  H  7997  8009       L1     3  0.80
      P1  H 10785 10796       L1    18  0.45

> <Gold.Chemscore.Hbond.Weighted>
-7.2909

> <Gold.Chemscore.Metal.Weighted>
-0.0000

> <Gold.Chemscore.Lipo.Weighted>
-9.2409

> <Gold.Chemscore.Internal_Hbond.Weighted>
0.0000

> <Gold.Chemscore.DEClash.Weighted>
2.5024

> <Gold.Chemscore.DEInternal.Weighted>
0.7450

> <Gold.Chemscore.Rot.Weighted>
5.1087

> <Gold.Chemscore.Internal.Correction.Weighted>
   9.000000E+99

> <Gold.Protein.RotatedTorsions>
[ 6907 6896 6895 6894 ] final  -91.82 input  -60.11 | X-H torsion
[ 7974 7965 7964 7962 ] final   55.30 input  175.53 | X-H torsion
[ 8008 7997 7996 7995 ] final -165.18 input   59.86 | X-H torsion
[ 10167 10162 10161 10158 ] final   -3.24 input  -65.29 | X-H torsion
[ 10718 10713 10712 10709 ] final -117.35 input   66.30 | X-H torsion
[ 10763 10752 10751 10750 ] final  162.94 input  -60.55 | X-H torsion
[ 11005 11000 10999 10996 ] final  -99.79 input  -57.11 | X-H torsion

> <Gold.Protein.ActiveResidues>
 VAL166  LYS551  ARG553  GLY616  TRP617  ASP618  TYR619  PRO620  LYS621  CYS622 
 ASP623  PHE694  ASN695  SER759  ASP760  ASP761  ALA762  ILE779  LEU786  VAL792 
 PHE793  MET794  SER795  GLU796  ALA797  LYS798  CYS799  TRP800  GLU811  SER814 

> <Gold.Protein.RotatedAtoms>
  150.6897  134.2217  159.4399 H   0  0  0  0  0  0  0  0  0  0  0  0  # atno 6907 bound_to 6896
  152.0173  134.9840  160.0579 H   0  0  0  0  0  0  0  0  0  0  0  0  # atno 6908 bound_to 6896
  152.1431  133.4441  159.4813 H   0  0  0  0  0  0  0  0  0  0  0  0  # atno 6909 bound_to 6896
  145.9518  139.3979  143.0301 H   0  0  0  0  0  0  0  0  0  0  0  0  # atno 7974 bound_to 7965
  155.8461  140.0956  157.1704 H   0  0  0  0  0  0  0  0  0  0  0  0  # atno 8008 bound_to 7997
  154.3983  140.1392  156.3849 H   0  0  0  0  0  0  0  0  0  0  0  0  # atno 8009 bound_to 7997
  155.8011  140.3453  155.5406 H   0  0  0  0  0  0  0  0  0  0  0  0  # atno 8010 bound_to 7997
  140.6882  143.6563  150.8306 H   0  0  0  0  0  0  0  0  0  0  0  0  # atno 10167 bound_to 10162
  156.1027  130.6185  150.9152 H   0  0  0  0  0  0  0  0  0  0  0  0  # atno 10718 bound_to 10713
  154.2861  135.2762  155.2676 H   0  0  0  0  0  0  0  0  0  0  0  0  # atno 10763 bound_to 10752
  154.5175  135.5765  153.6658 H   0  0  0  0  0  0  0  0  0  0  0  0  # atno 10764 bound_to 10752
  152.9921  135.6196  154.3023 H   0  0  0  0  0  0  0  0  0  0  0  0  # atno 10765 bound_to 10752
  141.1295  133.8348  157.1017 H   0  0  0  0  0  0  0  0  0  0  0  0  # atno 11005 bound_to 11000
  145.8160  140.9702  143.0923 LP  0  0  0  0  0  0  0  0  0  0  0  0  # atno 17320 bound_to 7965
  144.6797  139.9981  143.7484 LP  0  0  0  0  0  0  0  0  0  0  0  0  # atno 17321 bound_to 7965
  140.0273  143.5480  152.2775 LP  0  0  0  0  0  0  0  0  0  0  0  0  # atno 17342 bound_to 10162
  139.6260  144.7637  151.2637 LP  0  0  0  0  0  0  0  0  0  0  0  0  # atno 17343 bound_to 10162
  157.6200  131.0930  150.8640 LP  0  0  0  0  0  0  0  0  0  0  0  0  # atno 17370 bound_to 10713
  156.8765  130.5164  149.5293 LP  0  0  0  0  0  0  0  0  0  0  0  0  # atno 17371 bound_to 10713
  140.0329  134.9892  157.0815 LP  0  0  0  0  0  0  0  0  0  0  0  0  # atno 17394 bound_to 11000
  140.4256  134.1834  155.7166 LP  0  0  0  0  0  0  0  0  0  0  0  0  # atno 17395 bound_to 11000

$$$$
