AV-unprocessed.smi:2531|AV-procd|sdf|9964|dock9
  -GOLD-   2272014 03D 1   1.00000     0.00000
 Structure written by MMmdl.
 46 48  0  0  0  0  0  0  0  0  1 V2000
  150.5936  142.3645  158.8863 O   0  0  0  0  0  0  0  0  0  0  0  0
  151.6632  141.7969  159.1121 C   0  0  0  0  0  0  0  0  0  0  0  0
  152.9085  142.5889  159.5724 C   0  0  0  0  0  0  0  0  0  0  0  0
  153.3544  142.2640  161.0084 C   0  0  0  0  0  0  0  0  0  0  0  0
  152.5225  143.1738  161.9224 C   0  0  0  0  0  0  0  0  0  0  0  0
  152.0434  144.3405  161.0451 C   0  0  0  0  0  0  0  0  0  0  0  0
  152.6340  144.0988  159.6500 C   0  0  0  0  0  0  0  0  0  0  0  0
  151.7715  140.4047  159.0387 N   0  0  0  0  0  0  0  0  0  0  0  0
  151.1166  139.6328  157.9933 C   0  0  0  0  0  0  0  0  0  0  0  0
  152.2623  138.6306  158.1752 C   0  0  0  0  0  0  0  0  0  0  0  0
  152.9569  138.0428  156.5671 S   0  0  0  0  0  0  0  0  0  0  0  0
  152.4208  136.7007  156.2926 O   0  0  0  0  0  0  0  0  0  0  0  0
  152.8384  139.1003  155.5514 O   0  0  0  0  0  0  0  0  0  0  0  0
  154.6313  137.8668  156.9324 N   0  0  0  0  0  0  0  0  0  0  0  0
  155.0523  136.6537  157.6303 C   0  0  0  0  0  0  0  0  0  0  0  0
  156.5829  136.5443  157.6334 C   0  0  0  0  0  0  0  0  0  0  0  0
  157.1773  136.7768  156.2573 C   0  0  0  0  0  0  0  0  0  0  0  0
  158.0147  135.8102  155.6604 C   0  0  0  0  0  0  0  0  0  0  0  0
  158.5347  136.0731  154.3782 C   0  0  0  0  0  0  0  0  0  0  0  0
  158.1981  137.2851  153.7450 C   0  0  0  0  0  0  0  0  0  0  0  0
  157.3528  138.1843  154.4251 C   0  0  0  0  0  0  0  0  0  0  0  0
  156.8492  137.9422  155.6547 N   0  0  0  0  0  0  0  0  0  0  0  0
  153.0602  139.7570  158.8471 C   0  0  0  0  0  0  0  0  0  0  0  0
  153.7257  142.3781  158.8823 H   0  0  0  0  0  0  0  0  0  0  0  0
  153.2577  141.2102  161.2735 H   0  0  0  0  0  0  0  0  0  0  0  0
  154.4107  142.5150  161.1157 H   0  0  0  0  0  0  0  0  0  0  0  0
  151.6628  142.6297  162.3154 H   0  0  0  0  0  0  0  0  0  0  0  0
  153.1074  143.5185  162.7758 H   0  0  0  0  0  0  0  0  0  0  0  0
  150.9539  144.3379  160.9951 H   0  0  0  0  0  0  0  0  0  0  0  0
  152.3487  145.3075  161.4457 H   0  0  0  0  0  0  0  0  0  0  0  0
  153.5769  144.6387  159.5547 H   0  0  0  0  0  0  0  0  0  0  0  0
  151.9775  144.4680  158.8609 H   0  0  0  0  0  0  0  0  0  0  0  0
  150.1323  139.2528  158.2686 H   0  0  0  0  0  0  0  0  0  0  0  0
  151.1229  140.1238  157.0180 H   0  0  0  0  0  0  0  0  0  0  0  0
  152.0050  137.8011  158.8359 H   0  0  0  0  0  0  0  0  0  0  0  0
  155.1992  138.0204  156.0995 H   0  0  0  0  0  0  0  0  0  0  0  0
  154.6695  136.6747  158.6512 H   0  0  0  0  0  0  0  0  0  0  0  0
  154.6107  135.7884  157.1344 H   0  0  0  0  0  0  0  0  0  0  0  0
  157.0096  137.2693  158.3283 H   0  0  0  0  0  0  0  0  0  0  0  0
  156.8858  135.5597  157.9932 H   0  0  0  0  0  0  0  0  0  0  0  0
  158.2530  134.8881  156.1701 H   0  0  0  0  0  0  0  0  0  0  0  0
  159.1790  135.3577  153.8890 H   0  0  0  0  0  0  0  0  0  0  0  0
  158.5778  137.5198  152.7616 H   0  0  0  0  0  0  0  0  0  0  0  0
  157.0734  139.1227  153.9694 H   0  0  0  0  0  0  0  0  0  0  0  0
  153.7238  140.3085  158.1789 H   0  0  0  0  0  0  0  0  0  0  0  0
  153.5504  139.4704  159.7777 H   0  0  0  0  0  0  0  0  0  0  0  0
  1  2  2  0  0  0  0
  2  3  1  0  0  0  0
  2  8  1  0  0  0  0
  3  7  1  0  0  0  0
  3  4  1  0  0  0  0
  3 24  1  0  0  0  0
  4  5  1  0  0  0  0
  4 25  1  0  0  0  0
  4 26  1  0  0  0  0
  5  6  1  0  0  0  0
  5 27  1  0  0  0  0
  5 28  1  0  0  0  0
  6  7  1  0  0  0  0
  6 29  1  0  0  0  0
  6 30  1  0  0  0  0
  7 31  1  0  0  0  0
  7 32  1  0  0  0  0
  8 23  1  0  0  0  0
  8  9  1  0  0  0  0
  9 10  1  0  0  0  0
  9 33  1  0  0  0  0
  9 34  1  0  0  0  0
 10 11  1  0  0  0  0
 10 23  1  0  0  0  0
 10 35  1  0  0  0  0
 11 12  2  0  0  0  0
 11 13  2  0  0  0  0
 11 14  1  0  0  0  0
 14 15  1  0  0  0  0
 14 36  1  0  0  0  0
 15 16  1  0  0  0  0
 15 37  1  0  0  0  0
 15 38  1  0  0  0  0
 16 17  1  0  0  0  0
 16 39  1  0  0  0  0
 16 40  1  0  0  0  0
 17 22  1  0  0  0  0
 17 18  2  0  0  0  0
 18 19  1  0  0  0  0
 18 41  1  0  0  0  0
 19 20  2  0  0  0  0
 19 42  1  0  0  0  0
 20 21  1  0  0  0  0
 20 43  1  0  0  0  0
 21 22  2  0  0  0  0
 21 44  1  0  0  0  0
 23 45  1  0  0  0  0
 23 46  1  0  0  0  0
M  END
> <s_m_source_file>
AV-unprocessed.smi

> <i_m_source_file_index>
2531

> <i_lp_mmshare_version>
43012

> <i_f3d_flags>
0

> <s_epik_input>
W0NIMl0xW0NIMl1bQ0gyXVtDSDJdW0NIXTFDKD1PKU4yW0NIMl1bQ0hdKFtDSDJdMilTKD1PKSg9TylbTkhdW0NIMl1bQ0gyXWMzW2NIXVtjSF1bY0hdW2NIXW4z

> <s_epik_cmdline>
J2VwaWtfcHl0aG9uJywgJy1waCcsICc3LjAnLCAnLXRuJywgJzgnLCAnLW1hJywgJzIwMCcsICctbWV0YWxfYmluZGluZycsICctaW1hZScsICc8aW5maWxlLm1hZT4nLCAnLW9tYWUnLCAnPG91dGZpbGUubWFlPic=

> <r_epik_Ionization_Penalty>
0.0203172

> <r_epik_Ionization_Penalty_Charging>
0

> <r_epik_Ionization_Penalty_Neutral>
0.0203172

> <r_epik_State_Penalty>
0.0162494

> <r_epik_Charging_Adjusted_Penalty>
0.0162494

> <i_epik_Tot_Q>
0

> <i_epik_Tot_abs_Q>
0

> <r_epik_Metal_State_Penalty>
0.0444853

> <b_epik_Metal_Only>
0

> <s_lp_Force_Field>
OPLS_2005

> <r_lp_Energy>
30.9959

> <b_lp_Chiralities_Consistent>
1

> <s_lp_Variant>
AV-unprocessed.smi:2531-1

> <Gold.Version>
5.8.1

> <Gold.Id.Protein>
6NUR|6NUR_protein|mol2

> <Gold.PLP.Fitness>
51.8094

> <Gold.PLP.PLP>
-46.9569

> <Gold.PLP.part.hbond>
-4.4214

> <Gold.PLP.part.metal>
0.0000

> <Gold.PLP.part.buried>
-6.5296

> <Gold.PLP.part.nonpolar>
-35.2389

> <Gold.PLP.part.repulsive>
0.0993

> <Gold.PLP.ligand.clash>
0.0000

> <Gold.PLP.ligand.torsion>
1.6885

> <Gold.PLP.Chemscore.Hbond>
2.1829

> <Gold.PLP.Chemscore.CHOScore>
0.0000

> <Gold.PLP.Chemscore.Metal>
0.0000

> <Gold.Chemscore.Hbonds>
donor molecule, donor type, donor heavy atom, donor atom, acceptor molecule, acceptor atom, score
      P1  H  7997  8008       L1    13  1.00
      P1  H  7997  8009       L1    22  0.02
      P1  H 10752 10765       L1    12  1.00

> <Gold.PLP.Chemscore.Internal.Correction>
1.6807

> <Gold.Rescore>
     Score         DG    S(hbond)    S(metal)    S(lipo)     H(rot)  DE(clash)    DE(int)     intcor
     16.25     -19.45       1.74        0.00     110.19       1.85       0.02       3.18       ----

> <Gold.Chemscore.Fitness>
16.2496

> <Gold.Chemscore.DG>
-19.4520

> <Gold.Chemscore.ZeroCoef>
-5.4800

> <Gold.Chemscore.Hbond>
1.7409

> <Gold.Chemscore.Metal>
0.0000

> <Gold.Chemscore.Lipo>
110.1873

> <Gold.Chemscore.Internal_Hbond>
0.0000

> <Gold.Chemscore.DEClash>
0.0234

> <Gold.Chemscore.DEInternal>
3.1790

> <Gold.Chemscore.Rot>
1.8494

> <Gold.Chemscore.Internal.Correction>
   9.000000E+99

> <Gold.Chemscore.Hbonds>
donor molecule, donor type, donor heavy atom, donor atom, acceptor molecule, acceptor atom, score
      P1  H  7997  8008       L1    13  0.37
      P1  H 10752 10765       L1    12  0.96

> <Gold.Chemscore.Hbond.Weighted>
-5.8147

> <Gold.Chemscore.Metal.Weighted>
-0.0000

> <Gold.Chemscore.Lipo.Weighted>
-12.8919

> <Gold.Chemscore.Internal_Hbond.Weighted>
0.0000

> <Gold.Chemscore.DEClash.Weighted>
0.0234

> <Gold.Chemscore.DEInternal.Weighted>
3.1790

> <Gold.Chemscore.Rot.Weighted>
4.7346

> <Gold.Chemscore.Internal.Correction.Weighted>
   9.000000E+99

> <Gold.Protein.RotatedTorsions>
[ 6907 6896 6895 6894 ] final -149.49 input  -60.11 | X-H torsion
[ 7974 7965 7964 7962 ] final  112.72 input  175.53 | X-H torsion
[ 8008 7997 7996 7995 ] final  -11.21 input   59.86 | X-H torsion
[ 10167 10162 10161 10158 ] final -130.84 input  -65.29 | X-H torsion
[ 10718 10713 10712 10709 ] final  -22.05 input   66.30 | X-H torsion
[ 10763 10752 10751 10750 ] final -138.21 input  -60.55 | X-H torsion
[ 11005 11000 10999 10996 ] final   76.97 input  -57.11 | X-H torsion

> <Gold.Protein.ActiveResidues>
 VAL166  LYS551  ARG553  GLY616  TRP617  ASP618  TYR619  PRO620  LYS621  CYS622 
 ASP623  PHE694  ASN695  SER759  ASP760  ASP761  ALA762  ILE779  LEU786  VAL792 
 PHE793  MET794  SER795  GLU796  ALA797  LYS798  CYS799  TRP800  GLU811  SER814 

> <Gold.Protein.RotatedAtoms>
  151.1849  133.4702  159.2594 H   0  0  0  0  0  0  0  0  0  0  0  0  # atno 6907 bound_to 6896
  151.1221  135.0085  159.8553 H   0  0  0  0  0  0  0  0  0  0  0  0  # atno 6908 bound_to 6896
  152.5456  134.1760  159.8669 H   0  0  0  0  0  0  0  0  0  0  0  0  # atno 6909 bound_to 6896
  145.2260  139.2840  143.4193 H   0  0  0  0  0  0  0  0  0  0  0  0  # atno 7974 bound_to 7965
  154.5485  140.2308  155.8523 H   0  0  0  0  0  0  0  0  0  0  0  0  # atno 8008 bound_to 7997
  156.1925  140.3073  155.9322 H   0  0  0  0  0  0  0  0  0  0  0  0  # atno 8009 bound_to 7997
  155.3117  140.0436  157.3026 H   0  0  0  0  0  0  0  0  0  0  0  0  # atno 8010 bound_to 7997
  139.9251  143.6337  152.2544 H   0  0  0  0  0  0  0  0  0  0  0  0  # atno 10167 bound_to 10162
  156.5098  130.4607  149.6654 H   0  0  0  0  0  0  0  0  0  0  0  0  # atno 10718 bound_to 10713
  154.8642  135.3619  154.5348 H   0  0  0  0  0  0  0  0  0  0  0  0  # atno 10763 bound_to 10752
  153.5972  135.7014  153.5404 H   0  0  0  0  0  0  0  0  0  0  0  0  # atno 10764 bound_to 10752
  153.3322  135.4121  155.1466 H   0  0  0  0  0  0  0  0  0  0  0  0  # atno 10765 bound_to 10752
  139.9275  134.7644  156.1462 H   0  0  0  0  0  0  0  0  0  0  0  0  # atno 11005 bound_to 11000
  146.3364  140.2581  142.8601 LP  0  0  0  0  0  0  0  0  0  0  0  0  # atno 17320 bound_to 7965
  144.9720  140.8378  143.5449 LP  0  0  0  0  0  0  0  0  0  0  0  0  # atno 17321 bound_to 7965
  139.6829  144.7654  151.1577 LP  0  0  0  0  0  0  0  0  0  0  0  0  # atno 17342 bound_to 10162
  140.7652  143.5699  150.9007 LP  0  0  0  0  0  0  0  0  0  0  0  0  # atno 17343 bound_to 10162
  156.3252  130.7302  151.2221 LP  0  0  0  0  0  0  0  0  0  0  0  0  # atno 17370 bound_to 10713
  157.7452  131.0445  150.4796 LP  0  0  0  0  0  0  0  0  0  0  0  0  # atno 17371 bound_to 10713
  141.0842  133.6741  156.2401 LP  0  0  0  0  0  0  0  0  0  0  0  0  # atno 17394 bound_to 11000
  140.6295  134.5278  157.5558 LP  0  0  0  0  0  0  0  0  0  0  0  0  # atno 17395 bound_to 11000

$$$$
