AV-unprocessed.smi:1774|AV-procd|sdf|7168|dock9
  -GOLD-   22720 8403D 1   1.00000     0.00000
 Structure written by MMmdl.
 46 47  0  0  0  0  0  0  0  0  2 V2000
  145.3868  135.4308  150.9822 C   0  0  0  0  0  0  0  0  0  0  0  0
  145.3038  133.9373  151.2534 C   0  0  0  0  0  0  0  0  0  0  0  0
  144.3078  133.1730  150.6091 C   0  0  0  0  0  0  0  0  0  0  0  0
  144.2319  131.7927  150.8616 C   0  0  0  0  0  0  0  0  0  0  0  0
  145.1609  131.2314  151.7542 C   0  0  0  0  0  0  0  0  0  0  0  0
  146.1164  131.9539  152.3740 N   0  0  0  0  0  0  0  0  0  0  0  0
  146.2041  133.2875  152.1401 C   0  0  0  0  0  0  0  0  0  0  0  0
  147.1858  134.1121  152.7592 N   0  0  0  0  0  0  0  0  0  0  0  0
  147.5087  134.1929  154.0620 C   0  0  0  0  0  0  0  0  0  0  0  0
  146.9886  133.5433  154.9698 O   0  0  0  0  0  0  0  0  0  0  0  0
  148.4882  135.0856  154.2664 N   0  0  0  0  0  0  0  0  0  0  0  0
  149.0703  135.3958  155.5669 C   0  0  0  0  0  0  0  0  0  0  0  0
  148.6679  136.8036  156.0458 C   0  0  0  0  0  0  0  0  0  0  0  0
  149.7664  137.7872  155.8818 N   0  3  1  0  0  0  0  0  0  0  0  0
  150.5575  137.5528  154.6505 C   0  0  0  0  0  0  0  0  0  0  0  0
  151.7281  138.5501  154.5418 C   0  0  2  0  0  0  0  0  0  0  0  0
  152.8809  138.2551  155.5182 C   0  0  0  0  0  0  0  0  0  0  0  0
  151.2477  139.8889  154.6629 O   0  0  0  0  0  0  0  0  0  0  0  0
  150.5096  140.1557  155.8527 C   0  0  1  0  0  0  0  0  0  0  0  0
  150.0713  141.6239  155.8155 C   0  0  0  0  0  0  0  0  0  0  0  0
  149.3087  139.1965  155.9368 C   0  0  0  0  0  0  0  0  0  0  0  0
  144.6475  135.7418  150.2433 H   0  0  0  0  0  0  0  0  0  0  0  0
  146.3727  135.6967  150.6000 H   0  0  0  0  0  0  0  0  0  0  0  0
  145.2053  135.9950  151.8976 H   0  0  0  0  0  0  0  0  0  0  0  0
  143.6082  133.6358  149.9285 H   0  0  0  0  0  0  0  0  0  0  0  0
  143.4815  131.1804  150.3837 H   0  0  0  0  0  0  0  0  0  0  0  0
  145.1372  130.1748  151.9766 H   0  0  0  0  0  0  0  0  0  0  0  0
  147.7075  134.7049  152.1309 H   0  0  0  0  0  0  0  0  0  0  0  0
  148.8627  135.5762  153.4671 H   0  0  0  0  0  0  0  0  0  0  0  0
  148.7732  134.6291  156.2828 H   0  0  0  0  0  0  0  0  0  0  0  0
  150.1549  135.3311  155.4763 H   0  0  0  0  0  0  0  0  0  0  0  0
  147.8067  137.1247  155.4578 H   0  0  0  0  0  0  0  0  0  0  0  0
  148.3414  136.7906  157.0869 H   0  0  0  0  0  0  0  0  0  0  0  0
  150.9389  136.5309  154.6349 H   0  0  0  0  0  0  0  0  0  0  0  0
  149.9028  137.6582  153.7838 H   0  0  0  0  0  0  0  0  0  0  0  0
  152.1404  138.4686  153.5356 H   0  0  0  0  0  0  0  0  0  0  0  0
  153.3254  137.2817  155.3083 H   0  0  0  0  0  0  0  0  0  0  0  0
  152.5519  138.2426  156.5569 H   0  0  0  0  0  0  0  0  0  0  0  0
  153.6692  139.0025  155.4260 H   0  0  0  0  0  0  0  0  0  0  0  0
  151.1507  140.0180  156.7237 H   0  0  0  0  0  0  0  0  0  0  0  0
  149.5096  141.8896  156.7115 H   0  0  0  0  0  0  0  0  0  0  0  0
  149.4379  141.8260  154.9513 H   0  0  0  0  0  0  0  0  0  0  0  0
  150.9351  142.2868  155.7567 H   0  0  0  0  0  0  0  0  0  0  0  0
  148.6153  139.3867  155.1157 H   0  0  0  0  0  0  0  0  0  0  0  0
  148.7638  139.3836  156.8616 H   0  0  0  0  0  0  0  0  0  0  0  0
  150.3989  137.6470  156.6567 H   0  0  0  0  0  0  0  0  0  0  0  0
  1  2  1  0  0  0  0
  1 22  1  0  0  0  0
  1 23  1  0  0  0  0
  1 24  1  0  0  0  0
  2  7  1  0  0  0  0
  2  3  2  0  0  0  0
  3  4  1  0  0  0  0
  3 25  1  0  0  0  0
  4  5  2  0  0  0  0
  4 26  1  0  0  0  0
  5  6  1  0  0  0  0
  5 27  1  0  0  0  0
  6  7  2  0  0  0  0
  7  8  1  0  0  0  0
  8  9  1  0  0  0  0
  8 28  1  0  0  0  0
  9 10  2  0  0  0  0
  9 11  1  0  0  0  0
 11 12  1  0  0  0  0
 11 29  1  0  0  0  0
 12 13  1  0  0  0  0
 12 30  1  0  0  0  0
 12 31  1  0  0  0  0
 13 14  1  0  0  0  0
 13 32  1  0  0  0  0
 13 33  1  0  0  0  0
 14 21  1  0  0  0  0
 14 15  1  0  0  0  0
 14 46  1  0  0  0  0
 15 16  1  0  0  0  0
 15 34  1  0  0  0  0
 15 35  1  0  0  0  0
 16 17  1  0  0  0  0
 16 18  1  0  0  0  0
 16 36  1  0  0  0  0
 17 37  1  0  0  0  0
 17 38  1  0  0  0  0
 17 39  1  0  0  0  0
 18 19  1  0  0  0  0
 19 20  1  0  0  0  0
 19 21  1  0  0  0  0
 19 40  1  0  0  0  0
 20 41  1  0  0  0  0
 20 42  1  0  0  0  0
 20 43  1  0  0  0  0
 21 44  1  0  0  0  0
 21 45  1  0  0  0  0
M  CHG  1  14   1
M  END
> <s_m_source_file>
AV-unprocessed.smi

> <i_m_source_file_index>
1774

> <i_lp_mmshare_version>
43012

> <i_f3d_flags>
0

> <s_epik_input>
W0NIM11jMVtjSF1bY0hdW2NIXW5jMVtOSF1DKD1PKVtOSF1bQ0gyXVtDSDJdTjJbQ0gyXVtDQEBIXShbQ0gzXSlPW0NAQEhdKFtDSDNdKVtDSDJdMg==

> <s_epik_cmdline>
J2VwaWtfcHl0aG9uJywgJy1waCcsICc3LjAnLCAnLXRuJywgJzgnLCAnLW1hJywgJzIwMCcsICctbWV0YWxfYmluZGluZycsICctaW1hZScsICc8aW5maWxlLm1hZT4nLCAnLW9tYWUnLCAnPG91dGZpbGUubWFlPic=

> <r_epik_Ionization_Penalty>
0.602573

> <r_epik_Ionization_Penalty_Charging>
0.602531

> <r_epik_Ionization_Penalty_Neutral>
4.21996e-05

> <r_epik_State_Penalty>
0.617039

> <r_epik_Charging_Adjusted_Penalty>
1.21957

> <i_epik_Tot_Q>
1

> <i_epik_Tot_abs_Q>
1

> <r_epik_Metal_State_Penalty>
0.617042

> <b_epik_Metal_Only>
0

> <s_lp_Force_Field>
OPLS_2005

> <r_lp_Energy>
18.8628

> <b_lp_Chiralities_Consistent>
1

> <s_lp_Variant>
AV-unprocessed.smi:1774-5

> <Gold.Version>
5.8.1

> <Gold.Id.Protein>
6NUR|6NUR_protein|mol2

> <Gold.PLP.Fitness>
41.9874

> <Gold.PLP.PLP>
-35.0832

> <Gold.PLP.part.hbond>
-2.9948

> <Gold.PLP.part.metal>
0.0000

> <Gold.PLP.part.buried>
-5.4693

> <Gold.PLP.part.nonpolar>
-27.1475

> <Gold.PLP.part.repulsive>
0.2458

> <Gold.PLP.ligand.clash>
0.0000

> <Gold.PLP.ligand.torsion>
0.9930

> <Gold.PLP.Chemscore.Hbond>
2.9600

> <Gold.PLP.Chemscore.CHOScore>
0.0000

> <Gold.PLP.Chemscore.Metal>
0.0000

> <Gold.Chemscore.Hbonds>
donor molecule, donor type, donor heavy atom, donor atom, acceptor molecule, acceptor atom, score
      L1  H     8    28       P1  7948  1.00
      L1  H    11    29       P1  7948  1.00
      P1  H  7989  7998       L1    18  1.00

> <Gold.PLP.Chemscore.Internal.Correction>
0.0102

> <Gold.Rescore>
     Score         DG    S(hbond)    S(metal)    S(lipo)     H(rot)  DE(clash)    DE(int)     intcor
     19.13     -20.18       2.77        0.00      79.20       1.49       0.00       1.05       ----

> <Gold.Chemscore.Fitness>
19.1280

> <Gold.Chemscore.DG>
-20.1821

> <Gold.Chemscore.ZeroCoef>
-5.4800

> <Gold.Chemscore.Hbond>
2.7729

> <Gold.Chemscore.Metal>
0.0000

> <Gold.Chemscore.Lipo>
79.2020

> <Gold.Chemscore.Internal_Hbond>
0.0000

> <Gold.Chemscore.DEClash>
0.0015

> <Gold.Chemscore.DEInternal>
1.0527

> <Gold.Chemscore.Rot>
1.4946

> <Gold.Chemscore.Internal.Correction>
   9.000000E+99

> <Gold.Chemscore.Hbonds>
donor molecule, donor type, donor heavy atom, donor atom, acceptor molecule, acceptor atom, score
      L1  H     8    28       P1  7948  0.62
      L1  H    11    29       P1  7948  0.88
      P1  H  7989  7998       L1    18  0.90

> <Gold.Chemscore.Hbond.Weighted>
-9.2616

> <Gold.Chemscore.Metal.Weighted>
-0.0000

> <Gold.Chemscore.Lipo.Weighted>
-9.2666

> <Gold.Chemscore.Internal_Hbond.Weighted>
0.0000

> <Gold.Chemscore.DEClash.Weighted>
0.0015

> <Gold.Chemscore.DEInternal.Weighted>
1.0527

> <Gold.Chemscore.Rot.Weighted>
3.8261

> <Gold.Chemscore.Internal.Correction.Weighted>
   9.000000E+99

> <Gold.Protein.RotatedTorsions>
[ 6907 6896 6895 6894 ] final  -23.19 input  -60.11 | X-H torsion
[ 7974 7965 7964 7962 ] final    6.00 input  175.53 | X-H torsion
[ 8008 7997 7996 7995 ] final  176.83 input   59.86 | X-H torsion
[ 10167 10162 10161 10158 ] final   59.58 input  -65.29 | X-H torsion
[ 10718 10713 10712 10709 ] final  151.31 input   66.30 | X-H torsion
[ 10763 10752 10751 10750 ] final  167.30 input  -60.55 | X-H torsion
[ 11005 11000 10999 10996 ] final  153.46 input  -57.11 | X-H torsion

> <Gold.Protein.ActiveResidues>
 VAL166  LYS551  ARG553  GLY616  TRP617  ASP618  TYR619  PRO620  LYS621  CYS622 
 ASP623  PHE694  ASN695  SER759  ASP760  ASP761  ALA762  ILE779  LEU786  VAL792 
 PHE793  MET794  SER795  GLU796  ALA797  LYS798  CYS799  TRP800  GLU811  SER814 

> <Gold.Protein.RotatedAtoms>
  151.2077  135.0468  159.8897 H   0  0  0  0  0  0  0  0  0  0  0  0  # atno 6907 bound_to 6896
  152.5427  134.0780  159.8233 H   0  0  0  0  0  0  0  0  0  0  0  0  # atno 6908 bound_to 6896
  151.0929  133.5254  159.2646 H   0  0  0  0  0  0  0  0  0  0  0  0  # atno 6909 bound_to 6896
  146.2437  140.0300  142.8390 H   0  0  0  0  0  0  0  0  0  0  0  0  # atno 7974 bound_to 7965
  156.0722  140.1373  156.9815 H   0  0  0  0  0  0  0  0  0  0  0  0  # atno 8008 bound_to 7997
  154.4538  140.0969  156.6748 H   0  0  0  0  0  0  0  0  0  0  0  0  # atno 8009 bound_to 7997
  155.5210  140.3456  155.4409 H   0  0  0  0  0  0  0  0  0  0  0  0  # atno 8010 bound_to 7997
  140.1749  144.4240  150.6643 H   0  0  0  0  0  0  0  0  0  0  0  0  # atno 10167 bound_to 10162
  157.2724  131.0819  151.1590 H   0  0  0  0  0  0  0  0  0  0  0  0  # atno 10718 bound_to 10713
  154.3517  135.2753  155.2368 H   0  0  0  0  0  0  0  0  0  0  0  0  # atno 10763 bound_to 10752
  154.4594  135.5911  153.6249 H   0  0  0  0  0  0  0  0  0  0  0  0  # atno 10764 bound_to 10752
  152.9849  135.6061  154.3729 H   0  0  0  0  0  0  0  0  0  0  0  0  # atno 10765 bound_to 10752
  140.1400  134.8745  157.2318 H   0  0  0  0  0  0  0  0  0  0  0  0  # atno 11005 bound_to 11000
  145.1164  140.9436  143.4626 LP  0  0  0  0  0  0  0  0  0  0  0  0  # atno 17320 bound_to 7965
  145.0525  139.3170  143.5921 LP  0  0  0  0  0  0  0  0  0  0  0  0  # atno 17321 bound_to 7965
  140.6558  143.2237  151.5972 LP  0  0  0  0  0  0  0  0  0  0  0  0  # atno 17342 bound_to 10162
  139.5321  144.2885  152.1172 LP  0  0  0  0  0  0  0  0  0  0  0  0  # atno 17343 bound_to 10162
  157.3057  130.6865  149.6188 LP  0  0  0  0  0  0  0  0  0  0  0  0  # atno 17370 bound_to 10713
  155.9663  130.4378  150.5193 LP  0  0  0  0  0  0  0  0  0  0  0  0  # atno 17371 bound_to 10713
  140.2734  134.3433  155.7366 LP  0  0  0  0  0  0  0  0  0  0  0  0  # atno 17394 bound_to 11000
  141.2184  133.7436  156.9257 LP  0  0  0  0  0  0  0  0  0  0  0  0  # atno 17395 bound_to 11000

$$$$
