#       Name:                AV-unprocessed.smi:1592
#       Creating user name   scv26
#       Creation time:       Fri Mar 27 07:03:56 2020


#       File generated by GOLD software.
#

@<TRIPOS>MOLECULE
AV-unprocessed.smi:1592
    34    35     1
SMALL
NO_CHARGES


@<TRIPOS>ATOM
      1 ****        -0.2544   1.5615   0.6352 O.2            1 S1                 0.0000
      2 ****        -0.4599   0.4104   0.2482 C.2            1 S1                 0.0000
      3 ****         0.4987  -0.4449  -0.1531 N.am           1 S1                 0.0000
      4 ****         1.9056  -0.2411  -0.2041 C.ar           1 S1                 0.0000
      5 ****         2.5002   0.9174   0.1771 N.ar           1 S1                 0.0000
      6 ****         3.8422   1.0311   0.0978 C.ar           1 S1                 0.0000
      7 ****         4.6756  -0.0025  -0.3651 C.ar           1 S1                 0.0000
      8 ****         4.0746  -1.2093  -0.7630 C.ar           1 S1                 0.0000
      9 ****         2.6729  -1.3339  -0.6829 C.ar           1 S1                 0.0000
     10 ****         2.0823  -2.5055  -1.0690 O.3            1 S1                 0.0000
     11 ****        -1.8942  -0.1271   0.1823 C.3            1 S1                 0.0000
     12 ****        -2.7679   0.2590   1.3910 C.3            1 S1                 0.0000
     13 ****        -3.7775   1.2301   0.8108 C.3            1 S1                 0.0000
     14 ****        -3.8768   0.7548  -0.6313 C.3            1 S1                 0.0000
     15 ****        -2.5312   0.4468  -0.9575 O.3            1 S1                 0.0000
     16 ****         0.1859  -1.3546  -0.4602 H              1 S1                 0.0000
     17 ****         4.2631   1.9743   0.4129 H              1 S1                 0.0000
     18 ****         5.7465   0.1279  -0.4136 H              1 S1                 0.0000
     19 ****         4.6812  -2.0266  -1.1248 H              1 S1                 0.0000
     20 ****         2.7029  -3.1524  -1.3683 H              1 S1                 0.0000
     21 ****        -1.8854  -1.2129   0.0725 H              1 S1                 0.0000
     22 ****        -3.2784  -0.6270   1.7707 H              1 S1                 0.0000
     23 ****        -2.2140   0.6952   2.2236 H              1 S1                 0.0000
     24 ****        -4.7343   1.2177   1.3330 H              1 S1                 0.0000
     25 ****        -3.3813   2.2458   0.8424 H              1 S1                 0.0000
     26 ****        -4.4877  -0.1461  -0.7056 H              1 S1                 0.0000
     27 ****        -4.2898   1.5111  -1.2989 H              1 S1                 0.0000
     28 ****         0.6789   1.9194   0.6665 LP             1 S1                 0.0000
     29 ****        -1.0208   2.1382   0.9181 LP             1 S1                 0.0000
     30 ****         1.9485   1.6804   0.5139 LP             1 S1                 0.0000
     31 ****         1.4431  -2.3097  -1.8126 LP             1 S1                 0.0000
     32 ****         1.5816  -2.8815  -0.2894 LP             1 S1                 0.0000
     33 ****        -2.5112  -0.2048  -1.7158 LP             1 S1                 0.0000
     34 ****        -2.0514   1.2828  -1.2237 LP             1 S1                 0.0000
@<TRIPOS>BOND
    1    1    2 2     
    2    2    3 am    
    3    2   11 1     
    4    3    4 1     
    5    3   16 1     
    6    4    9 ar    
    7    4    5 ar    
    8    5    6 ar    
    9    6    7 ar    
   10    6   17 1     
   11    7    8 ar    
   12    7   18 1     
   13    8    9 ar    
   14    8   19 1     
   15    9   10 1     
   16   10   20 1     
   17   11   15 1     
   18   11   12 1     
   19   11   21 1     
   20   12   13 1     
   21   12   22 1     
   22   12   23 1     
   23   13   14 1     
   24   13   24 1     
   25   13   25 1     
   26   14   15 1     
   27   14   26 1     
   28   14   27 1     
   29    1   28 1     
   30    1   29 1     
   31    5   30 1     
   32   10   31 1     
   33   10   32 1     
   34   15   33 1     
   35   15   34 1     
@<TRIPOS>SUBSTRUCTURE
      1 S1             1
@<TRIPOS>SET
LONE_PAIRS      STATIC     ATOMS    <user>   **** ""
7 28 29 30 31 32 33 34
DONOR_HYDROGENS      STATIC     ATOMS    <user>   **** ""
2 16 20
ATOM$BLUE        STATIC     ATOMS    COLORGROUP SYSTEM
7 28 29 30 31 32 33 34
ATOM$RED        STATIC     ATOMS    COLORGROUP SYSTEM
2 16 20
