AV-unprocessed.smi:1293|AV-procd|sdf|5399|dock10
  -GOLD-   22720 4563D 1   1.00000     0.00000
 Structure written by MMmdl.
 39 40  0  0  0  0  0  0  0  0  1 V2000
  152.1740  138.4276  154.7263 C   0  0  0  0  0  0  0  0  0  0  0  0
  152.1249  137.1917  155.4167 O   0  0  0  0  0  0  0  0  0  0  0  0
  150.8246  136.6253  155.4277 C   0  0  0  0  0  0  0  0  0  0  0  0
  150.8207  135.3684  156.3130 C   0  0  0  0  0  0  0  0  0  0  0  0
  150.3712  134.1803  155.5727 N   0  0  0  0  0  0  0  0  0  0  0  0
  149.4868  134.3947  154.4972 C   0  0  0  0  0  0  0  0  0  0  0  0
  149.0083  133.3838  153.7388 C   0  0  0  0  0  0  0  0  0  0  0  0
  148.1396  133.5223  152.6455 N   0  0  0  0  0  0  0  0  0  0  0  0
  147.3515  132.6041  152.0502 C   0  0  0  0  0  0  0  0  0  0  0  0
  147.2787  131.4173  152.3690 O   0  0  0  0  0  0  0  0  0  0  0  0
  146.4994  133.1275  150.8808 C   0  0  0  0  0  0  0  0  0  0  0  0
  145.4124  134.1072  151.3632 C   0  0  0  0  0  0  0  0  0  0  0  0
  144.1346  133.2774  151.4756 C   0  0  0  0  0  0  0  0  0  0  0  0
  144.2365  132.2937  150.3134 C   0  0  0  0  0  0  0  0  0  0  0  0
  145.7333  131.9900  150.1652 C   0  0  0  0  0  0  0  0  0  0  0  0
  149.4506  132.0482  154.0784 C   0  0  0  0  0  0  0  0  0  0  0  0
  150.3030  131.8328  155.0988 C   0  0  0  0  0  0  0  0  0  0  0  0
  150.8200  132.9356  155.9121 C   0  0  0  0  0  0  0  0  0  0  0  0
  151.6090  132.7503  156.8390 O   0  0  0  0  0  0  0  0  0  0  0  0
  153.1919  138.8172  154.7452 H   0  0  0  0  0  0  0  0  0  0  0  0
  151.5218  139.1664  155.1942 H   0  0  0  0  0  0  0  0  0  0  0  0
  151.8783  138.3086  153.6833 H   0  0  0  0  0  0  0  0  0  0  0  0
  150.0931  137.3514  155.7862 H   0  0  0  0  0  0  0  0  0  0  0  0
  150.5389  136.3540  154.4104 H   0  0  0  0  0  0  0  0  0  0  0  0
  151.8213  135.2027  156.7159 H   0  0  0  0  0  0  0  0  0  0  0  0
  150.1927  135.5375  157.1892 H   0  0  0  0  0  0  0  0  0  0  0  0
  149.2543  135.4360  154.3427 H   0  0  0  0  0  0  0  0  0  0  0  0
  148.1057  134.4512  152.2514 H   0  0  0  0  0  0  0  0  0  0  0  0
  147.1497  133.6398  150.1692 H   0  0  0  0  0  0  0  0  0  0  0  0
  145.6586  134.6026  152.3038 H   0  0  0  0  0  0  0  0  0  0  0  0
  145.2744  134.8909  150.6173 H   0  0  0  0  0  0  0  0  0  0  0  0
  144.1250  132.7345  152.4217 H   0  0  0  0  0  0  0  0  0  0  0  0
  143.2321  133.8875  151.4321 H   0  0  0  0  0  0  0  0  0  0  0  0
  143.6414  131.3946  150.4755 H   0  0  0  0  0  0  0  0  0  0  0  0
  143.8707  132.7703  149.4031 H   0  0  0  0  0  0  0  0  0  0  0  0
  146.0102  131.9310  149.1120 H   0  0  0  0  0  0  0  0  0  0  0  0
  145.9557  131.0131  150.5985 H   0  0  0  0  0  0  0  0  0  0  0  0
  149.0942  131.2045  153.5053 H   0  0  0  0  0  0  0  0  0  0  0  0
  150.6138  130.8233  155.3247 H   0  0  0  0  0  0  0  0  0  0  0  0
  1  2  1  0  0  0  0
  1 20  1  0  0  0  0
  1 21  1  0  0  0  0
  1 22  1  0  0  0  0
  2  3  1  0  0  0  0
  3  4  1  0  0  0  0
  3 23  1  0  0  0  0
  3 24  1  0  0  0  0
  4  5  1  0  0  0  0
  4 25  1  0  0  0  0
  4 26  1  0  0  0  0
  5 18  1  0  0  0  0
  5  6  1  0  0  0  0
  6  7  2  0  0  0  0
  6 27  1  0  0  0  0
  7  8  1  0  0  0  0
  7 16  1  0  0  0  0
  8  9  1  0  0  0  0
  8 28  1  0  0  0  0
  9 10  2  0  0  0  0
  9 11  1  0  0  0  0
 11 15  1  0  0  0  0
 11 12  1  0  0  0  0
 11 29  1  0  0  0  0
 12 13  1  0  0  0  0
 12 30  1  0  0  0  0
 12 31  1  0  0  0  0
 13 14  1  0  0  0  0
 13 32  1  0  0  0  0
 13 33  1  0  0  0  0
 14 15  1  0  0  0  0
 14 34  1  0  0  0  0
 14 35  1  0  0  0  0
 15 36  1  0  0  0  0
 15 37  1  0  0  0  0
 16 17  2  0  0  0  0
 16 38  1  0  0  0  0
 17 18  1  0  0  0  0
 17 39  1  0  0  0  0
 18 19  2  0  0  0  0
M  END
> <s_m_source_file>
AV-unprocessed.smi

> <i_m_source_file_index>
1293

> <i_lp_mmshare_version>
43012

> <i_f3d_flags>
0

> <s_epik_input>
W0NIM11PW0NIMl1bQ0gyXW4xW2NIXWMoW2NIXVtjSF1jMT1PKVtOSF1DKD1PKVtDSF0yW0NIMl1bQ0gyXVtDSDJdW0NIMl0y

> <s_epik_cmdline>
J2VwaWtfcHl0aG9uJywgJy1waCcsICc3LjAnLCAnLXRuJywgJzgnLCAnLW1hJywgJzIwMCcsICctbWV0YWxfYmluZGluZycsICctaW1hZScsICc8aW5maWxlLm1hZT4nLCAnLW9tYWUnLCAnPG91dGZpbGUubWFlPic=

> <r_lp_tautomer_probability>
1

> <r_epik_Ionization_Penalty>
2.42474e-06

> <r_epik_Ionization_Penalty_Charging>
2.30353e-06

> <r_epik_Ionization_Penalty_Neutral>
1.21208e-07

> <r_epik_State_Penalty>
-0

> <r_epik_Charging_Adjusted_Penalty>
2.30353e-06

> <i_epik_Tot_Q>
0

> <i_epik_Tot_abs_Q>
0

> <r_epik_Metal_State_Penalty>
-0

> <b_epik_Metal_Only>
0

> <s_lp_Force_Field>
OPLS_2005

> <r_lp_Energy>
36.4395

> <b_lp_Chiralities_Consistent>
1

> <s_lp_Variant>
AV-unprocessed.smi:1293-1

> <Gold.Version>
5.8.1

> <Gold.Id.Protein>
6NUR|6NUR_protein|mol2

> <Gold.PLP.Fitness>
45.9938

> <Gold.PLP.PLP>
-38.4043

> <Gold.PLP.part.hbond>
-3.0000

> <Gold.PLP.part.metal>
0.0000

> <Gold.PLP.part.buried>
-5.0493

> <Gold.PLP.part.nonpolar>
-31.1742

> <Gold.PLP.part.repulsive>
0.1569

> <Gold.PLP.ligand.clash>
0.0000

> <Gold.PLP.ligand.torsion>
0.9267

> <Gold.PLP.Chemscore.Hbond>
2.4923

> <Gold.PLP.Chemscore.CHOScore>
0.6476

> <Gold.PLP.Chemscore.Metal>
0.0000

> <Gold.Chemscore.Hbonds>
donor molecule, donor type, donor heavy atom, donor atom, acceptor molecule, acceptor atom, score
      L1  H     8    28       P1  7948  0.90
      P1  H 10752 10765       L1     2  0.68
      L1  C     6    27       P1  7948  0.61

> <Gold.PLP.Chemscore.Internal.Correction>
0.0231

> <Gold.Rescore>
     Score         DG    S(hbond)    S(metal)    S(lipo)     H(rot)  DE(clash)    DE(int)     intcor
     13.56     -15.87       1.71        0.00      73.62       1.53       0.00       2.31       ----

> <Gold.Chemscore.Fitness>
13.5619

> <Gold.Chemscore.DG>
-15.8738

> <Gold.Chemscore.ZeroCoef>
-5.4800

> <Gold.Chemscore.Hbond>
1.7069

> <Gold.Chemscore.Metal>
0.0000

> <Gold.Chemscore.Lipo>
73.6207

> <Gold.Chemscore.Internal_Hbond>
0.0000

> <Gold.Chemscore.DEClash>
0.0000

> <Gold.Chemscore.DEInternal>
2.3120

> <Gold.Chemscore.Rot>
1.5316

> <Gold.Chemscore.Internal.Correction>
   9.000000E+99

> <Gold.Chemscore.Hbonds>
donor molecule, donor type, donor heavy atom, donor atom, acceptor molecule, acceptor atom, score
      L1  H     8    28       P1  7948  0.17
      P1  H  6896  6907       L1    19  0.04
      P1  H 10752 10765       L1     2  0.10

> <Gold.Chemscore.Hbond.Weighted>
-5.7011

> <Gold.Chemscore.Metal.Weighted>
-0.0000

> <Gold.Chemscore.Lipo.Weighted>
-8.6136

> <Gold.Chemscore.Internal_Hbond.Weighted>
0.0000

> <Gold.Chemscore.DEClash.Weighted>
0.0000

> <Gold.Chemscore.DEInternal.Weighted>
2.3120

> <Gold.Chemscore.Rot.Weighted>
3.9209

> <Gold.Chemscore.Internal.Correction.Weighted>
   9.000000E+99

> <Gold.Protein.RotatedTorsions>
[ 6907 6896 6895 6894 ] final -168.20 input  -60.11 | X-H torsion
[ 7974 7965 7964 7962 ] final   59.28 input  175.53 | X-H torsion
[ 8008 7997 7996 7995 ] final  116.07 input   59.86 | X-H torsion
[ 10167 10162 10161 10158 ] final    5.09 input  -65.29 | X-H torsion
[ 10718 10713 10712 10709 ] final   26.04 input   66.30 | X-H torsion
[ 10763 10752 10751 10750 ] final -162.34 input  -60.55 | X-H torsion
[ 11005 11000 10999 10996 ] final  108.94 input  -57.11 | X-H torsion

> <Gold.Protein.ActiveResidues>
 VAL166  LYS551  ARG553  GLY616  TRP617  ASP618  TYR619  PRO620  LYS621  CYS622 
 ASP623  PHE694  ASN695  SER759  ASP760  ASP761  ALA762  ILE779  LEU786  VAL792 
 PHE793  MET794  SER795  GLU796  ALA797  LYS798  CYS799  TRP800  GLU811  SER814 

> <Gold.Protein.RotatedAtoms>
  151.4717  133.3567  159.2824 H   0  0  0  0  0  0  0  0  0  0  0  0  # atno 6907 bound_to 6896
  150.8956  134.8366  159.7335 H   0  0  0  0  0  0  0  0  0  0  0  0  # atno 6908 bound_to 6896
  152.4849  134.4631  159.9663 H   0  0  0  0  0  0  0  0  0  0  0  0  # atno 6909 bound_to 6896
  145.9089  139.3638  143.0547 H   0  0  0  0  0  0  0  0  0  0  0  0  # atno 7974 bound_to 7965
  156.2418  140.2925  156.0467 H   0  0  0  0  0  0  0  0  0  0  0  0  # atno 8008 bound_to 7997
  155.1927  140.0407  157.2920 H   0  0  0  0  0  0  0  0  0  0  0  0  # atno 8009 bound_to 7997
  154.6184  140.2469  155.7588 H   0  0  0  0  0  0  0  0  0  0  0  0  # atno 8010 bound_to 7997
  140.6500  143.7568  150.7560 H   0  0  0  0  0  0  0  0  0  0  0  0  # atno 10167 bound_to 10162
  157.2015  130.6892  149.6190 H   0  0  0  0  0  0  0  0  0  0  0  0  # atno 10718 bound_to 10713
  154.7223  135.3028  154.9027 H   0  0  0  0  0  0  0  0  0  0  0  0  # atno 10763 bound_to 10752
  153.9896  135.6720  153.4757 H   0  0  0  0  0  0  0  0  0  0  0  0  # atno 10764 bound_to 10752
  153.0844  135.4991  154.8486 H   0  0  0  0  0  0  0  0  0  0  0  0  # atno 10765 bound_to 10752
  139.8853  134.9444  156.6049 H   0  0  0  0  0  0  0  0  0  0  0  0  # atno 11005 bound_to 11000
  145.8697  140.9427  143.0657 LP  0  0  0  0  0  0  0  0  0  0  0  0  # atno 17320 bound_to 7965
  144.6741  140.0638  143.7475 LP  0  0  0  0  0  0  0  0  0  0  0  0  # atno 17321 bound_to 7965
  140.1216  143.4606  152.2309 LP  0  0  0  0  0  0  0  0  0  0  0  0  # atno 17342 bound_to 10162
  139.5714  144.7465  151.3880 LP  0  0  0  0  0  0  0  0  0  0  0  0  # atno 17343 bound_to 10162
  155.9700  130.4581  150.5988 LP  0  0  0  0  0  0  0  0  0  0  0  0  # atno 17370 bound_to 10713
  157.3763  131.0773  151.1515 LP  0  0  0  0  0  0  0  0  0  0  0  0  # atno 17371 bound_to 10713
  140.7856  133.8624  155.8603 LP  0  0  0  0  0  0  0  0  0  0  0  0  # atno 17394 bound_to 11000
  140.9722  134.1516  157.4566 LP  0  0  0  0  0  0  0  0  0  0  0  0  # atno 17395 bound_to 11000

$$$$
