AV-unprocessed.smi:104|AV-procd|sdf|1006|dock7
  -GOLD-   2262018 03D 1   1.00000     0.00000
 Structure written by MMmdl.
 47 49  0  0  0  0  0  0  0  0  1 V2000
  150.4066  138.7772  154.4312 C   0  0  0  0  0  0  0  0  0  0  0  0
  150.5775  137.3047  154.7802 C   0  0  0  0  0  0  0  0  0  0  0  0
  151.4881  136.6307  154.2986 O   0  0  0  0  0  0  0  0  0  0  0  0
  149.6458  136.8712  155.6396 O   0  0  0  0  0  0  0  0  0  0  0  0
  149.6488  135.5157  156.0598 C   0  0  0  0  0  0  0  0  0  0  0  0
  149.0298  135.3764  157.4591 C   0  0  1  0  0  0  0  0  0  0  0  0
  149.9138  135.8681  158.4669 O   0  0  0  0  0  0  0  0  0  0  0  0
  149.3158  136.9121  159.1753 C   0  0  1  0  0  0  0  0  0  0  0  0
  149.7737  138.1968  158.5255 N   0  0  0  0  0  0  0  0  0  0  0  0
  151.0828  138.5868  158.3447 C   0  0  0  0  0  0  0  0  0  0  0  0
  152.5480  137.5088  158.9092 Br  0  0  0  0  0  0  0  0  0  0  0  0
  151.3012  139.7296  157.7620 N   0  0  0  0  0  0  0  0  0  0  0  0
  150.0181  140.1945  157.5195 C   0  0  0  0  0  0  0  0  0  0  0  0
  149.5077  141.3676  156.9090 C   0  0  0  0  0  0  0  0  0  0  0  0
  150.2931  142.3299  156.4065 N   0  0  0  0  0  0  0  0  0  0  0  0
  148.1677  141.5249  156.8239 N   0  0  0  0  0  0  0  0  0  0  0  0
  147.3647  140.5793  157.3169 C   0  0  0  0  0  0  0  0  0  0  0  0
  147.6970  139.4328  157.9135 N   0  0  0  0  0  0  0  0  0  0  0  0
  149.0497  139.2601  157.9981 C   0  0  0  0  0  0  0  0  0  0  0  0
  147.8103  136.6355  159.0814 C   0  0  2  0  0  0  0  0  0  0  0  0
  147.4575  135.6400  160.0380 O   0  0  0  0  0  0  0  0  0  0  0  0
  147.2620  135.9717  161.3257 C   0  0  0  0  0  0  0  0  0  0  0  0
  147.0643  134.7511  162.2144 C   0  0  0  0  0  0  0  0  0  0  0  0
  147.2414  137.1134  161.7855 O   0  0  0  0  0  0  0  0  0  0  0  0
  147.6895  136.0970  157.6580 C   0  0  2  0  0  0  0  0  0  0  0  0
  146.5743  135.2295  157.4913 O   0  0  0  0  0  0  0  0  0  0  0  0
  146.3550  134.6370  156.3044 C   0  0  0  0  0  0  0  0  0  0  0  0
  145.1015  133.7723  156.3101 C   0  0  0  0  0  0  0  0  0  0  0  0
  147.0524  134.7531  155.2965 O   0  0  0  0  0  0  0  0  0  0  0  0
  149.3532  139.0135  154.2788 H   0  0  0  0  0  0  0  0  0  0  0  0
  150.9496  139.0199  153.5176 H   0  0  0  0  0  0  0  0  0  0  0  0
  150.7893  139.4028  155.2375 H   0  0  0  0  0  0  0  0  0  0  0  0
  149.0785  134.9202  155.3458 H   0  0  0  0  0  0  0  0  0  0  0  0
  150.6687  135.1285  156.0657 H   0  0  0  0  0  0  0  0  0  0  0  0
  148.9007  134.3152  157.6753 H   0  0  0  0  0  0  0  0  0  0  0  0
  149.6963  136.9866  160.1947 H   0  0  0  0  0  0  0  0  0  0  0  0
  151.2974  142.2361  156.4541 H   0  0  0  0  0  0  0  0  0  0  0  0
  149.8790  143.1485  155.9850 H   0  0  0  0  0  0  0  0  0  0  0  0
  146.3052  140.7657  157.2191 H   0  0  0  0  0  0  0  0  0  0  0  0
  147.2132  137.5285  159.2536 H   0  0  0  0  0  0  0  0  0  0  0  0
  146.1552  134.2206  161.9307 H   0  0  0  0  0  0  0  0  0  0  0  0
  146.9796  135.0474  163.2602 H   0  0  0  0  0  0  0  0  0  0  0  0
  147.9089  134.0692  162.1159 H   0  0  0  0  0  0  0  0  0  0  0  0
  147.6241  136.9257  156.9540 H   0  0  0  0  0  0  0  0  0  0  0  0
  145.1995  132.9676  157.0388 H   0  0  0  0  0  0  0  0  0  0  0  0
  144.9359  133.3307  155.3272 H   0  0  0  0  0  0  0  0  0  0  0  0
  144.2293  134.3723  156.5701 H   0  0  0  0  0  0  0  0  0  0  0  0
  1  2  1  0  0  0  0
  1 30  1  0  0  0  0
  1 31  1  0  0  0  0
  1 32  1  0  0  0  0
  2  3  2  0  0  0  0
  2  4  1  0  0  0  0
  4  5  1  0  0  0  0
  5  6  1  0  0  0  0
  5 33  1  0  0  0  0
  5 34  1  0  0  0  0
  6 25  1  0  0  0  0
  6  7  1  0  0  0  0
  6 35  1  0  0  0  0
  7  8  1  0  0  0  0
  8  9  1  0  0  0  0
  8 20  1  0  0  0  0
  8 36  1  0  0  0  0
  9 19  1  0  0  0  0
  9 10  1  0  0  0  0
 10 11  1  0  0  0  0
 10 12  2  0  0  0  0
 12 13  1  0  0  0  0
 13 19  2  0  0  0  0
 13 14  1  0  0  0  0
 14 15  1  0  0  0  0
 14 16  2  0  0  0  0
 15 37  1  0  0  0  0
 15 38  1  0  0  0  0
 16 17  1  0  0  0  0
 17 18  2  0  0  0  0
 17 39  1  0  0  0  0
 18 19  1  0  0  0  0
 20 21  1  0  0  0  0
 20 25  1  0  0  0  0
 20 40  1  0  0  0  0
 21 22  1  0  0  0  0
 22 23  1  0  0  0  0
 22 24  2  0  0  0  0
 23 41  1  0  0  0  0
 23 42  1  0  0  0  0
 23 43  1  0  0  0  0
 25 26  1  0  0  0  0
 25 44  1  0  0  0  0
 26 27  1  0  0  0  0
 27 28  1  0  0  0  0
 27 29  2  0  0  0  0
 28 45  1  0  0  0  0
 28 46  1  0  0  0  0
 28 47  1  0  0  0  0
M  END
> <s_m_source_file>
AV-unprocessed.smi

> <i_m_source_file_index>
104

> <i_lp_mmshare_version>
43012

> <i_f3d_flags>
0

> <s_epik_input>
W0NIM11DKD1PKU9bQ0gyXVtDQEBIXTFPW0NASF0oW0NAQEhdKE9DKD1PKVtDSDNdKVtDQEhdMU9DKD1PKVtDSDNdKW4oYyhCciluMiljKGMyMyluW2NIXW5jM1tOSDJd

> <s_epik_cmdline>
J2VwaWtfcHl0aG9uJywgJy1waCcsICc3LjAnLCAnLXRuJywgJzgnLCAnLW1hJywgJzIwMCcsICctbWV0YWxfYmluZGluZycsICctaW1hZScsICc8aW5maWxlLm1hZT4nLCAnLW9tYWUnLCAnPG91dGZpbGUubWFlPic=

> <r_lp_tautomer_probability>
1

> <r_epik_Ionization_Penalty>
7.36622e-05

> <r_epik_Ionization_Penalty_Charging>
0

> <r_epik_Ionization_Penalty_Neutral>
7.36622e-05

> <r_epik_State_Penalty>
-0

> <r_epik_Charging_Adjusted_Penalty>
0

> <i_epik_Tot_Q>
0

> <i_epik_Tot_abs_Q>
0

> <r_epik_Metal_State_Penalty>
-0

> <b_epik_Metal_Only>
0

> <s_epik_Chemistry_Notes>
This compound has an ester and may undergo hydrolysis at high or low pH. This compound contains an acetal/aminal-like group ( X-CH(R)-Y where X, Y are N, S, or O) that may be acid/base labile, releasing an aldehyde.

> <s_lp_Force_Field>
OPLS_2005

> <r_lp_Energy>
17.7308

> <b_lp_Chiralities_Consistent>
1

> <s_lp_Variant>
AV-unprocessed.smi:104-14

> <Gold.Version>
5.8.1

> <Gold.Id.Protein>
6NUR|6NUR_protein|mol2

> <Gold.PLP.Fitness>
46.7462

> <Gold.PLP.PLP>
-33.7905

> <Gold.PLP.part.hbond>
-5.5248

> <Gold.PLP.part.metal>
0.0000

> <Gold.PLP.part.buried>
-8.1480

> <Gold.PLP.part.nonpolar>
-21.2056

> <Gold.PLP.part.repulsive>
0.7691

> <Gold.PLP.ligand.clash>
0.0000

> <Gold.PLP.ligand.torsion>
0.5232

> <Gold.PLP.Chemscore.Hbond>
4.6320

> <Gold.PLP.Chemscore.CHOScore>
0.0000

> <Gold.PLP.Chemscore.Metal>
0.0000

> <Gold.Chemscore.Hbonds>
donor molecule, donor type, donor heavy atom, donor atom, acceptor molecule, acceptor atom, score
      L1  H    15    38       P1  8028  1.00
      P1  H  6896  6907       L1     7  1.00
      P1  H  6931  6943       L1    24  0.70
      P1  H  6934  6947       L1    24  0.74
      P1  H 10752 10764       L1     3  1.00

> <Gold.PLP.Chemscore.Internal.Correction>
0.1060

> <Gold.Rescore>
     Score         DG    S(hbond)    S(metal)    S(lipo)     H(rot)  DE(clash)    DE(int)     intcor
     11.90     -13.43       4.41        0.00      36.42       4.31       0.08       1.45       ----

> <Gold.Chemscore.Fitness>
11.8999

> <Gold.Chemscore.DG>
-13.4346

> <Gold.Chemscore.ZeroCoef>
-5.4800

> <Gold.Chemscore.Hbond>
4.4070

> <Gold.Chemscore.Metal>
0.0000

> <Gold.Chemscore.Lipo>
36.4180

> <Gold.Chemscore.Internal_Hbond>
0.0000

> <Gold.Chemscore.DEClash>
0.0840

> <Gold.Chemscore.DEInternal>
1.4507

> <Gold.Chemscore.Rot>
4.3070

> <Gold.Chemscore.Internal.Correction>
   9.000000E+99

> <Gold.Chemscore.Hbonds>
donor molecule, donor type, donor heavy atom, donor atom, acceptor molecule, acceptor atom, score
      L1  H    15    38       P1  8028  1.00
      P1  H  6896  6907       L1     7  0.57
      P1  H  6931  6943       L1    24  0.66
      P1  H  6934  6947       L1    24  0.71
      P1  H 10752 10764       L1     3  0.96

> <Gold.Chemscore.Hbond.Weighted>
-14.7195

> <Gold.Chemscore.Metal.Weighted>
-0.0000

> <Gold.Chemscore.Lipo.Weighted>
-4.2609

> <Gold.Chemscore.Internal_Hbond.Weighted>
0.0000

> <Gold.Chemscore.DEClash.Weighted>
0.0840

> <Gold.Chemscore.DEInternal.Weighted>
1.4507

> <Gold.Chemscore.Rot.Weighted>
11.0259

> <Gold.Chemscore.Internal.Correction.Weighted>
   9.000000E+99

> <Gold.Protein.RotatedTorsions>
[ 6907 6896 6895 6894 ] final  -47.28 input  -60.11 | X-H torsion
[ 7974 7965 7964 7962 ] final   73.21 input  175.53 | X-H torsion
[ 8008 7997 7996 7995 ] final    9.85 input   59.86 | X-H torsion
[ 10167 10162 10161 10158 ] final  -75.74 input  -65.29 | X-H torsion
[ 10718 10713 10712 10709 ] final  105.69 input   66.30 | X-H torsion
[ 10763 10752 10751 10750 ] final  -95.13 input  -60.55 | X-H torsion
[ 11005 11000 10999 10996 ] final -163.75 input  -57.11 | X-H torsion

> <Gold.Protein.ActiveResidues>
 VAL166  LYS551  ARG553  GLY616  TRP617  ASP618  TYR619  PRO620  LYS621  CYS622 
 ASP623  PHE694  ASN695  SER759  ASP760  ASP761  ALA762  ILE779  LEU786  VAL792 
 PHE793  MET794  SER795  GLU796  ALA797  LYS798  CYS799  TRP800  GLU811  SER814 

> <Gold.Protein.RotatedAtoms>
  150.9025  134.8438  159.7369 H   0  0  0  0  0  0  0  0  0  0  0  0  # atno 6907 bound_to 6896
  152.4900  134.4481  159.9575 H   0  0  0  0  0  0  0  0  0  0  0  0  # atno 6908 bound_to 6896
  151.4532  133.3573  159.2833 H   0  0  0  0  0  0  0  0  0  0  0  0  # atno 6909 bound_to 6896
  145.7438  139.2731  143.1471 H   0  0  0  0  0  0  0  0  0  0  0  0  # atno 7974 bound_to 7965
  154.7855  140.2826  155.6031 H   0  0  0  0  0  0  0  0  0  0  0  0  # atno 8008 bound_to 7997
  156.2956  140.2615  156.2619 H   0  0  0  0  0  0  0  0  0  0  0  0  # atno 8009 bound_to 7997
  154.9732  140.0376  157.2234 H   0  0  0  0  0  0  0  0  0  0  0  0  # atno 8010 bound_to 7997
  140.4917  143.2379  151.7897 H   0  0  0  0  0  0  0  0  0  0  0  0  # atno 10167 bound_to 10162
  157.6696  131.0833  150.5895 H   0  0  0  0  0  0  0  0  0  0  0  0  # atno 10718 bound_to 10713
  154.7119  135.5132  153.8680 H   0  0  0  0  0  0  0  0  0  0  0  0  # atno 10763 bound_to 10752
  153.0788  135.6625  154.0098 H   0  0  0  0  0  0  0  0  0  0  0  0  # atno 10764 bound_to 10752
  153.9938  135.3017  155.3389 H   0  0  0  0  0  0  0  0  0  0  0  0  # atno 10765 bound_to 10752
  140.5946  134.5010  157.5197 H   0  0  0  0  0  0  0  0  0  0  0  0  # atno 11005 bound_to 11000
  146.0423  140.8153  142.9823 LP  0  0  0  0  0  0  0  0  0  0  0  0  # atno 17320 bound_to 7965
  144.6865  140.2928  143.7275 LP  0  0  0  0  0  0  0  0  0  0  0  0  # atno 17321 bound_to 7965
  139.4852  144.4641  151.9506 LP  0  0  0  0  0  0  0  0  0  0  0  0  # atno 17342 bound_to 10162
  140.3728  144.2834  150.5918 LP  0  0  0  0  0  0  0  0  0  0  0  0  # atno 17343 bound_to 10162
  156.6195  130.4402  149.5827 LP  0  0  0  0  0  0  0  0  0  0  0  0  # atno 17370 bound_to 10713
  156.2367  130.6827  151.1516 LP  0  0  0  0  0  0  0  0  0  0  0  0  # atno 17371 bound_to 10713
  139.9259  134.8057  156.1071 LP  0  0  0  0  0  0  0  0  0  0  0  0  # atno 17394 bound_to 11000
  141.0912  133.6713  156.2545 LP  0  0  0  0  0  0  0  0  0  0  0  0  # atno 17395 bound_to 11000

$$$$
