AV-unprocessed.smi:1381|AV-procd|sdf|5608|dock9
  -GOLD-   22720 5213D 1   1.00000     0.00000
 Structure written by MMmdl.
 43 44  0  0  0  0  0  0  0  0  2 V2000
  150.7185  142.3236  157.4087 C   0  0  0  0  0  0  0  0  0  0  0  0
  150.5096  141.3522  156.2980 C   0  0  0  0  0  0  0  0  0  0  0  0
  149.3909  140.8956  155.6601 C   0  0  0  0  0  0  0  0  0  0  0  0
  149.9205  139.9833  154.7012 C   0  0  0  0  0  0  0  0  0  0  0  0
  149.1759  139.2201  153.7649 N   0  0  0  0  0  0  0  0  0  0  0  0
  147.8493  139.2213  153.5522 C   0  0  0  0  0  0  0  0  0  0  0  0
  147.0288  139.9108  154.1574 O   0  0  0  0  0  0  0  0  0  0  0  0
  147.5123  138.3664  152.5754 N   0  0  0  0  0  0  0  0  0  0  0  0
  146.1520  138.1275  152.1065 C   0  0  0  0  0  0  0  0  0  0  0  0
  145.8268  136.6223  152.0532 C   0  0  0  0  0  0  0  0  0  0  0  0
  144.6104  136.3353  151.2470 N   0  3  1  0  0  0  0  0  0  0  0  0
  144.7281  135.1183  150.4070 C   0  0  0  0  0  0  0  0  0  0  0  0
  144.5501  133.8375  151.2481 C   0  0  2  0  0  0  0  0  0  0  0  0
  144.5829  132.5723  150.3840 C   0  0  0  0  0  0  0  0  0  0  0  0
  143.2892  133.8909  151.9073 O   0  0  0  0  0  0  0  0  0  0  0  0
  143.1796  134.9900  152.8056 C   0  0  2  0  0  0  0  0  0  0  0  0
  141.8183  134.9008  153.5041 C   0  0  0  0  0  0  0  0  0  0  0  0
  143.3409  136.3087  152.0183 C   0  0  0  0  0  0  0  0  0  0  0  0
  151.2365  139.8951  154.7555 N   0  0  0  0  0  0  0  0  0  0  0  0
  151.6233  140.7704  155.7771 O   0  0  0  0  0  0  0  0  0  0  0  0
  149.8131  142.9010  157.5963 H   0  0  0  0  0  0  0  0  0  0  0  0
  151.5202  143.0218  157.1677 H   0  0  0  0  0  0  0  0  0  0  0  0
  150.9861  141.8046  158.3292 H   0  0  0  0  0  0  0  0  0  0  0  0
  148.3691  141.1788  155.8616 H   0  0  0  0  0  0  0  0  0  0  0  0
  149.7234  138.6018  153.1848 H   0  0  0  0  0  0  0  0  0  0  0  0
  148.2483  137.8374  152.1304 H   0  0  0  0  0  0  0  0  0  0  0  0
  145.4810  138.6461  152.7900 H   0  0  0  0  0  0  0  0  0  0  0  0
  146.0103  138.5845  151.1256 H   0  0  0  0  0  0  0  0  0  0  0  0
  146.6741  136.1064  151.6000 H   0  0  0  0  0  0  0  0  0  0  0  0
  145.7293  136.2162  153.0599 H   0  0  0  0  0  0  0  0  0  0  0  0
  143.9547  135.1595  149.6387 H   0  0  0  0  0  0  0  0  0  0  0  0
  145.6817  135.1095  149.8774 H   0  0  0  0  0  0  0  0  0  0  0  0
  145.3440  133.7643  151.9931 H   0  0  0  0  0  0  0  0  0  0  0  0
  145.5353  132.4780  149.8616 H   0  0  0  0  0  0  0  0  0  0  0  0
  143.7898  132.5833  149.6358 H   0  0  0  0  0  0  0  0  0  0  0  0
  144.4506  131.6797  150.9957 H   0  0  0  0  0  0  0  0  0  0  0  0
  143.9557  134.9073  153.5675 H   0  0  0  0  0  0  0  0  0  0  0  0
  141.6855  135.7194  154.2119 H   0  0  0  0  0  0  0  0  0  0  0  0
  141.7249  133.9660  154.0577 H   0  0  0  0  0  0  0  0  0  0  0  0
  141.0001  134.9444  152.7844 H   0  0  0  0  0  0  0  0  0  0  0  0
  143.2675  137.1671  152.6849 H   0  0  0  0  0  0  0  0  0  0  0  0
  142.5173  136.4072  151.3096 H   0  0  0  0  0  0  0  0  0  0  0  0
  144.5390  137.1075  150.5994 H   0  0  0  0  0  0  0  0  0  0  0  0
  1  2  1  0  0  0  0
  1 21  1  0  0  0  0
  1 22  1  0  0  0  0
  1 23  1  0  0  0  0
  2 20  1  0  0  0  0
  2  3  2  0  0  0  0
  3  4  1  0  0  0  0
  3 24  1  0  0  0  0
  4  5  1  0  0  0  0
  4 19  2  0  0  0  0
  5  6  1  0  0  0  0
  5 25  1  0  0  0  0
  6  7  2  0  0  0  0
  6  8  1  0  0  0  0
  8  9  1  0  0  0  0
  8 26  1  0  0  0  0
  9 10  1  0  0  0  0
  9 27  1  0  0  0  0
  9 28  1  0  0  0  0
 10 11  1  0  0  0  0
 10 29  1  0  0  0  0
 10 30  1  0  0  0  0
 11 18  1  0  0  0  0
 11 12  1  0  0  0  0
 11 43  1  0  0  0  0
 12 13  1  0  0  0  0
 12 31  1  0  0  0  0
 12 32  1  0  0  0  0
 13 14  1  0  0  0  0
 13 15  1  0  0  0  0
 13 33  1  0  0  0  0
 14 34  1  0  0  0  0
 14 35  1  0  0  0  0
 14 36  1  0  0  0  0
 15 16  1  0  0  0  0
 16 17  1  0  0  0  0
 16 18  1  0  0  0  0
 16 37  1  0  0  0  0
 17 38  1  0  0  0  0
 17 39  1  0  0  0  0
 17 40  1  0  0  0  0
 18 41  1  0  0  0  0
 18 42  1  0  0  0  0
 19 20  1  0  0  0  0
M  CHG  1  11   1
M  END
> <s_m_source_file>
AV-unprocessed.smi

> <i_m_source_file_index>
1381

> <i_lp_mmshare_version>
43012

> <i_f3d_flags>
0

> <s_epik_input>
W0NIM11jMVtjSF1jKG5vMSlbTkhdQyg9TylbTkhdW0NIMl1bQ0gyXU4yW0NIMl1bQ0BASF0oW0NIM10pT1tDQEBIXShbQ0gzXSlbQ0gyXTI=

> <s_epik_cmdline>
J2VwaWtfcHl0aG9uJywgJy1waCcsICc3LjAnLCAnLXRuJywgJzgnLCAnLW1hJywgJzIwMCcsICctbWV0YWxfYmluZGluZycsICctaW1hZScsICc8aW5maWxlLm1hZT4nLCAnLW9tYWUnLCAnPG91dGZpbGUubWFlPic=

> <r_epik_Ionization_Penalty>
0.707076

> <r_epik_Ionization_Penalty_Charging>
0.707039

> <r_epik_Ionization_Penalty_Neutral>
3.6548e-05

> <r_epik_State_Penalty>
0.730276

> <r_epik_Charging_Adjusted_Penalty>
1.43732

> <i_epik_Tot_Q>
1

> <i_epik_Tot_abs_Q>
1

> <r_epik_Metal_State_Penalty>
0.743132

> <b_epik_Metal_Only>
0

> <s_lp_Force_Field>
OPLS_2005

> <r_lp_Energy>
17.699

> <b_lp_Chiralities_Consistent>
1

> <s_lp_Variant>
AV-unprocessed.smi:1381-7

> <Gold.Version>
5.8.1

> <Gold.Id.Protein>
6NUR|6NUR_protein|mol2

> <Gold.PLP.Fitness>
43.1243

> <Gold.PLP.PLP>
-35.7543

> <Gold.PLP.part.hbond>
-6.0000

> <Gold.PLP.part.metal>
0.0000

> <Gold.PLP.part.buried>
-2.6038

> <Gold.PLP.part.nonpolar>
-27.1370

> <Gold.PLP.part.repulsive>
0.5937

> <Gold.PLP.ligand.clash>
0.0000

> <Gold.PLP.ligand.torsion>
0.5873

> <Gold.PLP.Chemscore.Hbond>
2.8420

> <Gold.PLP.Chemscore.CHOScore>
0.0000

> <Gold.PLP.Chemscore.Metal>
0.0000

> <Gold.Chemscore.Hbonds>
donor molecule, donor type, donor heavy atom, donor atom, acceptor molecule, acceptor atom, score
      L1  H     8    26       P1  7948  0.96
      L1  H    11    43       P1 10171  1.00
      P1  H  7989  7998       L1    19  0.85

> <Gold.PLP.Chemscore.Internal.Correction>
0.0186

> <Gold.Rescore>
     Score         DG    S(hbond)    S(metal)    S(lipo)     H(rot)  DE(clash)    DE(int)     intcor
     16.61     -18.24       2.85        0.00      62.76       1.61       0.06       1.57       ----

> <Gold.Chemscore.Fitness>
16.6102

> <Gold.Chemscore.DG>
-18.2375

> <Gold.Chemscore.ZeroCoef>
-5.4800

> <Gold.Chemscore.Hbond>
2.8535

> <Gold.Chemscore.Metal>
0.0000

> <Gold.Chemscore.Lipo>
62.7648

> <Gold.Chemscore.Internal_Hbond>
0.0000

> <Gold.Chemscore.DEClash>
0.0615

> <Gold.Chemscore.DEInternal>
1.5658

> <Gold.Chemscore.Rot>
1.6081

> <Gold.Chemscore.Internal.Correction>
   9.000000E+99

> <Gold.Chemscore.Hbonds>
donor molecule, donor type, donor heavy atom, donor atom, acceptor molecule, acceptor atom, score
      L1  H     8    26       P1  7948  0.92
      L1  H    11    43       P1 10171  0.99
      P1  H  7989  7998       L1    19  0.04

> <Gold.Chemscore.Hbond.Weighted>
-9.5307

> <Gold.Chemscore.Metal.Weighted>
-0.0000

> <Gold.Chemscore.Lipo.Weighted>
-7.3435

> <Gold.Chemscore.Internal_Hbond.Weighted>
0.0000

> <Gold.Chemscore.DEClash.Weighted>
0.0615

> <Gold.Chemscore.DEInternal.Weighted>
1.5658

> <Gold.Chemscore.Rot.Weighted>
4.1167

> <Gold.Chemscore.Internal.Correction.Weighted>
   9.000000E+99

> <Gold.Protein.RotatedTorsions>
[ 6907 6896 6895 6894 ] final -115.31 input  -60.11 | X-H torsion
[ 7974 7965 7964 7962 ] final   20.96 input  175.53 | X-H torsion
[ 8008 7997 7996 7995 ] final  -58.06 input   59.86 | X-H torsion
[ 10167 10162 10161 10158 ] final -149.96 input  -65.29 | X-H torsion
[ 10718 10713 10712 10709 ] final   81.62 input   66.30 | X-H torsion
[ 10763 10752 10751 10750 ] final  -11.73 input  -60.55 | X-H torsion
[ 11005 11000 10999 10996 ] final  135.34 input  -57.11 | X-H torsion

> <Gold.Protein.ActiveResidues>
 VAL166  LYS551  ARG553  GLY616  TRP617  ASP618  TYR619  PRO620  LYS621  CYS622 
 ASP623  PHE694  ASN695  SER759  ASP760  ASP761  ALA762  ILE779  LEU786  VAL792 
 PHE793  MET794  SER795  GLU796  ALA797  LYS798  CYS799  TRP800  GLU811  SER814 

> <Gold.Protein.RotatedAtoms>
  150.7968  133.8676  159.3249 H   0  0  0  0  0  0  0  0  0  0  0  0  # atno 6907 bound_to 6896
  151.6499  135.1001  160.0168 H   0  0  0  0  0  0  0  0  0  0  0  0  # atno 6908 bound_to 6896
  152.4051  133.6837  159.6384 H   0  0  0  0  0  0  0  0  0  0  0  0  # atno 6909 bound_to 6896
  146.2090  139.8095  142.8703 H   0  0  0  0  0  0  0  0  0  0  0  0  # atno 7974 bound_to 7965
  154.4293  140.1092  156.5897 H   0  0  0  0  0  0  0  0  0  0  0  0  # atno 8008 bound_to 7997
  155.6025  140.3493  155.4579 H   0  0  0  0  0  0  0  0  0  0  0  0  # atno 8009 bound_to 7997
  156.0162  140.1230  157.0393 H   0  0  0  0  0  0  0  0  0  0  0  0  # atno 8010 bound_to 7997
  139.7396  143.8682  152.2558 H   0  0  0  0  0  0  0  0  0  0  0  0  # atno 10167 bound_to 10162
  157.6837  131.0012  150.2253 H   0  0  0  0  0  0  0  0  0  0  0  0  # atno 10718 bound_to 10713
  153.4881  135.7017  153.5900 H   0  0  0  0  0  0  0  0  0  0  0  0  # atno 10763 bound_to 10752
  153.4084  135.3854  155.2034 H   0  0  0  0  0  0  0  0  0  0  0  0  # atno 10764 bound_to 10752
  154.8718  135.3898  154.4338 H   0  0  0  0  0  0  0  0  0  0  0  0  # atno 10765 bound_to 10752
  139.9974  134.9492  156.9994 H   0  0  0  0  0  0  0  0  0  0  0  0  # atno 11005 bound_to 11000
  145.3211  141.0244  143.3500 LP  0  0  0  0  0  0  0  0  0  0  0  0  # atno 17320 bound_to 7965
  144.8866  139.4831  143.6698 LP  0  0  0  0  0  0  0  0  0  0  0  0  # atno 17321 bound_to 7965
  139.8629  144.7108  150.9078 LP  0  0  0  0  0  0  0  0  0  0  0  0  # atno 17342 bound_to 10162
  140.7784  143.3802  151.1490 LP  0  0  0  0  0  0  0  0  0  0  0  0  # atno 17343 bound_to 10162
  156.2896  130.3744  149.7854 LP  0  0  0  0  0  0  0  0  0  0  0  0  # atno 17370 bound_to 10713
  156.5518  130.8345  151.3302 LP  0  0  0  0  0  0  0  0  0  0  0  0  # atno 17371 bound_to 10713
  140.4793  134.1306  155.7214 LP  0  0  0  0  0  0  0  0  0  0  0  0  # atno 17394 bound_to 11000
  141.1615  133.8784  157.1835 LP  0  0  0  0  0  0  0  0  0  0  0  0  # atno 17395 bound_to 11000

$$$$
