#       Name:                AV-unprocessed.smi:2
#       Creating user name   scv26
#       Creation time:       Thu Mar 26 15:13:35 2020


#       File generated by GOLD software.
#

@<TRIPOS>MOLECULE
AV-unprocessed.smi:2
    65    67     1
SMALL
NO_CHARGES


@<TRIPOS>ATOM
      1 ****        -6.6128   4.2533   2.4865 C.3            1 S1                 0.0000
      2 ****        -7.1802   2.9738   1.8561 C.3            1 S1                 0.0000
      3 ****        -6.4186   1.7209   2.3014 C.2            1 S1                 0.0000
      4 ****        -6.8825   1.0563   3.2275 O.2            1 S1                 0.0000
      5 ****        -5.1545   1.3600   1.5928 C.ar           1 S1                 0.0000
      6 ****        -4.6178   2.1527   0.5515 C.ar           1 S1                 0.0000
      7 ****        -3.4250   1.7739  -0.0939 C.ar           1 S1                 0.0000
      8 ****        -2.7399   0.6010   0.2784 C.ar           1 S1                 0.0000
      9 ****        -1.5837   0.3040  -0.4108 O.3            1 S1                 0.0000
     10 ****        -0.9074  -0.9070  -0.0998 C.3            1 S1                 0.0000
     11 ****         0.3143  -1.0467  -1.0216 C.3            1 S1                 0.0000
     12 ****        -0.1320  -1.5071  -2.2808 O.3            1 S1                 0.0000
     13 ****         1.3585  -2.0313  -0.4443 C.3            1 S1                 0.0000
     14 ****         2.5962  -2.0908  -1.2304 N.pl3          1 S1                 0.0000
     15 ****         2.8332  -2.8641  -2.3334 C.2            1 S1                 0.0000
     16 ****         1.9182  -3.8097  -2.9583 N.pl3          1 S1                 1.0000
     17 ****         1.0129  -4.3004  -2.2955 O.2            1 S1                 0.0000
     18 ****         2.1259  -4.0991  -4.1327 O.2            1 S1                -1.0000
     19 ****         4.0528  -2.7178  -2.8498 N.2            1 S1                 0.0000
     20 ****         4.6547  -1.7966  -2.0172 C.2            1 S1                 0.0000
     21 ****         6.0324  -1.2700  -2.0600 C.2            1 S1                 0.0000
     22 ****         6.8073  -1.5902  -2.9625 O.2            1 S1                 0.0000
     23 ****         6.3467  -0.4430  -1.0155 N.am           1 S1                 0.0000
     24 ****         7.7256   0.0752  -0.9285 C.3            1 S1                 0.0000
     25 ****         5.4699  -0.0405  -0.0251 C.2            1 S1                 0.0000
     26 ****         5.8595   0.6828   0.8968 O.2            1 S1                 0.0000
     27 ****         4.1580  -0.4544  -0.0940 N.am           1 S1                 0.0000
     28 ****         3.1969   0.1225   0.8573 C.3            1 S1                 0.0000
     29 ****         3.8033  -1.3764  -1.0447 C.2            1 S1                 0.0000
     30 ****        -3.2718  -0.1919   1.3242 C.ar           1 S1                 0.0000
     31 ****        -4.4639   0.1864   1.9714 C.ar           1 S1                 0.0000
     32 ****        -7.1940   5.1223   2.1782 H              1 S1                 0.0000
     33 ****        -5.5783   4.4269   2.1899 H              1 S1                 0.0000
     34 ****        -6.6452   4.2050   3.5756 H              1 S1                 0.0000
     35 ****        -8.2241   2.8614   2.1506 H              1 S1                 0.0000
     36 ****        -7.1822   3.0450   0.7688 H              1 S1                 0.0000
     37 ****        -5.1016   3.0611   0.2269 H              1 S1                 0.0000
     38 ****        -3.0324   2.3922  -0.8880 H              1 S1                 0.0000
     39 ****        -0.5734  -0.8531   0.9376 H              1 S1                 0.0000
     40 ****        -1.5636  -1.7741  -0.1949 H              1 S1                 0.0000
     41 ****         0.7722  -0.0694  -1.1698 H              1 S1                 0.0000
     42 ****        -0.5615  -2.3407  -2.1620 H              1 S1                 0.0000
     43 ****         1.5963  -1.7880   0.5852 H              1 S1                 0.0000
     44 ****         0.9300  -3.0244  -0.3418 H              1 S1                 0.0000
     45 ****         7.7254   1.1644  -0.9956 H              1 S1                 0.0000
     46 ****         8.4028  -0.2850  -1.7037 H              1 S1                 0.0000
     47 ****         8.1791  -0.2018   0.0246 H              1 S1                 0.0000
     48 ****         3.0337  -0.5557   1.6949 H              1 S1                 0.0000
     49 ****         2.2487   0.3510   0.3814 H              1 S1                 0.0000
     50 ****         3.5160   1.0762   1.2798 H              1 S1                 0.0000
     51 ****        -2.7842  -1.0976   1.6513 H              1 S1                 0.0000
     52 ****        -4.8423  -0.4424   2.7645 H              1 S1                 0.0000
     53 ****        -7.7346   1.3389   3.6679 LP             1 S1                 0.0000
     54 ****        -6.4072   0.2337   3.5397 LP             1 S1                 0.0000
     55 ****        -0.9410   1.0526  -0.2478 LP             1 S1                 0.0000
     56 ****        -1.8179   0.2715  -1.3824 LP             1 S1                 0.0000
     57 ****         0.6488  -1.6150  -2.8962 LP             1 S1                 0.0000
     58 ****        -0.7757  -0.8490  -2.6713 LP             1 S1                 0.0000
     59 ****         0.9062  -4.0511  -1.3329 LP             1 S1                 0.0000
     60 ****         0.3804  -4.9503  -2.7168 LP             1 S1                 0.0000
     61 ****         4.4411  -3.1698  -3.6528 LP             1 S1                 0.0000
     62 ****         6.5060  -2.2165  -3.6815 LP             1 S1                 0.0000
     63 ****         7.7377  -1.2238  -2.9761 LP             1 S1                 0.0000
     64 ****         6.8136   0.9805   0.9298 LP             1 S1                 0.0000
     65 ****         5.2210   0.9709   1.6104 LP             1 S1                 0.0000
@<TRIPOS>BOND
    1    1    2 1     
    2    1   32 1     
    3    1   33 1     
    4    1   34 1     
    5    2    3 1     
    6    2   35 1     
    7    2   36 1     
    8    3    4 2     
    9    3    5 1     
   10    5   31 ar    
   11    5    6 ar    
   12    6    7 ar    
   13    6   37 1     
   14    7    8 ar    
   15    7   38 1     
   16    8    9 1     
   17    8   30 ar    
   18    9   10 1     
   19   10   11 1     
   20   10   39 1     
   21   10   40 1     
   22   11   12 1     
   23   11   13 1     
   24   11   41 1     
   25   12   42 1     
   26   13   14 1     
   27   13   43 1     
   28   13   44 1     
   29   14   29 1     
   30   14   15 1     
   31   15   16 1     
   32   15   19 2     
   33   16   17 2     
   34   16   18 1     
   35   19   20 1     
   36   20   29 2     
   37   20   21 1     
   38   21   22 2     
   39   21   23 am    
   40   23   24 1     
   41   23   25 am    
   42   24   45 1     
   43   24   46 1     
   44   24   47 1     
   45   25   26 2     
   46   25   27 am    
   47   27   28 1     
   48   27   29 1     
   49   28   48 1     
   50   28   49 1     
   51   28   50 1     
   52   30   31 ar    
   53   30   51 1     
   54   31   52 1     
   55    4   53 1     
   56    4   54 1     
   57    9   55 1     
   58    9   56 1     
   59   12   57 1     
   60   12   58 1     
   61   17   59 1     
   62   17   60 1     
   63   19   61 1     
   64   22   62 1     
   65   22   63 1     
   66   26   64 1     
   67   26   65 1     
@<TRIPOS>SUBSTRUCTURE
      1 S1             1
@<TRIPOS>SET
LONE_PAIRS      STATIC     ATOMS    <user>   **** ""
14 53 54 55 56 57 58 59 60 18 61 62 63 64 65
DONOR_HYDROGENS      STATIC     ATOMS    <user>   **** ""
1 42
ATOM$BLUE        STATIC     ATOMS    COLORGROUP SYSTEM
14 53 54 55 56 57 58 59 60 18 61 62 63 64 65
ATOM$RED        STATIC     ATOMS    COLORGROUP SYSTEM
1 42
