AV-unprocessed.smi:101|AV-procd|sdf|916|dock10
  -GOLD-   2262017413D 1   1.00000     0.00000
 Structure written by MMmdl.
 44 46  0  0  0  0  0  0  0  0  1 V2000
  145.1216  142.5035  158.3093 C   0  0  0  0  0  0  0  0  0  0  0  0
  145.3020  142.8557  156.8419 C   0  0  0  0  0  0  0  0  0  0  0  0
  146.2901  142.3185  156.0813 C   0  0  0  0  0  0  0  0  0  0  0  0
  146.4797  142.6218  154.7388 N   0  0  0  0  0  0  0  0  0  0  0  0
  147.5921  141.9998  153.9165 C   0  0  1  0  0  0  0  0  0  0  0  0
  148.6600  141.6629  154.7557 O   0  0  0  0  0  0  0  0  0  0  0  0
  148.8058  140.2481  154.8081 C   0  0  2  0  0  0  0  0  0  0  0  0
  150.2462  139.8713  155.1819 C   0  0  0  0  0  0  0  0  0  0  0  0
  150.8363  140.9027  155.9574 O   0  0  0  0  0  0  0  0  0  0  0  0
  151.0002  140.7434  157.2839 C   0  0  0  0  0  0  0  0  0  0  0  0
  150.8678  139.6637  157.8637 O   0  0  0  0  0  0  0  0  0  0  0  0
  151.3586  142.0135  157.9785 C   0  0  0  0  0  0  0  0  0  0  0  0
  151.9260  141.9595  159.2731 C   0  0  0  0  0  0  0  0  0  0  0  0
  152.2723  143.1427  159.9542 C   0  0  0  0  0  0  0  0  0  0  0  0
  152.0553  144.3944  159.3495 C   0  0  0  0  0  0  0  0  0  0  0  0
  151.4916  144.4618  158.0621 C   0  0  0  0  0  0  0  0  0  0  0  0
  151.1450  143.2797  157.3788 C   0  0  0  0  0  0  0  0  0  0  0  0
  148.3355  139.7870  153.4297 C   0  0  1  0  0  0  0  0  0  0  0  0
  148.0025  138.4119  153.3891 O   0  0  0  0  0  0  0  0  0  0  0  0
  147.1513  140.7135  153.1737 C   0  0  1  0  0  0  0  0  0  0  0  0
  145.9320  140.1693  153.6585 O   0  0  0  0  0  0  0  0  0  0  0  0
  145.6006  143.5229  154.1043 C   0  0  0  0  0  0  0  0  0  0  0  0
  145.6945  143.8170  152.9133 O   0  0  0  0  0  0  0  0  0  0  0  0
  144.5885  144.0772  154.8851 N   0  0  0  0  0  0  0  0  0  0  0  0
  144.3674  143.8096  156.2382 C   0  0  0  0  0  0  0  0  0  0  0  0
  143.4379  144.3635  156.8230 O   0  0  0  0  0  0  0  0  0  0  0  0
  143.9584  144.7246  154.4344 H   0  0  0  0  0  0  0  0  0  0  0  0
  145.8599  141.7747  158.6443 H   0  0  0  0  0  0  0  0  0  0  0  0
  144.1319  142.0791  158.4817 H   0  0  0  0  0  0  0  0  0  0  0  0
  145.2259  143.3942  158.9299 H   0  0  0  0  0  0  0  0  0  0  0  0
  146.9559  141.6153  156.5574 H   0  0  0  0  0  0  0  0  0  0  0  0
  147.9506  142.7835  153.2463 H   0  0  0  0  0  0  0  0  0  0  0  0
  148.1248  139.8653  155.5700 H   0  0  0  0  0  0  0  0  0  0  0  0
  150.2518  138.9377  155.7459 H   0  0  0  0  0  0  0  0  0  0  0  0
  150.8340  139.7106  154.2770 H   0  0  0  0  0  0  0  0  0  0  0  0
  152.1020  141.0102  159.7582 H   0  0  0  0  0  0  0  0  0  0  0  0
  152.7048  143.0888  160.9423 H   0  0  0  0  0  0  0  0  0  0  0  0
  152.3211  145.3013  159.8725 H   0  0  0  0  0  0  0  0  0  0  0  0
  151.3240  145.4221  157.5969 H   0  0  0  0  0  0  0  0  0  0  0  0
  150.7142  143.3672  156.3921 H   0  0  0  0  0  0  0  0  0  0  0  0
  149.1047  139.9864  152.6826 H   0  0  0  0  0  0  0  0  0  0  0  0
  148.5689  137.9842  152.7650 H   0  0  0  0  0  0  0  0  0  0  0  0
  147.0314  140.9285  152.1113 H   0  0  0  0  0  0  0  0  0  0  0  0
  145.2482  140.3716  153.0383 H   0  0  0  0  0  0  0  0  0  0  0  0
  1  2  1  0  0  0  0
  1 28  1  0  0  0  0
  1 29  1  0  0  0  0
  1 30  1  0  0  0  0
  2 25  1  0  0  0  0
  2  3  2  0  0  0  0
  3  4  1  0  0  0  0
  3 31  1  0  0  0  0
  4  5  1  0  0  0  0
  4 22  1  0  0  0  0
  5 20  1  0  0  0  0
  5  6  1  0  0  0  0
  5 32  1  0  0  0  0
  6  7  1  0  0  0  0
  7  8  1  0  0  0  0
  7 18  1  0  0  0  0
  7 33  1  0  0  0  0
  8  9  1  0  0  0  0
  8 34  1  0  0  0  0
  8 35  1  0  0  0  0
  9 10  1  0  0  0  0
 10 11  2  0  0  0  0
 10 12  1  0  0  0  0
 12 17  1  0  0  0  0
 12 13  2  0  0  0  0
 13 14  1  0  0  0  0
 13 36  1  0  0  0  0
 14 15  2  0  0  0  0
 14 37  1  0  0  0  0
 15 16  1  0  0  0  0
 15 38  1  0  0  0  0
 16 17  2  0  0  0  0
 16 39  1  0  0  0  0
 17 40  1  0  0  0  0
 18 19  1  0  0  0  0
 18 20  1  0  0  0  0
 18 41  1  0  0  0  0
 19 42  1  0  0  0  0
 20 21  1  0  0  0  0
 20 43  1  0  0  0  0
 21 44  1  0  0  0  0
 22 23  2  0  0  0  0
 22 24  1  0  0  0  0
 24 27  1  0  0  0  0
 24 25  1  0  0  0  0
 25 26  2  0  0  0  0
M  END
> <s_m_source_file>
AV-unprocessed.smi

> <i_m_source_file_index>
101

> <i_lp_mmshare_version>
43012

> <i_f3d_flags>
0

> <s_epik_input>
Tz1jMVtuSF1jKD1PKW4oW2NIXWMxW0NIM10pW0NAQEhdMk9bQ0BIXShbQ0BASF0oW09IXSlbQ0BIXTJbT0hdKVtDSDJdT0MoPU8pYzNbY0hdW2NIXVtjSF1bY0hdW2NIXTM=

> <s_epik_cmdline>
J2VwaWtfcHl0aG9uJywgJy1waCcsICc3LjAnLCAnLXRuJywgJzgnLCAnLW1hJywgJzIwMCcsICctbWV0YWxfYmluZGluZycsICctaW1hZScsICc8aW5maWxlLm1hZT4nLCAnLW9tYWUnLCAnPG91dGZpbGUubWFlPic=

> <r_lp_tautomer_probability>
0.999537

> <r_epik_Ionization_Penalty>
0.00263537

> <r_epik_Ionization_Penalty_Charging>
0.00263428

> <r_epik_Ionization_Penalty_Neutral>
1.09111e-06

> <r_epik_State_Penalty>
0.00183335

> <r_epik_Charging_Adjusted_Penalty>
0.00446763

> <i_epik_Tot_Q>
0

> <i_epik_Tot_abs_Q>
0

> <r_epik_Metal_State_Penalty>
1.00528

> <b_epik_Metal_Only>
0

> <s_epik_Chemistry_Notes>
This compound has an ester and may undergo hydrolysis at high or low pH. This compound contains an acetal/aminal-like group ( X-CH(R)-Y where X, Y are N, S, or O) that may be acid/base labile, releasing an aldehyde.

> <s_lp_Force_Field>
OPLS_2005

> <r_lp_Energy>
40.9392

> <b_lp_Chiralities_Consistent>
1

> <s_lp_Variant>
AV-unprocessed.smi:101-4

> <Gold.Version>
5.8.1

> <Gold.Id.Protein>
6NUR|6NUR_protein|mol2

> <Gold.PLP.Fitness>
49.1629

> <Gold.PLP.PLP>
-46.9830

> <Gold.PLP.part.hbond>
-2.9845

> <Gold.PLP.part.metal>
0.0000

> <Gold.PLP.part.buried>
-3.9304

> <Gold.PLP.part.nonpolar>
-40.5728

> <Gold.PLP.part.repulsive>
0.4358

> <Gold.PLP.ligand.clash>
0.0000

> <Gold.PLP.ligand.torsion>
1.7724

> <Gold.PLP.Chemscore.Hbond>
1.8960

> <Gold.PLP.Chemscore.CHOScore>
0.0000

> <Gold.PLP.Chemscore.Metal>
0.0000

> <Gold.Chemscore.Hbonds>
donor molecule, donor type, donor heavy atom, donor atom, acceptor molecule, acceptor atom, score
      L1  H    19    42       P1  7948  0.91
      L1  H    21    44       P1 10175  1.00

> <Gold.PLP.Chemscore.Internal.Correction>
0.0368

> <Gold.Rescore>
     Score         DG    S(hbond)    S(metal)    S(lipo)     H(rot)  DE(clash)    DE(int)     intcor
     12.74     -14.95       1.99        0.00      96.64       3.32       0.62       1.59       ----

> <Gold.Chemscore.Fitness>
12.7401

> <Gold.Chemscore.DG>
-14.9536

> <Gold.Chemscore.ZeroCoef>
-5.4800

> <Gold.Chemscore.Hbond>
1.9936

> <Gold.Chemscore.Metal>
0.0000

> <Gold.Chemscore.Lipo>
96.6415

> <Gold.Chemscore.Internal_Hbond>
0.0000

> <Gold.Chemscore.DEClash>
0.6188

> <Gold.Chemscore.DEInternal>
1.5948

> <Gold.Chemscore.Rot>
3.3172

> <Gold.Chemscore.Internal.Correction>
   9.000000E+99

> <Gold.Chemscore.Hbonds>
donor molecule, donor type, donor heavy atom, donor atom, acceptor molecule, acceptor atom, score
      L1  H    19    42       P1  7948  0.86
      L1  H    21    44       P1 10175  0.96

> <Gold.Chemscore.Hbond.Weighted>
-6.6586

> <Gold.Chemscore.Metal.Weighted>
-0.0000

> <Gold.Chemscore.Lipo.Weighted>
-11.3071

> <Gold.Chemscore.Internal_Hbond.Weighted>
0.0000

> <Gold.Chemscore.DEClash.Weighted>
0.6188

> <Gold.Chemscore.DEInternal.Weighted>
1.5948

> <Gold.Chemscore.Rot.Weighted>
8.4920

> <Gold.Chemscore.Internal.Correction.Weighted>
   9.000000E+99

> <Gold.Protein.RotatedTorsions>
[ 6907 6896 6895 6894 ] final   46.66 input  -60.11 | X-H torsion
[ 7974 7965 7964 7962 ] final   39.44 input  175.53 | X-H torsion
[ 8008 7997 7996 7995 ] final  -34.82 input   59.86 | X-H torsion
[ 10167 10162 10161 10158 ] final   50.42 input  -65.29 | X-H torsion
[ 10718 10713 10712 10709 ] final -132.42 input   66.30 | X-H torsion
[ 10763 10752 10751 10750 ] final  -23.27 input  -60.55 | X-H torsion
[ 11005 11000 10999 10996 ] final  126.37 input  -57.11 | X-H torsion

> <Gold.Protein.ActiveResidues>
 VAL166  LYS551  ARG553  GLY616  TRP617  ASP618  TYR619  PRO620  LYS621  CYS622 
 ASP623  PHE694  ASN695  SER759  ASP760  ASP761  ALA762  ILE779  LEU786  VAL792 
 PHE793  MET794  SER795  GLU796  ALA797  LYS798  CYS799  TRP800  GLU811  SER814 

> <Gold.Protein.RotatedAtoms>
  152.2590  134.8054  160.0433 H   0  0  0  0  0  0  0  0  0  0  0  0  # atno 6907 bound_to 6896
  151.8707  133.3470  159.3742 H   0  0  0  0  0  0  0  0  0  0  0  0  # atno 6908 bound_to 6896
  150.7110  134.5042  159.5620 H   0  0  0  0  0  0  0  0  0  0  0  0  # atno 6909 bound_to 6896
  146.0984  139.5652  142.9430 H   0  0  0  0  0  0  0  0  0  0  0  0  # atno 7974 bound_to 7965
  154.4111  140.1673  156.2112 H   0  0  0  0  0  0  0  0  0  0  0  0  # atno 8008 bound_to 7997
  155.9442  140.3406  155.6330 H   0  0  0  0  0  0  0  0  0  0  0  0  # atno 8009 bound_to 7997
  155.6950  140.0738  157.2423 H   0  0  0  0  0  0  0  0  0  0  0  0  # atno 8010 bound_to 7997
  140.2726  144.3248  150.6286 H   0  0  0  0  0  0  0  0  0  0  0  0  # atno 10167 bound_to 10162
  156.2343  130.7057  151.0891 H   0  0  0  0  0  0  0  0  0  0  0  0  # atno 10718 bound_to 10713
  153.6652  135.6974  153.5164 H   0  0  0  0  0  0  0  0  0  0  0  0  # atno 10763 bound_to 10752
  153.2601  135.4247  155.0884 H   0  0  0  0  0  0  0  0  0  0  0  0  # atno 10764 bound_to 10752
  154.8441  135.3552  154.6196 H   0  0  0  0  0  0  0  0  0  0  0  0  # atno 10765 bound_to 10752
  139.9453  134.9630  156.8696 H   0  0  0  0  0  0  0  0  0  0  0  0  # atno 11005 bound_to 11000
  145.5902  141.0370  143.2074 LP  0  0  0  0  0  0  0  0  0  0  0  0  # atno 17320 bound_to 7965
  144.7413  139.7440  143.7309 LP  0  0  0  0  0  0  0  0  0  0  0  0  # atno 17321 bound_to 7965
  140.5877  143.2169  151.7310 LP  0  0  0  0  0  0  0  0  0  0  0  0  # atno 17342 bound_to 10162
  139.4985  144.3985  152.0206 LP  0  0  0  0  0  0  0  0  0  0  0  0  # atno 17343 bound_to 10162
  157.7147  131.0716  150.6370 LP  0  0  0  0  0  0  0  0  0  0  0  0  # atno 17370 bound_to 10713
  156.6439  130.4466  149.5742 LP  0  0  0  0  0  0  0  0  0  0  0  0  # atno 17371 bound_to 10713
  140.5851  134.0315  155.7478 LP  0  0  0  0  0  0  0  0  0  0  0  0  # atno 17394 bound_to 11000
  141.1101  133.9631  157.2926 LP  0  0  0  0  0  0  0  0  0  0  0  0  # atno 17395 bound_to 11000

$$$$
