AV-unprocessed.smi:2104|AV-procd|sdf|8587|dock2
  -GOLD-   2272011313D 1   1.00000     0.00000
 Structure written by MMmdl.
 42 43  0  0  0  0  0  0  0  0  2 V2000
  144.7946  144.1045  152.7333 C   0  0  0  0  0  0  0  0  0  0  0  0
  145.2618  143.0499  153.6770 C   0  0  0  0  0  0  0  0  0  0  0  0
  146.4150  142.3226  153.7574 C   0  0  0  0  0  0  0  0  0  0  0  0
  146.2048  141.5051  154.9011 C   0  0  0  0  0  0  0  0  0  0  0  0
  147.0655  140.5971  155.3861 N   0  5  0  0  0  0  0  0  0  0  0  0
  148.3971  140.7547  155.2039 C   0  0  0  0  0  0  0  0  0  0  0  0
  148.9639  141.0197  154.1413 O   0  0  0  0  0  0  0  0  0  0  0  0
  149.1171  140.5896  156.3209 N   0  0  0  0  0  0  0  0  0  0  0  0
  150.5701  140.6655  156.4121 C   0  0  0  0  0  0  0  0  0  0  0  0
  151.0191  142.1220  156.5685 C   0  0  0  0  0  0  0  0  0  0  0  0
  150.7686  142.5282  157.9059 O   0  0  0  0  0  0  0  0  0  0  0  0
  151.9311  142.7137  158.7018 C   0  0  2  0  0  0  0  0  0  0  0  0
  152.2920  141.3895  159.4070 C   0  0  0  0  0  0  0  0  0  0  0  0
  153.4505  141.5744  160.3981 C   0  0  0  0  0  0  0  0  0  0  0  0
  153.1293  142.6717  161.4224 C   0  0  0  0  0  0  0  0  0  0  0  0
  152.7838  143.9947  160.7223 C   0  0  0  0  0  0  0  0  0  0  0  0
  151.6184  143.8269  159.7270 C   0  0  1  0  0  0  0  0  0  0  0  0
  151.2973  145.1620  159.0344 C   0  0  0  0  0  0  0  0  0  0  0  0
  145.0203  141.7048  155.4548 N   0  0  0  0  0  0  0  0  0  0  0  0
  144.4124  142.7002  154.6801 O   0  0  0  0  0  0  0  0  0  0  0  0
  145.1081  143.8772  151.7142 H   0  0  0  0  0  0  0  0  0  0  0  0
  145.2084  145.0750  153.0064 H   0  0  0  0  0  0  0  0  0  0  0  0
  143.7075  144.1847  152.7415 H   0  0  0  0  0  0  0  0  0  0  0  0
  147.2750  142.3700  153.1066 H   0  0  0  0  0  0  0  0  0  0  0  0
  148.6163  140.3689  157.1690 H   0  0  0  0  0  0  0  0  0  0  0  0
  150.9331  140.0750  157.2549 H   0  0  0  0  0  0  0  0  0  0  0  0
  151.0010  140.2364  155.5069 H   0  0  0  0  0  0  0  0  0  0  0  0
  152.0816  142.2081  156.3403 H   0  0  0  0  0  0  0  0  0  0  0  0
  150.4790  142.7566  155.8639 H   0  0  0  0  0  0  0  0  0  0  0  0
  152.7688  143.0408  158.0824 H   0  0  0  0  0  0  0  0  0  0  0  0
  151.4184  141.0095  159.9382 H   0  0  0  0  0  0  0  0  0  0  0  0
  152.5625  140.6285  158.6753 H   0  0  0  0  0  0  0  0  0  0  0  0
  153.6546  140.6345  160.9118 H   0  0  0  0  0  0  0  0  0  0  0  0
  154.3595  141.8347  159.8547 H   0  0  0  0  0  0  0  0  0  0  0  0
  152.2917  142.3577  162.0467 H   0  0  0  0  0  0  0  0  0  0  0  0
  153.9777  142.8157  162.0920 H   0  0  0  0  0  0  0  0  0  0  0  0
  152.5296  144.7465  161.4704 H   0  0  0  0  0  0  0  0  0  0  0  0
  153.6652  144.3675  160.1985 H   0  0  0  0  0  0  0  0  0  0  0  0
  150.7354  143.5275  160.2937 H   0  0  0  0  0  0  0  0  0  0  0  0
  152.1373  145.5081  158.4317 H   0  0  0  0  0  0  0  0  0  0  0  0
  151.0683  145.9383  159.7646 H   0  0  0  0  0  0  0  0  0  0  0  0
  150.4328  145.0707  158.3758 H   0  0  0  0  0  0  0  0  0  0  0  0
  1  2  1  0  0  0  0
  1 21  1  0  0  0  0
  1 22  1  0  0  0  0
  1 23  1  0  0  0  0
  2 20  1  0  0  0  0
  2  3  2  0  0  0  0
  3  4  1  0  0  0  0
  3 24  1  0  0  0  0
  4  5  1  0  0  0  0
  4 19  2  0  0  0  0
  5  6  1  0  0  0  0
  6  7  2  0  0  0  0
  6  8  1  0  0  0  0
  8  9  1  0  0  0  0
  8 25  1  0  0  0  0
  9 10  1  0  0  0  0
  9 26  1  0  0  0  0
  9 27  1  0  0  0  0
 10 11  1  0  0  0  0
 10 28  1  0  0  0  0
 10 29  1  0  0  0  0
 11 12  1  0  0  0  0
 12 17  1  0  0  0  0
 12 13  1  0  0  0  0
 12 30  1  0  0  0  0
 13 14  1  0  0  0  0
 13 31  1  0  0  0  0
 13 32  1  0  0  0  0
 14 15  1  0  0  0  0
 14 33  1  0  0  0  0
 14 34  1  0  0  0  0
 15 16  1  0  0  0  0
 15 35  1  0  0  0  0
 15 36  1  0  0  0  0
 16 17  1  0  0  0  0
 16 37  1  0  0  0  0
 16 38  1  0  0  0  0
 17 18  1  0  0  0  0
 17 39  1  0  0  0  0
 18 40  1  0  0  0  0
 18 41  1  0  0  0  0
 18 42  1  0  0  0  0
 19 20  1  0  0  0  0
M  CHG  1   5  -1
M  END
> <s_m_source_file>
AV-unprocessed.smi

> <i_m_source_file_index>
2104

> <i_lp_mmshare_version>
43012

> <i_f3d_flags>
0

> <s_epik_input>
W0NIM11jMVtjSF1jKG5vMSlbTkhdQyg9TylbTkhdW0NIMl1bQ0gyXU9bQ0BASF0yW0NIMl1bQ0gyXVtDSDJdW0NIMl1bQ0BIXTJbQ0gzXQ==

> <s_epik_cmdline>
J2VwaWtfcHl0aG9uJywgJy1waCcsICc3LjAnLCAnLXRuJywgJzgnLCAnLW1hJywgJzIwMCcsICctbWV0YWxfYmluZGluZycsICctaW1hZScsICc8aW5maWxlLm1hZT4nLCAnLW9tYWUnLCAnPG91dGZpbGUubWFlPic=

> <r_lp_tautomer_probability>
1

> <r_epik_Ionization_Penalty>
6.47137

> <r_epik_Ionization_Penalty_Charging>
6.47125

> <r_epik_Ionization_Penalty_Neutral>
0.000118933

> <r_epik_State_Penalty>
6.47124

> <r_epik_Charging_Adjusted_Penalty>
12.9425

> <i_epik_Tot_Q>
-1

> <i_epik_Tot_abs_Q>
1

> <r_epik_Metal_State_Penalty>
2.3995

> <b_epik_Metal_Only>
1

> <s_lp_Force_Field>
OPLS_2005

> <r_lp_Energy>
5.464

> <b_lp_Chiralities_Consistent>
1

> <s_lp_Variant>
AV-unprocessed.smi:2104-5

> <Gold.Version>
5.8.1

> <Gold.Id.Protein>
6NUR|6NUR_protein|mol2

> <Gold.PLP.Fitness>
43.3155

> <Gold.PLP.PLP>
-44.3187

> <Gold.PLP.part.hbond>
-1.2499

> <Gold.PLP.part.metal>
0.0000

> <Gold.PLP.part.buried>
-8.4191

> <Gold.PLP.part.nonpolar>
-35.7843

> <Gold.PLP.part.repulsive>
0.7420

> <Gold.PLP.ligand.clash>
0.0000

> <Gold.PLP.ligand.torsion>
1.5526

> <Gold.PLP.Chemscore.Hbond>
0.6240

> <Gold.PLP.Chemscore.CHOScore>
0.0000

> <Gold.PLP.Chemscore.Metal>
0.0000

> <Gold.PLP.Chemscore.Internal.Correction>
0.2301

> <Gold.Rescore>
     Score         DG    S(hbond)    S(metal)    S(lipo)     H(rot)  DE(clash)    DE(int)     intcor
     13.31     -16.43       0.62        0.00     113.35       1.71       0.26       2.85       ----

> <Gold.Chemscore.Fitness>
13.3135

> <Gold.Chemscore.DG>
-16.4315

> <Gold.Chemscore.ZeroCoef>
-5.4800

> <Gold.Chemscore.Hbond>
0.6191

> <Gold.Chemscore.Metal>
0.0000

> <Gold.Chemscore.Lipo>
113.3499

> <Gold.Chemscore.Internal_Hbond>
0.0000

> <Gold.Chemscore.DEClash>
0.2633

> <Gold.Chemscore.DEInternal>
2.8547

> <Gold.Chemscore.Rot>
1.7103

> <Gold.Chemscore.Internal.Correction>
   9.000000E+99

> <Gold.Chemscore.Hbonds>
donor molecule, donor type, donor heavy atom, donor atom, acceptor molecule, acceptor atom, score
      P1  H  8011  8017       L1     7  0.06

> <Gold.Chemscore.Hbond.Weighted>
-2.0679

> <Gold.Chemscore.Metal.Weighted>
-0.0000

> <Gold.Chemscore.Lipo.Weighted>
-13.2619

> <Gold.Chemscore.Internal_Hbond.Weighted>
0.0000

> <Gold.Chemscore.DEClash.Weighted>
0.2633

> <Gold.Chemscore.DEInternal.Weighted>
2.8547

> <Gold.Chemscore.Rot.Weighted>
4.3784

> <Gold.Chemscore.Internal.Correction.Weighted>
   9.000000E+99

> <Gold.Protein.RotatedTorsions>
[ 6907 6896 6895 6894 ] final  135.58 input  -60.11 | X-H torsion
[ 7974 7965 7964 7962 ] final  -57.59 input  175.53 | X-H torsion
[ 8008 7997 7996 7995 ] final   97.74 input   59.86 | X-H torsion
[ 10167 10162 10161 10158 ] final  107.20 input  -65.29 | X-H torsion
[ 10718 10713 10712 10709 ] final  -48.82 input   66.30 | X-H torsion
[ 10763 10752 10751 10750 ] final  119.77 input  -60.55 | X-H torsion
[ 11005 11000 10999 10996 ] final   63.80 input  -57.11 | X-H torsion

> <Gold.Protein.ActiveResidues>
 VAL166  LYS551  ARG553  GLY616  TRP617  ASP618  TYR619  PRO620  LYS621  CYS622 
 ASP623  PHE694  ASN695  SER759  ASP760  ASP761  ALA762  ILE779  LEU786  VAL792 
 PHE793  MET794  SER795  GLU796  ALA797  LYS798  CYS799  TRP800  GLU811  SER814 

> <Gold.Protein.RotatedAtoms>
  152.2988  133.5635  159.5604 H   0  0  0  0  0  0  0  0  0  0  0  0  # atno 6907 bound_to 6896
  150.7268  134.0321  159.3746 H   0  0  0  0  0  0  0  0  0  0  0  0  # atno 6908 bound_to 6896
  151.8222  135.0648  160.0477 H   0  0  0  0  0  0  0  0  0  0  0  0  # atno 6909 bound_to 6896
  145.8493  140.8363  142.9994 H   0  0  0  0  0  0  0  0  0  0  0  0  # atno 7974 bound_to 7965
  156.0933  140.3254  155.7844 H   0  0  0  0  0  0  0  0  0  0  0  0  # atno 8008 bound_to 7997
  155.4960  140.0565  157.2963 H   0  0  0  0  0  0  0  0  0  0  0  0  # atno 8009 bound_to 7997
  154.4651  140.1985  156.0156 H   0  0  0  0  0  0  0  0  0  0  0  0  # atno 8010 bound_to 7997
  139.6947  144.7103  151.1288 H   0  0  0  0  0  0  0  0  0  0  0  0  # atno 10167 bound_to 10162
  156.1951  130.4154  149.9317 H   0  0  0  0  0  0  0  0  0  0  0  0  # atno 10718 bound_to 10713
  153.5881  135.3471  155.2900 H   0  0  0  0  0  0  0  0  0  0  0  0  # atno 10763 bound_to 10752
  154.8657  135.4198  154.2546 H   0  0  0  0  0  0  0  0  0  0  0  0  # atno 10764 bound_to 10752
  153.3347  135.7046  153.6988 H   0  0  0  0  0  0  0  0  0  0  0  0  # atno 10765 bound_to 10752
  140.0000  134.6456  155.9946 H   0  0  0  0  0  0  0  0  0  0  0  0  # atno 11005 bound_to 11000
  144.6730  140.0929  143.7464 LP  0  0  0  0  0  0  0  0  0  0  0  0  # atno 17320 bound_to 7965
  145.9376  139.2647  143.1288 LP  0  0  0  0  0  0  0  0  0  0  0  0  # atno 17321 bound_to 7965
  140.7693  143.5509  150.9206 LP  0  0  0  0  0  0  0  0  0  0  0  0  # atno 17342 bound_to 10162
  139.9188  143.6631  152.3101 LP  0  0  0  0  0  0  0  0  0  0  0  0  # atno 17343 bound_to 10162
  156.7044  130.8946  151.3603 LP  0  0  0  0  0  0  0  0  0  0  0  0  # atno 17370 bound_to 10713
  157.6953  130.9275  150.0627 LP  0  0  0  0  0  0  0  0  0  0  0  0  # atno 17371 bound_to 10713
  141.1635  133.6538  156.4398 LP  0  0  0  0  0  0  0  0  0  0  0  0  # atno 17394 bound_to 11000
  140.4745  134.6722  157.5144 LP  0  0  0  0  0  0  0  0  0  0  0  0  # atno 17395 bound_to 11000

$$$$
