AV-unprocessed.smi:694|AV-procd|sdf|3376|dock2
  -GOLD-   22720 0353D 1   1.00000     0.00000
 Structure written by MMmdl.
 43 44  0  0  0  0  0  0  0  0  2 V2000
  146.0006  132.0320  152.0415 C   0  0  0  0  0  0  0  0  0  0  0  0
  144.7203  132.5445  151.5663 N   0  0  0  0  0  0  0  0  0  0  0  0
  143.9478  131.7919  150.5863 C   0  0  0  0  0  0  0  0  0  0  0  0
  144.3067  133.8428  151.9363 C   0  0  0  0  0  0  0  0  0  0  0  0
  144.7380  135.0148  151.2685 C   0  0  0  0  0  0  0  0  0  0  0  0
  144.2833  136.2768  151.7028 C   0  0  0  0  0  0  0  0  0  0  0  0
  143.3993  136.3699  152.7982 C   0  0  0  0  0  0  0  0  0  0  0  0
  142.9872  137.6719  153.1987 N   0  0  0  0  0  0  0  0  0  0  0  0
  142.1038  138.0330  154.1465 C   0  0  0  0  0  0  0  0  0  0  0  0
  141.4188  137.2622  154.8175 O   0  0  0  0  0  0  0  0  0  0  0  0
  142.0507  139.3664  154.2744 N   0  0  0  0  0  0  0  0  0  0  0  0
  141.2069  140.0836  155.2251 C   0  0  0  0  0  0  0  0  0  0  0  0
  139.9648  140.7002  154.5512 C   0  0  2  0  0  0  0  0  0  0  0  0
  139.1925  141.6853  155.4449 C   0  0  0  0  0  0  0  0  0  0  0  0
  137.7139  141.5830  155.0359 C   0  0  0  0  0  0  0  0  0  0  0  0
  137.6374  140.4958  153.9591 C   0  0  0  0  0  0  0  0  0  0  0  0
  138.9074  139.6664  154.1486 C   0  0  1  0  0  0  0  0  0  0  0  0
  139.2532  138.9792  152.9637 O   0  0  0  0  0  0  0  0  0  0  0  0
  142.9955  135.1694  153.4307 C   0  0  0  0  0  0  0  0  0  0  0  0
  143.4560  133.9815  152.9822 N   0  3  0  0  0  0  0  0  0  0  0  0
  146.0185  131.9969  153.1312 H   0  0  0  0  0  0  0  0  0  0  0  0
  146.8183  132.6677  151.7003 H   0  0  0  0  0  0  0  0  0  0  0  0
  146.1860  131.0224  151.6737 H   0  0  0  0  0  0  0  0  0  0  0  0
  143.8765  132.3434  149.6484 H   0  0  0  0  0  0  0  0  0  0  0  0
  142.9405  131.6005  150.9576 H   0  0  0  0  0  0  0  0  0  0  0  0
  144.4106  130.8284  150.3717 H   0  0  0  0  0  0  0  0  0  0  0  0
  145.4136  134.9685  150.4275 H   0  0  0  0  0  0  0  0  0  0  0  0
  144.6175  137.1688  151.1931 H   0  0  0  0  0  0  0  0  0  0  0  0
  143.4388  138.4320  152.7114 H   0  0  0  0  0  0  0  0  0  0  0  0
  142.6434  139.9279  153.6806 H   0  0  0  0  0  0  0  0  0  0  0  0
  140.9068  139.4151  156.0339 H   0  0  0  0  0  0  0  0  0  0  0  0
  141.8095  140.8669  155.6858 H   0  0  0  0  0  0  0  0  0  0  0  0
  140.2726  141.2382  153.6523 H   0  0  0  0  0  0  0  0  0  0  0  0
  139.2944  141.4087  156.4952 H   0  0  0  0  0  0  0  0  0  0  0  0
  139.5747  142.7014  155.3404 H   0  0  0  0  0  0  0  0  0  0  0  0
  137.1100  141.3027  155.8996 H   0  0  0  0  0  0  0  0  0  0  0  0
  137.3284  142.5330  154.6642 H   0  0  0  0  0  0  0  0  0  0  0  0
  136.7298  139.8952  154.0315 H   0  0  0  0  0  0  0  0  0  0  0  0
  137.6426  140.9670  152.9748 H   0  0  0  0  0  0  0  0  0  0  0  0
  138.7573  138.9469  154.9550 H   0  0  0  0  0  0  0  0  0  0  0  0
  139.5111  139.6130  152.3120 H   0  0  0  0  0  0  0  0  0  0  0  0
  142.3325  135.0972  154.2787 H   0  0  0  0  0  0  0  0  0  0  0  0
  143.1461  133.1373  153.4635 H   0  0  0  0  0  0  0  0  0  0  0  0
  1  2  1  0  0  0  0
  1 21  1  0  0  0  0
  1 22  1  0  0  0  0
  1 23  1  0  0  0  0
  2  3  1  0  0  0  0
  2  4  1  0  0  0  0
  3 24  1  0  0  0  0
  3 25  1  0  0  0  0
  3 26  1  0  0  0  0
  4 20  1  0  0  0  0
  4  5  2  0  0  0  0
  5  6  1  0  0  0  0
  5 27  1  0  0  0  0
  6  7  2  0  0  0  0
  6 28  1  0  0  0  0
  7  8  1  0  0  0  0
  7 19  1  0  0  0  0
  8  9  1  0  0  0  0
  8 29  1  0  0  0  0
  9 10  2  0  0  0  0
  9 11  1  0  0  0  0
 11 12  1  0  0  0  0
 11 30  1  0  0  0  0
 12 13  1  0  0  0  0
 12 31  1  0  0  0  0
 12 32  1  0  0  0  0
 13 17  1  0  0  0  0
 13 14  1  0  0  0  0
 13 33  1  0  0  0  0
 14 15  1  0  0  0  0
 14 34  1  0  0  0  0
 14 35  1  0  0  0  0
 15 16  1  0  0  0  0
 15 36  1  0  0  0  0
 15 37  1  0  0  0  0
 16 17  1  0  0  0  0
 16 38  1  0  0  0  0
 16 39  1  0  0  0  0
 17 18  1  0  0  0  0
 17 40  1  0  0  0  0
 18 41  1  0  0  0  0
 19 20  2  0  0  0  0
 19 42  1  0  0  0  0
 20 43  1  0  0  0  0
M  CHG  1  20   1
M  END
> <s_m_source_file>
AV-unprocessed.smi

> <i_m_source_file_index>
694

> <i_lp_mmshare_version>
43012

> <i_f3d_flags>
0

> <s_epik_input>
W0NIM11OKFtDSDNdKWMxW2NIXVtjSF1jKFtjSF1uMSlbTkhdQyg9TylbTkhdW0NIMl1bQ0BASF0yW0NIMl1bQ0gyXVtDSDJdW0NASF0yW09IXQ==

> <s_epik_cmdline>
J2VwaWtfcHl0aG9uJywgJy1waCcsICc3LjAnLCAnLXRuJywgJzgnLCAnLW1hJywgJzIwMCcsICctbWV0YWxfYmluZGluZycsICctaW1hZScsICc8aW5maWxlLm1hZT4nLCAnLW9tYWUnLCAnPG91dGZpbGUubWFlPic=

> <r_lp_tautomer_probability>
0.999994

> <r_epik_Ionization_Penalty>
0.266135

> <r_epik_Ionization_Penalty_Charging>
0.266113

> <r_epik_Ionization_Penalty_Neutral>
2.14137e-05

> <r_epik_State_Penalty>
0.258052

> <r_epik_Charging_Adjusted_Penalty>
0.524165

> <i_epik_Tot_Q>
1

> <i_epik_Tot_abs_Q>
1

> <r_epik_Metal_State_Penalty>
0.544313

> <b_epik_Metal_Only>
0

> <s_lp_Force_Field>
OPLS_2005

> <r_lp_Energy>
32.5934

> <b_lp_Chiralities_Consistent>
1

> <s_lp_Variant>
AV-unprocessed.smi:694-1

> <Gold.Version>
5.8.1

> <Gold.Id.Protein>
6NUR|6NUR_protein|mol2

> <Gold.PLP.Fitness>
45.8882

> <Gold.PLP.PLP>
-34.3566

> <Gold.PLP.part.hbond>
-3.7561

> <Gold.PLP.part.metal>
0.0000

> <Gold.PLP.part.buried>
-6.1257

> <Gold.PLP.part.nonpolar>
-25.0920

> <Gold.PLP.part.repulsive>
0.0664

> <Gold.PLP.ligand.clash>
0.0000

> <Gold.PLP.ligand.torsion>
1.6739

> <Gold.PLP.Chemscore.Hbond>
4.9516

> <Gold.PLP.Chemscore.CHOScore>
0.0000

> <Gold.PLP.Chemscore.Metal>
0.0000

> <Gold.Chemscore.Hbonds>
donor molecule, donor type, donor heavy atom, donor atom, acceptor molecule, acceptor atom, score
      L1  H     8    29       P1 10175  0.96
      L1  H    11    30       P1 10175  1.00
      L1  H    18    41       P1 10160  1.00
      L1  H    20    43       P1 10957  2.00

> <Gold.PLP.Chemscore.Internal.Correction>
0.0247

> <Gold.Rescore>
     Score         DG    S(hbond)    S(metal)    S(lipo)     H(rot)  DE(clash)    DE(int)     intcor
     18.15     -20.99       3.83        0.00      61.37       1.75       0.10       2.73       ----

> <Gold.Chemscore.Fitness>
18.1532

> <Gold.Chemscore.DG>
-20.9861

> <Gold.Chemscore.ZeroCoef>
-5.4800

> <Gold.Chemscore.Hbond>
3.8328

> <Gold.Chemscore.Metal>
0.0000

> <Gold.Chemscore.Lipo>
61.3748

> <Gold.Chemscore.Internal_Hbond>
0.0000

> <Gold.Chemscore.DEClash>
0.0998

> <Gold.Chemscore.DEInternal>
2.7331

> <Gold.Chemscore.Rot>
1.7485

> <Gold.Chemscore.Internal.Correction>
   9.000000E+99

> <Gold.Chemscore.Hbonds>
donor molecule, donor type, donor heavy atom, donor atom, acceptor molecule, acceptor atom, score
      L1  H     8    29       P1 10175  0.86
      L1  H    11    30       P1 10175  0.98
      L1  H    18    41       P1 10160  0.99
      L1  H    20    43       P1 10957  0.93

> <Gold.Chemscore.Hbond.Weighted>
-12.8014

> <Gold.Chemscore.Metal.Weighted>
-0.0000

> <Gold.Chemscore.Lipo.Weighted>
-7.1809

> <Gold.Chemscore.Internal_Hbond.Weighted>
0.0000

> <Gold.Chemscore.DEClash.Weighted>
0.0998

> <Gold.Chemscore.DEInternal.Weighted>
2.7331

> <Gold.Chemscore.Rot.Weighted>
4.4762

> <Gold.Chemscore.Internal.Correction.Weighted>
   9.000000E+99

> <Gold.Protein.RotatedTorsions>
[ 6907 6896 6895 6894 ] final  -38.45 input  -60.11 | X-H torsion
[ 7974 7965 7964 7962 ] final  179.61 input  175.53 | X-H torsion
[ 8008 7997 7996 7995 ] final  -33.24 input   59.86 | X-H torsion
[ 10167 10162 10161 10158 ] final  171.19 input  -65.29 | X-H torsion
[ 10718 10713 10712 10709 ] final  114.47 input   66.30 | X-H torsion
[ 10763 10752 10751 10750 ] final   41.25 input  -60.55 | X-H torsion
[ 11005 11000 10999 10996 ] final    6.29 input  -57.11 | X-H torsion

> <Gold.Protein.ActiveResidues>
 VAL166  LYS551  ARG553  GLY616  TRP617  ASP618  TYR619  PRO620  LYS621  CYS622 
 ASP623  PHE694  ASN695  SER759  ASP760  ASP761  ALA762  ILE779  LEU786  VAL792 
 PHE793  MET794  SER795  GLU796  ALA797  LYS798  CYS799  TRP800  GLU811  SER814 

> <Gold.Protein.RotatedAtoms>
  151.0022  134.9331  159.7960 H   0  0  0  0  0  0  0  0  0  0  0  0  # atno 6907 bound_to 6896
  152.5281  134.3138  159.9133 H   0  0  0  0  0  0  0  0  0  0  0  0  # atno 6908 bound_to 6896
  151.3144  133.4025  159.2684 H   0  0  0  0  0  0  0  0  0  0  0  0  # atno 6909 bound_to 6896
  144.7144  140.0573  143.6433 H   0  0  0  0  0  0  0  0  0  0  0  0  # atno 7974 bound_to 7965
  154.4155  140.1716  156.1856 H   0  0  0  0  0  0  0  0  0  0  0  0  # atno 8008 bound_to 7997
  155.9646  140.3390  155.6497 H   0  0  0  0  0  0  0  0  0  0  0  0  # atno 8009 bound_to 7997
  155.6705  140.0711  157.2512 H   0  0  0  0  0  0  0  0  0  0  0  0  # atno 8010 bound_to 7997
  139.5040  144.3513  151.9920 H   0  0  0  0  0  0  0  0  0  0  0  0  # atno 10167 bound_to 10162
  157.6279  131.0999  150.7190 H   0  0  0  0  0  0  0  0  0  0  0  0  # atno 10718 bound_to 10713
  152.9913  135.6167  154.2757 H   0  0  0  0  0  0  0  0  0  0  0  0  # atno 10763 bound_to 10752
  154.2488  135.2786  155.2826 H   0  0  0  0  0  0  0  0  0  0  0  0  # atno 10764 bound_to 10752
  154.5306  135.5789  153.6813 H   0  0  0  0  0  0  0  0  0  0  0  0  # atno 10765 bound_to 10752
  140.5612  134.0191  155.7972 H   0  0  0  0  0  0  0  0  0  0  0  0  # atno 11005 bound_to 11000
  145.9893  139.3002  143.0994 LP  0  0  0  0  0  0  0  0  0  0  0  0  # atno 17320 bound_to 7965
  145.8921  140.9297  143.0547 LP  0  0  0  0  0  0  0  0  0  0  0  0  # atno 17321 bound_to 7965
  140.2949  144.3711  150.6077 LP  0  0  0  0  0  0  0  0  0  0  0  0  # atno 17342 bound_to 10162
  140.5918  143.2168  151.7239 LP  0  0  0  0  0  0  0  0  0  0  0  0  # atno 17343 bound_to 10162
  156.7535  130.4776  149.5451 LP  0  0  0  0  0  0  0  0  0  0  0  0  # atno 17370 bound_to 10713
  156.1463  130.6279  151.0536 LP  0  0  0  0  0  0  0  0  0  0  0  0  # atno 17371 bound_to 10713
  141.1113  133.9611  157.2904 LP  0  0  0  0  0  0  0  0  0  0  0  0  # atno 17394 bound_to 11000
  139.9407  135.0191  156.8699 LP  0  0  0  0  0  0  0  0  0  0  0  0  # atno 17395 bound_to 11000

$$$$
