AV-unprocessed.smi:980|AV-procd|sdf|4311|dock9
  -GOLD-   22720 2213D 1   1.00000     0.00000
 Structure written by MMmdl.
 44 45  0  0  0  0  0  0  0  0  1 V2000
  152.1793  144.0082  161.0745 C   0  0  0  0  0  0  0  0  0  0  0  0
  151.6487  143.8410  159.6345 C   0  0  0  0  0  0  0  0  0  0  0  0
  150.2397  144.4630  159.5718 C   0  0  0  0  0  0  0  0  0  0  0  0
  152.5987  144.5993  158.6868 C   0  0  0  0  0  0  0  0  0  0  0  0
  151.5865  142.3785  159.2406 C   0  0  0  0  0  0  0  0  0  0  0  0
  152.6092  141.4570  159.2297 C   0  0  0  0  0  0  0  0  0  0  0  0
  152.0773  139.8822  158.7081 S   0  0  0  0  0  0  0  0  0  0  0  0
  150.4593  140.5340  158.5000 C   0  0  0  0  0  0  0  0  0  0  0  0
  149.2931  139.7120  158.0647 C   0  0  0  0  0  0  0  0  0  0  0  0
  149.6166  138.2132  158.0306 C   0  0  0  0  0  0  0  0  0  0  0  0
  148.7542  137.4794  158.9460 N   0  0  0  0  0  0  0  0  0  0  0  0
  148.7896  136.1500  159.1166 C   0  0  0  0  0  0  0  0  0  0  0  0
  149.5483  135.4114  158.4878 O   0  0  0  0  0  0  0  0  0  0  0  0
  147.8254  135.5654  160.1573 C   0  0  2  0  0  0  0  0  0  0  0  0
  148.0580  136.2004  161.5476 C   0  0  0  0  0  0  0  0  0  0  0  0
  147.3036  135.4705  162.6447 C   0  0  0  0  0  0  0  0  0  0  0  0
  146.7849  134.2400  162.4922 C   0  0  0  0  0  0  0  0  0  0  0  0
  146.8985  133.4381  161.2077 C   0  0  0  0  0  0  0  0  0  0  0  0
  147.9415  134.0299  160.2404 C   0  0  0  0  0  0  0  0  0  0  0  0
  150.3678  141.8252  158.8251 N   0  0  0  0  0  0  0  0  0  0  0  0
  152.2286  145.0597  161.3597 H   0  0  0  0  0  0  0  0  0  0  0  0
  153.1841  143.5976  161.1814 H   0  0  0  0  0  0  0  0  0  0  0  0
  151.5363  143.5072  161.7990 H   0  0  0  0  0  0  0  0  0  0  0  0
  149.5472  143.9419  160.2338 H   0  0  0  0  0  0  0  0  0  0  0  0
  149.8249  144.4204  158.5641 H   0  0  0  0  0  0  0  0  0  0  0  0
  150.2546  145.5115  159.8708 H   0  0  0  0  0  0  0  0  0  0  0  0
  152.6772  145.6517  158.9610 H   0  0  0  0  0  0  0  0  0  0  0  0
  152.2522  144.5592  157.6534 H   0  0  0  0  0  0  0  0  0  0  0  0
  153.6038  144.1767  158.7127 H   0  0  0  0  0  0  0  0  0  0  0  0
  153.6445  141.6029  159.4997 H   0  0  0  0  0  0  0  0  0  0  0  0
  148.4598  139.9024  158.7425 H   0  0  0  0  0  0  0  0  0  0  0  0
  148.9783  140.0518  157.0773 H   0  0  0  0  0  0  0  0  0  0  0  0
  149.4880  137.8234  157.0194 H   0  0  0  0  0  0  0  0  0  0  0  0
  150.6593  138.0515  158.3095 H   0  0  0  0  0  0  0  0  0  0  0  0
  148.1007  138.0166  159.4972 H   0  0  0  0  0  0  0  0  0  0  0  0
  146.8059  135.8007  159.8456 H   0  0  0  0  0  0  0  0  0  0  0  0
  149.1166  136.2011  161.8122 H   0  0  0  0  0  0  0  0  0  0  0  0
  147.7335  137.2416  161.5355 H   0  0  0  0  0  0  0  0  0  0  0  0
  147.2035  135.9823  163.5906 H   0  0  0  0  0  0  0  0  0  0  0  0
  146.2470  133.7797  163.3081 H   0  0  0  0  0  0  0  0  0  0  0  0
  147.1584  132.4072  161.4485 H   0  0  0  0  0  0  0  0  0  0  0  0
  145.9160  133.4164  160.7355 H   0  0  0  0  0  0  0  0  0  0  0  0
  147.8245  133.5783  159.2545 H   0  0  0  0  0  0  0  0  0  0  0  0
  148.9404  133.7583  160.5859 H   0  0  0  0  0  0  0  0  0  0  0  0
  1  2  1  0  0  0  0
  1 21  1  0  0  0  0
  1 22  1  0  0  0  0
  1 23  1  0  0  0  0
  2  3  1  0  0  0  0
  2  4  1  0  0  0  0
  2  5  1  0  0  0  0
  3 24  1  0  0  0  0
  3 25  1  0  0  0  0
  3 26  1  0  0  0  0
  4 27  1  0  0  0  0
  4 28  1  0  0  0  0
  4 29  1  0  0  0  0
  5 20  1  0  0  0  0
  5  6  2  0  0  0  0
  6  7  1  0  0  0  0
  6 30  1  0  0  0  0
  7  8  1  0  0  0  0
  8  9  1  0  0  0  0
  8 20  2  0  0  0  0
  9 10  1  0  0  0  0
  9 31  1  0  0  0  0
  9 32  1  0  0  0  0
 10 11  1  0  0  0  0
 10 33  1  0  0  0  0
 10 34  1  0  0  0  0
 11 12  1  0  0  0  0
 11 35  1  0  0  0  0
 12 13  2  0  0  0  0
 12 14  1  0  0  0  0
 14 19  1  0  0  0  0
 14 15  1  0  0  0  0
 14 36  1  0  0  0  0
 15 16  1  0  0  0  0
 15 37  1  0  0  0  0
 15 38  1  0  0  0  0
 16 17  2  0  0  0  0
 16 39  1  0  0  0  0
 17 18  1  0  0  0  0
 17 40  1  0  0  0  0
 18 19  1  0  0  0  0
 18 41  1  0  0  0  0
 18 42  1  0  0  0  0
 19 43  1  0  0  0  0
 19 44  1  0  0  0  0
M  END
> <s_m_source_file>
AV-unprocessed.smi

> <i_m_source_file_index>
980

> <i_lp_mmshare_version>
43012

> <i_f3d_flags>
0

> <s_epik_input>
W0NIM11DKFtDSDNdKShbQ0gzXSljMVtjSF1zYyhuMSlbQ0gyXVtDSDJdW05IXUMoPU8pW0NAQEhdMltDSDJdW0NIXT1bQ0hdW0NIMl1bQ0gyXTI=

> <s_epik_cmdline>
J2VwaWtfcHl0aG9uJywgJy1waCcsICc3LjAnLCAnLXRuJywgJzgnLCAnLW1hJywgJzIwMCcsICctbWV0YWxfYmluZGluZycsICctaW1hZScsICc8aW5maWxlLm1hZT4nLCAnLW9tYWUnLCAnPG91dGZpbGUubWFlPic=

> <r_epik_Ionization_Penalty>
0.000809238

> <r_epik_Ionization_Penalty_Charging>
0

> <r_epik_Ionization_Penalty_Neutral>
0.000809238

> <r_epik_State_Penalty>
0.000520038

> <r_epik_Charging_Adjusted_Penalty>
0.000520038

> <i_epik_Tot_Q>
0

> <i_epik_Tot_abs_Q>
0

> <r_epik_Metal_State_Penalty>
-0

> <b_epik_Metal_Only>
0

> <s_lp_Force_Field>
OPLS_2005

> <r_lp_Energy>
0.0985756

> <b_lp_Chiralities_Consistent>
1

> <s_lp_Variant>
AV-unprocessed.smi:980-1

> <Gold.Version>
5.8.1

> <Gold.Id.Protein>
6NUR|6NUR_protein|mol2

> <Gold.PLP.Fitness>
45.3735

> <Gold.PLP.PLP>
-43.3490

> <Gold.PLP.part.hbond>
-1.0259

> <Gold.PLP.part.metal>
0.0000

> <Gold.PLP.part.buried>
-5.5628

> <Gold.PLP.part.nonpolar>
-37.1067

> <Gold.PLP.part.repulsive>
0.2123

> <Gold.PLP.ligand.clash>
0.0000

> <Gold.PLP.ligand.torsion>
0.5105

> <Gold.PLP.Chemscore.Hbond>
1.0000

> <Gold.PLP.Chemscore.CHOScore>
0.0000

> <Gold.PLP.Chemscore.Metal>
0.0000

> <Gold.Chemscore.Hbonds>
donor molecule, donor type, donor heavy atom, donor atom, acceptor molecule, acceptor atom, score
      P1  H  6896  6907       L1    13  1.00

> <Gold.PLP.Chemscore.Internal.Correction>
0.0455

> <Gold.Rescore>
     Score         DG    S(hbond)    S(metal)    S(lipo)     H(rot)  DE(clash)    DE(int)     intcor
     19.85     -20.43       1.00        0.00     130.15       1.41       0.11       0.46       ----

> <Gold.Chemscore.Fitness>
19.8507

> <Gold.Chemscore.DG>
-20.4260

> <Gold.Chemscore.ZeroCoef>
-5.4800

> <Gold.Chemscore.Hbond>
0.9961

> <Gold.Chemscore.Metal>
0.0000

> <Gold.Chemscore.Lipo>
130.1527

> <Gold.Chemscore.Internal_Hbond>
0.0000

> <Gold.Chemscore.DEClash>
0.1132

> <Gold.Chemscore.DEInternal>
0.4621

> <Gold.Chemscore.Rot>
1.4097

> <Gold.Chemscore.Internal.Correction>
   9.000000E+99

> <Gold.Chemscore.Hbonds>
donor molecule, donor type, donor heavy atom, donor atom, acceptor molecule, acceptor atom, score
      P1  H  6896  6907       L1    13  0.74

> <Gold.Chemscore.Hbond.Weighted>
-3.3268

> <Gold.Chemscore.Metal.Weighted>
-0.0000

> <Gold.Chemscore.Lipo.Weighted>
-15.2279

> <Gold.Chemscore.Internal_Hbond.Weighted>
0.0000

> <Gold.Chemscore.DEClash.Weighted>
0.1132

> <Gold.Chemscore.DEInternal.Weighted>
0.4621

> <Gold.Chemscore.Rot.Weighted>
3.6087

> <Gold.Chemscore.Internal.Correction.Weighted>
   9.000000E+99

> <Gold.Protein.RotatedTorsions>
[ 6907 6896 6895 6894 ] final  -64.83 input  -60.11 | X-H torsion
[ 7974 7965 7964 7962 ] final  -10.99 input  175.53 | X-H torsion
[ 8008 7997 7996 7995 ] final   30.32 input   59.86 | X-H torsion
[ 10167 10162 10161 10158 ] final  159.46 input  -65.29 | X-H torsion
[ 10718 10713 10712 10709 ] final -179.29 input   66.30 | X-H torsion
[ 10763 10752 10751 10750 ] final -135.48 input  -60.55 | X-H torsion
[ 11005 11000 10999 10996 ] final    3.83 input  -57.11 | X-H torsion

> <Gold.Protein.ActiveResidues>
 VAL166  LYS551  ARG553  GLY616  TRP617  ASP618  TYR619  PRO620  LYS621  CYS622 
 ASP623  PHE694  ASN695  SER759  ASP760  ASP761  ALA762  ILE779  LEU786  VAL792 
 PHE793  MET794  SER795  GLU796  ALA797  LYS798  CYS799  TRP800  GLU811  SER814 

> <Gold.Protein.RotatedAtoms>
  150.7561  134.6245  159.6152 H   0  0  0  0  0  0  0  0  0  0  0  0  # atno 6907 bound_to 6896
  152.3541  134.6962  160.0236 H   0  0  0  0  0  0  0  0  0  0  0  0  # atno 6908 bound_to 6896
  151.7373  133.3284  159.3393 H   0  0  0  0  0  0  0  0  0  0  0  0  # atno 6909 bound_to 6896
  146.2202  140.2845  142.8364 H   0  0  0  0  0  0  0  0  0  0  0  0  # atno 7974 bound_to 7965
  155.0885  140.3217  155.4580 H   0  0  0  0  0  0  0  0  0  0  0  0  # atno 8008 bound_to 7997
  156.2749  140.2082  156.5959 H   0  0  0  0  0  0  0  0  0  0  0  0  # atno 8009 bound_to 7997
  154.6922  140.0515  157.0362 H   0  0  0  0  0  0  0  0  0  0  0  0  # atno 8010 bound_to 7997
  139.4832  144.4728  151.8553 H   0  0  0  0  0  0  0  0  0  0  0  0  # atno 10167 bound_to 10162
  156.8568  130.9738  151.3087 H   0  0  0  0  0  0  0  0  0  0  0  0  # atno 10718 bound_to 10713
  154.8702  135.3702  154.4905 H   0  0  0  0  0  0  0  0  0  0  0  0  # atno 10763 bound_to 10752
  153.5552  135.7024  153.5578 H   0  0  0  0  0  0  0  0  0  0  0  0  # atno 10764 bound_to 10752
  153.3678  135.4029  155.1730 H   0  0  0  0  0  0  0  0  0  0  0  0  # atno 10765 bound_to 10752
  140.5887  133.9944  155.8079 H   0  0  0  0  0  0  0  0  0  0  0  0  # atno 11005 bound_to 11000
  144.9172  140.7826  143.5771 LP  0  0  0  0  0  0  0  0  0  0  0  0  # atno 17320 bound_to 7965
  145.2780  139.1929  143.4806 LP  0  0  0  0  0  0  0  0  0  0  0  0  # atno 17321 bound_to 7965
  140.4198  144.2258  150.5887 LP  0  0  0  0  0  0  0  0  0  0  0  0  # atno 17342 bound_to 10162
  140.4885  143.2355  151.8853 LP  0  0  0  0  0  0  0  0  0  0  0  0  # atno 17343 bound_to 10162
  157.6272  130.8701  149.9210 LP  0  0  0  0  0  0  0  0  0  0  0  0  # atno 17370 bound_to 10713
  156.0798  130.3674  150.0604 LP  0  0  0  0  0  0  0  0  0  0  0  0  # atno 17371 bound_to 10713
  141.0949  133.9859  157.3177 LP  0  0  0  0  0  0  0  0  0  0  0  0  # atno 17394 bound_to 11000
  139.9284  135.0201  156.8315 LP  0  0  0  0  0  0  0  0  0  0  0  0  # atno 17395 bound_to 11000

$$$$
