AV-unprocessed.smi:1574|AV-procd|sdf|6337|dock8
  -GOLD-   22720 6553D 1   1.00000     0.00000
 Structure written by MMmdl.
 40 41  0  0  0  0  0  0  0  0  1 V2000
  152.8639  142.8269  161.9143 C   0  0  0  0  0  0  0  0  0  0  0  0
  152.5686  143.8124  160.7726 C   0  0  2  0  0  0  0  0  0  0  0  0
  151.0929  144.2640  160.7732 C   0  0  0  0  0  0  0  0  0  0  0  0
  150.8130  145.2786  159.6533 C   0  0  0  0  0  0  0  0  0  0  0  0
  151.2254  144.7230  158.2821 C   0  0  0  0  0  0  0  0  0  0  0  0
  152.6961  144.2791  158.2826 C   0  0  0  0  0  0  0  0  0  0  0  0
  152.9722  143.2426  159.3940 C   0  0  2  0  0  0  0  0  0  0  0  0
  152.2216  142.0519  159.1868 O   0  0  0  0  0  0  0  0  0  0  0  0
  152.9661  140.9159  158.7770 C   0  0  0  0  0  0  0  0  0  0  0  0
  152.0437  139.6892  158.8011 C   0  0  0  0  0  0  0  0  0  0  0  0
  151.2653  139.5815  157.5711 N   0  0  0  0  0  0  0  0  0  0  0  0
  151.7743  139.3387  156.3527 C   0  0  0  0  0  0  0  0  0  0  0  0
  152.9766  139.1936  156.1327 O   0  0  0  0  0  0  0  0  0  0  0  0
  150.7743  139.2371  155.2020 C   0  0  0  0  0  0  0  0  0  0  0  0
  149.6237  140.0880  155.4368 N   0  0  0  0  0  0  0  0  0  0  0  0
  148.9857  140.9423  154.6342 C   0  0  0  0  0  0  0  0  0  0  0  0
  147.9750  141.5326  155.2538 N   0  0  0  0  0  0  0  0  0  0  0  0
  148.0162  140.9785  156.5224 N   0  0  0  0  0  0  0  0  0  0  0  0
  148.9919  140.1198  156.6367 N   0  0  0  0  0  0  0  0  0  0  0  0
  152.2673  141.9185  161.8231 H   0  0  0  0  0  0  0  0  0  0  0  0
  152.6405  143.2728  162.8838 H   0  0  0  0  0  0  0  0  0  0  0  0
  153.9147  142.5361  161.9198 H   0  0  0  0  0  0  0  0  0  0  0  0
  153.1815  144.6969  160.9525 H   0  0  0  0  0  0  0  0  0  0  0  0
  150.4389  143.3992  160.6510 H   0  0  0  0  0  0  0  0  0  0  0  0
  150.8382  144.7065  161.7367 H   0  0  0  0  0  0  0  0  0  0  0  0
  149.7551  145.5418  159.6465 H   0  0  0  0  0  0  0  0  0  0  0  0
  151.3590  146.2017  159.8519 H   0  0  0  0  0  0  0  0  0  0  0  0
  150.5928  143.8732  158.0262 H   0  0  0  0  0  0  0  0  0  0  0  0
  151.0605  145.4749  157.5099 H   0  0  0  0  0  0  0  0  0  0  0  0
  152.9694  143.8909  157.3024 H   0  0  0  0  0  0  0  0  0  0  0  0
  153.3320  145.1511  158.4406 H   0  0  0  0  0  0  0  0  0  0  0  0
  154.0363  143.0011  159.4116 H   0  0  0  0  0  0  0  0  0  0  0  0
  153.3784  141.0485  157.7771 H   0  0  0  0  0  0  0  0  0  0  0  0
  153.8023  140.7599  159.4596 H   0  0  0  0  0  0  0  0  0  0  0  0
  152.6451  138.7850  158.8949 H   0  0  0  0  0  0  0  0  0  0  0  0
  151.3914  139.7171  159.6756 H   0  0  0  0  0  0  0  0  0  0  0  0
  150.2641  139.6804  157.6558 H   0  0  0  0  0  0  0  0  0  0  0  0
  151.2440  139.5116  154.2560 H   0  0  0  0  0  0  0  0  0  0  0  0
  150.4316  138.2065  155.1037 H   0  0  0  0  0  0  0  0  0  0  0  0
  149.2604  141.1310  153.6068 H   0  0  0  0  0  0  0  0  0  0  0  0
  1  2  1  0  0  0  0
  1 20  1  0  0  0  0
  1 21  1  0  0  0  0
  1 22  1  0  0  0  0
  2  7  1  0  0  0  0
  2  3  1  0  0  0  0
  2 23  1  0  0  0  0
  3  4  1  0  0  0  0
  3 24  1  0  0  0  0
  3 25  1  0  0  0  0
  4  5  1  0  0  0  0
  4 26  1  0  0  0  0
  4 27  1  0  0  0  0
  5  6  1  0  0  0  0
  5 28  1  0  0  0  0
  5 29  1  0  0  0  0
  6  7  1  0  0  0  0
  6 30  1  0  0  0  0
  6 31  1  0  0  0  0
  7  8  1  0  0  0  0
  7 32  1  0  0  0  0
  8  9  1  0  0  0  0
  9 10  1  0  0  0  0
  9 33  1  0  0  0  0
  9 34  1  0  0  0  0
 10 11  1  0  0  0  0
 10 35  1  0  0  0  0
 10 36  1  0  0  0  0
 11 12  1  0  0  0  0
 11 37  1  0  0  0  0
 12 13  2  0  0  0  0
 12 14  1  0  0  0  0
 14 15  1  0  0  0  0
 14 38  1  0  0  0  0
 14 39  1  0  0  0  0
 15 19  1  0  0  0  0
 15 16  1  0  0  0  0
 16 17  2  0  0  0  0
 16 40  1  0  0  0  0
 17 18  1  0  0  0  0
 18 19  2  0  0  0  0
M  END
> <s_m_source_file>
AV-unprocessed.smi

> <i_m_source_file_index>
1574

> <i_lp_mmshare_version>
43012

> <i_f3d_flags>
0

> <s_epik_input>
W0NIM11bQ0BASF0xW0NIMl1bQ0gyXVtDSDJdW0NIMl1bQ0BIXTFPW0NIMl1bQ0gyXVtOSF1DKD1PKVtDSDJdbjJbY0hdbm5uMg==

> <s_epik_cmdline>
J2VwaWtfcHl0aG9uJywgJy1waCcsICc3LjAnLCAnLXRuJywgJzgnLCAnLW1hJywgJzIwMCcsICctbWV0YWxfYmluZGluZycsICctaW1hZScsICc8aW5maWxlLm1hZT4nLCAnLW9tYWUnLCAnPG91dGZpbGUubWFlPic=

> <r_lp_tautomer_probability>
1

> <r_epik_Ionization_Penalty>
1.44269e-06

> <r_epik_Ionization_Penalty_Charging>
0

> <r_epik_Ionization_Penalty_Neutral>
1.44269e-06

> <r_epik_State_Penalty>
-0

> <r_epik_Charging_Adjusted_Penalty>
0

> <i_epik_Tot_Q>
0

> <i_epik_Tot_abs_Q>
0

> <r_epik_Metal_State_Penalty>
-0

> <b_epik_Metal_Only>
0

> <s_lp_Force_Field>
OPLS_2005

> <r_lp_Energy>
10.5238

> <b_lp_Chiralities_Consistent>
1

> <s_lp_Variant>
AV-unprocessed.smi:1574-3

> <Gold.Version>
5.8.1

> <Gold.Id.Protein>
6NUR|6NUR_protein|mol2

> <Gold.PLP.Fitness>
45.4180

> <Gold.PLP.PLP>
-42.1327

> <Gold.PLP.part.hbond>
-0.9726

> <Gold.PLP.part.metal>
0.0000

> <Gold.PLP.part.buried>
-6.1103

> <Gold.PLP.part.nonpolar>
-35.7518

> <Gold.PLP.part.repulsive>
0.2648

> <Gold.PLP.ligand.clash>
0.0000

> <Gold.PLP.ligand.torsion>
1.3913

> <Gold.PLP.Chemscore.Hbond>
1.0000

> <Gold.PLP.Chemscore.CHOScore>
1.0000

> <Gold.PLP.Chemscore.Metal>
0.0000

> <Gold.Chemscore.Hbonds>
donor molecule, donor type, donor heavy atom, donor atom, acceptor molecule, acceptor atom, score
      P1  H  7997  8008       L1    13  1.00
      L1  C    16    40       P1  7957  0.59

> <Gold.PLP.Chemscore.Internal.Correction>
0.0680

> <Gold.Rescore>
     Score         DG    S(hbond)    S(metal)    S(lipo)     H(rot)  DE(clash)    DE(int)     intcor
     11.09     -13.84       0.99        0.00     106.67       2.90       0.11       2.65       ----

> <Gold.Chemscore.Fitness>
11.0899

> <Gold.Chemscore.DG>
-13.8422

> <Gold.Chemscore.ZeroCoef>
-5.4800

> <Gold.Chemscore.Hbond>
0.9936

> <Gold.Chemscore.Metal>
0.0000

> <Gold.Chemscore.Lipo>
106.6696

> <Gold.Chemscore.Internal_Hbond>
0.0000

> <Gold.Chemscore.DEClash>
0.1073

> <Gold.Chemscore.DEInternal>
2.6451

> <Gold.Chemscore.Rot>
2.9050

> <Gold.Chemscore.Internal.Correction>
   9.000000E+99

> <Gold.Chemscore.Hbonds>
donor molecule, donor type, donor heavy atom, donor atom, acceptor molecule, acceptor atom, score
      P1  H  7997  8008       L1    13  1.00

> <Gold.Chemscore.Hbond.Weighted>
-3.3185

> <Gold.Chemscore.Metal.Weighted>
-0.0000

> <Gold.Chemscore.Lipo.Weighted>
-12.4803

> <Gold.Chemscore.Internal_Hbond.Weighted>
0.0000

> <Gold.Chemscore.DEClash.Weighted>
0.1073

> <Gold.Chemscore.DEInternal.Weighted>
2.6451

> <Gold.Chemscore.Rot.Weighted>
7.4367

> <Gold.Chemscore.Internal.Correction.Weighted>
   9.000000E+99

> <Gold.Protein.RotatedTorsions>
[ 6907 6896 6895 6894 ] final   -1.42 input  -60.11 | X-H torsion
[ 7974 7965 7964 7962 ] final -113.33 input  175.53 | X-H torsion
[ 8008 7997 7996 7995 ] final  -51.10 input   59.86 | X-H torsion
[ 10167 10162 10161 10158 ] final  -33.31 input  -65.29 | X-H torsion
[ 10718 10713 10712 10709 ] final  149.34 input   66.30 | X-H torsion
[ 10763 10752 10751 10750 ] final  101.91 input  -60.55 | X-H torsion
[ 11005 11000 10999 10996 ] final   18.87 input  -57.11 | X-H torsion

> <Gold.Protein.ActiveResidues>
 VAL166  LYS551  ARG553  GLY616  TRP617  ASP618  TYR619  PRO620  LYS621  CYS622 
 ASP623  PHE694  ASN695  SER759  ASP760  ASP761  ALA762  ILE779  LEU786  VAL792 
 PHE793  MET794  SER795  GLU796  ALA797  LYS798  CYS799  TRP800  GLU811  SER814 

> <Gold.Protein.RotatedAtoms>
  151.5463  135.1068  159.9938 H   0  0  0  0  0  0  0  0  0  0  0  0  # atno 6907 bound_to 6896
  152.4512  133.7629  159.6767 H   0  0  0  0  0  0  0  0  0  0  0  0  # atno 6908 bound_to 6896
  150.8441  133.7822  159.3074 H   0  0  0  0  0  0  0  0  0  0  0  0  # atno 6909 bound_to 6896
  145.1333  140.8737  143.3745 H   0  0  0  0  0  0  0  0  0  0  0  0  # atno 7974 bound_to 7965
  154.4075  140.1256  156.4774 H   0  0  0  0  0  0  0  0  0  0  0  0  # atno 8008 bound_to 7997
  155.7119  140.3493  155.4958 H   0  0  0  0  0  0  0  0  0  0  0  0  # atno 8009 bound_to 7997
  155.9292  140.1066  157.1135 H   0  0  0  0  0  0  0  0  0  0  0  0  # atno 8010 bound_to 7997
  140.7206  143.3630  151.1926 H   0  0  0  0  0  0  0  0  0  0  0  0  # atno 10167 bound_to 10162
  157.2974  131.0864  151.1416 H   0  0  0  0  0  0  0  0  0  0  0  0  # atno 10718 bound_to 10713
  153.3328  135.4028  155.1509 H   0  0  0  0  0  0  0  0  0  0  0  0  # atno 10763 bound_to 10752
  154.8627  135.3614  154.5448 H   0  0  0  0  0  0  0  0  0  0  0  0  # atno 10764 bound_to 10752
  153.5888  135.7074  153.5491 H   0  0  0  0  0  0  0  0  0  0  0  0  # atno 10765 bound_to 10752
  140.4200  134.1529  155.7672 H   0  0  0  0  0  0  0  0  0  0  0  0  # atno 11005 bound_to 11000
  145.0612  139.3104  143.5879 LP  0  0  0  0  0  0  0  0  0  0  0  0  # atno 17320 bound_to 7965
  146.3512  140.0054  142.8672 LP  0  0  0  0  0  0  0  0  0  0  0  0  # atno 17321 bound_to 7965
  139.7185  143.9261  152.2976 LP  0  0  0  0  0  0  0  0  0  0  0  0  # atno 17342 bound_to 10162
  139.9010  144.6912  150.8665 LP  0  0  0  0  0  0  0  0  0  0  0  0  # atno 17343 bound_to 10162
  157.2789  130.6740  149.6056 LP  0  0  0  0  0  0  0  0  0  0  0  0  # atno 17370 bound_to 10713
  155.9670  130.4456  150.5507 LP  0  0  0  0  0  0  0  0  0  0  0  0  # atno 17371 bound_to 10713
  141.1788  133.8458  157.1331 LP  0  0  0  0  0  0  0  0  0  0  0  0  # atno 17394 bound_to 11000
  140.0207  134.9947  157.0585 LP  0  0  0  0  0  0  0  0  0  0  0  0  # atno 17395 bound_to 11000

$$$$
