AV-unprocessed.smi:459|AV-procd|sdf|2624|dock2
  -GOLD-   2262023 23D 1   1.00000     0.00000
 Structure written by MMmdl.
 43 45  0  0  0  0  0  0  0  0  1 V2000
  143.1114  145.9795  154.5672 C   0  0  0  0  0  0  0  0  0  0  0  0
  143.6051  145.1307  155.5934 O   0  0  0  0  0  0  0  0  0  0  0  0
  144.6035  144.2366  155.2708 C   0  0  0  0  0  0  0  0  0  0  0  0
  145.0827  144.0166  153.9562 C   0  0  0  0  0  0  0  0  0  0  0  0
  146.1087  143.0816  153.7198 C   0  0  0  0  0  0  0  0  0  0  0  0
  146.6781  142.3470  154.7783 C   0  0  0  0  0  0  0  0  0  0  0  0
  147.6759  141.4541  154.4546 O   0  0  0  0  0  0  0  0  0  0  0  0
  148.5560  141.0215  155.4838 C   0  0  0  0  0  0  0  0  0  0  0  0
  149.9252  141.6921  155.3038 C   0  0  0  0  0  0  0  0  0  0  0  0
  150.9314  141.1202  156.1875 N   0  0  0  0  0  0  0  0  0  0  0  0
  151.6586  139.9837  156.0289 C   0  0  0  0  0  0  0  0  0  0  0  0
  151.5317  139.0931  154.8264 C   0  0  0  0  0  0  0  0  0  0  0  0
  151.0956  137.6608  155.1733 C   0  0  0  0  0  0  0  0  0  0  0  0
  151.3941  136.7703  154.1185 O   0  0  0  0  0  0  0  0  0  0  0  0
  152.5132  139.7024  157.0139 N   0  0  0  0  0  0  0  0  0  0  0  0
  152.3201  140.7482  157.8945 C   0  0  0  0  0  0  0  0  0  0  0  0
  152.9296  141.0251  159.1393 C   0  0  0  0  0  0  0  0  0  0  0  0
  152.5639  142.1725  159.8734 C   0  0  0  0  0  0  0  0  0  0  0  0
  151.5854  143.0568  159.3748 C   0  0  0  0  0  0  0  0  0  0  0  0
  150.9664  142.7993  158.1365 C   0  0  0  0  0  0  0  0  0  0  0  0
  151.3358  141.6532  157.4072 C   0  0  0  0  0  0  0  0  0  0  0  0
  146.1991  142.5668  156.0928 C   0  0  0  0  0  0  0  0  0  0  0  0
  145.1735  143.5022  156.3293 C   0  0  0  0  0  0  0  0  0  0  0  0
  142.3359  146.6262  154.9775 H   0  0  0  0  0  0  0  0  0  0  0  0
  142.6650  145.4042  153.7547 H   0  0  0  0  0  0  0  0  0  0  0  0
  143.8977  146.6211  154.1670 H   0  0  0  0  0  0  0  0  0  0  0  0
  144.6798  144.5526  153.1106 H   0  0  0  0  0  0  0  0  0  0  0  0
  146.4625  142.9251  152.7112 H   0  0  0  0  0  0  0  0  0  0  0  0
  148.1502  141.2820  156.4623 H   0  0  0  0  0  0  0  0  0  0  0  0
  148.6747  139.9374  155.4455 H   0  0  0  0  0  0  0  0  0  0  0  0
  150.2551  141.6165  154.2688 H   0  0  0  0  0  0  0  0  0  0  0  0
  149.8460  142.7588  155.5153 H   0  0  0  0  0  0  0  0  0  0  0  0
  150.7817  139.5359  154.1699 H   0  0  0  0  0  0  0  0  0  0  0  0
  152.4529  139.0868  154.2450 H   0  0  0  0  0  0  0  0  0  0  0  0
  151.5660  137.3187  156.0956 H   0  0  0  0  0  0  0  0  0  0  0  0
  150.0177  137.6343  155.3341 H   0  0  0  0  0  0  0  0  0  0  0  0
  150.9684  137.0810  153.3339 H   0  0  0  0  0  0  0  0  0  0  0  0
  153.6790  140.3530  159.5299 H   0  0  0  0  0  0  0  0  0  0  0  0
  153.0363  142.3745  160.8235 H   0  0  0  0  0  0  0  0  0  0  0  0
  151.3104  143.9331  159.9434 H   0  0  0  0  0  0  0  0  0  0  0  0
  150.2164  143.4743  157.7519 H   0  0  0  0  0  0  0  0  0  0  0  0
  146.6020  142.0310  156.9386 H   0  0  0  0  0  0  0  0  0  0  0  0
  144.8200  143.6578  157.3381 H   0  0  0  0  0  0  0  0  0  0  0  0
  1  2  1  0  0  0  0
  1 24  1  0  0  0  0
  1 25  1  0  0  0  0
  1 26  1  0  0  0  0
  2  3  1  0  0  0  0
  3 23  1  0  0  0  0
  3  4  2  0  0  0  0
  4  5  1  0  0  0  0
  4 27  1  0  0  0  0
  5  6  2  0  0  0  0
  5 28  1  0  0  0  0
  6  7  1  0  0  0  0
  6 22  1  0  0  0  0
  7  8  1  0  0  0  0
  8  9  1  0  0  0  0
  8 29  1  0  0  0  0
  8 30  1  0  0  0  0
  9 10  1  0  0  0  0
  9 31  1  0  0  0  0
  9 32  1  0  0  0  0
 10 21  1  0  0  0  0
 10 11  1  0  0  0  0
 11 12  1  0  0  0  0
 11 15  2  0  0  0  0
 12 13  1  0  0  0  0
 12 33  1  0  0  0  0
 12 34  1  0  0  0  0
 13 14  1  0  0  0  0
 13 35  1  0  0  0  0
 13 36  1  0  0  0  0
 14 37  1  0  0  0  0
 15 16  1  0  0  0  0
 16 21  2  0  0  0  0
 16 17  1  0  0  0  0
 17 18  2  0  0  0  0
 17 38  1  0  0  0  0
 18 19  1  0  0  0  0
 18 39  1  0  0  0  0
 19 20  2  0  0  0  0
 19 40  1  0  0  0  0
 20 21  1  0  0  0  0
 20 41  1  0  0  0  0
 22 23  2  0  0  0  0
 22 42  1  0  0  0  0
 23 43  1  0  0  0  0
M  END
> <s_m_source_file>
AV-unprocessed.smi

> <i_m_source_file_index>
459

> <i_lp_mmshare_version>
43012

> <i_f3d_flags>
0

> <s_epik_input>
W0NIM11PYzFbY0hdW2NIXWMoW2NIXVtjSF0xKU9bQ0gyXVtDSDJdbihjKG4yKVtDSDJdW0NIMl1bT0hdKWMoYzIzKVtjSF1bY0hdW2NIXVtjSF0z

> <s_epik_cmdline>
J2VwaWtfcHl0aG9uJywgJy1waCcsICc3LjAnLCAnLXRuJywgJzgnLCAnLW1hJywgJzIwMCcsICctbWV0YWxfYmluZGluZycsICctaW1hZScsICc8aW5maWxlLm1hZT4nLCAnLW9tYWUnLCAnPG91dGZpbGUubWFlPic=

> <r_lp_tautomer_probability>
1

> <r_epik_Ionization_Penalty>
0.207087

> <r_epik_Ionization_Penalty_Charging>
0

> <r_epik_Ionization_Penalty_Neutral>
0.207087

> <r_epik_State_Penalty>
0.197081

> <r_epik_Charging_Adjusted_Penalty>
0.197081

> <i_epik_Tot_Q>
0

> <i_epik_Tot_abs_Q>
0

> <r_epik_Metal_State_Penalty>
0.00023377

> <b_epik_Metal_Only>
0

> <s_lp_Force_Field>
OPLS_2005

> <r_lp_Energy>
17.9825

> <b_lp_Chiralities_Consistent>
1

> <s_lp_Variant>
AV-unprocessed.smi:459-1

> <Gold.Version>
5.8.1

> <Gold.Id.Protein>
6NUR|6NUR_protein|mol2

> <Gold.PLP.Fitness>
52.8495

> <Gold.PLP.PLP>
-47.8780

> <Gold.PLP.part.hbond>
-3.0000

> <Gold.PLP.part.metal>
0.0000

> <Gold.PLP.part.buried>
-6.8126

> <Gold.PLP.part.nonpolar>
-38.3228

> <Gold.PLP.part.repulsive>
0.1962

> <Gold.PLP.ligand.clash>
0.0000

> <Gold.PLP.ligand.torsion>
1.0578

> <Gold.PLP.Chemscore.Hbond>
2.3448

> <Gold.PLP.Chemscore.CHOScore>
0.0000

> <Gold.PLP.Chemscore.Metal>
0.0000

> <Gold.Chemscore.Hbonds>
donor molecule, donor type, donor heavy atom, donor atom, acceptor molecule, acceptor atom, score
      L1  H    14    37       P1  7949  0.28
      P1  H  7997  8010       L1    15  0.85
      P1  H 10752 10764       L1    14  1.00

> <Gold.PLP.Chemscore.Internal.Correction>
0.0527

> <Gold.Rescore>
     Score         DG    S(hbond)    S(metal)    S(lipo)     H(rot)  DE(clash)    DE(int)     intcor
     17.42     -18.89       1.69        0.00     123.00       2.59       0.41       1.06       ----

> <Gold.Chemscore.Fitness>
17.4228

> <Gold.Chemscore.DG>
-18.8948

> <Gold.Chemscore.ZeroCoef>
-5.4800

> <Gold.Chemscore.Hbond>
1.6940

> <Gold.Chemscore.Metal>
0.0000

> <Gold.Chemscore.Lipo>
123.0042

> <Gold.Chemscore.Internal_Hbond>
0.0000

> <Gold.Chemscore.DEClash>
0.4103

> <Gold.Chemscore.DEInternal>
1.0618

> <Gold.Chemscore.Rot>
2.5916

> <Gold.Chemscore.Internal.Correction>
   9.000000E+99

> <Gold.Chemscore.Hbonds>
donor molecule, donor type, donor heavy atom, donor atom, acceptor molecule, acceptor atom, score
      L1  H    14    37       P1  7949  0.07
      P1  H  7997  8010       L1    15  0.13
      P1  H 10752 10764       L1    14  0.98

> <Gold.Chemscore.Hbond.Weighted>
-5.6579

> <Gold.Chemscore.Metal.Weighted>
-0.0000

> <Gold.Chemscore.Lipo.Weighted>
-14.3915

> <Gold.Chemscore.Internal_Hbond.Weighted>
0.0000

> <Gold.Chemscore.DEClash.Weighted>
0.4103

> <Gold.Chemscore.DEInternal.Weighted>
1.0618

> <Gold.Chemscore.Rot.Weighted>
6.6346

> <Gold.Chemscore.Internal.Correction.Weighted>
   9.000000E+99

> <Gold.Protein.RotatedTorsions>
[ 6907 6896 6895 6894 ] final  108.43 input  -60.11 | X-H torsion
[ 7974 7965 7964 7962 ] final  -81.16 input  175.53 | X-H torsion
[ 8008 7997 7996 7995 ] final   61.68 input   59.86 | X-H torsion
[ 10167 10162 10161 10158 ] final -160.96 input  -65.29 | X-H torsion
[ 10718 10713 10712 10709 ] final  177.75 input   66.30 | X-H torsion
[ 10763 10752 10751 10750 ] final  -84.88 input  -60.55 | X-H torsion
[ 11005 11000 10999 10996 ] final   60.28 input  -57.11 | X-H torsion

> <Gold.Protein.ActiveResidues>
 VAL166  LYS551  ARG553  GLY616  TRP617  ASP618  TYR619  PRO620  LYS621  CYS622 
 ASP623  PHE694  ASN695  SER759  ASP760  ASP761  ALA762  ILE779  LEU786  VAL792 
 PHE793  MET794  SER795  GLU796  ALA797  LYS798  CYS799  TRP800  GLU811  SER814 

> <Gold.Protein.RotatedAtoms>
  152.5112  133.9091  159.7478 H   0  0  0  0  0  0  0  0  0  0  0  0  # atno 6907 bound_to 6896
  150.9488  133.6564  159.2783 H   0  0  0  0  0  0  0  0  0  0  0  0  # atno 6908 bound_to 6896
  151.3849  135.0951  159.9560 H   0  0  0  0  0  0  0  0  0  0  0  0  # atno 6909 bound_to 6896
  145.5503  140.9497  143.1503 H   0  0  0  0  0  0  0  0  0  0  0  0  # atno 7974 bound_to 7965
  155.6022  140.3494  155.4597 H   0  0  0  0  0  0  0  0  0  0  0  0  # atno 8008 bound_to 7997
  156.0219  140.1255  157.0372 H   0  0  0  0  0  0  0  0  0  0  0  0  # atno 8009 bound_to 7997
  154.4318  140.1060  156.5962 H   0  0  0  0  0  0  0  0  0  0  0  0  # atno 8010 bound_to 7997
  139.6500  144.0101  152.2155 H   0  0  0  0  0  0  0  0  0  0  0  0  # atno 10167 bound_to 10162
  156.9008  130.9878  151.3036 H   0  0  0  0  0  0  0  0  0  0  0  0  # atno 10718 bound_to 10713
  154.6046  135.5505  153.7410 H   0  0  0  0  0  0  0  0  0  0  0  0  # atno 10763 bound_to 10752
  153.0169  135.6375  154.1665 H   0  0  0  0  0  0  0  0  0  0  0  0  # atno 10764 bound_to 10752
  154.1604  135.2897  155.3090 H   0  0  0  0  0  0  0  0  0  0  0  0  # atno 10765 bound_to 10752
  140.0243  134.6106  155.9595 H   0  0  0  0  0  0  0  0  0  0  0  0  # atno 11005 bound_to 11000
  144.7532  139.7139  143.7264 LP  0  0  0  0  0  0  0  0  0  0  0  0  # atno 17320 bound_to 7965
  146.1921  139.5167  142.9798 LP  0  0  0  0  0  0  0  0  0  0  0  0  # atno 17321 bound_to 7965
  139.9813  144.6426  150.7898 LP  0  0  0  0  0  0  0  0  0  0  0  0  # atno 17342 bound_to 10162
  140.7533  143.3006  151.3090 LP  0  0  0  0  0  0  0  0  0  0  0  0  # atno 17343 bound_to 10162
  157.6027  130.8524  149.8827 LP  0  0  0  0  0  0  0  0  0  0  0  0  # atno 17370 bound_to 10713
  156.0583  130.3704  150.1040 LP  0  0  0  0  0  0  0  0  0  0  0  0  # atno 17371 bound_to 10713
  141.1793  133.6544  156.4955 LP  0  0  0  0  0  0  0  0  0  0  0  0  # atno 17394 bound_to 11000
  140.4333  134.7082  157.4953 LP  0  0  0  0  0  0  0  0  0  0  0  0  # atno 17395 bound_to 11000

$$$$
