AV-unprocessed.smi:1552|AV-procd|sdf|6237|dock5
  -GOLD-   22720 6423D 1   1.00000     0.00000
 Structure written by MMmdl.
 49 50  0  0  0  0  0  0  0  0  3 V2000
  146.5980  138.3923  151.9576 C   0  0  0  0  0  0  0  0  0  0  0  0
  146.3608  136.9558  151.6878 N   0  3  0  0  0  0  0  0  0  0  0  0
  145.6978  136.7566  150.3749 C   0  0  0  0  0  0  0  0  0  0  0  0
  145.7515  136.2396  152.8532 C   0  0  1  0  0  0  0  0  0  0  0  0
  144.7389  137.1025  153.6490 C   0  0  0  0  0  0  0  0  0  0  0  0
  144.5023  136.5672  154.9843 N   0  0  0  0  0  0  0  0  0  0  0  0
  145.3211  136.6663  156.0436 C   0  0  0  0  0  0  0  0  0  0  0  0
  146.4089  137.2311  155.9425 O   0  0  0  0  0  0  0  0  0  0  0  0
  144.8986  136.0327  157.3841 C   0  0  0  0  0  0  0  0  0  0  0  0
  145.8651  136.2796  158.4661 N   0  0  0  0  0  0  0  0  0  0  0  0
  146.4904  135.1663  159.0543 C   0  0  0  0  0  0  0  0  0  0  0  0
  147.3878  135.2997  160.0496 C   0  0  0  0  0  0  0  0  0  0  0  0
  147.7064  136.6434  160.5167 C   0  0  0  0  0  0  0  0  0  0  0  0
  148.5193  136.7836  161.4284 O   0  0  0  0  0  0  0  0  0  0  0  0
  147.0769  137.6922  159.9102 N   0  5  0  0  0  0  0  0  0  0  0  0
  146.1683  137.5416  158.8971 C   0  0  0  0  0  0  0  0  0  0  0  0
  145.6125  138.5015  158.3610 O   0  0  0  0  0  0  0  0  0  0  0  0
  145.2252  134.8317  152.4496 C   0  0  0  0  0  0  0  0  0  0  0  0
  146.2495  134.0490  151.5976 C   0  0  0  0  0  0  0  0  0  0  0  0
  145.7682  132.6183  151.3047 C   0  0  0  0  0  0  0  0  0  0  0  0
  144.3856  132.6192  150.6351 C   0  0  0  0  0  0  0  0  0  0  0  0
  143.3617  133.3936  151.4793 C   0  0  0  0  0  0  0  0  0  0  0  0
  143.8430  134.8264  151.7588 C   0  0  0  0  0  0  0  0  0  0  0  0
  145.6568  138.9192  152.1200 H   0  0  0  0  0  0  0  0  0  0  0  0
  147.1132  138.8632  151.1198 H   0  0  0  0  0  0  0  0  0  0  0  0
  147.2237  138.5239  152.8409 H   0  0  0  0  0  0  0  0  0  0  0  0
  144.7405  137.2773  150.3289 H   0  0  0  0  0  0  0  0  0  0  0  0
  145.5225  135.7040  150.1587 H   0  0  0  0  0  0  0  0  0  0  0  0
  146.3257  137.1507  149.5752 H   0  0  0  0  0  0  0  0  0  0  0  0
  146.5617  136.0351  153.5559 H   0  0  0  0  0  0  0  0  0  0  0  0
  145.1245  138.1182  153.7493 H   0  0  0  0  0  0  0  0  0  0  0  0
  143.7842  137.1681  153.1262 H   0  0  0  0  0  0  0  0  0  0  0  0
  143.6365  136.0658  155.1222 H   0  0  0  0  0  0  0  0  0  0  0  0
  143.9193  136.3949  157.6984 H   0  0  0  0  0  0  0  0  0  0  0  0
  144.7702  134.9609  157.2255 H   0  0  0  0  0  0  0  0  0  0  0  0
  146.2032  134.2082  158.6465 H   0  0  0  0  0  0  0  0  0  0  0  0
  147.8619  134.4345  160.4892 H   0  0  0  0  0  0  0  0  0  0  0  0
  145.1120  134.2596  153.3713 H   0  0  0  0  0  0  0  0  0  0  0  0
  146.4272  134.5658  150.6540 H   0  0  0  0  0  0  0  0  0  0  0  0
  147.2106  134.0064  152.1113 H   0  0  0  0  0  0  0  0  0  0  0  0
  146.4894  132.1069  150.6664 H   0  0  0  0  0  0  0  0  0  0  0  0
  145.7224  132.0501  152.2347 H   0  0  0  0  0  0  0  0  0  0  0  0
  144.4587  133.0697  149.6444 H   0  0  0  0  0  0  0  0  0  0  0  0
  144.0451  131.5945  150.4841 H   0  0  0  0  0  0  0  0  0  0  0  0
  142.4002  133.4176  150.9656 H   0  0  0  0  0  0  0  0  0  0  0  0
  143.1941  132.8720  152.4225 H   0  0  0  0  0  0  0  0  0  0  0  0
  143.1038  135.3384  152.3748 H   0  0  0  0  0  0  0  0  0  0  0  0
  143.8932  135.3640  150.8122 H   0  0  0  0  0  0  0  0  0  0  0  0
  147.2828  136.5546  151.5916 H   0  0  0  0  0  0  0  0  0  0  0  0
  1  2  1  0  0  0  0
  1 24  1  0  0  0  0
  1 25  1  0  0  0  0
  1 26  1  0  0  0  0
  2  3  1  0  0  0  0
  2  4  1  0  0  0  0
  2 49  1  0  0  0  0
  3 27  1  0  0  0  0
  3 28  1  0  0  0  0
  3 29  1  0  0  0  0
  4  5  1  0  0  0  0
  4 18  1  0  0  0  0
  4 30  1  0  0  0  0
  5  6  1  0  0  0  0
  5 31  1  0  0  0  0
  5 32  1  0  0  0  0
  6  7  1  0  0  0  0
  6 33  1  0  0  0  0
  7  8  2  0  0  0  0
  7  9  1  0  0  0  0
  9 10  1  0  0  0  0
  9 34  1  0  0  0  0
  9 35  1  0  0  0  0
 10 16  1  0  0  0  0
 10 11  1  0  0  0  0
 11 12  2  0  0  0  0
 11 36  1  0  0  0  0
 12 13  1  0  0  0  0
 12 37  1  0  0  0  0
 13 14  2  0  0  0  0
 13 15  1  0  0  0  0
 15 16  1  0  0  0  0
 16 17  2  0  0  0  0
 18 23  1  0  0  0  0
 18 19  1  0  0  0  0
 18 38  1  0  0  0  0
 19 20  1  0  0  0  0
 19 39  1  0  0  0  0
 19 40  1  0  0  0  0
 20 21  1  0  0  0  0
 20 41  1  0  0  0  0
 20 42  1  0  0  0  0
 21 22  1  0  0  0  0
 21 43  1  0  0  0  0
 21 44  1  0  0  0  0
 22 23  1  0  0  0  0
 22 45  1  0  0  0  0
 22 46  1  0  0  0  0
 23 47  1  0  0  0  0
 23 48  1  0  0  0  0
M  CHG  1   2   1
M  CHG  1  15  -1
M  END
> <s_m_source_file>
AV-unprocessed.smi

> <i_m_source_file_index>
1552

> <i_lp_mmshare_version>
43012

> <i_f3d_flags>
0

> <s_epik_input>
W0NIMl0xW0NIMl1bQ0gyXVtDSDJdW0NIMl1bQ0hdMVtDQEhdKE4oW0NIM10pW0NIM10pW0NIMl1bTkhdQyg9TylbQ0gyXW4yW2NIXVtjSF1jKD1PKVtuSF1jMj1P

> <s_epik_cmdline>
J2VwaWtfcHl0aG9uJywgJy1waCcsICc3LjAnLCAnLXRuJywgJzgnLCAnLW1hJywgJzIwMCcsICctbWV0YWxfYmluZGluZycsICctaW1hZScsICc8aW5maWxlLm1hZT4nLCAnLW9tYWUnLCAnPG91dGZpbGUubWFlPic=

> <r_lp_tautomer_probability>
1

> <r_epik_Ionization_Penalty>
2.93575

> <r_epik_Ionization_Penalty_Charging>
0.00331645

> <r_epik_Ionization_Penalty_Neutral>
2.93244

> <r_epik_State_Penalty>
2.92822

> <r_epik_Charging_Adjusted_Penalty>
2.93154

> <i_epik_Tot_Q>
0

> <i_epik_Tot_abs_Q>
2

> <r_epik_Metal_State_Penalty>
0.448509

> <b_epik_Metal_Only>
1

> <s_lp_Force_Field>
OPLS_2005

> <r_lp_Energy>
36.4882

> <b_lp_Chiralities_Consistent>
1

> <s_lp_Variant>
AV-unprocessed.smi:1552-4

> <Gold.Version>
5.8.1

> <Gold.Id.Protein>
6NUR|6NUR_protein|mol2

> <Gold.PLP.Fitness>
40.4903

> <Gold.PLP.PLP>
-27.0162

> <Gold.PLP.part.hbond>
-3.0580

> <Gold.PLP.part.metal>
0.0000

> <Gold.PLP.part.buried>
-1.6308

> <Gold.PLP.part.nonpolar>
-22.8836

> <Gold.PLP.part.repulsive>
0.0711

> <Gold.PLP.ligand.clash>
0.0000

> <Gold.PLP.ligand.torsion>
0.9156

> <Gold.PLP.Chemscore.Hbond>
5.0000

> <Gold.PLP.Chemscore.CHOScore>
0.0000

> <Gold.PLP.Chemscore.Metal>
0.0000

> <Gold.Chemscore.Hbonds>
donor molecule, donor type, donor heavy atom, donor atom, acceptor molecule, acceptor atom, score
      L1  H     2    49       P1  7948  2.00
      P1  H  6931  6943       L1    14  1.00
      P1  H  6934  6947       L1    15  1.95

> <Gold.PLP.Chemscore.Internal.Correction>
0.3054

> <Gold.Rescore>
     Score         DG    S(hbond)    S(metal)    S(lipo)     H(rot)  DE(clash)    DE(int)     intcor
     13.17     -16.60       2.86        0.00      66.59       2.43       1.62       1.81       ----

> <Gold.Chemscore.Fitness>
13.1731

> <Gold.Chemscore.DG>
-16.6023

> <Gold.Chemscore.ZeroCoef>
-5.4800

> <Gold.Chemscore.Hbond>
2.8604

> <Gold.Chemscore.Metal>
0.0000

> <Gold.Chemscore.Lipo>
66.5871

> <Gold.Chemscore.Internal_Hbond>
0.0000

> <Gold.Chemscore.DEClash>
1.6208

> <Gold.Chemscore.DEInternal>
1.8084

> <Gold.Chemscore.Rot>
2.4305

> <Gold.Chemscore.Internal.Correction>
   9.000000E+99

> <Gold.Chemscore.Hbonds>
donor molecule, donor type, donor heavy atom, donor atom, acceptor molecule, acceptor atom, score
      L1  H     2    49       P1  7948  1.00
      P1  H  6931  6943       L1    14  0.98
      P1  H  6934  6947       L1    15  0.65

> <Gold.Chemscore.Hbond.Weighted>
-9.5536

> <Gold.Chemscore.Metal.Weighted>
-0.0000

> <Gold.Chemscore.Lipo.Weighted>
-7.7907

> <Gold.Chemscore.Internal_Hbond.Weighted>
0.0000

> <Gold.Chemscore.DEClash.Weighted>
1.6208

> <Gold.Chemscore.DEInternal.Weighted>
1.8084

> <Gold.Chemscore.Rot.Weighted>
6.2220

> <Gold.Chemscore.Internal.Correction.Weighted>
   9.000000E+99

> <Gold.Protein.RotatedTorsions>
[ 6907 6896 6895 6894 ] final   27.99 input  -60.11 | X-H torsion
[ 7974 7965 7964 7962 ] final -108.84 input  175.53 | X-H torsion
[ 8008 7997 7996 7995 ] final   40.67 input   59.86 | X-H torsion
[ 10167 10162 10161 10158 ] final  -44.65 input  -65.29 | X-H torsion
[ 10718 10713 10712 10709 ] final -138.80 input   66.30 | X-H torsion
[ 10763 10752 10751 10750 ] final   32.10 input  -60.55 | X-H torsion
[ 11005 11000 10999 10996 ] final -122.86 input  -57.11 | X-H torsion

> <Gold.Protein.ActiveResidues>
 VAL166  LYS551  ARG553  GLY616  TRP617  ASP618  TYR619  PRO620  LYS621  CYS622 
 ASP623  PHE694  ASN695  SER759  ASP760  ASP761  ALA762  ILE779  LEU786  VAL792 
 PHE793  MET794  SER795  GLU796  ALA797  LYS798  CYS799  TRP800  GLU811  SER814 

> <Gold.Protein.RotatedAtoms>
  152.0104  134.9879  160.0567 H   0  0  0  0  0  0  0  0  0  0  0  0  # atno 6907 bound_to 6896
  152.1434  133.4473  159.4786 H   0  0  0  0  0  0  0  0  0  0  0  0  # atno 6908 bound_to 6896
  150.6867  134.2196  159.4434 H   0  0  0  0  0  0  0  0  0  0  0  0  # atno 6909 bound_to 6896
  145.1879  140.9001  143.3442 H   0  0  0  0  0  0  0  0  0  0  0  0  # atno 7974 bound_to 7965
  155.2570  140.3356  155.4276 H   0  0  0  0  0  0  0  0  0  0  0  0  # atno 8008 bound_to 7997
  156.2191  140.1801  156.7562 H   0  0  0  0  0  0  0  0  0  0  0  0  # atno 8009 bound_to 7997
  154.5798  140.0655  156.9072 H   0  0  0  0  0  0  0  0  0  0  0  0  # atno 8010 bound_to 7997
  140.6889  143.2919  151.3526 H   0  0  0  0  0  0  0  0  0  0  0  0  # atno 10167 bound_to 10162
  156.3035  130.7442  151.1499 H   0  0  0  0  0  0  0  0  0  0  0  0  # atno 10718 bound_to 10713
  153.0280  135.6422  154.1302 H   0  0  0  0  0  0  0  0  0  0  0  0  # atno 10763 bound_to 10752
  154.1028  135.2858  155.3249 H   0  0  0  0  0  0  0  0  0  0  0  0  # atno 10764 bound_to 10752
  154.6386  135.5467  153.7826 H   0  0  0  0  0  0  0  0  0  0  0  0  # atno 10765 bound_to 10752
  140.9963  134.0467  157.3593 H   0  0  0  0  0  0  0  0  0  0  0  0  # atno 11005 bound_to 11000
  145.0071  139.3544  143.6139 LP  0  0  0  0  0  0  0  0  0  0  0  0  # atno 17320 bound_to 7965
  146.3441  139.9318  142.8752 LP  0  0  0  0  0  0  0  0  0  0  0  0  # atno 17321 bound_to 7965
  139.6272  144.0791  152.2444 LP  0  0  0  0  0  0  0  0  0  0  0  0  # atno 17342 bound_to 10162
  140.0255  144.6121  150.7531 LP  0  0  0  0  0  0  0  0  0  0  0  0  # atno 17343 bound_to 10162
  157.7374  131.0552  150.5359 LP  0  0  0  0  0  0  0  0  0  0  0  0  # atno 17370 bound_to 10713
  156.5489  130.4227  149.6117 LP  0  0  0  0  0  0  0  0  0  0  0  0  # atno 17371 bound_to 10713
  139.9016  135.0166  156.7296 LP  0  0  0  0  0  0  0  0  0  0  0  0  # atno 17394 bound_to 11000
  140.6961  133.9347  155.7995 LP  0  0  0  0  0  0  0  0  0  0  0  0  # atno 17395 bound_to 11000

$$$$
