#       Name:                AV-unprocessed.smi:49
#       Creating user name   scv26
#       Creation time:       Thu Mar 26 16:33:44 2020


#       File generated by GOLD software.
#

@<TRIPOS>MOLECULE
AV-unprocessed.smi:49
    32    33     1
SMALL
NO_CHARGES


@<TRIPOS>ATOM
      1 ****        -3.9037   1.1135  -1.1594 C.3            1 S1                 0.0000
      2 ****        -3.1520  -0.0662  -1.7861 C.3            1 S1                 0.0000
      3 ****        -1.6710   0.0836  -1.6722 C.2            1 S1                 0.0000
      4 ****        -0.9642  -0.3583  -0.5886 N.2            1 S1                 0.0000
      5 ****         0.2619   0.0357  -0.9269 C.2            1 S1                 0.0000
      6 ****         1.5060  -0.1533  -0.1111 C.3            1 S1                 0.0000
      7 ****         1.6285   0.7725   1.1012 C.3            1 S1                 0.0000
      8 ****         2.4038  -0.0932   2.0896 C.3            1 S1                 0.0000
      9 ****         2.2175   0.3271   3.4243 O.3            1 S1                 0.0000
     10 ****         1.8437  -1.4986   1.8409 C.3            1 S1                 0.0000
     11 ****         1.4208  -1.5279   0.4262 N.4            1 S1                 1.0000
     12 ****         0.2827   0.6703  -2.1014 N.pl3          1 S1                 0.0000
     13 ****        -0.9675   0.7205  -2.6067 N.2            1 S1                 0.0000
     14 ****         2.3930  -0.0789  -0.7424 H              1 S1                 0.0000
     15 ****         3.4668  -0.0697   1.8443 H              1 S1                 0.0000
     16 ****         1.0813   1.0742  -2.5700 H              1 S1                 0.0000
     17 ****        -4.9815   0.9808  -1.2534 H              1 S1                 0.0000
     18 ****        -3.6397   2.0521  -1.6476 H              1 S1                 0.0000
     19 ****        -3.6707   1.2098  -0.0985 H              1 S1                 0.0000
     20 ****        -3.4545  -0.9958  -1.3025 H              1 S1                 0.0000
     21 ****        -3.4242  -0.1621  -2.8380 H              1 S1                 0.0000
     22 ****         2.1141   1.7213   0.8707 H              1 S1                 0.0000
     23 ****         0.6390   0.9912   1.5077 H              1 S1                 0.0000
     24 ****         2.5673   1.2002   3.5200 H              1 S1                 0.0000
     25 ****         2.5693  -2.2820   2.0607 H              1 S1                 0.0000
     26 ****         0.9595  -1.6772   2.4547 H              1 S1                 0.0000
     27 ****         0.4624  -1.8448   0.3776 H              1 S1                 0.0000
     28 ****         2.0122  -2.1446  -0.1120 H              1 S1                 0.0000
     29 ****        -1.2794  -0.8415   0.2282 LP             1 S1                 0.0000
     30 ****         2.6956  -0.2963   4.0429 LP             1 S1                 0.0000
     31 ****         1.2416   0.3301   3.6427 LP             1 S1                 0.0000
     32 ****        -1.2842   1.1302  -3.4622 LP             1 S1                 0.0000
@<TRIPOS>BOND
    1    1    2 1     
    2    1   17 1     
    3    1   18 1     
    4    1   19 1     
    5    2   20 1     
    6    2   21 1     
    7    2    3 1     
    8    3    4 1     
    9    3   13 2     
   10    4    5 2     
   11    5    6 1     
   12    5   12 1     
   13    6   14 1     
   14    6   11 1     
   15    6    7 1     
   16    7    8 1     
   17    7   22 1     
   18    7   23 1     
   19    8   15 1     
   20    8    9 1     
   21    8   10 1     
   22    9   24 1     
   23   10   11 1     
   24   10   25 1     
   25   10   26 1     
   26   11   27 1     
   27   11   28 1     
   28   12   13 1     
   29   12   16 1     
   30    4   29 1     
   31    9   30 1     
   32    9   31 1     
   33   13   32 1     
@<TRIPOS>SUBSTRUCTURE
      1 S1             1
@<TRIPOS>SET
LONE_PAIRS      STATIC     ATOMS    <user>   **** ""
4 29 30 31 32
DONOR_HYDROGENS      STATIC     ATOMS    <user>   **** ""
4 24 27 28 16
ATOM$BLUE        STATIC     ATOMS    COLORGROUP SYSTEM
4 29 30 31 32
ATOM$RED        STATIC     ATOMS    COLORGROUP SYSTEM
4 24 27 28 16
