AV-unprocessed.smi:149|AV-procd|sdf|1239|dock6
  -GOLD-   2262018453D 1   1.00000     0.00000
 Structure written by MMmdl.
 59 63  0  0  0  0  0  0  0  0  1 V2000
  151.4799  139.6141  158.8007 C   0  0  0  0  0  0  0  0  0  0  0  0
  152.0063  140.6556  157.7915 C   0  0  1  0  0  0  0  0  0  0  0  0
  151.4916  140.3394  156.3781 C   0  0  0  0  0  0  0  0  0  0  0  0
  150.3515  141.2173  156.1580 N   0  0  0  0  0  0  0  0  0  0  0  0
  149.3256  140.8492  155.3477 C   0  0  0  0  0  0  0  0  0  0  0  0
  148.5764  141.8193  154.7589 N   0  0  0  0  0  0  0  0  0  0  0  0
  147.5629  141.4982  153.9501 C   0  0  0  0  0  0  0  0  0  0  0  0
  147.1325  140.2873  153.5938 N   0  0  0  0  0  0  0  0  0  0  0  0
  147.8823  139.3065  154.1727 C   0  0  0  0  0  0  0  0  0  0  0  0
  148.9900  139.4955  155.0488 C   0  0  0  0  0  0  0  0  0  0  0  0
  149.5165  138.2587  155.4069 N   0  0  0  0  0  0  0  0  0  0  0  0
  148.7644  137.3939  154.7837 C   0  0  0  0  0  0  0  0  0  0  0  0
  147.7403  137.9361  154.0418 N   0  0  0  0  0  0  0  0  0  0  0  0
  146.7973  137.2257  153.2288 C   0  0  0  0  0  0  0  0  0  0  0  0
  145.7134  137.9690  152.4443 C   0  0  0  0  0  0  0  0  0  0  0  0
  144.7638  136.7638  152.6290 C   0  0  0  0  0  0  0  0  0  0  0  0
  143.3033  137.1454  152.9271 C   0  0  0  0  0  0  0  0  0  0  0  0
  143.2072  138.0926  153.9709 O   0  0  0  0  0  0  0  0  0  0  0  0
  144.7993  135.7575  151.4589 C   0  0  0  0  0  0  0  0  0  0  0  0
  144.3569  136.3304  150.2454 O   0  0  0  0  0  0  0  0  0  0  0  0
  145.6485  136.4306  153.8525 C   0  0  0  0  0  0  0  0  0  0  0  0
  150.1383  142.0608  157.3235 C   0  0  0  0  0  0  0  0  0  0  0  0
  151.4959  142.0936  158.0373 C   0  0  1  0  0  0  0  0  0  0  0  0
  151.4708  142.5516  159.4331 N   0  0  0  0  0  0  0  0  0  0  0  0
  151.3327  144.0041  159.5349 C   0  0  0  0  0  0  0  0  0  0  0  0
  151.3227  144.4827  160.9975 C   0  0  0  0  0  0  0  0  0  0  0  0
  152.5086  144.0470  161.6527 O   0  0  0  0  0  0  0  0  0  0  0  0
  152.6642  142.6329  161.6160 C   0  0  0  0  0  0  0  0  0  0  0  0
  152.6810  142.1558  160.1540 C   0  0  0  0  0  0  0  0  0  0  0  0
  150.3902  139.5940  158.8253 H   0  0  0  0  0  0  0  0  0  0  0  0
  151.8291  139.8150  159.8129 H   0  0  0  0  0  0  0  0  0  0  0  0
  151.8209  138.6127  158.5373 H   0  0  0  0  0  0  0  0  0  0  0  0
  153.0964  140.6275  157.8042 H   0  0  0  0  0  0  0  0  0  0  0  0
  152.2546  140.5707  155.6340 H   0  0  0  0  0  0  0  0  0  0  0  0
  151.2273  139.2864  156.2737 H   0  0  0  0  0  0  0  0  0  0  0  0
  147.0193  142.3305  153.5278 H   0  0  0  0  0  0  0  0  0  0  0  0
  148.9372  136.3297  154.8530 H   0  0  0  0  0  0  0  0  0  0  0  0
  147.3890  136.5921  152.5660 H   0  0  0  0  0  0  0  0  0  0  0  0
  145.3753  138.8697  152.9605 H   0  0  0  0  0  0  0  0  0  0  0  0
  145.9784  138.1924  151.4103 H   0  0  0  0  0  0  0  0  0  0  0  0
  142.8308  137.5840  152.0479 H   0  0  0  0  0  0  0  0  0  0  0  0
  142.7091  136.2692  153.1881 H   0  0  0  0  0  0  0  0  0  0  0  0
  143.2695  138.9586  153.5982 H   0  0  0  0  0  0  0  0  0  0  0  0
  145.8047  135.3618  151.3119 H   0  0  0  0  0  0  0  0  0  0  0  0
  144.1645  134.8948  151.6622 H   0  0  0  0  0  0  0  0  0  0  0  0
  144.1159  137.2294  150.4071 H   0  0  0  0  0  0  0  0  0  0  0  0
  145.8604  135.3708  153.9962 H   0  0  0  0  0  0  0  0  0  0  0  0
  145.2781  136.8819  154.7750 H   0  0  0  0  0  0  0  0  0  0  0  0
  149.8152  143.0588  157.0252 H   0  0  0  0  0  0  0  0  0  0  0  0
  149.3697  141.6255  157.9641 H   0  0  0  0  0  0  0  0  0  0  0  0
  152.1384  142.7661  157.4654 H   0  0  0  0  0  0  0  0  0  0  0  0
  152.1487  144.4924  159.0000 H   0  0  0  0  0  0  0  0  0  0  0  0
  150.4079  144.3304  159.0595 H   0  0  0  0  0  0  0  0  0  0  0  0
  151.2711  145.5708  161.0402 H   0  0  0  0  0  0  0  0  0  0  0  0
  150.4468  144.0991  161.5227 H   0  0  0  0  0  0  0  0  0  0  0  0
  153.5960  142.3638  162.1136 H   0  0  0  0  0  0  0  0  0  0  0  0
  151.8545  142.1547  162.1695 H   0  0  0  0  0  0  0  0  0  0  0  0
  152.7973  141.0728  160.1408 H   0  0  0  0  0  0  0  0  0  0  0  0
  153.5598  142.5657  159.6537 H   0  0  0  0  0  0  0  0  0  0  0  0
  1  2  1  0  0  0  0
  1 30  1  0  0  0  0
  1 31  1  0  0  0  0
  1 32  1  0  0  0  0
  2 23  1  0  0  0  0
  2  3  1  0  0  0  0
  2 33  1  0  0  0  0
  3  4  1  0  0  0  0
  3 34  1  0  0  0  0
  3 35  1  0  0  0  0
  4  5  1  0  0  0  0
  4 22  1  0  0  0  0
  5 10  1  0  0  0  0
  5  6  2  0  0  0  0
  6  7  1  0  0  0  0
  7  8  2  0  0  0  0
  7 36  1  0  0  0  0
  8  9  1  0  0  0  0
  9 13  1  0  0  0  0
  9 10  2  0  0  0  0
 10 11  1  0  0  0  0
 11 12  2  0  0  0  0
 12 13  1  0  0  0  0
 12 37  1  0  0  0  0
 13 14  1  0  0  0  0
 14 21  1  0  0  0  0
 14 15  1  0  0  0  0
 14 38  1  0  0  0  0
 15 16  1  0  0  0  0
 15 39  1  0  0  0  0
 15 40  1  0  0  0  0
 16 17  1  0  0  0  0
 16 19  1  0  0  0  0
 16 21  1  0  0  0  0
 17 18  1  0  0  0  0
 17 41  1  0  0  0  0
 17 42  1  0  0  0  0
 18 43  1  0  0  0  0
 19 20  1  0  0  0  0
 19 44  1  0  0  0  0
 19 45  1  0  0  0  0
 20 46  1  0  0  0  0
 21 47  1  0  0  0  0
 21 48  1  0  0  0  0
 22 23  1  0  0  0  0
 22 49  1  0  0  0  0
 22 50  1  0  0  0  0
 23 24  1  0  0  0  0
 23 51  1  0  0  0  0
 24 29  1  0  0  0  0
 24 25  1  0  0  0  0
 25 26  1  0  0  0  0
 25 52  1  0  0  0  0
 25 53  1  0  0  0  0
 26 27  1  0  0  0  0
 26 54  1  0  0  0  0
 26 55  1  0  0  0  0
 27 28  1  0  0  0  0
 28 29  1  0  0  0  0
 28 56  1  0  0  0  0
 28 57  1  0  0  0  0
 29 58  1  0  0  0  0
 29 59  1  0  0  0  0
M  END
> <s_m_source_file>
AV-unprocessed.smi

> <i_m_source_file_index>
149

> <i_lp_mmshare_version>
43012

> <i_f3d_flags>
0

> <s_epik_input>
W0NIMl0xW0NIMl1PW0NIMl1bQ0gyXU4xW0NAQEhdMltDSDJdTihbQ0gyXVtDQEhdMltDSDNdKWMobltjSF1uMyljKGMzNCluW2NIXW40W0NIXShbQ0gyXTUpW0NIMl1DNShbQ0gyXVtPSF0pW0NIMl1bT0hd

> <s_epik_cmdline>
J2VwaWtfcHl0aG9uJywgJy1waCcsICc3LjAnLCAnLXRuJywgJzgnLCAnLW1hJywgJzIwMCcsICctbWV0YWxfYmluZGluZycsICctaW1hZScsICc8aW5maWxlLm1hZT4nLCAnLW9tYWUnLCAnPG91dGZpbGUubWFlPic=

> <r_lp_tautomer_probability>
1

> <r_epik_Ionization_Penalty>
0.41918

> <r_epik_Ionization_Penalty_Charging>
0

> <r_epik_Ionization_Penalty_Neutral>
0.41918

> <r_epik_State_Penalty>
0.654916

> <r_epik_Charging_Adjusted_Penalty>
0.654916

> <i_epik_Tot_Q>
0

> <i_epik_Tot_abs_Q>
0

> <r_epik_Metal_State_Penalty>
0.653217

> <b_epik_Metal_Only>
0

> <s_lp_Force_Field>
OPLS_2005

> <r_lp_Energy>
77.678

> <b_lp_Chiralities_Consistent>
1

> <s_lp_Variant>
AV-unprocessed.smi:149-6

> <Gold.Version>
5.8.1

> <Gold.Id.Protein>
6NUR|6NUR_protein|mol2

> <Gold.PLP.Fitness>
46.9437

> <Gold.PLP.PLP>
-42.7035

> <Gold.PLP.part.hbond>
-3.3995

> <Gold.PLP.part.metal>
0.0000

> <Gold.PLP.part.buried>
4.8201

> <Gold.PLP.part.nonpolar>
-45.6226

> <Gold.PLP.part.repulsive>
1.5940

> <Gold.PLP.ligand.clash>
0.0000

> <Gold.PLP.ligand.torsion>
1.2615

> <Gold.PLP.Chemscore.Hbond>
2.0000

> <Gold.PLP.Chemscore.CHOScore>
0.0000

> <Gold.PLP.Chemscore.Metal>
0.0000

> <Gold.Chemscore.Hbonds>
donor molecule, donor type, donor heavy atom, donor atom, acceptor molecule, acceptor atom, score
      L1  H    18    43       P1 10175  1.00
      L1  H    20    46       P1 10171  0.83

> <Gold.PLP.Chemscore.Internal.Correction>
0.7632

> <Gold.Rescore>
     Score         DG    S(hbond)    S(metal)    S(lipo)     H(rot)  DE(clash)    DE(int)     intcor
     10.08     -16.89       1.97        0.00     107.72       3.04       3.64       3.17       ----

> <Gold.Chemscore.Fitness>
10.0770

> <Gold.Chemscore.DG>
-16.8899

> <Gold.Chemscore.ZeroCoef>
-5.4800

> <Gold.Chemscore.Hbond>
1.9719

> <Gold.Chemscore.Metal>
0.0000

> <Gold.Chemscore.Lipo>
107.7235

> <Gold.Chemscore.Internal_Hbond>
0.0000

> <Gold.Chemscore.DEClash>
3.6407

> <Gold.Chemscore.DEInternal>
3.1722

> <Gold.Chemscore.Rot>
3.0390

> <Gold.Chemscore.Internal.Correction>
   9.000000E+99

> <Gold.Chemscore.Hbonds>
donor molecule, donor type, donor heavy atom, donor atom, acceptor molecule, acceptor atom, score
      L1  H    18    43       P1 10175  1.00
      L1  H    20    46       P1 10171  0.78

> <Gold.Chemscore.Hbond.Weighted>
-6.5861

> <Gold.Chemscore.Metal.Weighted>
-0.0000

> <Gold.Chemscore.Lipo.Weighted>
-12.6037

> <Gold.Chemscore.Internal_Hbond.Weighted>
0.0000

> <Gold.Chemscore.DEClash.Weighted>
3.6407

> <Gold.Chemscore.DEInternal.Weighted>
3.1722

> <Gold.Chemscore.Rot.Weighted>
7.7798

> <Gold.Chemscore.Internal.Correction.Weighted>
   9.000000E+99

> <Gold.Protein.RotatedTorsions>
[ 6907 6896 6895 6894 ] final  166.80 input  -60.11 | X-H torsion
[ 7974 7965 7964 7962 ] final -157.34 input  175.53 | X-H torsion
[ 8008 7997 7996 7995 ] final  -11.02 input   59.86 | X-H torsion
[ 10167 10162 10161 10158 ] final   32.31 input  -65.29 | X-H torsion
[ 10718 10713 10712 10709 ] final   19.37 input   66.30 | X-H torsion
[ 10763 10752 10751 10750 ] final  -21.55 input  -60.55 | X-H torsion
[ 11005 11000 10999 10996 ] final  -40.48 input  -57.11 | X-H torsion

> <Gold.Protein.ActiveResidues>
 VAL166  LYS551  ARG553  GLY616  TRP617  ASP618  TYR619  PRO620  LYS621  CYS622 
 ASP623  PHE694  ASN695  SER759  ASP760  ASP761  ALA762  ILE779  LEU786  VAL792 
 PHE793  MET794  SER795  GLU796  ALA797  LYS798  CYS799  TRP800  GLU811  SER814 

> <Gold.Protein.RotatedAtoms>
  151.8732  133.3480  159.3741 H   0  0  0  0  0  0  0  0  0  0  0  0  # atno 6907 bound_to 6896
  150.7147  134.5092  159.5608 H   0  0  0  0  0  0  0  0  0  0  0  0  # atno 6908 bound_to 6896
  152.2629  134.8016  160.0478 H   0  0  0  0  0  0  0  0  0  0  0  0  # atno 6909 bound_to 6896
  144.7552  140.3983  143.6017 H   0  0  0  0  0  0  0  0  0  0  0  0  # atno 7974 bound_to 7965
  154.5501  140.2313  155.8498 H   0  0  0  0  0  0  0  0  0  0  0  0  # atno 8008 bound_to 7997
  156.1939  140.3070  155.9349 H   0  0  0  0  0  0  0  0  0  0  0  0  # atno 8009 bound_to 7997
  155.3086  140.0434  157.3024 H   0  0  0  0  0  0  0  0  0  0  0  0  # atno 8010 bound_to 7997
  140.4510  144.1048  150.6192 H   0  0  0  0  0  0  0  0  0  0  0  0  # atno 10167 bound_to 10162
  157.1095  130.6503  149.5894 H   0  0  0  0  0  0  0  0  0  0  0  0  # atno 10718 bound_to 10713
  153.6380  135.6986  153.5252 H   0  0  0  0  0  0  0  0  0  0  0  0  # atno 10763 bound_to 10752
  153.2806  135.4187  155.1074 H   0  0  0  0  0  0  0  0  0  0  0  0  # atno 10764 bound_to 10752
  154.8506  135.3601  154.5923 H   0  0  0  0  0  0  0  0  0  0  0  0  # atno 10765 bound_to 10752
  141.0178  133.6877  156.2328 H   0  0  0  0  0  0  0  0  0  0  0  0  # atno 11005 bound_to 11000
  145.6802  139.1617  143.2705 LP  0  0  0  0  0  0  0  0  0  0  0  0  # atno 17320 bound_to 7965
  146.1554  140.6865  142.9302 LP  0  0  0  0  0  0  0  0  0  0  0  0  # atno 17321 bound_to 7965
  140.4207  143.2613  151.9719 LP  0  0  0  0  0  0  0  0  0  0  0  0  # atno 17342 bound_to 10162
  139.4796  144.5833  151.7895 LP  0  0  0  0  0  0  0  0  0  0  0  0  # atno 17343 bound_to 10162
  155.9854  130.4883  150.7028 LP  0  0  0  0  0  0  0  0  0  0  0  0  # atno 17370 bound_to 10713
  157.4571  131.0879  151.0785 LP  0  0  0  0  0  0  0  0  0  0  0  0  # atno 17371 bound_to 10713
  140.6625  134.4953  157.5584 LP  0  0  0  0  0  0  0  0  0  0  0  0  # atno 17394 bound_to 11000
  139.9127  134.8310  156.1471 LP  0  0  0  0  0  0  0  0  0  0  0  0  # atno 17395 bound_to 11000

$$$$
