AV-unprocessed.smi:1986|AV-procd|sdf|8047|dock5
  -GOLD-   2272010243D 1   1.00000     0.00000
 Structure written by MMmdl.
 46 47  0  0  0  0  0  0  0  0  2 V2000
  149.6296  139.0197  154.2947 C   0  0  0  0  0  0  0  0  0  0  0  0
  149.7175  139.9718  155.5000 C   0  0  0  0  0  0  0  0  0  0  0  0
  150.9352  139.7352  156.4522 C   0  0  2  0  0  0  0  0  0  0  0  0
  152.2047  139.7228  155.5599 C   0  0  0  0  0  0  0  0  0  0  0  0
  150.7933  138.3162  157.0931 C   0  0  0  0  0  0  0  0  0  0  0  0
  149.4805  138.0601  157.6793 N   0  0  0  0  0  0  0  0  0  0  0  0
  149.2262  137.1193  158.5994 C   0  0  0  0  0  0  0  0  0  0  0  0
  150.0910  136.3585  159.0371 O   0  0  0  0  0  0  0  0  0  0  0  0
  147.7673  137.0327  159.0756 C   0  0  0  0  0  0  0  0  0  0  0  0
  147.5880  136.3119  160.3447 N   0  0  0  0  0  0  0  0  0  0  0  0
  147.7167  137.1586  161.5279 N   0  5  0  0  0  0  0  0  0  0  0  0
  147.5599  136.6042  162.7593 C   0  0  0  0  0  0  0  0  0  0  0  0
  147.6390  137.2558  163.7983 O   0  0  0  0  0  0  0  0  0  0  0  0
  147.2919  135.1777  162.8386 C   0  0  0  0  0  0  0  0  0  0  0  0
  147.2014  134.4161  161.7305 C   0  0  0  0  0  0  0  0  0  0  0  0
  147.3595  134.9681  160.3904 C   0  0  0  0  0  0  0  0  0  0  0  0
  147.2908  134.2761  159.3742 O   0  0  0  0  0  0  0  0  0  0  0  0
  151.0025  140.7856  157.5132 N   0  0  0  0  0  0  0  0  0  0  0  0
  152.0645  140.5986  158.5115 C   0  0  0  0  0  0  0  0  0  0  0  0
  152.0005  141.6451  159.6372 C   0  0  0  0  0  0  0  0  0  0  0  0
  152.0642  142.9524  159.0828 O   0  0  0  0  0  0  0  0  0  0  0  0
  151.0080  143.1985  158.1638 C   0  0  0  0  0  0  0  0  0  0  0  0
  151.0648  142.1695  157.0222 C   0  0  0  0  0  0  0  0  0  0  0  0
  148.7326  139.2256  153.7107 H   0  0  0  0  0  0  0  0  0  0  0  0
  149.5838  137.9765  154.6073 H   0  0  0  0  0  0  0  0  0  0  0  0
  150.4830  139.1340  153.6267 H   0  0  0  0  0  0  0  0  0  0  0  0
  149.7237  140.9938  155.1205 H   0  0  0  0  0  0  0  0  0  0  0  0
  148.7821  139.9208  156.0557 H   0  0  0  0  0  0  0  0  0  0  0  0
  152.1371  138.9680  154.7760 H   0  0  0  0  0  0  0  0  0  0  0  0
  153.1057  139.4993  156.1307 H   0  0  0  0  0  0  0  0  0  0  0  0
  152.3619  140.6745  155.0532 H   0  0  0  0  0  0  0  0  0  0  0  0
  150.9490  137.5386  156.3447 H   0  0  0  0  0  0  0  0  0  0  0  0
  151.5569  138.1667  157.8580 H   0  0  0  0  0  0  0  0  0  0  0  0
  148.7167  138.6426  157.3687 H   0  0  0  0  0  0  0  0  0  0  0  0
  147.3640  138.0422  159.1735 H   0  0  0  0  0  0  0  0  0  0  0  0
  147.1828  136.5606  158.2839 H   0  0  0  0  0  0  0  0  0  0  0  0
  147.1647  134.7182  163.8077 H   0  0  0  0  0  0  0  0  0  0  0  0
  147.0026  133.3600  161.8372 H   0  0  0  0  0  0  0  0  0  0  0  0
  151.9933  139.6202  158.9818 H   0  0  0  0  0  0  0  0  0  0  0  0
  153.0438  140.6537  158.0359 H   0  0  0  0  0  0  0  0  0  0  0  0
  151.0837  141.5317  160.2182 H   0  0  0  0  0  0  0  0  0  0  0  0
  152.8340  141.5105  160.3267 H   0  0  0  0  0  0  0  0  0  0  0  0
  150.0471  143.1525  158.6788 H   0  0  0  0  0  0  0  0  0  0  0  0
  151.1107  144.2087  157.7671 H   0  0  0  0  0  0  0  0  0  0  0  0
  151.9826  142.3292  156.4563 H   0  0  0  0  0  0  0  0  0  0  0  0
  150.2361  142.3866  156.3521 H   0  0  0  0  0  0  0  0  0  0  0  0
  1  2  1  0  0  0  0
  1 24  1  0  0  0  0
  1 25  1  0  0  0  0
  1 26  1  0  0  0  0
  2  3  1  0  0  0  0
  2 27  1  0  0  0  0
  2 28  1  0  0  0  0
  3  4  1  0  0  0  0
  3  5  1  0  0  0  0
  3 18  1  0  0  0  0
  4 29  1  0  0  0  0
  4 30  1  0  0  0  0
  4 31  1  0  0  0  0
  5  6  1  0  0  0  0
  5 32  1  0  0  0  0
  5 33  1  0  0  0  0
  6  7  1  0  0  0  0
  6 34  1  0  0  0  0
  7  8  2  0  0  0  0
  7  9  1  0  0  0  0
  9 35  1  0  0  0  0
  9 36  1  0  0  0  0
  9 10  1  0  0  0  0
 10 11  1  0  0  0  0
 10 16  1  0  0  0  0
 11 12  1  0  0  0  0
 12 13  2  0  0  0  0
 12 14  1  0  0  0  0
 14 37  1  0  0  0  0
 14 15  2  0  0  0  0
 15 38  1  0  0  0  0
 15 16  1  0  0  0  0
 16 17  2  0  0  0  0
 18 23  1  0  0  0  0
 18 19  1  0  0  0  0
 19 20  1  0  0  0  0
 19 39  1  0  0  0  0
 19 40  1  0  0  0  0
 20 21  1  0  0  0  0
 20 41  1  0  0  0  0
 20 42  1  0  0  0  0
 21 22  1  0  0  0  0
 22 23  1  0  0  0  0
 22 43  1  0  0  0  0
 22 44  1  0  0  0  0
 23 45  1  0  0  0  0
 23 46  1  0  0  0  0
M  CHG  1  11  -1
M  END
> <s_m_source_file>
AV-unprocessed.smi

> <i_m_source_file_index>
1986

> <i_lp_mmshare_version>
43012

> <i_f3d_flags>
0

> <s_epik_input>
W0NIMl0xW0NIMl1PW0NIMl1bQ0gyXU4xW0NAQF0oW0NIM10pKFtDSDJdW0NIM10pW0NIMl1bTkhdQyg9TylbQ0gyXW4yW25IXWMoPU8pW2NIXVtjSF1jMj1P

> <s_epik_cmdline>
J2VwaWtfcHl0aG9uJywgJy1waCcsICc3LjAnLCAnLXRuJywgJzgnLCAnLW1hJywgJzIwMCcsICctbWV0YWxfYmluZGluZycsICctaW1hZScsICc8aW5maWxlLm1hZT4nLCAnLW9tYWUnLCAnPG91dGZpbGUubWFlPic=

> <r_lp_tautomer_probability>
1

> <r_epik_Ionization_Penalty>
0.416475

> <r_epik_Ionization_Penalty_Charging>
0.0978085

> <r_epik_Ionization_Penalty_Neutral>
0.318667

> <r_epik_State_Penalty>
0.355037

> <r_epik_Charging_Adjusted_Penalty>
0.452845

> <i_epik_Tot_Q>
-1

> <i_epik_Tot_abs_Q>
1

> <r_epik_Metal_State_Penalty>
0.355037

> <b_epik_Metal_Only>
0

> <s_lp_Force_Field>
OPLS_2005

> <r_lp_Energy>
59.1038

> <b_lp_Chiralities_Consistent>
1

> <s_lp_Variant>
AV-unprocessed.smi:1986-2

> <Gold.Version>
5.8.1

> <Gold.Id.Protein>
6NUR|6NUR_protein|mol2

> <Gold.PLP.Fitness>
51.0782

> <Gold.PLP.PLP>
-39.5488

> <Gold.PLP.part.hbond>
-3.9873

> <Gold.PLP.part.metal>
0.0000

> <Gold.PLP.part.buried>
-3.9321

> <Gold.PLP.part.nonpolar>
-32.3328

> <Gold.PLP.part.repulsive>
0.1281

> <Gold.PLP.ligand.clash>
0.0000

> <Gold.PLP.ligand.torsion>
0.9241

> <Gold.PLP.Chemscore.Hbond>
4.3957

> <Gold.PLP.Chemscore.CHOScore>
0.0000

> <Gold.PLP.Chemscore.Metal>
0.0000

> <Gold.Chemscore.Hbonds>
donor molecule, donor type, donor heavy atom, donor atom, acceptor molecule, acceptor atom, score
      P1  H  6896  6909       L1     8  1.00
      P1  H  6931  6943       L1    11  1.80
      P1  H  6934  6947       L1    11  1.54

> <Gold.PLP.Chemscore.Internal.Correction>
0.1906

> <Gold.Rescore>
     Score         DG    S(hbond)    S(metal)    S(lipo)     H(rot)  DE(clash)    DE(int)     intcor
     13.39     -14.91       1.92        0.00      78.63       2.42       0.50       1.03       ----

> <Gold.Chemscore.Fitness>
13.3919

> <Gold.Chemscore.DG>
-14.9137

> <Gold.Chemscore.ZeroCoef>
-5.4800

> <Gold.Chemscore.Hbond>
1.9245

> <Gold.Chemscore.Metal>
0.0000

> <Gold.Chemscore.Lipo>
78.6339

> <Gold.Chemscore.Internal_Hbond>
0.0000

> <Gold.Chemscore.DEClash>
0.4955

> <Gold.Chemscore.DEInternal>
1.0264

> <Gold.Chemscore.Rot>
2.4197

> <Gold.Chemscore.Internal.Correction>
   9.000000E+99

> <Gold.Chemscore.Hbonds>
donor molecule, donor type, donor heavy atom, donor atom, acceptor molecule, acceptor atom, score
      P1  H  6896  6909       L1     8  0.97
      P1  H  6931  6943       L1    11  0.17
      P1  H  6934  6947       L1    11  0.39

> <Gold.Chemscore.Hbond.Weighted>
-6.4279

> <Gold.Chemscore.Metal.Weighted>
-0.0000

> <Gold.Chemscore.Lipo.Weighted>
-9.2002

> <Gold.Chemscore.Internal_Hbond.Weighted>
0.0000

> <Gold.Chemscore.DEClash.Weighted>
0.4955

> <Gold.Chemscore.DEInternal.Weighted>
1.0264

> <Gold.Chemscore.Rot.Weighted>
6.1943

> <Gold.Chemscore.Internal.Correction.Weighted>
   9.000000E+99

> <Gold.Protein.RotatedTorsions>
[ 6907 6896 6895 6894 ] final   60.29 input  -60.11 | X-H torsion
[ 7974 7965 7964 7962 ] final  112.34 input  175.53 | X-H torsion
[ 8008 7997 7996 7995 ] final  132.79 input   59.86 | X-H torsion
[ 10167 10162 10161 10158 ] final -115.35 input  -65.29 | X-H torsion
[ 10718 10713 10712 10709 ] final  -25.75 input   66.30 | X-H torsion
[ 10763 10752 10751 10750 ] final  -18.30 input  -60.55 | X-H torsion
[ 11005 11000 10999 10996 ] final -169.63 input  -57.11 | X-H torsion

> <Gold.Protein.ActiveResidues>
 VAL166  LYS551  ARG553  GLY616  TRP617  ASP618  TYR619  PRO620  LYS621  CYS622 
 ASP623  PHE694  ASN695  SER759  ASP760  ASP761  ALA762  ILE779  LEU786  VAL792 
 PHE793  MET794  SER795  GLU796  ALA797  LYS798  CYS799  TRP800  GLU811  SER814 

> <Gold.Protein.RotatedAtoms>
  152.3990  134.6318  160.0077 H   0  0  0  0  0  0  0  0  0  0  0  0  # atno 6907 bound_to 6896
  151.6529  133.3314  159.3164 H   0  0  0  0  0  0  0  0  0  0  0  0  # atno 6908 bound_to 6896
  150.7893  134.6947  159.6561 H   0  0  0  0  0  0  0  0  0  0  0  0  # atno 6909 bound_to 6896
  145.2308  139.2820  143.4169 H   0  0  0  0  0  0  0  0  0  0  0  0  # atno 7974 bound_to 7965
  156.2986  140.2537  156.3147 H   0  0  0  0  0  0  0  0  0  0  0  0  # atno 8008 bound_to 7997
  154.9293  140.0399  157.2058 H   0  0  0  0  0  0  0  0  0  0  0  0  # atno 8009 bound_to 7997
  154.8234  140.2864  155.5775 H   0  0  0  0  0  0  0  0  0  0  0  0  # atno 8010 bound_to 7997
  140.0910  143.4700  152.1870 H   0  0  0  0  0  0  0  0  0  0  0  0  # atno 10167 bound_to 10162
  156.4602  130.4502  149.6934 H   0  0  0  0  0  0  0  0  0  0  0  0  # atno 10718 bound_to 10713
  153.5871  135.7003  153.5438 H   0  0  0  0  0  0  0  0  0  0  0  0  # atno 10763 bound_to 10752
  153.3210  135.4074  155.1416 H   0  0  0  0  0  0  0  0  0  0  0  0  # atno 10764 bound_to 10752
  154.8607  135.3695  154.5401 H   0  0  0  0  0  0  0  0  0  0  0  0  # atno 10765 bound_to 10752
  140.5286  134.5639  157.5068 H   0  0  0  0  0  0  0  0  0  0  0  0  # atno 11005 bound_to 11000
  146.3353  140.2643  142.8603 LP  0  0  0  0  0  0  0  0  0  0  0  0  # atno 17320 bound_to 7965
  144.9678  140.8339  143.5474 LP  0  0  0  0  0  0  0  0  0  0  0  0  # atno 17321 bound_to 7965
  139.5725  144.7470  151.3854 LP  0  0  0  0  0  0  0  0  0  0  0  0  # atno 17342 bound_to 10162
  140.7028  143.7588  150.7432 LP  0  0  0  0  0  0  0  0  0  0  0  0  # atno 17343 bound_to 10162
  156.3724  130.7537  151.2522 LP  0  0  0  0  0  0  0  0  0  0  0  0  # atno 17370 bound_to 10713
  157.7498  131.0319  150.4202 LP  0  0  0  0  0  0  0  0  0  0  0  0  # atno 17371 bound_to 10713
  139.9566  134.7523  156.0327 LP  0  0  0  0  0  0  0  0  0  0  0  0  # atno 17394 bound_to 11000
  141.1294  133.6590  156.3424 LP  0  0  0  0  0  0  0  0  0  0  0  0  # atno 17395 bound_to 11000

$$$$
