AV-unprocessed.smi:891|AV-procd|sdf|4064|dock4
  -GOLD-   22720 1553D 1   1.00000     0.00000
 Structure written by MMmdl.
 38 38  0  0  0  0  0  0  0  0  1 V2000
  154.6655  140.2112  160.9449 C   0  0  0  0  0  0  0  0  0  0  0  0
  153.7784  141.3541  160.5454 C   0  0  0  0  0  0  0  0  0  0  0  0
  153.2774  141.4029  159.3206 N   0  0  0  0  0  0  0  0  0  0  0  0
  152.5270  142.5335  159.2818 N   0  0  0  0  0  0  0  0  0  0  0  0
  151.8239  142.8707  158.0523 C   0  0  0  0  0  0  0  0  0  0  0  0
  150.8959  141.7456  157.5783 C   0  0  0  0  0  0  0  0  0  0  0  0
  151.0120  140.6014  158.0199 O   0  0  0  0  0  0  0  0  0  0  0  0
  149.9686  142.0943  156.6729 N   0  0  0  0  0  0  0  0  0  0  0  0
  148.9801  141.1992  156.0761 C   0  0  0  0  0  0  0  0  0  0  0  0
  149.2751  140.8980  154.5901 C   0  0  1  0  0  0  0  0  0  0  0  0
  150.2351  139.6995  154.4852 C   0  0  0  0  0  0  0  0  0  0  0  0
  147.9803  140.6711  153.7706 C   0  0  0  0  0  0  0  0  0  0  0  0
  146.9285  141.7883  153.8813 C   0  0  0  0  0  0  0  0  0  0  0  0
  145.7403  141.2975  154.4653 O   0  0  0  0  0  0  0  0  0  0  0  0
  152.5505  143.2192  160.4864 C   0  0  0  0  0  0  0  0  0  0  0  0
  151.8096  144.4958  160.7197 C   0  0  0  0  0  0  0  0  0  0  0  0
  153.3487  142.4746  161.3034 C   0  0  0  0  0  0  0  0  0  0  0  0
  153.7558  142.8254  162.9441 Cl  0  0  0  0  0  0  0  0  0  0  0  0
  154.9834  140.2979  161.9839 H   0  0  0  0  0  0  0  0  0  0  0  0
  155.5625  140.1768  160.3265 H   0  0  0  0  0  0  0  0  0  0  0  0
  154.1484  139.2577  160.8362 H   0  0  0  0  0  0  0  0  0  0  0  0
  151.2524  143.7849  158.2184 H   0  0  0  0  0  0  0  0  0  0  0  0
  152.5504  143.0896  157.2683 H   0  0  0  0  0  0  0  0  0  0  0  0
  149.9470  143.0571  156.3690 H   0  0  0  0  0  0  0  0  0  0  0  0
  149.0080  140.2724  156.6501 H   0  0  0  0  0  0  0  0  0  0  0  0
  147.9680  141.5913  156.1900 H   0  0  0  0  0  0  0  0  0  0  0  0
  149.7924  141.7670  154.1811 H   0  0  0  0  0  0  0  0  0  0  0  0
  149.7587  138.7792  154.8241 H   0  0  0  0  0  0  0  0  0  0  0  0
  151.1254  139.8551  155.0952 H   0  0  0  0  0  0  0  0  0  0  0  0
  150.5778  139.5439  153.4627 H   0  0  0  0  0  0  0  0  0  0  0  0
  148.2435  140.5340  152.7212 H   0  0  0  0  0  0  0  0  0  0  0  0
  147.5032  139.7414  154.0770 H   0  0  0  0  0  0  0  0  0  0  0  0
  147.2981  142.6369  154.4558 H   0  0  0  0  0  0  0  0  0  0  0  0
  146.6879  142.1659  152.8873 H   0  0  0  0  0  0  0  0  0  0  0  0
  145.1162  141.1258  153.7768 H   0  0  0  0  0  0  0  0  0  0  0  0
  152.0187  144.8960  161.7117 H   0  0  0  0  0  0  0  0  0  0  0  0
  150.7340  144.3380  160.6438 H   0  0  0  0  0  0  0  0  0  0  0  0
  152.0948  145.2521  159.9885 H   0  0  0  0  0  0  0  0  0  0  0  0
  1  2  1  0  0  0  0
  1 19  1  0  0  0  0
  1 20  1  0  0  0  0
  1 21  1  0  0  0  0
  2 17  1  0  0  0  0
  2  3  2  0  0  0  0
  3  4  1  0  0  0  0
  4  5  1  0  0  0  0
  4 15  1  0  0  0  0
  5  6  1  0  0  0  0
  5 22  1  0  0  0  0
  5 23  1  0  0  0  0
  6  7  2  0  0  0  0
  6  8  1  0  0  0  0
  8  9  1  0  0  0  0
  8 24  1  0  0  0  0
  9 10  1  0  0  0  0
  9 25  1  0  0  0  0
  9 26  1  0  0  0  0
 10 11  1  0  0  0  0
 10 12  1  0  0  0  0
 10 27  1  0  0  0  0
 11 28  1  0  0  0  0
 11 29  1  0  0  0  0
 11 30  1  0  0  0  0
 12 13  1  0  0  0  0
 12 31  1  0  0  0  0
 12 32  1  0  0  0  0
 13 14  1  0  0  0  0
 13 33  1  0  0  0  0
 13 34  1  0  0  0  0
 14 35  1  0  0  0  0
 15 16  1  0  0  0  0
 15 17  2  0  0  0  0
 16 36  1  0  0  0  0
 16 37  1  0  0  0  0
 16 38  1  0  0  0  0
 17 18  1  0  0  0  0
M  END
> <s_m_source_file>
AV-unprocessed.smi

> <i_m_source_file_index>
891

> <i_lp_mmshare_version>
43012

> <i_f3d_flags>
0

> <s_epik_input>
W0NIM11jMW5uKGMoW0NIM10pYzFDbClbQ0gyXUMoPU8pW05IXVtDSDJdW0NASF0oW0NIM10pW0NIMl1bQ0gyXVtPSF0=

> <s_epik_cmdline>
J2VwaWtfcHl0aG9uJywgJy1waCcsICc3LjAnLCAnLXRuJywgJzgnLCAnLW1hJywgJzIwMCcsICctbWV0YWxfYmluZGluZycsICctaW1hZScsICc8aW5maWxlLm1hZT4nLCAnLW9tYWUnLCAnPG91dGZpbGUubWFlPic=

> <r_lp_tautomer_probability>
1

> <r_epik_Ionization_Penalty>
4.9564e-06

> <r_epik_Ionization_Penalty_Charging>
0

> <r_epik_Ionization_Penalty_Neutral>
4.9564e-06

> <r_epik_State_Penalty>
-0

> <r_epik_Charging_Adjusted_Penalty>
0

> <i_epik_Tot_Q>
0

> <i_epik_Tot_abs_Q>
0

> <r_epik_Metal_State_Penalty>
-0

> <b_epik_Metal_Only>
0

> <s_lp_Force_Field>
OPLS_2005

> <r_lp_Energy>
8.21906

> <b_lp_Chiralities_Consistent>
1

> <s_lp_Variant>
AV-unprocessed.smi:891-2

> <Gold.Version>
5.8.1

> <Gold.Id.Protein>
6NUR|6NUR_protein|mol2

> <Gold.PLP.Fitness>
49.4995

> <Gold.PLP.PLP>
-45.5496

> <Gold.PLP.part.hbond>
-2.0000

> <Gold.PLP.part.metal>
0.0000

> <Gold.PLP.part.buried>
-4.5876

> <Gold.PLP.part.nonpolar>
-39.1824

> <Gold.PLP.part.repulsive>
0.0343

> <Gold.PLP.ligand.clash>
0.0000

> <Gold.PLP.ligand.torsion>
1.0380

> <Gold.PLP.Chemscore.Hbond>
1.9920

> <Gold.PLP.Chemscore.CHOScore>
0.0000

> <Gold.PLP.Chemscore.Metal>
0.0000

> <Gold.Chemscore.Hbonds>
donor molecule, donor type, donor heavy atom, donor atom, acceptor molecule, acceptor atom, score
      L1  H     8    24       P1  8028  0.84
      L1  H    14    35       P1 10175  1.00

> <Gold.PLP.Chemscore.Internal.Correction>
0.0498

> <Gold.Rescore>
     Score         DG    S(hbond)    S(metal)    S(lipo)     H(rot)  DE(clash)    DE(int)     intcor
     15.56     -17.90       1.95        0.00     107.99       2.62       0.07       2.28       ----

> <Gold.Chemscore.Fitness>
15.5550

> <Gold.Chemscore.DG>
-17.9041

> <Gold.Chemscore.ZeroCoef>
-5.4800

> <Gold.Chemscore.Hbond>
1.9485

> <Gold.Chemscore.Metal>
0.0000

> <Gold.Chemscore.Lipo>
107.9943

> <Gold.Chemscore.Internal_Hbond>
0.0000

> <Gold.Chemscore.DEClash>
0.0669

> <Gold.Chemscore.DEInternal>
2.2822

> <Gold.Chemscore.Rot>
2.6247

> <Gold.Chemscore.Internal.Correction>
   9.000000E+99

> <Gold.Chemscore.Hbonds>
donor molecule, donor type, donor heavy atom, donor atom, acceptor molecule, acceptor atom, score
      L1  H     8    24       P1  8028  0.78
      L1  H    14    35       P1 10175  0.61

> <Gold.Chemscore.Hbond.Weighted>
-6.5080

> <Gold.Chemscore.Metal.Weighted>
-0.0000

> <Gold.Chemscore.Lipo.Weighted>
-12.6353

> <Gold.Chemscore.Internal_Hbond.Weighted>
0.0000

> <Gold.Chemscore.DEClash.Weighted>
0.0669

> <Gold.Chemscore.DEInternal.Weighted>
2.2822

> <Gold.Chemscore.Rot.Weighted>
6.7192

> <Gold.Chemscore.Internal.Correction.Weighted>
   9.000000E+99

> <Gold.Protein.RotatedTorsions>
[ 6907 6896 6895 6894 ] final    7.47 input  -60.11 | X-H torsion
[ 7974 7965 7964 7962 ] final  106.93 input  175.53 | X-H torsion
[ 8008 7997 7996 7995 ] final  -35.54 input   59.86 | X-H torsion
[ 10167 10162 10161 10158 ] final   53.21 input  -65.29 | X-H torsion
[ 10718 10713 10712 10709 ] final   -5.91 input   66.30 | X-H torsion
[ 10763 10752 10751 10750 ] final  155.27 input  -60.55 | X-H torsion
[ 11005 11000 10999 10996 ] final  -33.27 input  -57.11 | X-H torsion

> <Gold.Protein.ActiveResidues>
 VAL166  LYS551  ARG553  GLY616  TRP617  ASP618  TYR619  PRO620  LYS621  CYS622 
 ASP623  PHE694  ASN695  SER759  ASP760  ASP761  ALA762  ILE779  LEU786  VAL792 
 PHE793  MET794  SER795  GLU796  ALA797  LYS798  CYS799  TRP800  GLU811  SER814 

> <Gold.Protein.RotatedAtoms>
  151.6904  135.0947  160.0232 H   0  0  0  0  0  0  0  0  0  0  0  0  # atno 6907 bound_to 6896
  152.3782  133.6505  159.6148 H   0  0  0  0  0  0  0  0  0  0  0  0  # atno 6908 bound_to 6896
  150.7725  133.9075  159.3401 H   0  0  0  0  0  0  0  0  0  0  0  0  # atno 6909 bound_to 6896
  145.3002  139.2572  143.3818 H   0  0  0  0  0  0  0  0  0  0  0  0  # atno 7974 bound_to 7965
  154.4093  140.1654  156.2229 H   0  0  0  0  0  0  0  0  0  0  0  0  # atno 8008 bound_to 7997
  155.9348  140.3412  155.6256 H   0  0  0  0  0  0  0  0  0  0  0  0  # atno 8009 bound_to 7997
  155.7061  140.0751  157.2381 H   0  0  0  0  0  0  0  0  0  0  0  0  # atno 8010 bound_to 7997
  140.2432  144.3561  150.6373 H   0  0  0  0  0  0  0  0  0  0  0  0  # atno 10167 bound_to 10162
  156.7396  130.5205  149.5827 H   0  0  0  0  0  0  0  0  0  0  0  0  # atno 10718 bound_to 10713
  154.1657  135.2807  155.3096 H   0  0  0  0  0  0  0  0  0  0  0  0  # atno 10763 bound_to 10752
  154.6113  135.5498  153.7480 H   0  0  0  0  0  0  0  0  0  0  0  0  # atno 10764 bound_to 10752
  153.0179  135.6416  154.1798 H   0  0  0  0  0  0  0  0  0  0  0  0  # atno 10765 bound_to 10752
  140.9621  133.7158  156.1386 H   0  0  0  0  0  0  0  0  0  0  0  0  # atno 11005 bound_to 11000
  146.3154  140.3515  142.8656 LP  0  0  0  0  0  0  0  0  0  0  0  0  # atno 17320 bound_to 7965
  144.9099  140.7745  143.5814 LP  0  0  0  0  0  0  0  0  0  0  0  0  # atno 17321 bound_to 7965
  140.6098  143.2169  151.6909 LP  0  0  0  0  0  0  0  0  0  0  0  0  # atno 17342 bound_to 10162
  139.5070  144.3660  152.0516 LP  0  0  0  0  0  0  0  0  0  0  0  0  # atno 17343 bound_to 10162
  156.1473  130.6286  151.0549 LP  0  0  0  0  0  0  0  0  0  0  0  0  # atno 17370 bound_to 10713
  157.6824  131.0834  150.7334 LP  0  0  0  0  0  0  0  0  0  0  0  0  # atno 17371 bound_to 10713
  140.7452  134.4106  157.5549 LP  0  0  0  0  0  0  0  0  0  0  0  0  # atno 17394 bound_to 11000
  139.8882  134.8863  156.2489 LP  0  0  0  0  0  0  0  0  0  0  0  0  # atno 17395 bound_to 11000

$$$$
