#       Name:                AV-unprocessed.smi:1734
#       Creating user name   scv26
#       Creation time:       Fri Mar 27 08:20:03 2020


#       File generated by GOLD software.
#

@<TRIPOS>MOLECULE
AV-unprocessed.smi:1734
    58    60     1
SMALL
NO_CHARGES


@<TRIPOS>ATOM
      1 ****        -5.2941  -0.7151  -0.5918 C.3            1 S1                 0.0000
      2 ****        -5.0018   0.7214  -0.9942 C.ar           1 S1                 0.0000
      3 ****        -6.0715   1.6321  -1.1289 C.ar           1 S1                 0.0000
      4 ****        -5.7991   2.9597  -1.5006 C.ar           1 S1                 0.0000
      5 ****        -4.4598   3.3227  -1.7239 C.ar           1 S1                 0.0000
      6 ****        -3.4315   2.4590  -1.5968 N.ar           1 S1                 0.0000
      7 ****        -3.6774   1.1737  -1.2390 C.ar           1 S1                 0.0000
      8 ****        -2.6423   0.2078  -1.0878 N.am           1 S1                 0.0000
      9 ****        -1.3149   0.3766  -1.2202 C.2            1 S1                 0.0000
     10 ****        -0.7527   1.4332  -1.5098 O.2            1 S1                 0.0000
     11 ****        -0.6532  -0.7649  -0.9815 N.am           1 S1                 0.0000
     12 ****         0.7981  -0.9060  -1.0189 C.3            1 S1                 0.0000
     13 ****         1.5200  -0.2859   0.2124 C.3            1 S1                 0.0000
     14 ****         1.1907  -0.9923   1.5586 C.3            1 S1                 0.0000
     15 ****        -0.2402  -0.8442   2.0564 C.3            1 S1                 0.0000
     16 ****        -0.1295  -1.0767   3.5639 C.3            1 S1                 0.0000
     17 ****         1.2455  -0.9144   3.8932 O.3            1 S1                 0.0000
     18 ****         1.9445  -0.4198   2.7621 C.3            1 S1                 0.0000
     19 ****         2.9999  -0.2320   0.0164 N.4            1 S1                 1.0000
     20 ****         3.6570  -1.5092  -0.3612 C.3            1 S1                 0.0000
     21 ****         5.1846  -1.3350  -0.3475 C.3            1 S1                 0.0000
     22 ****         5.5509  -0.2838  -1.2335 O.3            1 S1                 0.0000
     23 ****         4.9894   0.9647  -0.8453 C.3            1 S1                 0.0000
     24 ****         3.4542   0.8724  -0.8640 C.3            1 S1                 0.0000
     25 ****        -6.3602  -0.8723  -0.4247 H              1 S1                 0.0000
     26 ****        -4.7701  -0.9672   0.3307 H              1 S1                 0.0000
     27 ****        -4.9720  -1.4033  -1.3739 H              1 S1                 0.0000
     28 ****        -7.0901   1.3203  -0.9499 H              1 S1                 0.0000
     29 ****        -6.5956   3.6805  -1.6120 H              1 S1                 0.0000
     30 ****        -4.2061   4.3322  -2.0117 H              1 S1                 0.0000
     31 ****        -2.9531  -0.7195  -0.8393 H              1 S1                 0.0000
     32 ****        -1.1886  -1.5901  -0.7537 H              1 S1                 0.0000
     33 ****         1.0146  -1.9722  -1.0854 H              1 S1                 0.0000
     34 ****         1.1590  -0.4642  -1.9484 H              1 S1                 0.0000
     35 ****         1.1898   0.7487   0.3161 H              1 S1                 0.0000
     36 ****         1.4157  -2.0571   1.4860 H              1 S1                 0.0000
     37 ****        -0.6047   0.1670   1.8692 H              1 S1                 0.0000
     38 ****        -0.9314  -1.5449   1.5880 H              1 S1                 0.0000
     39 ****        -0.7480  -0.3737   4.1226 H              1 S1                 0.0000
     40 ****        -0.4393  -2.0874   3.8313 H              1 S1                 0.0000
     41 ****         2.9919  -0.7218   2.7900 H              1 S1                 0.0000
     42 ****         1.9033   0.6708   2.7670 H              1 S1                 0.0000
     43 ****         3.3764  -2.3040   0.3294 H              1 S1                 0.0000
     44 ****         3.3400  -1.8191  -1.3575 H              1 S1                 0.0000
     45 ****         5.5446  -1.1215   0.6603 H              1 S1                 0.0000
     46 ****         5.6708  -2.2554  -0.6711 H              1 S1                 0.0000
     47 ****         5.3504   1.2457   0.1454 H              1 S1                 0.0000
     48 ****         5.3281   1.7353  -1.5381 H              1 S1                 0.0000
     49 ****         3.1084   0.7092  -1.8850 H              1 S1                 0.0000
     50 ****         3.0288   1.8191  -0.5289 H              1 S1                 0.0000
     51 ****         3.3685   0.0013   0.9274 H              1 S1                 0.0000
     52 ****        -2.4941   2.7641  -1.7652 LP             1 S1                 0.0000
     53 ****        -1.2927   2.2598  -1.6682 LP             1 S1                 0.0000
     54 ****         0.2439   1.4646  -1.5866 LP             1 S1                 0.0000
     55 ****         1.6304  -1.7968   4.1639 LP             1 S1                 0.0000
     56 ****         1.3334  -0.2663   4.6496 LP             1 S1                 0.0000
     57 ****         5.2289  -0.5102  -2.1528 LP             1 S1                 0.0000
     58 ****         6.5475  -0.2008  -1.2406 LP             1 S1                 0.0000
@<TRIPOS>BOND
    1    1    2 1     
    2    1   25 1     
    3    1   26 1     
    4    1   27 1     
    5    2    7 ar    
    6    2    3 ar    
    7    3    4 ar    
    8    3   28 1     
    9    4    5 ar    
   10    4   29 1     
   11    5    6 ar    
   12    5   30 1     
   13    6    7 ar    
   14    7    8 1     
   15    8    9 am    
   16    8   31 1     
   17    9   10 2     
   18    9   11 am    
   19   11   12 1     
   20   11   32 1     
   21   12   13 1     
   22   12   33 1     
   23   12   34 1     
   24   13   14 1     
   25   13   19 1     
   26   13   35 1     
   27   14   18 1     
   28   14   15 1     
   29   14   36 1     
   30   15   16 1     
   31   15   37 1     
   32   15   38 1     
   33   16   17 1     
   34   16   39 1     
   35   16   40 1     
   36   17   18 1     
   37   18   41 1     
   38   18   42 1     
   39   19   24 1     
   40   19   20 1     
   41   19   51 1     
   42   20   21 1     
   43   20   43 1     
   44   20   44 1     
   45   21   22 1     
   46   21   45 1     
   47   21   46 1     
   48   22   23 1     
   49   23   24 1     
   50   23   47 1     
   51   23   48 1     
   52   24   49 1     
   53   24   50 1     
   54    6   52 1     
   55   10   53 1     
   56   10   54 1     
   57   17   55 1     
   58   17   56 1     
   59   22   57 1     
   60   22   58 1     
@<TRIPOS>SUBSTRUCTURE
      1 S1             1
@<TRIPOS>SET
LONE_PAIRS      STATIC     ATOMS    <user>   **** ""
7 52 53 54 55 56 57 58
DONOR_HYDROGENS      STATIC     ATOMS    <user>   **** ""
3 31 32 51
ATOM$BLUE        STATIC     ATOMS    COLORGROUP SYSTEM
7 52 53 54 55 56 57 58
ATOM$RED        STATIC     ATOMS    COLORGROUP SYSTEM
3 31 32 51
