AV-unprocessed.smi:84|AV-procd|sdf|809|dock7
  -GOLD-   2262017203D 1   1.00000     0.00000
 Structure written by MMmdl.
 51 55  0  0  0  0  0  0  0  0  1 V2000
  155.7553  130.3479  153.0963 O   0  0  0  0  0  0  0  0  0  0  0  0
  155.1299  130.2603  154.1504 C   0  0  0  0  0  0  0  0  0  0  0  0
  153.9817  129.2892  154.3730 C   0  0  0  0  0  0  0  0  0  0  0  0
  153.3076  129.8466  155.6454 C   0  0  2  0  0  0  0  0  0  0  0  0
  152.6508  128.7666  156.5152 C   0  0  0  0  0  0  0  0  0  0  0  0
  151.2718  128.5941  155.8812 C   0  0  0  0  0  0  0  0  0  0  0  0
  150.9259  129.9171  155.3824 N   0  0  0  0  0  0  0  0  0  0  0  0
  149.8307  130.1317  154.6085 C   0  0  0  0  0  0  0  0  0  0  0  0
  149.0882  129.0614  154.2188 N   0  0  0  0  0  0  0  0  0  0  0  0
  148.0029  129.2281  153.4582 C   0  0  0  0  0  0  0  0  0  0  0  0
  147.4842  130.3607  152.9823 N   0  0  0  0  0  0  0  0  0  0  0  0
  148.2161  131.4418  153.3751 C   0  0  0  0  0  0  0  0  0  0  0  0
  149.3872  131.4204  154.1865 C   0  0  0  0  0  0  0  0  0  0  0  0
  149.8307  132.7220  154.3970 N   0  0  0  0  0  0  0  0  0  0  0  0
  148.9780  133.4645  153.7460 C   0  0  0  0  0  0  0  0  0  0  0  0
  147.9906  132.7750  153.0806 N   0  0  0  0  0  0  0  0  0  0  0  0
  146.9080  133.3318  152.3239 C   0  0  0  0  0  0  0  0  0  0  0  0
  145.4547  132.9939  152.6686 C   0  0  0  0  0  0  0  0  0  0  0  0
  145.0849  133.1155  151.1717 C   0  0  0  0  0  0  0  0  0  0  0  0
  144.0876  132.0871  150.6021 C   0  0  0  0  0  0  0  0  0  0  0  0
  144.0632  132.0783  149.1887 O   0  0  0  0  0  0  0  0  0  0  0  0
  144.6081  134.5091  150.7204 C   0  0  0  0  0  0  0  0  0  0  0  0
  144.3982  134.5583  149.3238 O   0  0  0  0  0  0  0  0  0  0  0  0
  146.5840  132.8436  150.9075 C   0  0  0  0  0  0  0  0  0  0  0  0
  152.1135  130.7544  155.2795 C   0  0  0  0  0  0  0  0  0  0  0  0
  154.4464  130.6280  156.3337 C   0  0  0  0  0  0  0  0  0  0  0  0
  155.3450  130.9798  155.2508 N   0  0  0  0  0  0  0  0  0  0  0  0
  153.3115  129.2442  153.5136 H   0  0  0  0  0  0  0  0  0  0  0  0
  154.3963  128.2938  154.5361 H   0  0  0  0  0  0  0  0  0  0  0  0
  153.2166  127.8356  156.5593 H   0  0  0  0  0  0  0  0  0  0  0  0
  152.5362  129.1332  157.5363 H   0  0  0  0  0  0  0  0  0  0  0  0
  151.3197  127.8870  155.0515 H   0  0  0  0  0  0  0  0  0  0  0  0
  150.5386  128.2321  156.6028 H   0  0  0  0  0  0  0  0  0  0  0  0
  147.4752  128.3240  153.1923 H   0  0  0  0  0  0  0  0  0  0  0  0
  149.0515  134.5421  153.7324 H   0  0  0  0  0  0  0  0  0  0  0  0
  147.0624  134.4119  152.3333 H   0  0  0  0  0  0  0  0  0  0  0  0
  145.3501  131.9827  153.0650 H   0  0  0  0  0  0  0  0  0  0  0  0
  144.9720  133.7171  153.3262 H   0  0  0  0  0  0  0  0  0  0  0  0
  144.3337  131.0771  150.9309 H   0  0  0  0  0  0  0  0  0  0  0  0
  143.0759  132.2940  150.9523 H   0  0  0  0  0  0  0  0  0  0  0  0
  143.1811  132.2600  148.9023 H   0  0  0  0  0  0  0  0  0  0  0  0
  143.6729  134.7869  151.2070 H   0  0  0  0  0  0  0  0  0  0  0  0
  145.3318  135.2783  150.9924 H   0  0  0  0  0  0  0  0  0  0  0  0
  145.2399  134.5545  148.8938 H   0  0  0  0  0  0  0  0  0  0  0  0
  147.0259  133.4456  150.1129 H   0  0  0  0  0  0  0  0  0  0  0  0
  146.8203  131.7876  150.7683 H   0  0  0  0  0  0  0  0  0  0  0  0
  152.0067  131.5747  155.9898 H   0  0  0  0  0  0  0  0  0  0  0  0
  152.2306  131.1873  154.2853 H   0  0  0  0  0  0  0  0  0  0  0  0
  154.0989  131.5119  156.8693 H   0  0  0  0  0  0  0  0  0  0  0  0
  154.9861  129.9967  157.0411 H   0  0  0  0  0  0  0  0  0  0  0  0
  156.0586  131.6891  155.3382 H   0  0  0  0  0  0  0  0  0  0  0  0
  1  2  2  0  0  0  0
  2 27  1  0  0  0  0
  2  3  1  0  0  0  0
  3  4  1  0  0  0  0
  3 28  1  0  0  0  0
  3 29  1  0  0  0  0
  4 25  1  0  0  0  0
  4  5  1  0  0  0  0
  4 26  1  0  0  0  0
  5  6  1  0  0  0  0
  5 30  1  0  0  0  0
  5 31  1  0  0  0  0
  6  7  1  0  0  0  0
  6 32  1  0  0  0  0
  6 33  1  0  0  0  0
  7  8  1  0  0  0  0
  7 25  1  0  0  0  0
  8 13  1  0  0  0  0
  8  9  2  0  0  0  0
  9 10  1  0  0  0  0
 10 11  2  0  0  0  0
 10 34  1  0  0  0  0
 11 12  1  0  0  0  0
 12 16  1  0  0  0  0
 12 13  2  0  0  0  0
 13 14  1  0  0  0  0
 14 15  2  0  0  0  0
 15 16  1  0  0  0  0
 15 35  1  0  0  0  0
 16 17  1  0  0  0  0
 17 24  1  0  0  0  0
 17 18  1  0  0  0  0
 17 36  1  0  0  0  0
 18 19  1  0  0  0  0
 18 37  1  0  0  0  0
 18 38  1  0  0  0  0
 19 20  1  0  0  0  0
 19 22  1  0  0  0  0
 19 24  1  0  0  0  0
 20 21  1  0  0  0  0
 20 39  1  0  0  0  0
 20 40  1  0  0  0  0
 21 41  1  0  0  0  0
 22 23  1  0  0  0  0
 22 42  1  0  0  0  0
 22 43  1  0  0  0  0
 23 44  1  0  0  0  0
 24 45  1  0  0  0  0
 24 46  1  0  0  0  0
 25 47  1  0  0  0  0
 25 48  1  0  0  0  0
 26 27  1  0  0  0  0
 26 49  1  0  0  0  0
 26 50  1  0  0  0  0
 27 51  1  0  0  0  0
M  END
> <s_m_source_file>
AV-unprocessed.smi

> <i_m_source_file_index>
84

> <i_lp_mmshare_version>
43012

> <i_f3d_flags>
0

> <s_epik_input>
W0NIMl0xW05IXUMoPU8pW0NIMl1bQ0BdMTJbQ0gyXVtDSDJdTihbQ0gyXTIpYyhuW2NIXW4zKWMoYzM0KW5bY0hdbjRbQ0hdKFtDSDJdNSlbQ0gyXUM1KFtDSDJdW09IXSlbQ0gyXVtPSF0=

> <s_epik_cmdline>
J2VwaWtfcHl0aG9uJywgJy1waCcsICc3LjAnLCAnLXRuJywgJzgnLCAnLW1hJywgJzIwMCcsICctbWV0YWxfYmluZGluZycsICctaW1hZScsICc8aW5maWxlLm1hZT4nLCAnLW9tYWUnLCAnPG91dGZpbGUubWFlPic=

> <r_lp_tautomer_probability>
1

> <r_epik_Ionization_Penalty>
0.00201507

> <r_epik_Ionization_Penalty_Charging>
0

> <r_epik_Ionization_Penalty_Neutral>
0.00201507

> <r_epik_State_Penalty>
0.00133787

> <r_epik_Charging_Adjusted_Penalty>
0.00133787

> <i_epik_Tot_Q>
0

> <i_epik_Tot_abs_Q>
0

> <r_epik_Metal_State_Penalty>
-0

> <b_epik_Metal_Only>
0

> <s_lp_Force_Field>
OPLS_2005

> <r_lp_Energy>
68.8544

> <b_lp_Chiralities_Consistent>
1

> <s_lp_Variant>
AV-unprocessed.smi:84-2

> <Gold.Version>
5.8.1

> <Gold.Id.Protein>
6NUR|6NUR_protein|mol2

> <Gold.PLP.Fitness>
53.3340

> <Gold.PLP.PLP>
-44.8701

> <Gold.PLP.part.hbond>
-2.5986

> <Gold.PLP.part.metal>
0.0000

> <Gold.PLP.part.buried>
-6.5886

> <Gold.PLP.part.nonpolar>
-36.5536

> <Gold.PLP.part.repulsive>
1.2053

> <Gold.PLP.ligand.clash>
0.0000

> <Gold.PLP.ligand.torsion>
0.5043

> <Gold.PLP.Chemscore.Hbond>
1.9920

> <Gold.PLP.Chemscore.CHOScore>
0.9514

> <Gold.PLP.Chemscore.Metal>
0.0000

> <Gold.Chemscore.Hbonds>
donor molecule, donor type, donor heavy atom, donor atom, acceptor molecule, acceptor atom, score
      L1  H    23    44       P1  7921  1.00
      P1  H 10713 10718       L1     1  1.00
      L1  C    15    35       P1  7948  0.89

> <Gold.PLP.Chemscore.Internal.Correction>
0.6425

> <Gold.Rescore>
     Score         DG    S(hbond)    S(metal)    S(lipo)     H(rot)  DE(clash)    DE(int)     intcor
     11.78     -12.60       1.93        0.00      70.57       2.96       0.30       0.52       ----

> <Gold.Chemscore.Fitness>
11.7796

> <Gold.Chemscore.DG>
-12.6012

> <Gold.Chemscore.ZeroCoef>
-5.4800

> <Gold.Chemscore.Hbond>
1.9325

> <Gold.Chemscore.Metal>
0.0000

> <Gold.Chemscore.Lipo>
70.5705

> <Gold.Chemscore.Internal_Hbond>
0.0000

> <Gold.Chemscore.DEClash>
0.2968

> <Gold.Chemscore.DEInternal>
0.5248

> <Gold.Chemscore.Rot>
2.9649

> <Gold.Chemscore.Internal.Correction>
   9.000000E+99

> <Gold.Chemscore.Hbonds>
donor molecule, donor type, donor heavy atom, donor atom, acceptor molecule, acceptor atom, score
      L1  H    23    44       P1  7921  0.92
      P1  H 10713 10718       L1     1  0.98

> <Gold.Chemscore.Hbond.Weighted>
-6.4547

> <Gold.Chemscore.Metal.Weighted>
-0.0000

> <Gold.Chemscore.Lipo.Weighted>
-8.2567

> <Gold.Chemscore.Internal_Hbond.Weighted>
0.0000

> <Gold.Chemscore.DEClash.Weighted>
0.2968

> <Gold.Chemscore.DEInternal.Weighted>
0.5248

> <Gold.Chemscore.Rot.Weighted>
7.5902

> <Gold.Chemscore.Internal.Correction.Weighted>
   9.000000E+99

> <Gold.Protein.RotatedTorsions>
[ 6907 6896 6895 6894 ] final  -47.59 input  -60.11 | X-H torsion
[ 7974 7965 7964 7962 ] final  -99.20 input  175.53 | X-H torsion
[ 8008 7997 7996 7995 ] final -123.24 input   59.86 | X-H torsion
[ 10167 10162 10161 10158 ] final -131.03 input  -65.29 | X-H torsion
[ 10718 10713 10712 10709 ] final -147.13 input   66.30 | X-H torsion
[ 10763 10752 10751 10750 ] final  -60.59 input  -60.55 | X-H torsion
[ 11005 11000 10999 10996 ] final   23.96 input  -57.11 | X-H torsion

> <Gold.Protein.ActiveResidues>
 VAL166  LYS551  ARG553  GLY616  TRP617  ASP618  TYR619  PRO620  LYS621  CYS622 
 ASP623  PHE694  ASN695  SER759  ASP760  ASP761  ALA762  ILE779  LEU786  VAL792 
 PHE793  MET794  SER795  GLU796  ALA797  LYS798  CYS799  TRP800  GLU811  SER814 

> <Gold.Protein.RotatedAtoms>
  150.8992  134.8403  159.7347 H   0  0  0  0  0  0  0  0  0  0  0  0  # atno 6907 bound_to 6896
  152.4882  134.4529  159.9590 H   0  0  0  0  0  0  0  0  0  0  0  0  # atno 6908 bound_to 6896
  151.4582  133.3560  159.2840 H   0  0  0  0  0  0  0  0  0  0  0  0  # atno 6909 bound_to 6896
  145.3107  140.9399  143.2771 H   0  0  0  0  0  0  0  0  0  0  0  0  # atno 7974 bound_to 7965
  155.1773  140.0409  157.2875 H   0  0  0  0  0  0  0  0  0  0  0  0  # atno 8008 bound_to 7997
  154.6227  140.2505  155.7501 H   0  0  0  0  0  0  0  0  0  0  0  0  # atno 8009 bound_to 7997
  156.2442  140.2891  156.0543 H   0  0  0  0  0  0  0  0  0  0  0  0  # atno 8010 bound_to 7997
  139.9232  143.6358  152.2548 H   0  0  0  0  0  0  0  0  0  0  0  0  # atno 10167 bound_to 10162
  156.4037  130.7946  151.2159 H   0  0  0  0  0  0  0  0  0  0  0  0  # atno 10718 bound_to 10713
  154.2716  135.6289  153.5312 H   0  0  0  0  0  0  0  0  0  0  0  0  # atno 10763 bound_to 10752
  152.9879  135.5611  154.5594 H   0  0  0  0  0  0  0  0  0  0  0  0  # atno 10764 bound_to 10752
  154.5165  135.2880  155.1274 H   0  0  0  0  0  0  0  0  0  0  0  0  # atno 10765 bound_to 10752
  140.3639  134.2096  155.7670 H   0  0  0  0  0  0  0  0  0  0  0  0  # atno 11005 bound_to 11000
  144.9018  139.4640  143.6629 LP  0  0  0  0  0  0  0  0  0  0  0  0  # atno 17320 bound_to 7965
  146.3119  139.7776  142.9013 LP  0  0  0  0  0  0  0  0  0  0  0  0  # atno 17321 bound_to 7965
  139.6844  144.7653  151.1550 LP  0  0  0  0  0  0  0  0  0  0  0  0  # atno 17342 bound_to 10162
  140.7657  143.5678  150.9029 LP  0  0  0  0  0  0  0  0  0  0  0  0  # atno 17343 bound_to 10162
  157.7505  131.0279  150.4025 LP  0  0  0  0  0  0  0  0  0  0  0  0  # atno 17370 bound_to 10713
  156.4309  130.3972  149.6761 LP  0  0  0  0  0  0  0  0  0  0  0  0  # atno 17371 bound_to 10713
  141.1975  133.8056  157.0622 LP  0  0  0  0  0  0  0  0  0  0  0  0  # atno 17394 bound_to 11000
  140.0605  134.9757  157.1296 LP  0  0  0  0  0  0  0  0  0  0  0  0  # atno 17395 bound_to 11000

$$$$
