#       Name:                AV-unprocessed.smi:1040
#       Creating user name   scv26
#       Creation time:       Fri Mar 27 02:54:42 2020


#       File generated by GOLD software.
#

@<TRIPOS>MOLECULE
AV-unprocessed.smi:1040
    60    61     1
SMALL
NO_CHARGES


@<TRIPOS>ATOM
      1 ****        -3.5641  -1.2180  -1.3259 C.3            1 S1                 0.0000
      2 ****        -2.6332  -0.6707  -0.2314 C.3            1 S1                 0.0000
      3 ****        -1.2342  -0.8041  -0.6319 N.am           1 S1                 0.0000
      4 ****        -0.4776  -1.9018  -0.4973 C.2            1 S1                 0.0000
      5 ****        -0.8929  -2.9701  -0.0489 O.2            1 S1                 0.0000
      6 ****         0.7837  -1.6666  -0.8928 N.am           1 S1                 0.0000
      7 ****         1.8985  -2.5503  -0.8473 C.ar           1 S1                 0.0000
      8 ****         1.7591  -3.9515  -1.0144 C.ar           1 S1                 0.0000
      9 ****         2.8988  -4.7777  -0.9622 C.ar           1 S1                 0.0000
     10 ****         4.1596  -4.1911  -0.7493 C.ar           1 S1                 0.0000
     11 ****         4.2603  -2.8530  -0.6075 N.pl3          1 S1                 1.0000
     12 ****         3.1986  -2.0110  -0.6538 C.ar           1 S1                 0.0000
     13 ****         3.4261  -0.6289  -0.5059 N.3            1 S1                 0.0000
     14 ****         4.5218  -0.2291   0.3763 C.3            1 S1                 0.0000
     15 ****         4.4295   1.2696   0.7108 C.3            1 S1                 0.0000
     16 ****         4.3632   2.1170  -0.5704 C.3            1 S1                 0.0000
     17 ****         3.2175   1.6319  -1.4737 C.3            1 S1                 0.0000
     18 ****         3.3373   0.1244  -1.7552 C.3            1 S1                 0.0000
     19 ****        -2.9470   0.7768   0.1654 C.2            1 S1                 0.0000
     20 ****        -2.3437   1.7098  -0.3669 O.2            1 S1                 0.0000
     21 ****        -3.9070   0.9399   1.0934 N.am           1 S1                 0.0000
     22 ****        -4.4191   2.1910   1.6658 C.3            1 S1                 0.0000
     23 ****        -5.5025   1.8045   2.6880 C.3            1 S1                 0.0000
     24 ****        -5.0556   3.0710   0.5692 C.3            1 S1                 0.0000
     25 ****        -3.2943   2.9568   2.3945 C.3            1 S1                 0.0000
     26 ****        -4.6105  -1.1401  -1.0285 H              1 S1                 0.0000
     27 ****        -3.3611  -2.2698  -1.5289 H              1 S1                 0.0000
     28 ****        -3.4434  -0.6691  -2.2607 H              1 S1                 0.0000
     29 ****        -2.7824  -1.2767   0.6649 H              1 S1                 0.0000
     30 ****        -0.8026   0.0268  -1.0099 H              1 S1                 0.0000
     31 ****         0.9949  -0.7132  -1.1486 H              1 S1                 0.0000
     32 ****         0.7957  -4.4049  -1.1923 H              1 S1                 0.0000
     33 ****         2.8060  -5.8468  -1.0866 H              1 S1                 0.0000
     34 ****         5.0850  -4.7464  -0.6962 H              1 S1                 0.0000
     35 ****         4.4900  -0.8137   1.2967 H              1 S1                 0.0000
     36 ****         5.4754  -0.4415  -0.1094 H              1 S1                 0.0000
     37 ****         3.5409   1.4539   1.3164 H              1 S1                 0.0000
     38 ****         5.2849   1.5706   1.3161 H              1 S1                 0.0000
     39 ****         4.2260   3.1694  -0.3200 H              1 S1                 0.0000
     40 ****         5.3096   2.0448  -1.1076 H              1 S1                 0.0000
     41 ****         2.2602   1.8377  -0.9926 H              1 S1                 0.0000
     42 ****         3.2192   2.1885  -2.4112 H              1 S1                 0.0000
     43 ****         4.2313  -0.0725  -2.3482 H              1 S1                 0.0000
     44 ****         2.4872  -0.2069  -2.3520 H              1 S1                 0.0000
     45 ****        -4.3350   0.0968   1.4479 H              1 S1                 0.0000
     46 ****        -5.9348   2.6870   3.1611 H              1 S1                 0.0000
     47 ****        -5.0963   1.1747   3.4806 H              1 S1                 0.0000
     48 ****        -6.3178   1.2544   2.2162 H              1 S1                 0.0000
     49 ****        -5.8274   2.5281   0.0223 H              1 S1                 0.0000
     50 ****        -4.3210   3.4196  -0.1566 H              1 S1                 0.0000
     51 ****        -5.5227   3.9576   0.9994 H              1 S1                 0.0000
     52 ****        -3.6863   3.8388   2.9019 H              1 S1                 0.0000
     53 ****        -2.5202   3.3024   1.7095 H              1 S1                 0.0000
     54 ****        -2.8127   2.3326   3.1482 H              1 S1                 0.0000
     55 ****         5.1876  -2.4532  -0.4632 H              1 S1                 0.0000
     56 ****        -1.8466  -3.0540   0.2402 LP             1 S1                 0.0000
     57 ****        -0.2768  -3.7541   0.0264 LP             1 S1                 0.0000
     58 ****         2.6333  -0.3393   0.0305 LP             1 S1                 0.0000
     59 ****        -1.6471   1.5242  -1.0599 LP             1 S1                 0.0000
     60 ****        -2.5507   2.6528  -0.1059 LP             1 S1                 0.0000
@<TRIPOS>BOND
    1    1    2 1     
    2    1   26 1     
    3    1   27 1     
    4    1   28 1     
    5    2    3 1     
    6    2   19 1     
    7    2   29 1     
    8    3    4 am    
    9    3   30 1     
   10    4    5 2     
   11    4    6 am    
   12    6    7 1     
   13    6   31 1     
   14    7   12 ar    
   15    7    8 ar    
   16    8    9 ar    
   17    8   32 1     
   18    9   10 ar    
   19    9   33 1     
   20   10   11 ar    
   21   10   34 1     
   22   11   12 ar    
   23   11   55 1     
   24   12   13 1     
   25   13   18 1     
   26   13   14 1     
   27   14   15 1     
   28   14   35 1     
   29   14   36 1     
   30   15   16 1     
   31   15   37 1     
   32   15   38 1     
   33   16   17 1     
   34   16   39 1     
   35   16   40 1     
   36   17   18 1     
   37   17   41 1     
   38   17   42 1     
   39   18   43 1     
   40   18   44 1     
   41   19   20 2     
   42   19   21 am    
   43   21   22 1     
   44   21   45 1     
   45   22   23 1     
   46   22   24 1     
   47   22   25 1     
   48   23   46 1     
   49   23   47 1     
   50   23   48 1     
   51   24   49 1     
   52   24   50 1     
   53   24   51 1     
   54   25   52 1     
   55   25   53 1     
   56   25   54 1     
   57    5   56 1     
   58    5   57 1     
   59   13   58 1     
   60   20   59 1     
   61   20   60 1     
@<TRIPOS>SUBSTRUCTURE
      1 S1             1
@<TRIPOS>SET
LONE_PAIRS      STATIC     ATOMS    <user>   **** ""
5 56 57 58 59 60
DONOR_HYDROGENS      STATIC     ATOMS    <user>   **** ""
4 30 31 55 45
ATOM$BLUE        STATIC     ATOMS    COLORGROUP SYSTEM
5 56 57 58 59 60
ATOM$RED        STATIC     ATOMS    COLORGROUP SYSTEM
4 30 31 55 45
