AV-unprocessed.smi:1776|AV-procd|sdf|7173|dock10
  -GOLD-   22720 8413D 1   1.00000     0.00000
 Structure written by MMmdl.
 31 32  0  0  0  0  0  0  0  0  1 V2000
  148.8224  134.2330  158.6824 O   0  0  0  0  0  0  0  0  0  0  0  0
  147.6432  134.5150  158.8942 C   0  0  0  0  0  0  0  0  0  0  0  0
  146.6099  134.1800  158.0948 N   0  0  0  0  0  0  0  0  0  0  0  0
  146.5925  133.4729  156.8796 C   0  0  0  0  0  0  0  0  0  0  0  0
  147.6906  133.0646  156.1901 C   0  0  0  0  0  0  0  0  0  0  0  0
  147.5888  132.3423  154.9329 C   0  0  0  0  0  0  0  0  0  0  0  0
  148.8248  131.8287  154.2105 C   0  0  0  0  0  0  0  0  0  0  0  0
  149.9413  132.1614  154.8600 F   0  0  0  0  0  0  0  0  0  0  0  0
  148.7766  130.5004  154.1203 F   0  0  0  0  0  0  0  0  0  0  0  0
  148.8956  132.3253  152.9754 F   0  0  0  0  0  0  0  0  0  0  0  0
  146.3455  132.0841  154.4873 C   0  0  0  0  0  0  0  0  0  0  0  0
  145.2121  132.5133  155.1805 N   0  0  0  0  0  0  0  0  0  0  0  0
  145.2475  133.1925  156.3488 C   0  0  0  0  0  0  0  0  0  0  0  0
  144.2011  133.5348  156.8986 O   0  0  0  0  0  0  0  0  0  0  0  0
  147.2613  135.3186  160.1465 C   0  0  2  0  0  0  0  0  0  0  0  0
  148.3477  136.3317  160.5775 C   0  0  0  0  0  0  0  0  0  0  0  0
  147.9269  136.9975  161.7615 O   0  0  0  0  0  0  0  0  0  0  0  0
  147.7131  136.0786  162.8240 C   0  0  0  0  0  0  0  0  0  0  0  0
  146.6249  135.0773  162.4041 C   0  0  0  0  0  0  0  0  0  0  0  0
  147.0422  134.4085  161.2216 O   0  0  0  0  0  0  0  0  0  0  0  0
  144.3145  132.2922  154.7739 H   0  0  0  0  0  0  0  0  0  0  0  0
  145.6967  134.4607  158.4234 H   0  0  0  0  0  0  0  0  0  0  0  0
  148.6859  133.2732  156.5438 H   0  0  0  0  0  0  0  0  0  0  0  0
  146.1235  131.5350  153.5842 H   0  0  0  0  0  0  0  0  0  0  0  0
  146.3322  135.8479  159.9277 H   0  0  0  0  0  0  0  0  0  0  0  0
  149.3058  135.8376  160.7494 H   0  0  0  0  0  0  0  0  0  0  0  0
  148.5062  137.0810  159.8010 H   0  0  0  0  0  0  0  0  0  0  0  0
  148.6427  135.5635  163.0717 H   0  0  0  0  0  0  0  0  0  0  0  0
  147.4020  136.6269  163.7133 H   0  0  0  0  0  0  0  0  0  0  0  0
  146.4639  134.3406  163.1912 H   0  0  0  0  0  0  0  0  0  0  0  0
  145.6729  135.5833  162.2360 H   0  0  0  0  0  0  0  0  0  0  0  0
  1  2  2  0  0  0  0
  2  3  1  0  0  0  0
  2 15  1  0  0  0  0
  3  4  1  0  0  0  0
  3 22  1  0  0  0  0
  4 13  1  0  0  0  0
  4  5  2  0  0  0  0
  5  6  1  0  0  0  0
  5 23  1  0  0  0  0
  6  7  1  0  0  0  0
  6 11  2  0  0  0  0
  7  8  1  0  0  0  0
  7  9  1  0  0  0  0
  7 10  1  0  0  0  0
 11 12  1  0  0  0  0
 11 24  1  0  0  0  0
 12 21  1  0  0  0  0
 12 13  1  0  0  0  0
 13 14  2  0  0  0  0
 15 20  1  0  0  0  0
 15 16  1  0  0  0  0
 15 25  1  0  0  0  0
 16 17  1  0  0  0  0
 16 26  1  0  0  0  0
 16 27  1  0  0  0  0
 17 18  1  0  0  0  0
 18 19  1  0  0  0  0
 18 28  1  0  0  0  0
 18 29  1  0  0  0  0
 19 20  1  0  0  0  0
 19 30  1  0  0  0  0
 19 31  1  0  0  0  0
M  END
> <s_m_source_file>
AV-unprocessed.smi

> <i_m_source_file_index>
1776

> <i_lp_mmshare_version>
43012

> <i_f3d_flags>
0

> <s_epik_input>
TzFbQ0gyXVtDSDJdT1tDSDJdW0NASF0xQyg9TylbTkhdYzJbY0hdYyhDKEYpKEYpRilbY0hdW25IXWMyPU8=

> <s_epik_cmdline>
J2VwaWtfcHl0aG9uJywgJy1waCcsICc3LjAnLCAnLXRuJywgJzgnLCAnLW1hJywgJzIwMCcsICctbWV0YWxfYmluZGluZycsICctaW1hZScsICc8aW5maWxlLm1hZT4nLCAnLW9tYWUnLCAnPG91dGZpbGUubWFlPic=

> <r_lp_tautomer_probability>
0.999

> <r_epik_Ionization_Penalty>
0.0100875

> <r_epik_Ionization_Penalty_Charging>
0.0100873

> <r_epik_Ionization_Penalty_Neutral>
1.79075e-07

> <r_epik_State_Penalty>
0.00769562

> <r_epik_Charging_Adjusted_Penalty>
0.017783

> <i_epik_Tot_Q>
0

> <i_epik_Tot_abs_Q>
0

> <r_epik_Metal_State_Penalty>
0.325451

> <b_epik_Metal_Only>
0

> <s_lp_Force_Field>
OPLS_2005

> <r_lp_Energy>
23.697

> <b_lp_Chiralities_Consistent>
1

> <s_lp_Variant>
AV-unprocessed.smi:1776-1

> <Gold.Version>
5.8.1

> <Gold.Id.Protein>
6NUR|6NUR_protein|mol2

> <Gold.PLP.Fitness>
36.5537

> <Gold.PLP.PLP>
-28.7658

> <Gold.PLP.part.hbond>
-4.0000

> <Gold.PLP.part.metal>
0.0000

> <Gold.PLP.part.buried>
-2.2582

> <Gold.PLP.part.nonpolar>
-21.3293

> <Gold.PLP.part.repulsive>
0.1100

> <Gold.PLP.ligand.clash>
0.0000

> <Gold.PLP.ligand.torsion>
0.7583

> <Gold.PLP.Chemscore.Hbond>
3.0922

> <Gold.PLP.Chemscore.CHOScore>
0.0000

> <Gold.PLP.Chemscore.Metal>
0.0000

> <Gold.Chemscore.Hbonds>
donor molecule, donor type, donor heavy atom, donor atom, acceptor molecule, acceptor atom, score
      L1  H    12    21       P1 10957  1.00
      P1  H  6896  6908       L1     1  1.00
      P1  H  6931  6943       L1    17  1.00
      P1  H  6934  6947       L1    17  0.21

> <Gold.PLP.Chemscore.Internal.Correction>
0.0277

> <Gold.Rescore>
     Score         DG    S(hbond)    S(metal)    S(lipo)     H(rot)  DE(clash)    DE(int)     intcor
     14.94     -17.01       2.67        0.00      44.35       1.00       0.16       1.91       ----

> <Gold.Chemscore.Fitness>
14.9407

> <Gold.Chemscore.DG>
-17.0102

> <Gold.Chemscore.ZeroCoef>
-5.4800

> <Gold.Chemscore.Hbond>
2.6652

> <Gold.Chemscore.Metal>
0.0000

> <Gold.Chemscore.Lipo>
44.3455

> <Gold.Chemscore.Internal_Hbond>
0.0000

> <Gold.Chemscore.DEClash>
0.1576

> <Gold.Chemscore.DEInternal>
1.9119

> <Gold.Chemscore.Rot>
1.0000

> <Gold.Chemscore.Internal.Correction>
   9.000000E+99

> <Gold.Chemscore.Hbonds>
donor molecule, donor type, donor heavy atom, donor atom, acceptor molecule, acceptor atom, score
      L1  H    12    21       P1 10957  0.77
      P1  H  6896  6908       L1     1  0.99
      P1  H  6931  6943       L1    17  0.44
      P1  H  6934  6947       L1    17  0.08

> <Gold.Chemscore.Hbond.Weighted>
-8.9018

> <Gold.Chemscore.Metal.Weighted>
-0.0000

> <Gold.Chemscore.Lipo.Weighted>
-5.1884

> <Gold.Chemscore.Internal_Hbond.Weighted>
0.0000

> <Gold.Chemscore.DEClash.Weighted>
0.1576

> <Gold.Chemscore.DEInternal.Weighted>
1.9119

> <Gold.Chemscore.Rot.Weighted>
2.5600

> <Gold.Chemscore.Internal.Correction.Weighted>
   9.000000E+99

> <Gold.Protein.RotatedTorsions>
[ 6907 6896 6895 6894 ] final  153.11 input  -60.11 | X-H torsion
[ 7974 7965 7964 7962 ] final  118.17 input  175.53 | X-H torsion
[ 8008 7997 7996 7995 ] final   33.19 input   59.86 | X-H torsion
[ 10167 10162 10161 10158 ] final -148.14 input  -65.29 | X-H torsion
[ 10718 10713 10712 10709 ] final -175.65 input   66.30 | X-H torsion
[ 10763 10752 10751 10750 ] final   57.43 input  -60.55 | X-H torsion
[ 11005 11000 10999 10996 ] final  -39.33 input  -57.11 | X-H torsion

> <Gold.Protein.ActiveResidues>
 VAL166  LYS551  ARG553  GLY616  TRP617  ASP618  TYR619  PRO620  LYS621  CYS622 
 ASP623  PHE694  ASN695  SER759  ASP760  ASP761  ALA762  ILE779  LEU786  VAL792 
 PHE793  MET794  SER795  GLU796  ALA797  LYS798  CYS799  TRP800  GLU811  SER814 

> <Gold.Protein.RotatedAtoms>
  152.0773  133.4135  159.4485 H   0  0  0  0  0  0  0  0  0  0  0  0  # atno 6907 bound_to 6896
  150.6862  134.3023  159.4720 H   0  0  0  0  0  0  0  0  0  0  0  0  # atno 6908 bound_to 6896
  152.0861  134.9438  160.0623 H   0  0  0  0  0  0  0  0  0  0  0  0  # atno 6909 bound_to 6896
  145.1584  139.3169  143.4530 H   0  0  0  0  0  0  0  0  0  0  0  0  # atno 7974 bound_to 7965
  155.1346  140.3260  155.4466 H   0  0  0  0  0  0  0  0  0  0  0  0  # atno 8008 bound_to 7997
  156.2624  140.2004  156.6413 H   0  0  0  0  0  0  0  0  0  0  0  0  # atno 8009 bound_to 7997
  154.6587  140.0550  157.0025 H   0  0  0  0  0  0  0  0  0  0  0  0  # atno 8010 bound_to 7997
  139.7558  143.8450  152.2596 H   0  0  0  0  0  0  0  0  0  0  0  0  # atno 10167 bound_to 10162
  156.8029  130.9559  151.3118 H   0  0  0  0  0  0  0  0  0  0  0  0  # atno 10718 bound_to 10713
  152.9850  135.5642  154.5389 H   0  0  0  0  0  0  0  0  0  0  0  0  # atno 10763 bound_to 10752
  154.4847  135.2790  155.1545 H   0  0  0  0  0  0  0  0  0  0  0  0  # atno 10764 bound_to 10752
  154.3039  135.6302  153.5490 H   0  0  0  0  0  0  0  0  0  0  0  0  # atno 10765 bound_to 10752
  141.0094  133.6915  156.2173 H   0  0  0  0  0  0  0  0  0  0  0  0  # atno 11005 bound_to 11000
  146.3485  140.1686  142.8590 LP  0  0  0  0  0  0  0  0  0  0  0  0  # atno 17320 bound_to 7965
  145.0356  140.8905  143.5083 LP  0  0  0  0  0  0  0  0  0  0  0  0  # atno 17321 bound_to 7965
  139.8442  144.7195  150.9294 LP  0  0  0  0  0  0  0  0  0  0  0  0  # atno 17342 bound_to 10162
  140.7802  143.3956  151.1235 LP  0  0  0  0  0  0  0  0  0  0  0  0  # atno 17343 bound_to 10162
  157.6544  130.8912  149.9699 LP  0  0  0  0  0  0  0  0  0  0  0  0  # atno 17370 bound_to 10713
  156.1090  130.3651  150.0082 LP  0  0  0  0  0  0  0  0  0  0  0  0  # atno 17371 bound_to 10713
  140.6759  134.4819  157.5588 LP  0  0  0  0  0  0  0  0  0  0  0  0  # atno 17394 bound_to 11000
  139.9081  134.8404  156.1628 LP  0  0  0  0  0  0  0  0  0  0  0  0  # atno 17395 bound_to 11000

$$$$
