AV-unprocessed.smi:844|AV-procd|sdf|3923|dock1
  -GOLD-   22720 1383D 1   1.00000     0.00000
 Structure written by MMmdl.
 32 34  0  0  0  0  0  0  0  0  1 V2000
  150.9722  144.1267  157.6085 O   0  0  0  0  0  0  0  0  0  0  0  0
  151.3830  142.8343  158.0066 C   0  0  2  0  0  0  0  0  0  0  0  0
  150.1731  141.8877  157.8825 C   0  0  0  0  0  0  0  0  0  0  0  0
  149.9802  141.4212  156.5216 N   0  0  0  0  0  0  0  0  0  0  0  0
  150.8883  140.8136  155.7337 C   0  0  0  0  0  0  0  0  0  0  0  0
  150.5020  140.4778  154.5062 N   0  0  0  0  0  0  0  0  0  0  0  0
  149.1886  140.9154  154.4972 C   0  0  0  0  0  0  0  0  0  0  0  0
  148.2095  140.8592  153.4794 C   0  0  0  0  0  0  0  0  0  0  0  0
  146.9170  141.3785  153.7020 C   0  0  0  0  0  0  0  0  0  0  0  0
  146.5837  141.9609  154.9424 C   0  0  0  0  0  0  0  0  0  0  0  0
  147.5424  142.0282  155.9716 C   0  0  0  0  0  0  0  0  0  0  0  0
  148.8305  141.5088  155.7452 C   0  0  0  0  0  0  0  0  0  0  0  0
  151.9814  142.8244  159.4092 C   0  0  0  0  0  0  0  0  0  0  0  0
  152.9043  141.8216  159.7819 C   0  0  0  0  0  0  0  0  0  0  0  0
  153.4736  141.8202  161.0698 C   0  0  0  0  0  0  0  0  0  0  0  0
  153.1267  142.8236  161.9940 C   0  0  0  0  0  0  0  0  0  0  0  0
  153.6751  142.8233  163.2320 F   0  0  0  0  0  0  0  0  0  0  0  0
  152.2111  143.8287  161.6286 C   0  0  0  0  0  0  0  0  0  0  0  0
  151.6402  143.8319  160.3409 C   0  0  0  0  0  0  0  0  0  0  0  0
  150.7697  144.8138  160.0031 F   0  0  0  0  0  0  0  0  0  0  0  0
  150.2857  144.0376  156.9650 H   0  0  0  0  0  0  0  0  0  0  0  0
  152.1466  142.5290  157.2904 H   0  0  0  0  0  0  0  0  0  0  0  0
  150.2862  141.0247  158.5404 H   0  0  0  0  0  0  0  0  0  0  0  0
  149.2603  142.3988  158.1917 H   0  0  0  0  0  0  0  0  0  0  0  0
  151.8925  140.6140  156.0781 H   0  0  0  0  0  0  0  0  0  0  0  0
  148.4537  140.4158  152.5256 H   0  0  0  0  0  0  0  0  0  0  0  0
  146.1770  141.3302  152.9166 H   0  0  0  0  0  0  0  0  0  0  0  0
  145.5912  142.3557  155.1033 H   0  0  0  0  0  0  0  0  0  0  0  0
  147.2917  142.4739  156.9227 H   0  0  0  0  0  0  0  0  0  0  0  0
  153.1837  141.0507  159.0786 H   0  0  0  0  0  0  0  0  0  0  0  0
  154.1785  141.0503  161.3476 H   0  0  0  0  0  0  0  0  0  0  0  0
  151.9482  144.6010  162.3365 H   0  0  0  0  0  0  0  0  0  0  0  0
  1  2  1  0  0  0  0
  1 21  1  0  0  0  0
  2  3  1  0  0  0  0
  2 13  1  0  0  0  0
  2 22  1  0  0  0  0
  3  4  1  0  0  0  0
  3 23  1  0  0  0  0
  3 24  1  0  0  0  0
  4 12  1  0  0  0  0
  4  5  1  0  0  0  0
  5  6  2  0  0  0  0
  5 25  1  0  0  0  0
  6  7  1  0  0  0  0
  7 12  2  0  0  0  0
  7  8  1  0  0  0  0
  8  9  2  0  0  0  0
  8 26  1  0  0  0  0
  9 10  1  0  0  0  0
  9 27  1  0  0  0  0
 10 11  2  0  0  0  0
 10 28  1  0  0  0  0
 11 12  1  0  0  0  0
 11 29  1  0  0  0  0
 13 19  1  0  0  0  0
 13 14  2  0  0  0  0
 14 15  1  0  0  0  0
 14 30  1  0  0  0  0
 15 16  2  0  0  0  0
 15 31  1  0  0  0  0
 16 17  1  0  0  0  0
 16 18  1  0  0  0  0
 18 19  2  0  0  0  0
 18 32  1  0  0  0  0
 19 20  1  0  0  0  0
M  END
> <s_m_source_file>
AV-unprocessed.smi

> <i_m_source_file_index>
844

> <i_lp_mmshare_version>
43012

> <i_f3d_flags>
0

> <s_epik_input>
RmMxW2NIXWMoRilbY0hdW2NIXWMxW0NASF0oW09IXSlbQ0gyXW4oW2NIXW4yKWMoYzIzKVtjSF1bY0hdW2NIXVtjSF0z

> <s_epik_cmdline>
J2VwaWtfcHl0aG9uJywgJy1waCcsICc3LjAnLCAnLXRuJywgJzgnLCAnLW1hJywgJzIwMCcsICctbWV0YWxfYmluZGluZycsICctaW1hZScsICc8aW5maWxlLm1hZT4nLCAnLW9tYWUnLCAnPG91dGZpbGUubWFlPic=

> <r_epik_Ionization_Penalty>
0.0696514

> <r_epik_Ionization_Penalty_Charging>
0

> <r_epik_Ionization_Penalty_Neutral>
0.0696514

> <r_epik_State_Penalty>
0.0610247

> <r_epik_Charging_Adjusted_Penalty>
0.0610247

> <i_epik_Tot_Q>
0

> <i_epik_Tot_abs_Q>
0

> <r_epik_Metal_State_Penalty>
6.42746e-05

> <b_epik_Metal_Only>
0

> <s_lp_Force_Field>
OPLS_2005

> <r_lp_Energy>
12.41

> <b_lp_Chiralities_Consistent>
1

> <s_lp_Variant>
AV-unprocessed.smi:844-1

> <Gold.Version>
5.8.1

> <Gold.Id.Protein>
6NUR|6NUR_protein|mol2

> <Gold.PLP.Fitness>
56.1728

> <Gold.PLP.PLP>
-52.0765

> <Gold.PLP.part.hbond>
-2.0000

> <Gold.PLP.part.metal>
0.0000

> <Gold.PLP.part.buried>
-2.4589

> <Gold.PLP.part.nonpolar>
-47.0329

> <Gold.PLP.part.repulsive>
0.0993

> <Gold.PLP.ligand.clash>
0.0254

> <Gold.PLP.ligand.torsion>
0.9602

> <Gold.PLP.Chemscore.Hbond>
2.0000

> <Gold.PLP.Chemscore.CHOScore>
0.0000

> <Gold.PLP.Chemscore.Metal>
0.0000

> <Gold.Chemscore.Hbonds>
donor molecule, donor type, donor heavy atom, donor atom, acceptor molecule, acceptor atom, score
      L1  H     1    21       P1  8028  1.00
      P1  H  7989  7998       L1     6  1.00

> <Gold.PLP.Chemscore.Internal.Correction>
0.0420

> <Gold.Rescore>
     Score         DG    S(hbond)    S(metal)    S(lipo)     H(rot)  DE(clash)    DE(int)     intcor
     15.99     -19.71       1.74        0.00     115.88       2.00       1.11       2.61       ----

> <Gold.Chemscore.Fitness>
15.9944

> <Gold.Chemscore.DG>
-19.7102

> <Gold.Chemscore.ZeroCoef>
-5.4800

> <Gold.Chemscore.Hbond>
1.7372

> <Gold.Chemscore.Metal>
0.0000

> <Gold.Chemscore.Lipo>
115.8831

> <Gold.Chemscore.Internal_Hbond>
0.0000

> <Gold.Chemscore.DEClash>
1.1095

> <Gold.Chemscore.DEInternal>
2.6063

> <Gold.Chemscore.Rot>
2.0040

> <Gold.Chemscore.Internal.Correction>
   9.000000E+99

> <Gold.Chemscore.Hbonds>
donor molecule, donor type, donor heavy atom, donor atom, acceptor molecule, acceptor atom, score
      L1  H     1    21       P1  8028  0.91
      P1  H  7989  7998       L1     6  0.64

> <Gold.Chemscore.Hbond.Weighted>
-5.8022

> <Gold.Chemscore.Metal.Weighted>
-0.0000

> <Gold.Chemscore.Lipo.Weighted>
-13.5583

> <Gold.Chemscore.Internal_Hbond.Weighted>
0.0000

> <Gold.Chemscore.DEClash.Weighted>
1.1095

> <Gold.Chemscore.DEInternal.Weighted>
2.6063

> <Gold.Chemscore.Rot.Weighted>
5.1303

> <Gold.Chemscore.Internal.Correction.Weighted>
   9.000000E+99

> <Gold.Protein.RotatedTorsions>
[ 6907 6896 6895 6894 ] final -152.76 input  -60.11 | X-H torsion
[ 7974 7965 7964 7962 ] final   22.30 input  175.53 | X-H torsion
[ 8008 7997 7996 7995 ] final -130.74 input   59.86 | X-H torsion
[ 10167 10162 10161 10158 ] final   77.17 input  -65.29 | X-H torsion
[ 10718 10713 10712 10709 ] final -131.01 input   66.30 | X-H torsion
[ 10763 10752 10751 10750 ] final  -22.70 input  -60.55 | X-H torsion
[ 11005 11000 10999 10996 ] final   91.39 input  -57.11 | X-H torsion

> <Gold.Protein.ActiveResidues>
 VAL166  LYS551  ARG553  GLY616  TRP617  ASP618  TYR619  PRO620  LYS621  CYS622 
 ASP623  PHE694  ASN695  SER759  ASP760  ASP761  ALA762  ILE779  LEU786  VAL792 
 PHE793  MET794  SER795  GLU796  ALA797  LYS798  CYS799  TRP800  GLU811  SER814 

> <Gold.Protein.RotatedAtoms>
  151.2326  133.4442  159.2604 H   0  0  0  0  0  0  0  0  0  0  0  0  # atno 6907 bound_to 6896
  151.0780  134.9840  159.8352 H   0  0  0  0  0  0  0  0  0  0  0  0  # atno 6908 bound_to 6896
  152.5421  134.2267  159.8862 H   0  0  0  0  0  0  0  0  0  0  0  0  # atno 6909 bound_to 6896
  146.2035  139.7905  142.8744 H   0  0  0  0  0  0  0  0  0  0  0  0  # atno 7974 bound_to 7965
  155.3007  140.0452  157.3029 H   0  0  0  0  0  0  0  0  0  0  0  0  # atno 8008 bound_to 7997
  154.5488  140.2311  155.8486 H   0  0  0  0  0  0  0  0  0  0  0  0  # atno 8009 bound_to 7997
  156.1948  140.3041  155.9412 H   0  0  0  0  0  0  0  0  0  0  0  0  # atno 8010 bound_to 7997
  139.9844  144.5803  150.7872 H   0  0  0  0  0  0  0  0  0  0  0  0  # atno 10167 bound_to 10162
  156.2201  130.6973  151.0746 H   0  0  0  0  0  0  0  0  0  0  0  0  # atno 10718 bound_to 10713
  153.6560  135.6978  153.5193 H   0  0  0  0  0  0  0  0  0  0  0  0  # atno 10763 bound_to 10752
  153.2669  135.4227  155.0948 H   0  0  0  0  0  0  0  0  0  0  0  0  # atno 10764 bound_to 10752
  154.8464  135.3568  154.6105 H   0  0  0  0  0  0  0  0  0  0  0  0  # atno 10765 bound_to 10752
  139.8839  134.8671  156.3421 H   0  0  0  0  0  0  0  0  0  0  0  0  # atno 11005 bound_to 11000
  145.3403  141.0286  143.3396 LP  0  0  0  0  0  0  0  0  0  0  0  0  # atno 17320 bound_to 7965
  144.8737  139.5002  143.6756 LP  0  0  0  0  0  0  0  0  0  0  0  0  # atno 17321 bound_to 7965
  140.7477  143.2911  151.3328 LP  0  0  0  0  0  0  0  0  0  0  0  0  # atno 17342 bound_to 10162
  139.6386  144.0583  152.2536 LP  0  0  0  0  0  0  0  0  0  0  0  0  # atno 17343 bound_to 10162
  157.7083  131.0746  150.6590 LP  0  0  0  0  0  0  0  0  0  0  0  0  # atno 17370 bound_to 10713
  156.6653  130.4524  149.5674 LP  0  0  0  0  0  0  0  0  0  0  0  0  # atno 17371 bound_to 10713
  140.9651  133.7363  156.0456 LP  0  0  0  0  0  0  0  0  0  0  0  0  # atno 17394 bound_to 11000
  140.7940  134.3584  157.5457 LP  0  0  0  0  0  0  0  0  0  0  0  0  # atno 17395 bound_to 11000

$$$$
