#       Name:                AV-unprocessed.smi:1812
#       Creating user name   scv26
#       Creation time:       Fri Mar 27 08:59:54 2020


#       File generated by GOLD software.
#

@<TRIPOS>MOLECULE
AV-unprocessed.smi:1812
    40    42     1
SMALL
NO_CHARGES


@<TRIPOS>ATOM
      1 ****         0.6445   1.2028  -0.9783 O.2            1 S1                 0.0000
      2 ****         0.2916   0.2849  -0.2343 C.2            1 S1                 0.0000
      3 ****         1.0569  -0.8073  -0.1133 N.am           1 S1                 0.0000
      4 ****         2.3215  -1.0288  -0.8028 C.3            1 S1                 0.0000
      5 ****         2.8968  -2.4111  -0.4624 C.3            1 S1                 0.0000
      6 ****         3.2204  -2.6210   1.0173 C.3            1 S1                 0.0000
      7 ****         4.2620  -3.7136   0.9454 C.3            1 S1                 0.0000
      8 ****         5.0493  -3.3131  -0.2992 C.3            1 S1                 0.0000
      9 ****         4.1324  -2.6188  -1.1418 O.3            1 S1                 0.0000
     10 ****        -0.8357   0.2443   0.5121 N.pl3          1 S1                -1.0000
     11 ****        -1.7022   1.2701   0.4778 C.2            1 S1                 0.0000
     12 ****        -1.7206   2.2283   1.4153 N.2            1 S1                 0.0000
     13 ****        -2.7001   3.1859   1.1957 N.2            1 S1                 0.0000
     14 ****        -3.4154   2.9324   0.0971 C.2            1 S1                 0.0000
     15 ****        -4.5334   3.8143  -0.3495 C.3            1 S1                 0.0000
     16 ****        -5.8631   3.7974   0.3690 C.3            1 S1                 0.0000
     17 ****        -5.7616   3.2553  -1.0341 C.3            1 S1                 0.0000
     18 ****        -2.9340   1.4803  -0.7661 S.3            1 S1                 0.0000
     19 ****         0.7351  -1.5375   0.5049 H              1 S1                 0.0000
     20 ****         2.1645  -0.9503  -1.8795 H              1 S1                 0.0000
     21 ****         3.0295  -0.2471  -0.5234 H              1 S1                 0.0000
     22 ****         2.2085  -3.1913  -0.7920 H              1 S1                 0.0000
     23 ****         3.6550  -1.7182   1.4492 H              1 S1                 0.0000
     24 ****         2.3484  -2.8993   1.6099 H              1 S1                 0.0000
     25 ****         4.8813  -3.7781   1.8404 H              1 S1                 0.0000
     26 ****         3.7796  -4.6799   0.7912 H              1 S1                 0.0000
     27 ****         5.8582  -2.6309  -0.0350 H              1 S1                 0.0000
     28 ****         5.4848  -4.1733  -0.8081 H              1 S1                 0.0000
     29 ****        -4.1518   4.7733  -0.6944 H              1 S1                 0.0000
     30 ****        -5.9922   3.0784   1.1758 H              1 S1                 0.0000
     31 ****        -6.3715   4.7495   0.5060 H              1 S1                 0.0000
     32 ****        -6.2008   3.8466  -1.8348 H              1 S1                 0.0000
     33 ****        -5.8378   2.1767  -1.1569 H              1 S1                 0.0000
     34 ****         1.5007   1.1307  -1.4899 LP             1 S1                 0.0000
     35 ****         0.0745   2.0192  -1.0701 LP             1 S1                 0.0000
     36 ****         4.5225  -1.7336  -1.3952 LP             1 S1                 0.0000
     37 ****         3.9684  -3.1593  -1.9671 LP             1 S1                 0.0000
     38 ****        -1.0242  -0.5499   1.0898 LP             1 S1                 0.0000
     39 ****        -1.0926   2.2505   2.1932 LP             1 S1                 0.0000
     40 ****        -2.8527   3.9746   1.7912 LP             1 S1                 0.0000
@<TRIPOS>BOND
    1    1    2 2     
    2    2    3 am    
    3    2   10 1     
    4    3    4 1     
    5    3   19 1     
    6    4    5 1     
    7    4   20 1     
    8    4   21 1     
    9    5    9 1     
   10    5    6 1     
   11    5   22 1     
   12    6    7 1     
   13    6   23 1     
   14    6   24 1     
   15    7    8 1     
   16    7   25 1     
   17    7   26 1     
   18    8    9 1     
   19    8   27 1     
   20    8   28 1     
   21   10   11 1     
   22   11   18 1     
   23   11   12 2     
   24   12   13 1     
   25   13   14 2     
   26   14   15 1     
   27   14   18 1     
   28   15   17 1     
   29   15   16 1     
   30   15   29 1     
   31   16   17 1     
   32   16   30 1     
   33   16   31 1     
   34   17   32 1     
   35   17   33 1     
   36    1   34 1     
   37    1   35 1     
   38    9   36 1     
   39    9   37 1     
   40   10   38 1     
   41   12   39 1     
   42   13   40 1     
@<TRIPOS>SUBSTRUCTURE
      1 S1             1
@<TRIPOS>SET
LONE_PAIRS      STATIC     ATOMS    <user>   **** ""
7 34 35 36 37 38 39 40
DONOR_HYDROGENS      STATIC     ATOMS    <user>   **** ""
1 19
ATOM$BLUE        STATIC     ATOMS    COLORGROUP SYSTEM
7 34 35 36 37 38 39 40
ATOM$RED        STATIC     ATOMS    COLORGROUP SYSTEM
1 19
