#       Name:                AV-unprocessed.smi:1824
#       Creating user name   scv26
#       Creation time:       Fri Mar 27 09:07:14 2020


#       File generated by GOLD software.
#

@<TRIPOS>MOLECULE
AV-unprocessed.smi:1824
    50    52     1
SMALL
NO_CHARGES


@<TRIPOS>ATOM
      1 ****        -5.3628   1.0486   0.4429 C.3            1 S1                 0.0000
      2 ****        -3.8750   0.9400   0.7942 C.3            1 S1                 0.0000
      3 ****        -2.9699   1.2856  -0.4053 C.3            1 S1                 0.0000
      4 ****        -1.5369   1.2570  -0.0245 N.4            1 S1                 1.0000
      5 ****        -0.9708  -0.1157   0.0743 C.3            1 S1                 0.0000
      6 ****         0.5522  -0.1443  -0.1625 C.3            1 S1                 0.0000
      7 ****         0.8117   0.2634  -1.4924 O.3            1 S1                 0.0000
      8 ****         1.1385  -1.5516   0.0627 C.3            1 S1                 0.0000
      9 ****         2.5776  -1.5898  -0.1305 N.pl3          1 S1                 0.0000
     10 ****         3.5225  -1.2513   0.7678 C.2            1 S1                 0.0000
     11 ****         4.7916  -1.3548   0.3855 N.2            1 S1                 0.0000
     12 ****         4.6566  -1.8195  -0.9115 C.ar           1 S1                 0.0000
     13 ****         5.6370  -2.1388  -1.8777 C.ar           1 S1                 0.0000
     14 ****         5.2582  -2.6011  -3.1552 C.ar           1 S1                 0.0000
     15 ****         6.2110  -2.9033  -4.0689 F              1 S1                 0.0000
     16 ****         3.8946  -2.7492  -3.4857 C.ar           1 S1                 0.0000
     17 ****         3.5392  -3.1917  -4.7150 F              1 S1                 0.0000
     18 ****         2.8995  -2.4373  -2.5392 C.ar           1 S1                 0.0000
     19 ****         3.2825  -1.9780  -1.2654 C.ar           1 S1                 0.0000
     20 ****        -1.2984   2.1190   1.1613 C.3            1 S1                 0.0000
     21 ****        -2.2614   1.7773   2.3194 C.3            1 S1                 0.0000
     22 ****        -2.1133   2.7485   3.4954 C.3            1 S1                 0.0000
     23 ****        -3.6040   1.8528   1.8524 O.3            1 S1                 0.0000
     24 ****        -5.6269   0.3644  -0.3640 H              1 S1                 0.0000
     25 ****        -5.6211   2.0586   0.1231 H              1 S1                 0.0000
     26 ****        -5.9857   0.8029   1.3033 H              1 S1                 0.0000
     27 ****        -3.6748  -0.0775   1.1344 H              1 S1                 0.0000
     28 ****        -3.1564   0.6133  -1.2437 H              1 S1                 0.0000
     29 ****        -3.2062   2.2891  -0.7620 H              1 S1                 0.0000
     30 ****        -1.2103  -0.5498   1.0449 H              1 S1                 0.0000
     31 ****        -1.4444  -0.7620  -0.6664 H              1 S1                 0.0000
     32 ****         1.0544   0.5505   0.5101 H              1 S1                 0.0000
     33 ****         1.7462   0.2443  -1.6366 H              1 S1                 0.0000
     34 ****         0.9237  -1.8898   1.0775 H              1 S1                 0.0000
     35 ****         0.6746  -2.2747  -0.6096 H              1 S1                 0.0000
     36 ****         3.2634  -0.9064   1.7583 H              1 S1                 0.0000
     37 ****         6.6838  -2.0280  -1.6362 H              1 S1                 0.0000
     38 ****         1.8557  -2.5497  -2.7916 H              1 S1                 0.0000
     39 ****        -0.2624   2.0550   1.4913 H              1 S1                 0.0000
     40 ****        -1.4548   3.1551   0.8573 H              1 S1                 0.0000
     41 ****        -2.0686   0.7691   2.6879 H              1 S1                 0.0000
     42 ****        -1.1009   2.7256   3.8993 H              1 S1                 0.0000
     43 ****        -2.7983   2.4891   4.3030 H              1 S1                 0.0000
     44 ****        -2.3300   3.7732   3.1916 H              1 S1                 0.0000
     45 ****        -1.0415   1.6818  -0.7961 H              1 S1                 0.0000
     46 ****         0.4679   1.1918  -1.6334 LP             1 S1                 0.0000
     47 ****         0.3595  -0.3600  -2.1302 LP             1 S1                 0.0000
     48 ****         5.6247  -1.1506   0.8997 LP             1 S1                 0.0000
     49 ****        -4.2187   1.6494   2.6145 LP             1 S1                 0.0000
     50 ****        -3.7759   2.7817   1.5244 LP             1 S1                 0.0000
@<TRIPOS>BOND
    1    1    2 1     
    2    1   24 1     
    3    1   25 1     
    4    1   26 1     
    5    2   23 1     
    6    2    3 1     
    7    2   27 1     
    8    3    4 1     
    9    3   28 1     
   10    3   29 1     
   11    4    5 1     
   12    4   20 1     
   13    4   45 1     
   14    5    6 1     
   15    5   30 1     
   16    5   31 1     
   17    6    7 1     
   18    6    8 1     
   19    6   32 1     
   20    7   33 1     
   21    8    9 1     
   22    8   34 1     
   23    8   35 1     
   24    9   19 1     
   25    9   10 1     
   26   10   11 2     
   27   10   36 1     
   28   11   12 1     
   29   12   19 ar    
   30   12   13 ar    
   31   13   14 ar    
   32   13   37 1     
   33   14   15 1     
   34   14   16 ar    
   35   16   17 1     
   36   16   18 ar    
   37   18   19 ar    
   38   18   38 1     
   39   20   21 1     
   40   20   39 1     
   41   20   40 1     
   42   21   22 1     
   43   21   23 1     
   44   21   41 1     
   45   22   42 1     
   46   22   43 1     
   47   22   44 1     
   48    7   46 1     
   49    7   47 1     
   50   11   48 1     
   51   23   49 1     
   52   23   50 1     
@<TRIPOS>SUBSTRUCTURE
      1 S1             1
@<TRIPOS>SET
LONE_PAIRS      STATIC     ATOMS    <user>   **** ""
5 46 47 48 49 50
DONOR_HYDROGENS      STATIC     ATOMS    <user>   **** ""
2 45 33
ATOM$BLUE        STATIC     ATOMS    COLORGROUP SYSTEM
5 46 47 48 49 50
ATOM$RED        STATIC     ATOMS    COLORGROUP SYSTEM
2 45 33
