AV-unprocessed.smi:696|AV-procd|sdf|3387|dock9
  -GOLD-   22720 0363D 1   1.00000     0.00000
 Structure written by MMmdl.
 37 38  0  0  0  0  0  0  0  0  2 V2000
  149.2684  140.6396  158.0479 O   0  0  0  0  0  0  0  0  0  0  0  0
  149.8232  141.5761  157.4717 C   0  0  0  0  0  0  0  0  0  0  0  0
  149.4452  142.0234  156.2640 N   0  0  0  0  0  0  0  0  0  0  0  0
  148.3421  141.4845  155.4768 C   0  0  0  0  0  0  0  0  0  0  0  0
  148.8536  140.7247  154.2353 C   0  0  0  0  0  0  0  0  0  0  0  0
  149.9878  139.7433  154.4980 C   0  0  0  0  0  0  0  0  0  0  0  0
  151.1936  140.0066  154.8465 N   0  0  0  0  0  0  0  0  0  0  0  0
  151.8346  138.7301  154.9610 N   0  5  0  0  0  0  0  0  0  0  0  0
  150.9057  137.7915  154.6567 C   0  0  0  0  0  0  0  0  0  0  0  0
  151.0275  136.5687  154.6312 O   0  0  0  0  0  0  0  0  0  0  0  0
  149.7609  138.4012  154.3686 N   0  0  0  0  0  0  0  0  0  0  0  0
  151.0107  142.2937  158.1311 C   0  0  0  0  0  0  0  0  0  0  0  0
  151.5408  141.4613  159.3222 C   0  0  0  0  0  0  0  0  0  0  0  0
  152.9584  141.8699  159.7580 C   0  0  0  0  0  0  0  0  0  0  0  0
  153.0319  143.0156  160.7835 C   0  0  0  0  0  0  0  0  0  0  0  0
  152.0198  144.1626  160.6118 C   0  0  0  0  0  0  0  0  0  0  0  0
  151.7244  144.5715  159.1598 C   0  0  0  0  0  0  0  0  0  0  0  0
  150.6058  143.7322  158.5171 C   0  0  0  0  0  0  0  0  0  0  0  0
  148.8883  137.9680  154.1060 H   0  0  0  0  0  0  0  0  0  0  0  0
  149.9556  142.7970  155.8633 H   0  0  0  0  0  0  0  0  0  0  0  0
  147.7747  140.8120  156.1213 H   0  0  0  0  0  0  0  0  0  0  0  0
  147.6642  142.2905  155.1897 H   0  0  0  0  0  0  0  0  0  0  0  0
  148.0326  140.1761  153.7724 H   0  0  0  0  0  0  0  0  0  0  0  0
  149.1977  141.4445  153.4916 H   0  0  0  0  0  0  0  0  0  0  0  0
  151.8037  142.3588  157.3838 H   0  0  0  0  0  0  0  0  0  0  0  0
  150.8528  141.4994  160.1680 H   0  0  0  0  0  0  0  0  0  0  0  0
  151.5823  140.4122  159.0237 H   0  0  0  0  0  0  0  0  0  0  0  0
  153.4578  141.0031  160.1922 H   0  0  0  0  0  0  0  0  0  0  0  0
  153.5506  142.1270  158.8791 H   0  0  0  0  0  0  0  0  0  0  0  0
  152.9086  142.6048  161.7860 H   0  0  0  0  0  0  0  0  0  0  0  0
  154.0422  143.4253  160.7602 H   0  0  0  0  0  0  0  0  0  0  0  0
  151.0858  143.9037  161.1119 H   0  0  0  0  0  0  0  0  0  0  0  0
  152.4019  145.0288  161.1530 H   0  0  0  0  0  0  0  0  0  0  0  0
  151.3925  145.6104  159.1669 H   0  0  0  0  0  0  0  0  0  0  0  0
  152.6309  144.5537  158.5537 H   0  0  0  0  0  0  0  0  0  0  0  0
  150.2735  144.2499  157.6157 H   0  0  0  0  0  0  0  0  0  0  0  0
  149.7394  143.7177  159.1804 H   0  0  0  0  0  0  0  0  0  0  0  0
  1  2  2  0  0  0  0
  2  3  1  0  0  0  0
  2 12  1  0  0  0  0
  3  4  1  0  0  0  0
  3 20  1  0  0  0  0
  4  5  1  0  0  0  0
  4 21  1  0  0  0  0
  4 22  1  0  0  0  0
  5  6  1  0  0  0  0
  5 23  1  0  0  0  0
  5 24  1  0  0  0  0
  6 11  1  0  0  0  0
  6  7  2  0  0  0  0
  7  8  1  0  0  0  0
  8  9  1  0  0  0  0
  9 10  2  0  0  0  0
  9 11  1  0  0  0  0
 11 19  1  0  0  0  0
 12 18  1  0  0  0  0
 12 13  1  0  0  0  0
 12 25  1  0  0  0  0
 13 14  1  0  0  0  0
 13 26  1  0  0  0  0
 13 27  1  0  0  0  0
 14 15  1  0  0  0  0
 14 28  1  0  0  0  0
 14 29  1  0  0  0  0
 15 16  1  0  0  0  0
 15 30  1  0  0  0  0
 15 31  1  0  0  0  0
 16 17  1  0  0  0  0
 16 32  1  0  0  0  0
 16 33  1  0  0  0  0
 17 18  1  0  0  0  0
 17 34  1  0  0  0  0
 17 35  1  0  0  0  0
 18 36  1  0  0  0  0
 18 37  1  0  0  0  0
M  CHG  1   8  -1
M  END
> <s_m_source_file>
AV-unprocessed.smi

> <i_m_source_file_index>
696

> <i_lp_mmshare_version>
43012

> <i_f3d_flags>
0

> <s_epik_input>
W0NIMl0xW0NIMl1bQ0gyXVtDSDJdW0NIMl1bQ0gyXVtDSF0xQyg9TylbTkhdW0NIMl1bQ0gyXWMybltuSF1jKD1PKVtuSF0y

> <s_epik_cmdline>
J2VwaWtfcHl0aG9uJywgJy1waCcsICc3LjAnLCAnLXRuJywgJzgnLCAnLW1hJywgJzIwMCcsICctbWV0YWxfYmluZGluZycsICctaW1hZScsICc8aW5maWxlLm1hZT4nLCAnLW9tYWUnLCAnPG91dGZpbGUubWFlPic=

> <r_lp_tautomer_probability>
1

> <r_epik_Ionization_Penalty>
14.1589

> <r_epik_Ionization_Penalty_Charging>
13.7723

> <r_epik_Ionization_Penalty_Neutral>
0.386566

> <r_epik_State_Penalty>
4.88838

> <r_epik_Charging_Adjusted_Penalty>
18.6607

> <i_epik_Tot_Q>
-1

> <i_epik_Tot_abs_Q>
1

> <r_epik_Metal_State_Penalty>
1.30742

> <b_epik_Metal_Only>
1

> <s_lp_Force_Field>
OPLS_2005

> <r_lp_Energy>
24.8818

> <b_lp_Chiralities_Consistent>
1

> <s_lp_Variant>
AV-unprocessed.smi:696-2

> <Gold.Version>
5.8.1

> <Gold.Id.Protein>
6NUR|6NUR_protein|mol2

> <Gold.PLP.Fitness>
43.4227

> <Gold.PLP.PLP>
-37.3108

> <Gold.PLP.part.hbond>
-3.0480

> <Gold.PLP.part.metal>
0.0000

> <Gold.PLP.part.buried>
-5.8835

> <Gold.PLP.part.nonpolar>
-29.7088

> <Gold.PLP.part.repulsive>
1.2945

> <Gold.PLP.ligand.clash>
0.0000

> <Gold.PLP.ligand.torsion>
0.3797

> <Gold.PLP.Chemscore.Hbond>
2.2778

> <Gold.PLP.Chemscore.CHOScore>
0.0000

> <Gold.PLP.Chemscore.Metal>
0.0000

> <Gold.Chemscore.Hbonds>
donor molecule, donor type, donor heavy atom, donor atom, acceptor molecule, acceptor atom, score
      L1  H     3    20       P1  8028  0.19
      P1  H  7989  7998       L1     7  0.90
      P1  H 10752 10765       L1    10  0.75

> <Gold.PLP.Chemscore.Internal.Correction>
0.0381

> <Gold.Rescore>
     Score         DG    S(hbond)    S(metal)    S(lipo)     H(rot)  DE(clash)    DE(int)     intcor
     15.98     -16.48       2.12        0.00      82.71       2.25       0.01       0.48       ----

> <Gold.Chemscore.Fitness>
15.9795

> <Gold.Chemscore.DG>
-16.4763

> <Gold.Chemscore.ZeroCoef>
-5.4800

> <Gold.Chemscore.Hbond>
2.1197

> <Gold.Chemscore.Metal>
0.0000

> <Gold.Chemscore.Lipo>
82.7089

> <Gold.Chemscore.Internal_Hbond>
0.0000

> <Gold.Chemscore.DEClash>
0.0126

> <Gold.Chemscore.DEInternal>
0.4842

> <Gold.Chemscore.Rot>
2.2501

> <Gold.Chemscore.Internal.Correction>
   9.000000E+99

> <Gold.Chemscore.Hbonds>
donor molecule, donor type, donor heavy atom, donor atom, acceptor molecule, acceptor atom, score
      L1  H     3    20       P1  8028  0.20
      P1  H  7989  7998       L1     7  0.16
      P1  H 10752 10765       L1    10  0.72

> <Gold.Chemscore.Hbond.Weighted>
-7.0797

> <Gold.Chemscore.Metal.Weighted>
-0.0000

> <Gold.Chemscore.Lipo.Weighted>
-9.6769

> <Gold.Chemscore.Internal_Hbond.Weighted>
0.0000

> <Gold.Chemscore.DEClash.Weighted>
0.0126

> <Gold.Chemscore.DEInternal.Weighted>
0.4842

> <Gold.Chemscore.Rot.Weighted>
5.7603

> <Gold.Chemscore.Internal.Correction.Weighted>
   9.000000E+99

> <Gold.Protein.RotatedTorsions>
[ 6907 6896 6895 6894 ] final   89.02 input  -60.11 | X-H torsion
[ 7974 7965 7964 7962 ] final  178.02 input  175.53 | X-H torsion
[ 8008 7997 7996 7995 ] final  159.67 input   59.86 | X-H torsion
[ 10167 10162 10161 10158 ] final  134.22 input  -65.29 | X-H torsion
[ 10718 10713 10712 10709 ] final   -6.57 input   66.30 | X-H torsion
[ 10763 10752 10751 10750 ] final  163.99 input  -60.55 | X-H torsion
[ 11005 11000 10999 10996 ] final -159.17 input  -57.11 | X-H torsion

> <Gold.Protein.ActiveResidues>
 VAL166  LYS551  ARG553  GLY616  TRP617  ASP618  TYR619  PRO620  LYS621  CYS622 
 ASP623  PHE694  ASN695  SER759  ASP760  ASP761  ALA762  ILE779  LEU786  VAL792 
 PHE793  MET794  SER795  GLU796  ALA797  LYS798  CYS799  TRP800  GLU811  SER814 

> <Gold.Protein.RotatedAtoms>
  152.5432  134.2032  159.8719 H   0  0  0  0  0  0  0  0  0  0  0  0  # atno 6907 bound_to 6896
  151.2019  133.4599  159.2604 H   0  0  0  0  0  0  0  0  0  0  0  0  # atno 6908 bound_to 6896
  151.0981  134.9968  159.8491 H   0  0  0  0  0  0  0  0  0  0  0  0  # atno 6909 bound_to 6896
  144.7161  140.0335  143.6438 H   0  0  0  0  0  0  0  0  0  0  0  0  # atno 7974 bound_to 7965
  156.2223  140.1825  156.7446 H   0  0  0  0  0  0  0  0  0  0  0  0  # atno 8008 bound_to 7997
  154.5886  140.0654  156.9234 H   0  0  0  0  0  0  0  0  0  0  0  0  # atno 8009 bound_to 7997
  155.2376  140.3319  155.4298 H   0  0  0  0  0  0  0  0  0  0  0  0  # atno 8010 bound_to 7997
  139.5265  144.6578  151.5108 H   0  0  0  0  0  0  0  0  0  0  0  0  # atno 10167 bound_to 10162
  156.7300  130.5177  149.5848 H   0  0  0  0  0  0  0  0  0  0  0  0  # atno 10718 bound_to 10713
  154.3021  135.2759  155.2606 H   0  0  0  0  0  0  0  0  0  0  0  0  # atno 10763 bound_to 10752
  154.5039  135.5801  153.6555 H   0  0  0  0  0  0  0  0  0  0  0  0  # atno 10764 bound_to 10752
  152.9899  135.6164  154.3192 H   0  0  0  0  0  0  0  0  0  0  0  0  # atno 10765 bound_to 10752
  140.6455  134.4506  157.5234 H   0  0  0  0  0  0  0  0  0  0  0  0  # atno 11005 bound_to 11000
  146.0083  139.3148  143.0886 LP  0  0  0  0  0  0  0  0  0  0  0  0  # atno 17320 bound_to 7965
  145.8712  140.9418  143.0649 LP  0  0  0  0  0  0  0  0  0  0  0  0  # atno 17321 bound_to 7965
  140.6411  143.8886  150.6693 LP  0  0  0  0  0  0  0  0  0  0  0  0  # atno 17342 bound_to 10162
  140.2221  143.3801  152.1634 LP  0  0  0  0  0  0  0  0  0  0  0  0  # atno 17343 bound_to 10162
  156.1535  130.6326  151.0627 LP  0  0  0  0  0  0  0  0  0  0  0  0  # atno 17370 bound_to 10713
  157.6863  131.0824  150.7234 LP  0  0  0  0  0  0  0  0  0  0  0  0  # atno 17371 bound_to 10713
  139.9065  134.8439  156.1689 LP  0  0  0  0  0  0  0  0  0  0  0  0  # atno 17394 bound_to 11000
  141.0575  133.6858  156.1889 LP  0  0  0  0  0  0  0  0  0  0  0  0  # atno 17395 bound_to 11000

$$$$
