#       Name:                AV-unprocessed.smi:148
#       Creating user name   scv26
#       Creation time:       Thu Mar 26 18:39:44 2020


#       File generated by GOLD software.
#

@<TRIPOS>MOLECULE
AV-unprocessed.smi:148
    73    77     1
SMALL
NO_CHARGES


@<TRIPOS>ATOM
      1 ****        -3.6997  -1.6200   4.7424 O.3            1 S1                 0.0000
      2 ****        -3.1627  -2.7285   4.0510 C.3            1 S1                 0.0000
      3 ****        -2.5124  -2.2792   2.7215 C.3            1 S1                 0.0000
      4 ****        -1.2239  -1.4653   3.0003 C.3            1 S1                 0.0000
      5 ****        -0.5848  -0.9646   1.7960 N.pl3          1 S1                 0.0000
      6 ****         0.5968  -1.4043   1.2436 C.2            1 S1                 0.0000
      7 ****         0.9578  -0.7947   0.1477 N.2            1 S1                 0.0000
      8 ****        -0.0441   0.1449  -0.0648 C.ar           1 S1                 0.0000
      9 ****        -0.2895   1.1351  -1.0589 C.ar           1 S1                 0.0000
     10 ****         0.5032   1.3764  -2.1287 N.3            1 S1                 0.0000
     11 ****         0.1993   0.4073  -3.1828 C.3            1 S1                 0.0000
     12 ****         0.8973   0.7654  -4.5009 C.3            1 S1                 0.0000
     13 ****         2.4058   0.9141  -4.2811 C.3            1 S1                 0.0000
     14 ****         2.6690   1.9593  -3.1899 C.3            1 S1                 0.0000
     15 ****         1.9371   1.6024  -1.8672 C.3            1 S1                 0.0000
     16 ****         2.2078   2.6302  -0.7220 C.3            1 S1                 0.0000
     17 ****         3.7024   2.7696  -0.3606 C.3            1 S1                 0.0000
     18 ****         4.0937   4.2065  -0.7080 C.3            1 S1                 0.0000
     19 ****         2.8133   4.9999  -0.4721 C.3            1 S1                 0.0000
     20 ****         1.7077   4.0734  -0.9848 C.3            1 S1                 0.0000
     21 ****         0.4883   4.3479  -0.3267 O.3            1 S1                 0.0000
     22 ****        -1.4205   1.8755  -0.9521 N.ar           1 S1                 0.0000
     23 ****        -2.2521   1.6824   0.0762 C.ar           1 S1                 0.0000
     24 ****        -2.1489   0.8101   1.0812 N.ar           1 S1                 0.0000
     25 ****        -1.0215   0.0515   0.9653 C.ar           1 S1                 0.0000
     26 ****        -2.2775  -3.4462   1.7217 C.3            1 S1                 0.0000
     27 ****        -3.5381  -4.1437   1.2078 C.3            1 S1                 0.0000
     28 ****        -3.2290  -5.6344   1.3560 C.3            1 S1                 0.0000
     29 ****        -1.8133  -5.6941   1.4301 O.3            1 S1                 0.0000
     30 ****        -1.4041  -4.5990   2.2312 C.3            1 S1                 0.0000
     31 ****        -3.0017  -1.0078   4.9191 H              1 S1                 0.0000
     32 ****        -2.4376  -3.2257   4.6956 H              1 S1                 0.0000
     33 ****        -3.9745  -3.4351   3.8848 H              1 S1                 0.0000
     34 ****        -3.2190  -1.6070   2.2317 H              1 S1                 0.0000
     35 ****        -1.4429  -0.6084   3.6383 H              1 S1                 0.0000
     36 ****        -0.5030  -2.0773   3.5439 H              1 S1                 0.0000
     37 ****         1.1817  -2.2032   1.6759 H              1 S1                 0.0000
     38 ****         0.5139  -0.5863  -2.8592 H              1 S1                 0.0000
     39 ****        -0.8783   0.3592  -3.3482 H              1 S1                 0.0000
     40 ****         0.7001  -0.0031  -5.2487 H              1 S1                 0.0000
     41 ****         0.4867   1.6967  -4.8934 H              1 S1                 0.0000
     42 ****         2.8355  -0.0447  -3.9881 H              1 S1                 0.0000
     43 ****         2.8950   1.2074  -5.2103 H              1 S1                 0.0000
     44 ****         3.7439   2.0375  -3.0326 H              1 S1                 0.0000
     45 ****         2.3463   2.9298  -3.5638 H              1 S1                 0.0000
     46 ****         2.3504   0.6480  -1.5408 H              1 S1                 0.0000
     47 ****         1.7336   2.2644   0.1896 H              1 S1                 0.0000
     48 ****         3.8258   2.6204   0.7131 H              1 S1                 0.0000
     49 ****         4.3439   2.0354  -0.8479 H              1 S1                 0.0000
     50 ****         4.9302   4.5701  -0.1103 H              1 S1                 0.0000
     51 ****         4.3796   4.2700  -1.7588 H              1 S1                 0.0000
     52 ****         2.6954   5.1800   0.5980 H              1 S1                 0.0000
     53 ****         2.8169   5.9676  -0.9743 H              1 S1                 0.0000
     54 ****         1.5623   4.2556  -2.0477 H              1 S1                 0.0000
     55 ****        -0.1741   3.7653  -0.6677 H              1 S1                 0.0000
     56 ****        -3.1267   2.3158   0.0953 H              1 S1                 0.0000
     57 ****        -1.7891  -3.0507   0.8307 H              1 S1                 0.0000
     58 ****        -4.4468  -3.8705   1.7434 H              1 S1                 0.0000
     59 ****        -3.6984  -3.8911   0.1587 H              1 S1                 0.0000
     60 ****        -3.6540  -6.0248   2.2821 H              1 S1                 0.0000
     61 ****        -3.6131  -6.2287   0.5266 H              1 S1                 0.0000
     62 ****        -0.3383  -4.3986   2.1199 H              1 S1                 0.0000
     63 ****        -1.5984  -4.8384   3.2768 H              1 S1                 0.0000
     64 ****        -4.1065  -1.9249   5.6035 LP             1 S1                 0.0000
     65 ****        -4.4000  -1.1795   4.1805 LP             1 S1                 0.0000
     66 ****         1.7694  -0.9647  -0.4113 LP             1 S1                 0.0000
     67 ****         0.2655   2.2902  -2.4582 LP             1 S1                 0.0000
     68 ****         0.2211   5.2970  -0.4935 LP             1 S1                 0.0000
     69 ****         0.5946   4.1993   0.6564 LP             1 S1                 0.0000
     70 ****        -1.6325   2.5665  -1.6433 LP             1 S1                 0.0000
     71 ****        -2.8131   0.7239   1.8238 LP             1 S1                 0.0000
     72 ****        -1.4164  -5.6199   0.5152 LP             1 S1                 0.0000
     73 ****        -1.5256  -6.5551   1.8494 LP             1 S1                 0.0000
@<TRIPOS>BOND
    1    1    2 1     
    2    1   31 1     
    3    2    3 1     
    4    2   32 1     
    5    2   33 1     
    6    3    4 1     
    7    3   26 1     
    8    3   34 1     
    9    4    5 1     
   10    4   35 1     
   11    4   36 1     
   12    5   25 1     
   13    5    6 1     
   14    6    7 2     
   15    6   37 1     
   16    7    8 1     
   17    8   25 ar    
   18    8    9 ar    
   19    9   10 1     
   20    9   22 ar    
   21   10   15 1     
   22   10   11 1     
   23   11   12 1     
   24   11   38 1     
   25   11   39 1     
   26   12   13 1     
   27   12   40 1     
   28   12   41 1     
   29   13   14 1     
   30   13   42 1     
   31   13   43 1     
   32   14   15 1     
   33   14   44 1     
   34   14   45 1     
   35   15   16 1     
   36   15   46 1     
   37   16   20 1     
   38   16   17 1     
   39   16   47 1     
   40   17   18 1     
   41   17   48 1     
   42   17   49 1     
   43   18   19 1     
   44   18   50 1     
   45   18   51 1     
   46   19   20 1     
   47   19   52 1     
   48   19   53 1     
   49   20   21 1     
   50   20   54 1     
   51   21   55 1     
   52   22   23 ar    
   53   23   24 ar    
   54   23   56 1     
   55   24   25 ar    
   56   26   30 1     
   57   26   27 1     
   58   26   57 1     
   59   27   28 1     
   60   27   58 1     
   61   27   59 1     
   62   28   29 1     
   63   28   60 1     
   64   28   61 1     
   65   29   30 1     
   66   30   62 1     
   67   30   63 1     
   68    1   64 1     
   69    1   65 1     
   70    7   66 1     
   71   10   67 1     
   72   21   68 1     
   73   21   69 1     
   74   22   70 1     
   75   24   71 1     
   76   29   72 1     
   77   29   73 1     
@<TRIPOS>SUBSTRUCTURE
      1 S1             1
@<TRIPOS>SET
LONE_PAIRS      STATIC     ATOMS    <user>   **** ""
10 64 65 66 67 68 69 70 71 72 73
DONOR_HYDROGENS      STATIC     ATOMS    <user>   **** ""
2 31 55
ATOM$BLUE        STATIC     ATOMS    COLORGROUP SYSTEM
10 64 65 66 67 68 69 70 71 72 73
ATOM$RED        STATIC     ATOMS    COLORGROUP SYSTEM
2 31 55
