#       Name:                AV-unprocessed.smi:26
#       Creating user name   scv26
#       Creation time:       Thu Mar 26 15:45:10 2020


#       File generated by GOLD software.
#

@<TRIPOS>MOLECULE
AV-unprocessed.smi:26
    66    69     1
SMALL
NO_CHARGES


@<TRIPOS>ATOM
      1 ****        -4.5741   2.3274   0.3686 C.3            1 S1                 0.0000
      2 ****        -3.3800   1.4818   0.0566 C.2            1 S1                 0.0000
      3 ****        -2.0949   1.8758  -0.1666 C.2            1 S1                 0.0000
      4 ****        -1.3075   0.7244  -0.4351 C.2            1 S1                 0.0000
      5 ****         0.1407   0.6564  -0.7620 C.2            1 S1                 0.0000
      6 ****         0.7246  -0.3957  -1.0269 O.2            1 S1                 0.0000
      7 ****         0.8937   2.0004  -0.7578 C.3            1 S1                 0.0000
      8 ****         2.2771   1.8817  -1.2031 N.am           1 S1                 0.0000
      9 ****         2.5374   2.0069  -2.5911 C.2            1 S1                 0.0000
     10 ****         1.6393   2.2109  -3.4099 O.2            1 S1                 0.0000
     11 ****         3.9409   1.8596  -2.9606 C.2            1 S1                 0.0000
     12 ****         4.3020   1.9569  -4.2514 F              1 S1                 0.0000
     13 ****         4.8867   1.6218  -2.0267 C.2            1 S1                 0.0000
     14 ****         4.6033   1.5027  -0.6766 N.am           1 S1                 0.0000
     15 ****         5.6949   1.2134   0.3290 C.3            1 S1                 0.0000
     16 ****         5.8693  -0.2999   0.5014 C.3            1 S1                 0.0000
     17 ****         7.0190  -0.5938  -0.4382 C.3            1 S1                 0.0000
     18 ****         7.8512   0.6765  -0.3109 C.3            1 S1                 0.0000
     19 ****         6.9037   1.7285  -0.1514 O.3            1 S1                 0.0000
     20 ****         3.2689   1.6148  -0.2282 C.2            1 S1                 0.0000
     21 ****         2.9870   1.4688   0.9634 O.2            1 S1                 0.0000
     22 ****        -2.1375  -0.3705  -0.3503 C.2            1 S1                 0.0000
     23 ****        -1.8106  -1.8275  -0.5324 C.3            1 S1                 0.0000
     24 ****        -3.4288   0.0933  -0.0582 N.pl3          1 S1                 0.0000
     25 ****        -4.6510  -0.7113   0.1013 C.3            1 S1                 0.0000
     26 ****        -5.0883  -1.3394  -1.2379 C.3            1 S1                 0.0000
     27 ****        -4.5687  -1.6604   1.3013 C.ar           1 S1                 0.0000
     28 ****        -4.1970  -1.1422   2.5627 C.ar           1 S1                 0.0000
     29 ****        -4.1216  -1.9816   3.6907 C.ar           1 S1                 0.0000
     30 ****        -4.4232  -3.3506   3.5707 C.ar           1 S1                 0.0000
     31 ****        -4.8025  -3.8770   2.3221 C.ar           1 S1                 0.0000
     32 ****        -4.8786  -3.0374   1.1939 C.ar           1 S1                 0.0000
     33 ****        -4.3040   3.3832   0.4018 H              1 S1                 0.0000
     34 ****        -4.9972   2.0646   1.3384 H              1 S1                 0.0000
     35 ****        -5.3473   2.2082  -0.3909 H              1 S1                 0.0000
     36 ****        -1.7573   2.9017  -0.1470 H              1 S1                 0.0000
     37 ****         0.3973   2.7312  -1.3980 H              1 S1                 0.0000
     38 ****         0.8940   2.4432   0.2394 H              1 S1                 0.0000
     39 ****         5.9071   1.5153  -2.3631 H              1 S1                 0.0000
     40 ****         5.4168   1.7338   1.2467 H              1 S1                 0.0000
     41 ****         6.1587  -0.5011   1.5336 H              1 S1                 0.0000
     42 ****         4.9567  -0.8530   0.2758 H              1 S1                 0.0000
     43 ****         7.5720  -1.4941  -0.1700 H              1 S1                 0.0000
     44 ****         6.6537  -0.7075  -1.4595 H              1 S1                 0.0000
     45 ****         8.4791   0.6308   0.5800 H              1 S1                 0.0000
     46 ****         8.4962   0.8456  -1.1733 H              1 S1                 0.0000
     47 ****        -0.9610  -2.1101   0.0891 H              1 S1                 0.0000
     48 ****        -1.5493  -2.0331  -1.5704 H              1 S1                 0.0000
     49 ****        -2.6216  -2.4959  -0.2631 H              1 S1                 0.0000
     50 ****        -5.4655  -0.0423   0.3708 H              1 S1                 0.0000
     51 ****        -6.0740  -1.7974  -1.1540 H              1 S1                 0.0000
     52 ****        -4.3974  -2.1021  -1.5938 H              1 S1                 0.0000
     53 ****        -5.1561  -0.5767  -2.0142 H              1 S1                 0.0000
     54 ****        -3.9656  -0.0925   2.6700 H              1 S1                 0.0000
     55 ****        -3.8329  -1.5742   4.6483 H              1 S1                 0.0000
     56 ****        -4.3657  -3.9952   4.4353 H              1 S1                 0.0000
     57 ****        -5.0366  -4.9273   2.2288 H              1 S1                 0.0000
     58 ****        -5.1730  -3.4720   0.2510 H              1 S1                 0.0000
     59 ****         0.2215  -1.2599  -1.0286 LP             1 S1                 0.0000
     60 ****         1.7015  -0.3853  -1.2401 LP             1 S1                 0.0000
     61 ****         0.6914   2.2933  -3.1022 LP             1 S1                 0.0000
     62 ****         1.8584   2.2941  -4.3820 LP             1 S1                 0.0000
     63 ****         7.2598   2.3994   0.4991 LP             1 S1                 0.0000
     64 ****         6.7477   2.1708  -1.0346 LP             1 S1                 0.0000
     65 ****         2.0358   1.5381   1.2643 LP             1 S1                 0.0000
     66 ****         3.7095   1.2812   1.6288 LP             1 S1                 0.0000
@<TRIPOS>BOND
    1    1    2 1     
    2    1   33 1     
    3    1   34 1     
    4    1   35 1     
    5    2   24 1     
    6    2    3 2     
    7    3    4 1     
    8    3   36 1     
    9    4    5 1     
   10    4   22 2     
   11    5    6 2     
   12    5    7 1     
   13    7    8 1     
   14    7   37 1     
   15    7   38 1     
   16    8   20 am    
   17    8    9 am    
   18    9   10 2     
   19    9   11 1     
   20   11   12 1     
   21   11   13 2     
   22   13   14 1     
   23   13   39 1     
   24   14   15 1     
   25   14   20 am    
   26   15   19 1     
   27   15   16 1     
   28   15   40 1     
   29   16   17 1     
   30   16   41 1     
   31   16   42 1     
   32   17   18 1     
   33   17   43 1     
   34   17   44 1     
   35   18   19 1     
   36   18   45 1     
   37   18   46 1     
   38   20   21 2     
   39   22   23 1     
   40   22   24 1     
   41   23   47 1     
   42   23   48 1     
   43   23   49 1     
   44   24   25 1     
   45   25   26 1     
   46   25   27 1     
   47   25   50 1     
   48   26   51 1     
   49   26   52 1     
   50   26   53 1     
   51   27   32 ar    
   52   27   28 ar    
   53   28   29 ar    
   54   28   54 1     
   55   29   30 ar    
   56   29   55 1     
   57   30   31 ar    
   58   30   56 1     
   59   31   32 ar    
   60   31   57 1     
   61   32   58 1     
   62    6   59 1     
   63    6   60 1     
   64   10   61 1     
   65   10   62 1     
   66   19   63 1     
   67   19   64 1     
   68   21   65 1     
   69   21   66 1     
@<TRIPOS>SUBSTRUCTURE
      1 S1             1
@<TRIPOS>SET
LONE_PAIRS      STATIC     ATOMS    <user>   **** ""
8 59 60 61 62 63 64 65 66
ATOM$BLUE        STATIC     ATOMS    COLORGROUP SYSTEM
8 59 60 61 62 63 64 65 66
