AV-unprocessed.smi:1490|AV-procd|sdf|6031|dock6
  -GOLD-   22720 6133D 1   1.00000     0.00000
 Structure written by MMmdl.
 37 38  0  0  0  0  0  0  0  0  3 V2000
  149.6645  139.4950  154.3345 C   0  0  0  0  0  0  0  0  0  0  0  0
  150.4574  140.5084  154.9256 O   0  0  0  0  0  0  0  0  0  0  0  0
  150.0628  140.8134  156.2531 C   0  0  0  0  0  0  0  0  0  0  0  0
  151.0359  141.8402  156.8498 C   0  0  0  0  0  0  0  0  0  0  0  0
  151.7441  141.3132  158.0247 N   0  0  0  0  0  0  0  0  0  0  0  0
  152.2337  140.0664  158.2744 C   0  0  0  0  0  0  0  0  0  0  0  0
  152.1507  138.6775  157.1928 S   0  0  0  0  0  0  0  0  0  0  0  0
  153.0812  137.3600  158.0259 C   0  0  0  0  0  0  0  0  0  0  0  0
  154.4700  137.1554  157.4220 C   0  0  0  0  0  0  0  0  0  0  0  0
  155.3547  137.9821  157.6390 O   0  0  0  0  0  0  0  0  0  0  0  0
  154.5369  136.0214  156.6903 N   0  5  0  0  0  0  0  0  0  0  0  0
  155.0183  134.8063  157.3171 C   0  0  0  0  0  0  0  0  0  0  0  0
  154.0848  134.3631  158.3640 C   0  0  0  0  0  0  0  0  0  0  0  0
  153.3501  134.0138  159.1876 N   0  0  0  0  0  0  0  0  0  0  0  0
  152.7867  140.0815  159.5184 N   0  3  0  0  0  0  0  0  0  0  0  0
  152.6430  141.3527  160.0766 C   0  0  0  0  0  0  0  0  0  0  0  0
  153.0371  141.8546  161.3129 C   0  0  0  0  0  0  0  0  0  0  0  0
  152.7290  143.2055  161.5771 C   0  0  0  0  0  0  0  0  0  0  0  0
  153.1870  143.8960  163.0900 Cl  0  0  0  0  0  0  0  0  0  0  0  0
  152.0523  144.0011  160.6290 C   0  0  0  0  0  0  0  0  0  0  0  0
  151.6572  143.4824  159.3782 C   0  0  0  0  0  0  0  0  0  0  0  0
  151.9698  142.1475  159.1247 C   0  0  0  0  0  0  0  0  0  0  0  0
  150.0134  139.3044  153.3195 H   0  0  0  0  0  0  0  0  0  0  0  0
  148.6174  139.7952  154.2801 H   0  0  0  0  0  0  0  0  0  0  0  0
  149.7339  138.5626  154.8959 H   0  0  0  0  0  0  0  0  0  0  0  0
  149.0494  141.2168  156.2604 H   0  0  0  0  0  0  0  0  0  0  0  0
  150.0581  139.9050  156.8576 H   0  0  0  0  0  0  0  0  0  0  0  0
  151.7850  142.1193  156.1082 H   0  0  0  0  0  0  0  0  0  0  0  0
  150.5189  142.7597  157.1253 H   0  0  0  0  0  0  0  0  0  0  0  0
  153.1685  137.6044  159.0849 H   0  0  0  0  0  0  0  0  0  0  0  0
  152.5191  136.4268  157.9647 H   0  0  0  0  0  0  0  0  0  0  0  0
  155.1206  133.9806  156.6119 H   0  0  0  0  0  0  0  0  0  0  0  0
  155.9923  134.9390  157.7887 H   0  0  0  0  0  0  0  0  0  0  0  0
  153.5522  141.2446  162.0404 H   0  0  0  0  0  0  0  0  0  0  0  0
  151.8305  145.0317  160.8655 H   0  0  0  0  0  0  0  0  0  0  0  0
  151.1366  144.1000  158.6615 H   0  0  0  0  0  0  0  0  0  0  0  0
  153.2206  139.2767  159.9519 H   0  0  0  0  0  0  0  0  0  0  0  0
  1  2  1  0  0  0  0
  1 23  1  0  0  0  0
  1 24  1  0  0  0  0
  1 25  1  0  0  0  0
  2  3  1  0  0  0  0
  3  4  1  0  0  0  0
  3 26  1  0  0  0  0
  3 27  1  0  0  0  0
  4  5  1  0  0  0  0
  4 28  1  0  0  0  0
  4 29  1  0  0  0  0
  5 22  1  0  0  0  0
  5  6  1  0  0  0  0
  6  7  1  0  0  0  0
  6 15  2  0  0  0  0
  7  8  1  0  0  0  0
  8  9  1  0  0  0  0
  8 30  1  0  0  0  0
  8 31  1  0  0  0  0
  9 10  2  0  0  0  0
  9 11  1  0  0  0  0
 11 12  1  0  0  0  0
 12 13  1  0  0  0  0
 12 32  1  0  0  0  0
 12 33  1  0  0  0  0
 13 14  3  0  0  0  0
 15 16  1  0  0  0  0
 15 37  1  0  0  0  0
 16 22  2  0  0  0  0
 16 17  1  0  0  0  0
 17 18  2  0  0  0  0
 17 34  1  0  0  0  0
 18 19  1  0  0  0  0
 18 20  1  0  0  0  0
 20 21  2  0  0  0  0
 20 35  1  0  0  0  0
 21 22  1  0  0  0  0
 21 36  1  0  0  0  0
M  CHG  1  11  -1
M  CHG  1  15   1
M  END
> <s_m_source_file>
AV-unprocessed.smi

> <i_m_source_file_index>
1490

> <i_lp_mmshare_version>
43012

> <i_f3d_flags>
0

> <s_epik_input>
W2NIXTFjKENsKVtjSF1bY0hdYyhjMTIpbihbQ0gyXVtDSDJdT1tDSDNdKWMobjIpU1tDSDJdQyg9TylbTkhdW0NIMl1DI04=

> <s_epik_cmdline>
J2VwaWtfcHl0aG9uJywgJy1waCcsICc3LjAnLCAnLXRuJywgJzgnLCAnLW1hJywgJzIwMCcsICctbWV0YWxfYmluZGluZycsICctaW1hZScsICc8aW5maWxlLm1hZT4nLCAnLW9tYWUnLCAnPG91dGZpbGUubWFlPic=

> <r_epik_Ionization_Penalty>
9.25224

> <r_epik_Ionization_Penalty_Charging>
9.25224

> <r_epik_Ionization_Penalty_Neutral>
2.90678e-12

> <r_epik_State_Penalty>
9.37242

> <r_epik_Charging_Adjusted_Penalty>
18.6247

> <i_epik_Tot_Q>
0

> <i_epik_Tot_abs_Q>
2

> <r_epik_Metal_State_Penalty>
5.29561

> <b_epik_Metal_Only>
1

> <s_lp_Force_Field>
OPLS_2005

> <r_lp_Energy>
5.70634

> <b_lp_Chiralities_Consistent>
1

> <s_lp_Variant>
AV-unprocessed.smi:1490-3

> <Gold.Version>
5.8.1

> <Gold.Id.Protein>
6NUR|6NUR_protein|mol2

> <Gold.PLP.Fitness>
50.6185

> <Gold.PLP.PLP>
-40.4502

> <Gold.PLP.part.hbond>
-4.0000

> <Gold.PLP.part.metal>
0.0000

> <Gold.PLP.part.buried>
-6.2687

> <Gold.PLP.part.nonpolar>
-30.2672

> <Gold.PLP.part.repulsive>
0.1950

> <Gold.PLP.ligand.clash>
0.0000

> <Gold.PLP.ligand.torsion>
1.9304

> <Gold.PLP.Chemscore.Hbond>
4.6080

> <Gold.PLP.Chemscore.CHOScore>
0.0000

> <Gold.PLP.Chemscore.Metal>
0.0000

> <Gold.Chemscore.Hbonds>
donor molecule, donor type, donor heavy atom, donor atom, acceptor molecule, acceptor atom, score
      P1  H  7989  7998       L1     2  1.00
      P1  H  7997  8008       L1    10  0.25
      P1  H 10752 10765       L1    11  1.30

> <Gold.PLP.Chemscore.Internal.Correction>
0.2051

> <Gold.Rescore>
     Score         DG    S(hbond)    S(metal)    S(lipo)     H(rot)  DE(clash)    DE(int)     intcor
     19.25     -21.62       3.29        0.00     104.06       2.74       0.54       1.84       ----

> <Gold.Chemscore.Fitness>
19.2457

> <Gold.Chemscore.DG>
-21.6191

> <Gold.Chemscore.ZeroCoef>
-5.4800

> <Gold.Chemscore.Hbond>
3.2886

> <Gold.Chemscore.Metal>
0.0000

> <Gold.Chemscore.Lipo>
104.0553

> <Gold.Chemscore.Internal_Hbond>
0.0000

> <Gold.Chemscore.DEClash>
0.5366

> <Gold.Chemscore.DEInternal>
1.8368

> <Gold.Chemscore.Rot>
2.7420

> <Gold.Chemscore.Internal.Correction>
   9.000000E+99

> <Gold.Chemscore.Hbonds>
donor molecule, donor type, donor heavy atom, donor atom, acceptor molecule, acceptor atom, score
      P1  H  6896  6909       L1    14  0.01
      P1  H  7989  7998       L1     2  0.24
      P1  H  7997  8008       L1    10  0.24
      P1  H 10752 10765       L1    11  0.05

> <Gold.Chemscore.Hbond.Weighted>
-10.9840

> <Gold.Chemscore.Metal.Weighted>
-0.0000

> <Gold.Chemscore.Lipo.Weighted>
-12.1745

> <Gold.Chemscore.Internal_Hbond.Weighted>
0.0000

> <Gold.Chemscore.DEClash.Weighted>
0.5366

> <Gold.Chemscore.DEInternal.Weighted>
1.8368

> <Gold.Chemscore.Rot.Weighted>
7.0194

> <Gold.Chemscore.Internal.Correction.Weighted>
   9.000000E+99

> <Gold.Protein.RotatedTorsions>
[ 6907 6896 6895 6894 ] final -155.17 input  -60.11 | X-H torsion
[ 7974 7965 7964 7962 ] final  -58.80 input  175.53 | X-H torsion
[ 8008 7997 7996 7995 ] final -164.35 input   59.86 | X-H torsion
[ 10167 10162 10161 10158 ] final  177.94 input  -65.29 | X-H torsion
[ 10718 10713 10712 10709 ] final  -42.55 input   66.30 | X-H torsion
[ 10763 10752 10751 10750 ] final  -79.34 input  -60.55 | X-H torsion
[ 11005 11000 10999 10996 ] final -165.83 input  -57.11 | X-H torsion

> <Gold.Protein.ActiveResidues>
 VAL166  LYS551  ARG553  GLY616  TRP617  ASP618  TYR619  PRO620  LYS621  CYS622 
 ASP623  PHE694  ASN695  SER759  ASP760  ASP761  ALA762  ILE779  LEU786  VAL792 
 PHE793  MET794  SER795  GLU796  ALA797  LYS798  CYS799  TRP800  GLU811  SER814 

> <Gold.Protein.RotatedAtoms>
  151.2685  133.4267  159.2619 H   0  0  0  0  0  0  0  0  0  0  0  0  # atno 6907 bound_to 6896
  151.0467  134.9645  159.8200 H   0  0  0  0  0  0  0  0  0  0  0  0  # atno 6908 bound_to 6896
  152.5375  134.2641  159.8999 H   0  0  0  0  0  0  0  0  0  0  0  0  # atno 6909 bound_to 6896
  145.8350  140.8454  143.0064 H   0  0  0  0  0  0  0  0  0  0  0  0  # atno 7974 bound_to 7965
  155.8344  140.0939  157.1773 H   0  0  0  0  0  0  0  0  0  0  0  0  # atno 8008 bound_to 7997
  154.3980  140.1413  156.3714 H   0  0  0  0  0  0  0  0  0  0  0  0  # atno 8009 bound_to 7997
  155.8131  140.3449  155.5472 H   0  0  0  0  0  0  0  0  0  0  0  0  # atno 8010 bound_to 7997
  139.5273  144.2739  152.0605 H   0  0  0  0  0  0  0  0  0  0  0  0  # atno 10167 bound_to 10162
  156.2584  130.4194  149.8570 H   0  0  0  0  0  0  0  0  0  0  0  0  # atno 10718 bound_to 10713
  154.5374  135.5699  153.6810 H   0  0  0  0  0  0  0  0  0  0  0  0  # atno 10763 bound_to 10752
  152.9954  135.6219  154.2547 H   0  0  0  0  0  0  0  0  0  0  0  0  # atno 10764 bound_to 10752
  154.2476  135.2860  155.2809 H   0  0  0  0  0  0  0  0  0  0  0  0  # atno 10765 bound_to 10752
  140.5712  134.5235  157.5162 H   0  0  0  0  0  0  0  0  0  0  0  0  # atno 11005 bound_to 11000
  144.6737  140.0728  143.7472 LP  0  0  0  0  0  0  0  0  0  0  0  0  # atno 17320 bound_to 7965
  145.9528  139.2746  143.1202 LP  0  0  0  0  0  0  0  0  0  0  0  0  # atno 17321 bound_to 7965
  140.2197  144.4479  150.6347 LP  0  0  0  0  0  0  0  0  0  0  0  0  # atno 17342 bound_to 10162
  140.6427  143.2207  151.6255 LP  0  0  0  0  0  0  0  0  0  0  0  0  # atno 17343 bound_to 10162
  156.6094  130.8580  151.3450 LP  0  0  0  0  0  0  0  0  0  0  0  0  # atno 17370 bound_to 10713
  157.7241  130.9598  150.1561 LP  0  0  0  0  0  0  0  0  0  0  0  0  # atno 17371 bound_to 10713
  139.9361  134.7873  156.0800 LP  0  0  0  0  0  0  0  0  0  0  0  0  # atno 17394 bound_to 11000
  141.1054  133.6662  156.2853 LP  0  0  0  0  0  0  0  0  0  0  0  0  # atno 17395 bound_to 11000

$$$$
