AV-unprocessed.smi:757|AV-procd|sdf|3616|dock7
  -GOLD-   22720 1 13D 1   1.00000     0.00000
 Structure written by MMmdl.
 44 45  0  0  0  0  0  0  0  0  1 V2000
  152.2355  144.2422  158.5006 C   0  0  0  0  0  0  0  0  0  0  0  0
  151.7883  143.2144  158.0161 C   0  0  0  0  0  0  0  0  0  0  0  0
  151.2546  141.9798  157.4138 C   0  0  0  0  0  0  0  0  0  0  0  0
  151.1626  142.0125  155.8731 C   0  0  0  0  0  0  0  0  0  0  0  0
  150.8356  140.7141  155.2784 N   0  0  0  0  0  0  0  0  0  0  0  0
  149.4182  140.4293  155.5147 C   0  0  0  0  0  0  0  0  0  0  0  0
  149.0062  139.1210  154.8179 C   0  0  0  0  0  0  0  0  0  0  0  0
  149.8552  137.9405  155.3172 C   0  0  0  0  0  0  0  0  0  0  0  0
  149.5669  136.7292  154.5552 N   0  0  0  0  0  0  0  0  0  0  0  0
  149.5733  135.4839  155.0512 C   0  0  0  0  0  0  0  0  0  0  0  0
  149.8077  135.2246  156.2313 O   0  0  0  0  0  0  0  0  0  0  0  0
  149.2751  134.5828  154.0998 N   0  0  0  0  0  0  0  0  0  0  0  0
  149.2221  133.1661  154.2021 C   0  0  0  0  0  0  0  0  0  0  0  0
  149.9914  132.4002  155.1106 C   0  0  0  0  0  0  0  0  0  0  0  0
  149.8626  130.9982  155.0982 C   0  0  0  0  0  0  0  0  0  0  0  0
  148.9782  130.4025  154.1773 C   0  0  0  0  0  0  0  0  0  0  0  0
  148.8588  129.0279  154.1713 O   0  0  0  0  0  0  0  0  0  0  0  0
  148.1397  128.4166  153.1059 C   0  0  0  0  0  0  0  0  0  0  0  0
  148.2468  131.1288  153.2963 N   0  0  0  0  0  0  0  0  0  0  0  0
  148.3753  132.4722  153.3133 C   0  0  0  0  0  0  0  0  0  0  0  0
  151.3415  138.3005  155.1811 C   0  0  0  0  0  0  0  0  0  0  0  0
  151.6520  139.6446  155.8623 C   0  0  0  0  0  0  0  0  0  0  0  0
  152.6265  145.1417  158.9205 H   0  0  0  0  0  0  0  0  0  0  0  0
  151.8504  141.1408  157.7706 H   0  0  0  0  0  0  0  0  0  0  0  0
  150.2560  141.8373  157.8273 H   0  0  0  0  0  0  0  0  0  0  0  0
  150.4301  142.7565  155.5563 H   0  0  0  0  0  0  0  0  0  0  0  0
  152.1259  142.3505  155.4871 H   0  0  0  0  0  0  0  0  0  0  0  0
  149.2194  140.3679  156.5860 H   0  0  0  0  0  0  0  0  0  0  0  0
  148.8096  141.2454  155.1231 H   0  0  0  0  0  0  0  0  0  0  0  0
  147.9484  138.9273  154.9987 H   0  0  0  0  0  0  0  0  0  0  0  0
  149.1199  139.2346  153.7385 H   0  0  0  0  0  0  0  0  0  0  0  0
  149.6393  137.7663  156.3734 H   0  0  0  0  0  0  0  0  0  0  0  0
  149.3546  136.8502  153.5758 H   0  0  0  0  0  0  0  0  0  0  0  0
  149.0216  134.9592  153.1980 H   0  0  0  0  0  0  0  0  0  0  0  0
  150.6847  132.8521  155.8025 H   0  0  0  0  0  0  0  0  0  0  0  0
  150.4373  130.3899  155.7808 H   0  0  0  0  0  0  0  0  0  0  0  0
  148.1345  127.3361  153.2481 H   0  0  0  0  0  0  0  0  0  0  0  0
  148.6054  128.6207  152.1408 H   0  0  0  0  0  0  0  0  0  0  0  0
  147.1017  128.7516  153.0812 H   0  0  0  0  0  0  0  0  0  0  0  0
  147.7780  133.0110  152.5921 H   0  0  0  0  0  0  0  0  0  0  0  0
  151.9572  137.5149  155.6205 H   0  0  0  0  0  0  0  0  0  0  0  0
  151.6187  138.3581  154.1272 H   0  0  0  0  0  0  0  0  0  0  0  0
  152.7114  139.8594  155.7309 H   0  0  0  0  0  0  0  0  0  0  0  0
  151.4710  139.5760  156.9362 H   0  0  0  0  0  0  0  0  0  0  0  0
  1  2  3  0  0  0  0
  1 23  1  0  0  0  0
  2  3  1  0  0  0  0
  3  4  1  0  0  0  0
  3 24  1  0  0  0  0
  3 25  1  0  0  0  0
  4  5  1  0  0  0  0
  4 26  1  0  0  0  0
  4 27  1  0  0  0  0
  5 22  1  0  0  0  0
  5  6  1  0  0  0  0
  6  7  1  0  0  0  0
  6 28  1  0  0  0  0
  6 29  1  0  0  0  0
  7  8  1  0  0  0  0
  7 30  1  0  0  0  0
  7 31  1  0  0  0  0
  8  9  1  0  0  0  0
  8 21  1  0  0  0  0
  8 32  1  0  0  0  0
  9 10  1  0  0  0  0
  9 33  1  0  0  0  0
 10 11  2  0  0  0  0
 10 12  1  0  0  0  0
 12 13  1  0  0  0  0
 12 34  1  0  0  0  0
 13 20  1  0  0  0  0
 13 14  2  0  0  0  0
 14 15  1  0  0  0  0
 14 35  1  0  0  0  0
 15 16  2  0  0  0  0
 15 36  1  0  0  0  0
 16 17  1  0  0  0  0
 16 19  1  0  0  0  0
 17 18  1  0  0  0  0
 18 37  1  0  0  0  0
 18 38  1  0  0  0  0
 18 39  1  0  0  0  0
 19 20  2  0  0  0  0
 20 40  1  0  0  0  0
 21 22  1  0  0  0  0
 21 41  1  0  0  0  0
 21 42  1  0  0  0  0
 22 43  1  0  0  0  0
 22 44  1  0  0  0  0
M  END
> <s_m_source_file>
AV-unprocessed.smi

> <i_m_source_file_index>
757

> <i_lp_mmshare_version>
43012

> <i_f3d_flags>
0

> <s_epik_input>
W0NIXSNDW0NIMl1bQ0gyXU4xW0NIMl1bQ0gyXVtDSF0oW0NIMl1bQ0gyXTEpW05IXUMoPU8pW05IXWMyW2NIXVtjSF1jKE9bQ0gzXSluW2NIXTI=

> <s_epik_cmdline>
J2VwaWtfcHl0aG9uJywgJy1waCcsICc3LjAnLCAnLXRuJywgJzgnLCAnLW1hJywgJzIwMCcsICctbWV0YWxfYmluZGluZycsICctaW1hZScsICc8aW5maWxlLm1hZT4nLCAnLW9tYWUnLCAnPG91dGZpbGUubWFlPic=

> <r_lp_tautomer_probability>
1

> <r_epik_Ionization_Penalty>
1.61445

> <r_epik_Ionization_Penalty_Charging>
0

> <r_epik_Ionization_Penalty_Neutral>
1.61445

> <r_epik_State_Penalty>
1.71357

> <r_epik_Charging_Adjusted_Penalty>
1.71357

> <i_epik_Tot_Q>
0

> <i_epik_Tot_abs_Q>
0

> <r_epik_Metal_State_Penalty>
1.71356

> <b_epik_Metal_Only>
0

> <s_lp_Force_Field>
OPLS_2005

> <r_lp_Energy>
17.5598

> <b_lp_Chiralities_Consistent>
1

> <s_lp_Variant>
AV-unprocessed.smi:757-3

> <Gold.Version>
5.8.1

> <Gold.Id.Protein>
6NUR|6NUR_protein|mol2

> <Gold.PLP.Fitness>
44.5149

> <Gold.PLP.PLP>
-38.0817

> <Gold.PLP.part.hbond>
-3.0000

> <Gold.PLP.part.metal>
0.0000

> <Gold.PLP.part.buried>
-5.1991

> <Gold.PLP.part.nonpolar>
-29.9153

> <Gold.PLP.part.repulsive>
1.0778

> <Gold.PLP.ligand.clash>
0.0000

> <Gold.PLP.ligand.torsion>
0.7271

> <Gold.PLP.Chemscore.Hbond>
2.6276

> <Gold.PLP.Chemscore.CHOScore>
0.0000

> <Gold.PLP.Chemscore.Metal>
0.0000

> <Gold.Chemscore.Hbonds>
donor molecule, donor type, donor heavy atom, donor atom, acceptor molecule, acceptor atom, score
      L1  H     9    33       P1  7948  1.00
      L1  H    12    34       P1  7948  0.85
      P1  H  7989  7998       L1     5  0.86

> <Gold.PLP.Chemscore.Internal.Correction>
0.0045

> <Gold.Rescore>
     Score         DG    S(hbond)    S(metal)    S(lipo)     H(rot)  DE(clash)    DE(int)     intcor
     16.81     -18.18       1.76        0.00      92.38       1.55       0.04       1.32       ----

> <Gold.Chemscore.Fitness>
16.8136

> <Gold.Chemscore.DG>
-18.1792

> <Gold.Chemscore.ZeroCoef>
-5.4800

> <Gold.Chemscore.Hbond>
1.7554

> <Gold.Chemscore.Metal>
0.0000

> <Gold.Chemscore.Lipo>
92.3824

> <Gold.Chemscore.Internal_Hbond>
0.0000

> <Gold.Chemscore.DEClash>
0.0416

> <Gold.Chemscore.DEInternal>
1.3240

> <Gold.Chemscore.Rot>
1.5517

> <Gold.Chemscore.Internal.Correction>
   9.000000E+99

> <Gold.Chemscore.Hbonds>
donor molecule, donor type, donor heavy atom, donor atom, acceptor molecule, acceptor atom, score
      L1  H     9    33       P1  7948  0.92
      L1  H    12    34       P1  7948  0.14
      P1  H  7989  7998       L1     5  0.09

> <Gold.Chemscore.Hbond.Weighted>
-5.8629

> <Gold.Chemscore.Metal.Weighted>
-0.0000

> <Gold.Chemscore.Lipo.Weighted>
-10.8087

> <Gold.Chemscore.Internal_Hbond.Weighted>
0.0000

> <Gold.Chemscore.DEClash.Weighted>
0.0416

> <Gold.Chemscore.DEInternal.Weighted>
1.3240

> <Gold.Chemscore.Rot.Weighted>
3.9725

> <Gold.Chemscore.Internal.Correction.Weighted>
   9.000000E+99

> <Gold.Protein.RotatedTorsions>
[ 6907 6896 6895 6894 ] final  -40.88 input  -60.11 | X-H torsion
[ 7974 7965 7964 7962 ] final  106.87 input  175.53 | X-H torsion
[ 8008 7997 7996 7995 ] final  -84.79 input   59.86 | X-H torsion
[ 10167 10162 10161 10158 ] final  112.79 input  -65.29 | X-H torsion
[ 10718 10713 10712 10709 ] final -162.41 input   66.30 | X-H torsion
[ 10763 10752 10751 10750 ] final  -60.39 input  -60.55 | X-H torsion
[ 11005 11000 10999 10996 ] final  -30.28 input  -57.11 | X-H torsion

> <Gold.Protein.ActiveResidues>
 VAL166  LYS551  ARG553  GLY616  TRP617  ASP618  TYR619  PRO620  LYS621  CYS622 
 ASP623  PHE694  ASN695  SER759  ASP760  ASP761  ALA762  ILE779  LEU786  VAL792 
 PHE793  MET794  SER795  GLU796  ALA797  LYS798  CYS799  TRP800  GLU811  SER814 

> <Gold.Protein.RotatedAtoms>
  150.9732  134.9101  159.7800 H   0  0  0  0  0  0  0  0  0  0  0  0  # atno 6907 bound_to 6896
  152.5197  134.3511  159.9261 H   0  0  0  0  0  0  0  0  0  0  0  0  # atno 6908 bound_to 6896
  151.3520  133.3881  159.2716 H   0  0  0  0  0  0  0  0  0  0  0  0  # atno 6909 bound_to 6896
  145.3009  139.2570  143.3814 H   0  0  0  0  0  0  0  0  0  0  0  0  # atno 7974 bound_to 7965
  154.6336  140.0600  156.9762 H   0  0  0  0  0  0  0  0  0  0  0  0  # atno 8008 bound_to 7997
  155.1627  140.3284  155.4390 H   0  0  0  0  0  0  0  0  0  0  0  0  # atno 8009 bound_to 7997
  156.2495  140.1928  156.6733 H   0  0  0  0  0  0  0  0  0  0  0  0  # atno 8010 bound_to 7997
  139.6509  144.7128  151.2050 H   0  0  0  0  0  0  0  0  0  0  0  0  # atno 10167 bound_to 10162
  156.6100  130.8846  151.2934 H   0  0  0  0  0  0  0  0  0  0  0  0  # atno 10718 bound_to 10713
  154.2684  135.6295  153.5301 H   0  0  0  0  0  0  0  0  0  0  0  0  # atno 10763 bound_to 10752
  152.9884  135.5604  154.5627 H   0  0  0  0  0  0  0  0  0  0  0  0  # atno 10764 bound_to 10752
  154.5192  135.2881  155.1252 H   0  0  0  0  0  0  0  0  0  0  0  0  # atno 10765 bound_to 10752
  140.9369  133.7303  156.1018 H   0  0  0  0  0  0  0  0  0  0  0  0  # atno 11005 bound_to 11000
  146.3152  140.3523  142.8657 LP  0  0  0  0  0  0  0  0  0  0  0  0  # atno 17320 bound_to 7965
  144.9094  140.7739  143.5817 LP  0  0  0  0  0  0  0  0  0  0  0  0  # atno 17321 bound_to 7965
  140.7537  143.6152  150.8567 LP  0  0  0  0  0  0  0  0  0  0  0  0  # atno 17342 bound_to 10162
  139.9800  143.5962  152.2946 LP  0  0  0  0  0  0  0  0  0  0  0  0  # atno 17343 bound_to 10162
  157.7257  130.9619  150.1624 LP  0  0  0  0  0  0  0  0  0  0  0  0  # atno 17370 bound_to 10713
  156.2398  130.3690  149.8350 LP  0  0  0  0  0  0  0  0  0  0  0  0  # atno 17371 bound_to 10713
  140.7787  134.3750  157.5492 LP  0  0  0  0  0  0  0  0  0  0  0  0  # atno 17394 bound_to 11000
  139.8810  134.9068  156.2930 LP  0  0  0  0  0  0  0  0  0  0  0  0  # atno 17395 bound_to 11000

$$$$
