AV-unprocessed.smi:218|AV-procd|sdf|1664|dock7
  -GOLD-   2262020 63D 1   1.00000     0.00000
 Structure written by MMmdl.
 54 57  0  0  0  0  0  0  0  0  1 V2000
  152.5971  144.4542  158.2661 C   0  0  0  0  0  0  0  0  0  0  0  0
  152.0514  143.4380  159.2766 C   0  0  0  0  0  0  0  0  0  0  0  0
  152.2630  143.9221  160.7215 C   0  0  0  0  0  0  0  0  0  0  0  0
  152.7548  142.2143  159.0543 O   0  0  0  0  0  0  0  0  0  0  0  0
  152.2995  141.3127  158.1114 C   0  0  0  0  0  0  0  0  0  0  0  0
  151.2770  141.7256  157.2334 C   0  0  0  0  0  0  0  0  0  0  0  0
  150.7901  140.8130  156.2732 C   0  0  0  0  0  0  0  0  0  0  0  0
  149.6802  141.2007  155.3080 C   0  0  0  0  0  0  0  0  0  0  0  0
  149.4837  140.2863  154.1870 N   0  0  0  0  0  0  0  0  0  0  0  0
  148.6878  139.2032  154.3275 C   0  0  0  0  0  0  0  0  0  0  0  0
  148.9078  138.2961  155.3147 N   0  0  0  0  0  0  0  0  0  0  0  0
  148.1025  137.2371  155.4395 C   0  0  0  0  0  0  0  0  0  0  0  0
  147.0452  136.9009  154.6972 N   0  0  0  0  0  0  0  0  0  0  0  0
  146.8243  137.8057  153.6997 C   0  0  0  0  0  0  0  0  0  0  0  0
  147.5977  138.9733  153.4494 C   0  0  0  0  0  0  0  0  0  0  0  0
  147.0802  139.6561  152.3564 N   0  0  0  0  0  0  0  0  0  0  0  0
  146.0578  138.9317  151.9875 C   0  0  0  0  0  0  0  0  0  0  0  0
  145.8329  137.7999  152.7397 N   0  0  0  0  0  0  0  0  0  0  0  0
  144.7448  136.7914  152.5667 C   0  0  2  0  0  0  0  0  0  0  0  0
  143.9556  136.8103  153.7189 O   0  0  0  0  0  0  0  0  0  0  0  0
  143.5899  135.4851  154.0852 C   0  0  1  0  0  0  0  0  0  0  0  0
  142.2557  135.1362  153.3909 C   0  0  0  0  0  0  0  0  0  0  0  0
  141.4835  134.2701  154.1959 O   0  0  0  0  0  0  0  0  0  0  0  0
  144.8186  134.6686  153.6589 C   0  0  1  0  0  0  0  0  0  0  0  0
  144.5852  133.2810  153.4985 O   0  0  0  0  0  0  0  0  0  0  0  0
  145.3225  135.3740  152.4001 C   0  0  1  0  0  0  0  0  0  0  0  0
  144.8452  134.7647  151.2140 O   0  0  0  0  0  0  0  0  0  0  0  0
  151.3584  139.5248  156.2222 C   0  0  0  0  0  0  0  0  0  0  0  0
  152.3765  139.2036  157.1405 C   0  0  0  0  0  0  0  0  0  0  0  0
  152.8397  140.0694  158.0665 N   0  0  0  0  0  0  0  0  0  0  0  0
  144.1751  137.1379  151.7030 H   0  0  0  0  0  0  0  0  0  0  0  0
  143.4542  135.4499  155.1671 H   0  0  0  0  0  0  0  0  0  0  0  0
  145.5763  134.7772  154.4353 H   0  0  0  0  0  0  0  0  0  0  0  0
  146.4128  135.3946  152.3647 H   0  0  0  0  0  0  0  0  0  0  0  0
  152.0953  145.4170  158.3656 H   0  0  0  0  0  0  0  0  0  0  0  0
  152.4462  144.1062  157.2439 H   0  0  0  0  0  0  0  0  0  0  0  0
  153.6658  144.6174  158.4075 H   0  0  0  0  0  0  0  0  0  0  0  0
  150.9858  143.3218  159.0736 H   0  0  0  0  0  0  0  0  0  0  0  0
  151.7659  144.8778  160.8892 H   0  0  0  0  0  0  0  0  0  0  0  0
  153.3228  144.0558  160.9397 H   0  0  0  0  0  0  0  0  0  0  0  0
  151.8636  143.2156  161.4484 H   0  0  0  0  0  0  0  0  0  0  0  0
  150.8723  142.7245  157.3043 H   0  0  0  0  0  0  0  0  0  0  0  0
  148.7470  141.2510  155.8691 H   0  0  0  0  0  0  0  0  0  0  0  0
  149.8599  142.2056  154.9238 H   0  0  0  0  0  0  0  0  0  0  0  0
  149.7595  140.6422  153.2832 H   0  0  0  0  0  0  0  0  0  0  0  0
  148.3378  136.5642  156.2509 H   0  0  0  0  0  0  0  0  0  0  0  0
  145.4347  139.2061  151.1487 H   0  0  0  0  0  0  0  0  0  0  0  0
  141.6722  136.0449  153.2394 H   0  0  0  0  0  0  0  0  0  0  0  0
  142.4091  134.6913  152.4081 H   0  0  0  0  0  0  0  0  0  0  0  0
  141.9916  133.4934  154.3754 H   0  0  0  0  0  0  0  0  0  0  0  0
  143.8317  133.0418  154.0167 H   0  0  0  0  0  0  0  0  0  0  0  0
  144.2022  135.3354  150.8221 H   0  0  0  0  0  0  0  0  0  0  0  0
  151.0197  138.7952  155.5011 H   0  0  0  0  0  0  0  0  0  0  0  0
  152.8320  138.2244  157.1305 H   0  0  0  0  0  0  0  0  0  0  0  0
  1  2  1  0  0  0  0
  1 35  1  0  0  0  0
  1 36  1  0  0  0  0
  1 37  1  0  0  0  0
  2  3  1  0  0  0  0
  2  4  1  0  0  0  0
  2 38  1  0  0  0  0
  3 39  1  0  0  0  0
  3 40  1  0  0  0  0
  3 41  1  0  0  0  0
  4  5  1  0  0  0  0
  5 30  1  0  0  0  0
  5  6  2  0  0  0  0
  6  7  1  0  0  0  0
  6 42  1  0  0  0  0
  7  8  1  0  0  0  0
  7 28  2  0  0  0  0
  8  9  1  0  0  0  0
  8 43  1  0  0  0  0
  8 44  1  0  0  0  0
  9 10  1  0  0  0  0
  9 45  1  0  0  0  0
 10 15  1  0  0  0  0
 10 11  2  0  0  0  0
 11 12  1  0  0  0  0
 12 13  2  0  0  0  0
 12 46  1  0  0  0  0
 13 14  1  0  0  0  0
 14 18  1  0  0  0  0
 14 15  2  0  0  0  0
 15 16  1  0  0  0  0
 16 17  2  0  0  0  0
 17 18  1  0  0  0  0
 17 47  1  0  0  0  0
 18 19  1  0  0  0  0
 19 31  1  0  0  0  0
 19 26  1  0  0  0  0
 19 20  1  0  0  0  0
 20 21  1  0  0  0  0
 21 32  1  0  0  0  0
 21 22  1  0  0  0  0
 21 24  1  0  0  0  0
 22 23  1  0  0  0  0
 22 48  1  0  0  0  0
 22 49  1  0  0  0  0
 23 50  1  0  0  0  0
 24 33  1  0  0  0  0
 24 25  1  0  0  0  0
 24 26  1  0  0  0  0
 25 51  1  0  0  0  0
 26 34  1  0  0  0  0
 26 27  1  0  0  0  0
 27 52  1  0  0  0  0
 28 29  1  0  0  0  0
 28 53  1  0  0  0  0
 29 30  2  0  0  0  0
 29 54  1  0  0  0  0
M  END
> <s_m_source_file>
AV-unprocessed.smi

> <i_m_source_file_index>
218

> <i_lp_mmshare_version>
43012

> <i_f3d_flags>
0

> <s_epik_input>
W0NIM11bQ0hdKFtDSDNdKU9jMVtjSF1jKFtjSF1bY0hdbjEpW0NIMl1bTkhdYyhuW2NIXW4yKWMoYzIzKW5bY0hdbjNbQ0BASF00T1tDQEhdKFtDSDJdW09IXSlbQ0BASF0oW09IXSlbQ0BIXTRbT0hd

> <s_epik_cmdline>
J2VwaWtfcHl0aG9uJywgJy1waCcsICc3LjAnLCAnLXRuJywgJzgnLCAnLW1hJywgJzIwMCcsICctbWV0YWxfYmluZGluZycsICctaW1hZScsICc8aW5maWxlLm1hZT4nLCAnLW9tYWUnLCAnPG91dGZpbGUubWFlPic=

> <r_lp_tautomer_probability>
1

> <r_epik_Ionization_Penalty>
0.00457014

> <r_epik_Ionization_Penalty_Charging>
0

> <r_epik_Ionization_Penalty_Neutral>
0.00457014

> <r_epik_State_Penalty>
-0

> <r_epik_Charging_Adjusted_Penalty>
0

> <i_epik_Tot_Q>
0

> <i_epik_Tot_abs_Q>
0

> <r_epik_Metal_State_Penalty>
-0

> <b_epik_Metal_Only>
0

> <s_epik_Chemistry_Notes>
This compound contains an acetal/aminal-like group ( X-CH(R)-Y where X, Y are N, S, or O) that may be acid/base labile, releasing an aldehyde.

> <s_lp_Force_Field>
OPLS_2005

> <r_lp_Energy>
44.1408

> <b_lp_Chiralities_Consistent>
1

> <s_lp_Variant>
AV-unprocessed.smi:218-3

> <Gold.Version>
5.8.1

> <Gold.Id.Protein>
6NUR|6NUR_protein|mol2

> <Gold.PLP.Fitness>
54.3670

> <Gold.PLP.PLP>
-41.8326

> <Gold.PLP.part.hbond>
-5.2357

> <Gold.PLP.part.metal>
0.0000

> <Gold.PLP.part.buried>
-2.0572

> <Gold.PLP.part.nonpolar>
-37.4048

> <Gold.PLP.part.repulsive>
2.7525

> <Gold.PLP.ligand.clash>
0.0000

> <Gold.PLP.ligand.torsion>
1.7603

> <Gold.PLP.Chemscore.Hbond>
4.0859

> <Gold.PLP.Chemscore.CHOScore>
1.2301

> <Gold.PLP.Chemscore.Metal>
0.0000

> <Gold.Chemscore.Hbonds>
donor molecule, donor type, donor heavy atom, donor atom, acceptor molecule, acceptor atom, score
      L1  H     9    45       P1  7957  0.42
      L1  H    23    50       P1 10957  1.00
      L1  H    25    51       P1 10957  1.00
      P1  H  7997  8010       L1    30  0.35
      P1  H 11000 11005       L1    23  0.84
      L1  C    17    47       P1 10171  1.00
      L1  C    17    47       P1 10175  0.36

> <Gold.PLP.Chemscore.Internal.Correction>
0.1071

> <Gold.Rescore>
     Score         DG    S(hbond)    S(metal)    S(lipo)     H(rot)  DE(clash)    DE(int)     intcor
      9.15     -14.35       3.18        0.00      92.26       4.90       2.22       2.98       ----

> <Gold.Chemscore.Fitness>
9.1479

> <Gold.Chemscore.DG>
-14.3508

> <Gold.Chemscore.ZeroCoef>
-5.4800

> <Gold.Chemscore.Hbond>
3.1819

> <Gold.Chemscore.Metal>
0.0000

> <Gold.Chemscore.Lipo>
92.2627

> <Gold.Chemscore.Internal_Hbond>
0.0000

> <Gold.Chemscore.DEClash>
2.2208

> <Gold.Chemscore.DEInternal>
2.9821

> <Gold.Chemscore.Rot>
4.9029

> <Gold.Chemscore.Internal.Correction>
   9.000000E+99

> <Gold.Chemscore.Hbonds>
donor molecule, donor type, donor heavy atom, donor atom, acceptor molecule, acceptor atom, score
      L1  H     9    45       P1  7957  0.44
      L1  H    23    50       P1 10957  1.00
      L1  H    25    51       P1 10957  0.95
      P1  H 11000 11005       L1    23  0.16

> <Gold.Chemscore.Hbond.Weighted>
-10.6276

> <Gold.Chemscore.Metal.Weighted>
-0.0000

> <Gold.Chemscore.Lipo.Weighted>
-10.7947

> <Gold.Chemscore.Internal_Hbond.Weighted>
0.0000

> <Gold.Chemscore.DEClash.Weighted>
2.2208

> <Gold.Chemscore.DEInternal.Weighted>
2.9821

> <Gold.Chemscore.Rot.Weighted>
12.5515

> <Gold.Chemscore.Internal.Correction.Weighted>
   9.000000E+99

> <Gold.Protein.RotatedTorsions>
[ 6907 6896 6895 6894 ] final   91.43 input  -60.11 | X-H torsion
[ 7974 7965 7964 7962 ] final  167.71 input  175.53 | X-H torsion
[ 8008 7997 7996 7995 ] final   33.47 input   59.86 | X-H torsion
[ 10167 10162 10161 10158 ] final -126.92 input  -65.29 | X-H torsion
[ 10718 10713 10712 10709 ] final  159.81 input   66.30 | X-H torsion
[ 10763 10752 10751 10750 ] final  -76.85 input  -60.55 | X-H torsion
[ 11005 11000 10999 10996 ] final   25.14 input  -57.11 | X-H torsion

> <Gold.Protein.ActiveResidues>
 VAL166  LYS551  ARG553  GLY616  TRP617  ASP618  TYR619  PRO620  LYS621  CYS622 
 ASP623  PHE694  ASN695  SER759  ASP760  ASP761  ALA762  ILE779  LEU786  VAL792 
 PHE793  MET794  SER795  GLU796  ALA797  LYS798  CYS799  TRP800  GLU811  SER814 

> <Gold.Protein.RotatedAtoms>
  152.5450  134.1658  159.8576 H   0  0  0  0  0  0  0  0  0  0  0  0  # atno 6907 bound_to 6896
  151.1673  133.4800  159.2601 H   0  0  0  0  0  0  0  0  0  0  0  0  # atno 6908 bound_to 6896
  151.1311  135.0142  159.8638 H   0  0  0  0  0  0  0  0  0  0  0  0  # atno 6909 bound_to 6896
  144.7414  139.8801  143.6395 H   0  0  0  0  0  0  0  0  0  0  0  0  # atno 7974 bound_to 7965
  155.1392  140.3264  155.4456 H   0  0  0  0  0  0  0  0  0  0  0  0  # atno 8008 bound_to 7997
  156.2610  140.1997  156.6457 H   0  0  0  0  0  0  0  0  0  0  0  0  # atno 8009 bound_to 7997
  154.6555  140.0553  156.9990 H   0  0  0  0  0  0  0  0  0  0  0  0  # atno 8010 bound_to 7997
  139.9663  143.5894  152.2428 H   0  0  0  0  0  0  0  0  0  0  0  0  # atno 10167 bound_to 10162
  157.1591  131.0583  151.2241 H   0  0  0  0  0  0  0  0  0  0  0  0  # atno 10718 bound_to 10713
  154.5052  135.5784  153.6562 H   0  0  0  0  0  0  0  0  0  0  0  0  # atno 10763 bound_to 10752
  152.9886  135.6145  154.2950 H   0  0  0  0  0  0  0  0  0  0  0  0  # atno 10764 bound_to 10752
  154.2861  135.2850  155.2655 H   0  0  0  0  0  0  0  0  0  0  0  0  # atno 10765 bound_to 10752
  140.3510  134.2229  155.7680 H   0  0  0  0  0  0  0  0  0  0  0  0  # atno 11005 bound_to 11000
  146.1218  139.4237  143.0224 LP  0  0  0  0  0  0  0  0  0  0  0  0  # atno 17320 bound_to 7965
  145.7294  141.0047  143.1360 LP  0  0  0  0  0  0  0  0  0  0  0  0  # atno 17321 bound_to 7965
  139.6515  144.7661  151.2139 LP  0  0  0  0  0  0  0  0  0  0  0  0  # atno 17342 bound_to 10162
  140.7537  143.6153  150.8565 LP  0  0  0  0  0  0  0  0  0  0  0  0  # atno 17343 bound_to 10162
  157.4149  130.7405  149.6868 LP  0  0  0  0  0  0  0  0  0  0  0  0  # atno 17370 bound_to 10713
  155.9757  130.4085  150.3832 LP  0  0  0  0  0  0  0  0  0  0  0  0  # atno 17371 bound_to 10713
  141.2012  133.7969  157.0452 LP  0  0  0  0  0  0  0  0  0  0  0  0  # atno 17394 bound_to 11000
  140.0703  134.9706  157.1456 LP  0  0  0  0  0  0  0  0  0  0  0  0  # atno 17395 bound_to 11000

$$$$
