AV-unprocessed.smi:2104|AV-procd|sdf|8588|dock9
  -GOLD-   2272011323D 1   1.00000     0.00000
 Structure written by MMmdl.
 42 43  0  0  0  0  0  0  0  0  2 V2000
  150.6245  134.8886  155.4148 C   0  0  0  0  0  0  0  0  0  0  0  0
  151.4207  136.0905  155.7925 C   0  0  0  0  0  0  0  0  0  0  0  0
  151.1902  137.4312  155.6717 C   0  0  0  0  0  0  0  0  0  0  0  0
  152.3610  138.0134  156.2300 C   0  0  0  0  0  0  0  0  0  0  0  0
  152.6041  139.3271  156.3530 N   0  5  0  0  0  0  0  0  0  0  0  0
  151.6565  140.2297  156.0101 C   0  0  0  0  0  0  0  0  0  0  0  0
  150.8451  140.1234  155.0876 O   0  0  0  0  0  0  0  0  0  0  0  0
  151.6389  141.3161  156.7953 N   0  0  0  0  0  0  0  0  0  0  0  0
  150.6800  142.4147  156.7238 C   0  0  0  0  0  0  0  0  0  0  0  0
  150.3061  142.9290  158.1223 C   0  0  0  0  0  0  0  0  0  0  0  0
  151.2124  142.3783  159.0673 O   0  0  0  0  0  0  0  0  0  0  0  0
  152.4622  143.0517  159.1562 C   0  0  1  0  0  0  0  0  0  0  0  0
  152.2389  144.5463  159.4814 C   0  0  0  0  0  0  0  0  0  0  0  0
  151.5974  144.7381  160.8653 C   0  0  0  0  0  0  0  0  0  0  0  0
  152.4295  144.0579  161.9624 C   0  0  0  0  0  0  0  0  0  0  0  0
  152.6598  142.5708  161.6488 C   0  0  0  0  0  0  0  0  0  0  0  0
  153.3051  142.3765  160.2613 C   0  0  1  0  0  0  0  0  0  0  0  0
  153.5737  140.8941  159.9578 C   0  0  0  0  0  0  0  0  0  0  0  0
  153.2186  137.1064  156.6665 N   0  0  0  0  0  0  0  0  0  0  0  0
  152.6253  135.8699  156.3846 O   0  0  0  0  0  0  0  0  0  0  0  0
  150.1619  135.0233  154.4370 H   0  0  0  0  0  0  0  0  0  0  0  0
  149.8334  134.7077  156.1422 H   0  0  0  0  0  0  0  0  0  0  0  0
  151.2533  133.9990  155.3705 H   0  0  0  0  0  0  0  0  0  0  0  0
  150.3258  137.9201  155.2486 H   0  0  0  0  0  0  0  0  0  0  0  0
  152.3228  141.3591  157.5364 H   0  0  0  0  0  0  0  0  0  0  0  0
  151.1268  143.2198  156.1403 H   0  0  0  0  0  0  0  0  0  0  0  0
  149.7875  142.0941  156.1844 H   0  0  0  0  0  0  0  0  0  0  0  0
  150.3675  144.0171  158.1573 H   0  0  0  0  0  0  0  0  0  0  0  0
  149.2735  142.6656  158.3495 H   0  0  0  0  0  0  0  0  0  0  0  0
  152.9949  142.9584  158.2078 H   0  0  0  0  0  0  0  0  0  0  0  0
  153.1980  145.0645  159.4578 H   0  0  0  0  0  0  0  0  0  0  0  0
  151.6225  145.0277  158.7230 H   0  0  0  0  0  0  0  0  0  0  0  0
  151.4929  145.8012  161.0823 H   0  0  0  0  0  0  0  0  0  0  0  0
  150.5876  144.3259  160.8623 H   0  0  0  0  0  0  0  0  0  0  0  0
  153.3906  144.5642  162.0576 H   0  0  0  0  0  0  0  0  0  0  0  0
  151.9287  144.1615  162.9254 H   0  0  0  0  0  0  0  0  0  0  0  0
  153.2938  142.1314  162.4195 H   0  0  0  0  0  0  0  0  0  0  0  0
  151.7089  142.0382  161.6933 H   0  0  0  0  0  0  0  0  0  0  0  0
  154.2752  142.8755  160.2805 H   0  0  0  0  0  0  0  0  0  0  0  0
  152.6492  140.3159  159.9432 H   0  0  0  0  0  0  0  0  0  0  0  0
  154.2278  140.4531  160.7103 H   0  0  0  0  0  0  0  0  0  0  0  0
  154.0574  140.7735  158.9883 H   0  0  0  0  0  0  0  0  0  0  0  0
  1  2  1  0  0  0  0
  1 21  1  0  0  0  0
  1 22  1  0  0  0  0
  1 23  1  0  0  0  0
  2 20  1  0  0  0  0
  2  3  2  0  0  0  0
  3  4  1  0  0  0  0
  3 24  1  0  0  0  0
  4  5  1  0  0  0  0
  4 19  2  0  0  0  0
  5  6  1  0  0  0  0
  6  7  2  0  0  0  0
  6  8  1  0  0  0  0
  8  9  1  0  0  0  0
  8 25  1  0  0  0  0
  9 10  1  0  0  0  0
  9 26  1  0  0  0  0
  9 27  1  0  0  0  0
 10 11  1  0  0  0  0
 10 28  1  0  0  0  0
 10 29  1  0  0  0  0
 11 12  1  0  0  0  0
 12 17  1  0  0  0  0
 12 13  1  0  0  0  0
 12 30  1  0  0  0  0
 13 14  1  0  0  0  0
 13 31  1  0  0  0  0
 13 32  1  0  0  0  0
 14 15  1  0  0  0  0
 14 33  1  0  0  0  0
 14 34  1  0  0  0  0
 15 16  1  0  0  0  0
 15 35  1  0  0  0  0
 15 36  1  0  0  0  0
 16 17  1  0  0  0  0
 16 37  1  0  0  0  0
 16 38  1  0  0  0  0
 17 18  1  0  0  0  0
 17 39  1  0  0  0  0
 18 40  1  0  0  0  0
 18 41  1  0  0  0  0
 18 42  1  0  0  0  0
 19 20  1  0  0  0  0
M  CHG  1   5  -1
M  END
> <s_m_source_file>
AV-unprocessed.smi

> <i_m_source_file_index>
2104

> <i_lp_mmshare_version>
43012

> <i_f3d_flags>
0

> <s_epik_input>
W0NIM11jMVtjSF1jKG5vMSlbTkhdQyg9TylbTkhdW0NIMl1bQ0gyXU9bQ0BASF0yW0NIMl1bQ0gyXVtDSDJdW0NIMl1bQ0BIXTJbQ0gzXQ==

> <s_epik_cmdline>
J2VwaWtfcHl0aG9uJywgJy1waCcsICc3LjAnLCAnLXRuJywgJzgnLCAnLW1hJywgJzIwMCcsICctbWV0YWxfYmluZGluZycsICctaW1hZScsICc8aW5maWxlLm1hZT4nLCAnLW9tYWUnLCAnPG91dGZpbGUubWFlPic=

> <r_lp_tautomer_probability>
1

> <r_epik_Ionization_Penalty>
6.47137

> <r_epik_Ionization_Penalty_Charging>
6.47125

> <r_epik_Ionization_Penalty_Neutral>
0.000118933

> <r_epik_State_Penalty>
6.47124

> <r_epik_Charging_Adjusted_Penalty>
12.9425

> <i_epik_Tot_Q>
-1

> <i_epik_Tot_abs_Q>
1

> <r_epik_Metal_State_Penalty>
2.3995

> <b_epik_Metal_Only>
1

> <s_lp_Force_Field>
OPLS_2005

> <r_lp_Energy>
3.93088

> <b_lp_Chiralities_Consistent>
1

> <s_lp_Variant>
AV-unprocessed.smi:2104-6

> <Gold.Version>
5.8.1

> <Gold.Id.Protein>
6NUR|6NUR_protein|mol2

> <Gold.PLP.Fitness>
50.9729

> <Gold.PLP.PLP>
-40.9186

> <Gold.PLP.part.hbond>
-3.9305

> <Gold.PLP.part.metal>
0.0000

> <Gold.PLP.part.buried>
-1.5557

> <Gold.PLP.part.nonpolar>
-35.0491

> <Gold.PLP.part.repulsive>
0.1877

> <Gold.PLP.ligand.clash>
0.0000

> <Gold.PLP.ligand.torsion>
0.8590

> <Gold.PLP.Chemscore.Hbond>
3.9000

> <Gold.PLP.Chemscore.CHOScore>
0.0000

> <Gold.PLP.Chemscore.Metal>
0.0000

> <Gold.Chemscore.Hbonds>
donor molecule, donor type, donor heavy atom, donor atom, acceptor molecule, acceptor atom, score
      P1  H  7989  7998       L1     7  1.00
      P1  H  7997  8008       L1     5  2.00
      P1  H 10752 10764       L1    20  0.66

> <Gold.PLP.Chemscore.Internal.Correction>
0.0722

> <Gold.Rescore>
     Score         DG    S(hbond)    S(metal)    S(lipo)     H(rot)  DE(clash)    DE(int)     intcor
     16.96     -19.80       1.65        0.00     112.67       1.71       0.54       2.30       ----

> <Gold.Chemscore.Fitness>
16.9587

> <Gold.Chemscore.DG>
-19.8002

> <Gold.Chemscore.ZeroCoef>
-5.4800

> <Gold.Chemscore.Hbond>
1.6517

> <Gold.Chemscore.Metal>
0.0000

> <Gold.Chemscore.Lipo>
112.6654

> <Gold.Chemscore.Internal_Hbond>
0.0000

> <Gold.Chemscore.DEClash>
0.5386

> <Gold.Chemscore.DEInternal>
2.3029

> <Gold.Chemscore.Rot>
1.7103

> <Gold.Chemscore.Internal.Correction>
   9.000000E+99

> <Gold.Chemscore.Hbonds>
donor molecule, donor type, donor heavy atom, donor atom, acceptor molecule, acceptor atom, score
      P1  H  7989  7998       L1     7  0.65
      P1  H  7997  8008       L1     5  0.74
      P1  H 10752 10764       L1    20  0.05

> <Gold.Chemscore.Hbond.Weighted>
-5.5167

> <Gold.Chemscore.Metal.Weighted>
-0.0000

> <Gold.Chemscore.Lipo.Weighted>
-13.1819

> <Gold.Chemscore.Internal_Hbond.Weighted>
0.0000

> <Gold.Chemscore.DEClash.Weighted>
0.5386

> <Gold.Chemscore.DEInternal.Weighted>
2.3029

> <Gold.Chemscore.Rot.Weighted>
4.3784

> <Gold.Chemscore.Internal.Correction.Weighted>
   9.000000E+99

> <Gold.Protein.RotatedTorsions>
[ 6907 6896 6895 6894 ] final   60.20 input  -60.11 | X-H torsion
[ 7974 7965 7964 7962 ] final   75.86 input  175.53 | X-H torsion
[ 8008 7997 7996 7995 ] final  -35.58 input   59.86 | X-H torsion
[ 10167 10162 10161 10158 ] final  165.70 input  -65.29 | X-H torsion
[ 10718 10713 10712 10709 ] final  -57.53 input   66.30 | X-H torsion
[ 10763 10752 10751 10750 ] final  -14.91 input  -60.55 | X-H torsion
[ 11005 11000 10999 10996 ] final  -48.80 input  -57.11 | X-H torsion

> <Gold.Protein.ActiveResidues>
 VAL166  LYS551  ARG553  GLY616  TRP617  ASP618  TYR619  PRO620  LYS621  CYS622 
 ASP623  PHE694  ASN695  SER759  ASP760  ASP761  ALA762  ILE779  LEU786  VAL792 
 PHE793  MET794  SER795  GLU796  ALA797  LYS798  CYS799  TRP800  GLU811  SER814 

> <Gold.Protein.RotatedAtoms>
  152.3982  134.6330  160.0080 H   0  0  0  0  0  0  0  0  0  0  0  0  # atno 6907 bound_to 6896
  151.6543  133.3314  159.3167 H   0  0  0  0  0  0  0  0  0  0  0  0  # atno 6908 bound_to 6896
  150.7886  134.6935  159.6555 H   0  0  0  0  0  0  0  0  0  0  0  0  # atno 6909 bound_to 6896
  145.7102  139.2612  143.1655 H   0  0  0  0  0  0  0  0  0  0  0  0  # atno 7974 bound_to 7965
  154.4092  140.1653  156.2235 H   0  0  0  0  0  0  0  0  0  0  0  0  # atno 8008 bound_to 7997
  155.9344  140.3412  155.6252 H   0  0  0  0  0  0  0  0  0  0  0  0  # atno 8009 bound_to 7997
  155.7067  140.0751  157.2379 H   0  0  0  0  0  0  0  0  0  0  0  0  # atno 8010 bound_to 7997
  139.4910  144.4104  151.9305 H   0  0  0  0  0  0  0  0  0  0  0  0  # atno 10167 bound_to 10162
  156.1203  130.4167  150.0453 H   0  0  0  0  0  0  0  0  0  0  0  0  # atno 10718 bound_to 10713
  153.5353  135.7014  153.5663 H   0  0  0  0  0  0  0  0  0  0  0  0  # atno 10763 bound_to 10752
  153.3652  135.3959  155.1748 H   0  0  0  0  0  0  0  0  0  0  0  0  # atno 10764 bound_to 10752
  154.8680  135.3798  154.4853 H   0  0  0  0  0  0  0  0  0  0  0  0  # atno 10765 bound_to 10752
  141.0722  133.6676  156.3493 H   0  0  0  0  0  0  0  0  0  0  0  0  # atno 11005 bound_to 11000
  146.0719  140.7859  142.9684 LP  0  0  0  0  0  0  0  0  0  0  0  0  # atno 17320 bound_to 7965
  144.6944  140.3356  143.7208 LP  0  0  0  0  0  0  0  0  0  0  0  0  # atno 17321 bound_to 7965
  140.3546  144.3048  150.5943 LP  0  0  0  0  0  0  0  0  0  0  0  0  # atno 17342 bound_to 10162
  140.5456  143.2215  151.8013 LP  0  0  0  0  0  0  0  0  0  0  0  0  # atno 17343 bound_to 10162
  156.8393  130.9420  151.3633 LP  0  0  0  0  0  0  0  0  0  0  0  0  # atno 17370 bound_to 10713
  157.6387  130.8788  149.9407 LP  0  0  0  0  0  0  0  0  0  0  0  0  # atno 17371 bound_to 10713
  140.5650  134.5897  157.5443 LP  0  0  0  0  0  0  0  0  0  0  0  0  # atno 17394 bound_to 11000
  139.9535  134.7576  156.0395 LP  0  0  0  0  0  0  0  0  0  0  0  0  # atno 17395 bound_to 11000

$$$$
