AV-unprocessed.smi:3303|AV-procd|sdf|12687|dock7
  -GOLD-   2272019 23D 1   1.00000     0.00000
 Structure written by MMmdl.
 44 45  0  0  0  0  0  0  0  0  2 V2000
  147.0679  139.6125  153.0671 C   0  0  0  0  0  0  0  0  0  0  0  0
  147.4421  140.2771  154.4032 C   0  0  2  0  0  0  0  0  0  0  0  0
  146.2328  140.3603  155.3555 C   0  0  0  0  0  0  0  0  0  0  0  0
  145.2293  141.3630  154.9133 N   0  3  1  0  0  0  0  0  0  0  0  0
  144.0133  141.2972  155.7595 C   0  0  0  0  0  0  0  0  0  0  0  0
  145.8181  142.7306  154.8000 C   0  0  2  0  0  0  0  0  0  0  0  0
  144.7947  143.7820  154.3279 C   0  0  0  0  0  0  0  0  0  0  0  0
  147.0289  142.7257  153.8397 C   0  0  0  0  0  0  0  0  0  0  0  0
  148.0887  141.6676  154.1952 C   0  0  1  0  0  0  0  0  0  0  0  0
  148.8156  142.1078  155.3799 N   0  0  0  0  0  0  0  0  0  0  0  0
  150.0979  141.4361  155.5452 C   0  0  0  0  0  0  0  0  0  0  0  0
  150.3510  141.1238  157.0298 C   0  0  0  0  0  0  0  0  0  0  0  0
  151.2432  142.1513  157.7089 C   0  0  0  0  0  0  0  0  0  0  0  0
  151.3571  143.4573  157.1860 C   0  0  0  0  0  0  0  0  0  0  0  0
  152.2154  144.3677  157.8323 C   0  0  0  0  0  0  0  0  0  0  0  0
  152.9258  143.9394  158.9704 C   0  0  0  0  0  0  0  0  0  0  0  0
  152.7432  142.6147  159.4145 C   0  0  0  0  0  0  0  0  0  0  0  0
  151.9234  141.7341  158.8016 N   0  0  0  0  0  0  0  0  0  0  0  0
  146.3135  140.1826  152.5248 H   0  0  0  0  0  0  0  0  0  0  0  0
  146.6707  138.6095  153.2263 H   0  0  0  0  0  0  0  0  0  0  0  0
  147.9405  139.5185  152.4201 H   0  0  0  0  0  0  0  0  0  0  0  0
  148.1663  139.6078  154.8666 H   0  0  0  0  0  0  0  0  0  0  0  0
  145.7665  139.3771  155.4318 H   0  0  0  0  0  0  0  0  0  0  0  0
  146.5712  140.6168  156.3612 H   0  0  0  0  0  0  0  0  0  0  0  0
  144.2122  141.6818  156.7607 H   0  0  0  0  0  0  0  0  0  0  0  0
  143.6643  140.2686  155.8560 H   0  0  0  0  0  0  0  0  0  0  0  0
  143.1904  141.8640  155.3250 H   0  0  0  0  0  0  0  0  0  0  0  0
  146.1659  143.0269  155.7913 H   0  0  0  0  0  0  0  0  0  0  0  0
  145.2769  144.7460  154.1624 H   0  0  0  0  0  0  0  0  0  0  0  0
  144.0107  143.9521  155.0655 H   0  0  0  0  0  0  0  0  0  0  0  0
  144.3223  143.4858  153.3909 H   0  0  0  0  0  0  0  0  0  0  0  0
  146.6750  142.5388  152.8250 H   0  0  0  0  0  0  0  0  0  0  0  0
  147.4888  143.7147  153.8097 H   0  0  0  0  0  0  0  0  0  0  0  0
  148.8043  141.6219  153.3725 H   0  0  0  0  0  0  0  0  0  0  0  0
  148.9749  143.1048  155.3404 H   0  0  0  0  0  0  0  0  0  0  0  0
  150.1401  140.5104  154.9728 H   0  0  0  0  0  0  0  0  0  0  0  0
  150.8843  142.0852  155.1589 H   0  0  0  0  0  0  0  0  0  0  0  0
  149.3979  141.0869  157.5582 H   0  0  0  0  0  0  0  0  0  0  0  0
  150.7922  140.1315  157.1370 H   0  0  0  0  0  0  0  0  0  0  0  0
  150.8039  143.7548  156.3070 H   0  0  0  0  0  0  0  0  0  0  0  0
  152.3285  145.3754  157.4604 H   0  0  0  0  0  0  0  0  0  0  0  0
  153.5933  144.6099  159.4910 H   0  0  0  0  0  0  0  0  0  0  0  0
  153.2721  142.2515  160.2832 H   0  0  0  0  0  0  0  0  0  0  0  0
  144.9450  141.0903  153.9832 H   0  0  0  0  0  0  0  0  0  0  0  0
  1  2  1  0  0  0  0
  1 19  1  0  0  0  0
  1 20  1  0  0  0  0
  1 21  1  0  0  0  0
  2  9  1  0  0  0  0
  2  3  1  0  0  0  0
  2 22  1  0  0  0  0
  3  4  1  0  0  0  0
  3 23  1  0  0  0  0
  3 24  1  0  0  0  0
  4  5  1  0  0  0  0
  4  6  1  0  0  0  0
  4 44  1  0  0  0  0
  5 25  1  0  0  0  0
  5 26  1  0  0  0  0
  5 27  1  0  0  0  0
  6  7  1  0  0  0  0
  6  8  1  0  0  0  0
  6 28  1  0  0  0  0
  7 29  1  0  0  0  0
  7 30  1  0  0  0  0
  7 31  1  0  0  0  0
  8  9  1  0  0  0  0
  8 32  1  0  0  0  0
  8 33  1  0  0  0  0
  9 10  1  0  0  0  0
  9 34  1  0  0  0  0
 10 11  1  0  0  0  0
 10 35  1  0  0  0  0
 11 12  1  0  0  0  0
 11 36  1  0  0  0  0
 11 37  1  0  0  0  0
 12 13  1  0  0  0  0
 12 38  1  0  0  0  0
 12 39  1  0  0  0  0
 13 18  1  0  0  0  0
 13 14  2  0  0  0  0
 14 15  1  0  0  0  0
 14 40  1  0  0  0  0
 15 16  2  0  0  0  0
 15 41  1  0  0  0  0
 16 17  1  0  0  0  0
 16 42  1  0  0  0  0
 17 18  2  0  0  0  0
 17 43  1  0  0  0  0
M  CHG  1   4   1
M  END
> <s_m_source_file>
AV-unprocessed.smi

> <i_m_source_file_index>
3303

> <i_lp_mmshare_version>
43012

> <i_f3d_flags>
0

> <s_epik_input>
W0NIM11bQ0BASF0xW0NIMl1OKFtDSDNdKVtDQEBIXShbQ0gzXSlbQ0gyXVtDQEhdMVtOSF1bQ0gyXVtDSDJdYzJbY0hdW2NIXVtjSF1bY0hdbjI=

> <s_epik_cmdline>
J2VwaWtfcHl0aG9uJywgJy1waCcsICc3LjAnLCAnLXRuJywgJzgnLCAnLW1hJywgJzIwMCcsICctbWV0YWxfYmluZGluZycsICctaW1hZScsICc8aW5maWxlLm1hZT4nLCAnLW9tYWUnLCAnPG91dGZpbGUubWFlPic=

> <r_epik_Ionization_Penalty>
2.31085

> <r_epik_Ionization_Penalty_Charging>
0.000313057

> <r_epik_Ionization_Penalty_Neutral>
2.31054

> <r_epik_State_Penalty>
2.4087

> <r_epik_Charging_Adjusted_Penalty>
2.40902

> <i_epik_Tot_Q>
1

> <i_epik_Tot_abs_Q>
1

> <r_epik_Metal_State_Penalty>
2.30979

> <b_epik_Metal_Only>
0

> <s_lp_Force_Field>
OPLS_2005

> <r_lp_Energy>
26.8033

> <b_lp_Chiralities_Consistent>
1

> <s_lp_Variant>
AV-unprocessed.smi:3303-31

> <Gold.Version>
5.8.1

> <Gold.Id.Protein>
6NUR|6NUR_protein|mol2

> <Gold.PLP.Fitness>
46.3000

> <Gold.PLP.PLP>
-39.3188

> <Gold.PLP.part.hbond>
-2.0000

> <Gold.PLP.part.metal>
0.0000

> <Gold.PLP.part.buried>
-3.0807

> <Gold.PLP.part.nonpolar>
-34.8019

> <Gold.PLP.part.repulsive>
0.0000

> <Gold.PLP.ligand.clash>
0.0000

> <Gold.PLP.ligand.torsion>
1.0201

> <Gold.PLP.Chemscore.Hbond>
3.0000

> <Gold.PLP.Chemscore.CHOScore>
0.0000

> <Gold.PLP.Chemscore.Metal>
0.0000

> <Gold.Chemscore.Hbonds>
donor molecule, donor type, donor heavy atom, donor atom, acceptor molecule, acceptor atom, score
      L1  H     4    44       P1 10175  1.95
      L1  H    10    35       P1  8028  1.00

> <Gold.PLP.Chemscore.Internal.Correction>
0.0214

> <Gold.Rescore>
     Score         DG    S(hbond)    S(metal)    S(lipo)     H(rot)  DE(clash)    DE(int)     intcor
     20.44     -21.60       1.86        0.00     113.85       1.33       0.11       1.04       ----

> <Gold.Chemscore.Fitness>
20.4433

> <Gold.Chemscore.DG>
-21.6006

> <Gold.Chemscore.ZeroCoef>
-5.4800

> <Gold.Chemscore.Hbond>
1.8558

> <Gold.Chemscore.Metal>
0.0000

> <Gold.Chemscore.Lipo>
113.8454

> <Gold.Chemscore.Internal_Hbond>
0.0000

> <Gold.Chemscore.DEClash>
0.1125

> <Gold.Chemscore.DEInternal>
1.0448

> <Gold.Chemscore.Rot>
1.3272

> <Gold.Chemscore.Internal.Correction>
   9.000000E+99

> <Gold.Chemscore.Hbonds>
donor molecule, donor type, donor heavy atom, donor atom, acceptor molecule, acceptor atom, score
      L1  H     4    44       P1 10175  0.71
      L1  H    10    35       P1  8028  0.99

> <Gold.Chemscore.Hbond.Weighted>
-6.1983

> <Gold.Chemscore.Metal.Weighted>
-0.0000

> <Gold.Chemscore.Lipo.Weighted>
-13.3199

> <Gold.Chemscore.Internal_Hbond.Weighted>
0.0000

> <Gold.Chemscore.DEClash.Weighted>
0.1125

> <Gold.Chemscore.DEInternal.Weighted>
1.0448

> <Gold.Chemscore.Rot.Weighted>
3.3976

> <Gold.Chemscore.Internal.Correction.Weighted>
   9.000000E+99

> <Gold.Protein.RotatedTorsions>
[ 6907 6896 6895 6894 ] final -159.89 input  -60.11 | X-H torsion
[ 7974 7965 7964 7962 ] final   79.48 input  175.53 | X-H torsion
[ 8008 7997 7996 7995 ] final  105.69 input   59.86 | X-H torsion
[ 10167 10162 10161 10158 ] final  102.14 input  -65.29 | X-H torsion
[ 10718 10713 10712 10709 ] final  -43.20 input   66.30 | X-H torsion
[ 10763 10752 10751 10750 ] final  -42.40 input  -60.55 | X-H torsion
[ 11005 11000 10999 10996 ] final   88.84 input  -57.11 | X-H torsion

> <Gold.Protein.ActiveResidues>
 VAL166  LYS551  ARG553  GLY616  TRP617  ASP618  TYR619  PRO620  LYS621  CYS622 
 ASP623  PHE694  ASN695  SER759  ASP760  ASP761  ALA762  ILE779  LEU786  VAL792 
 PHE793  MET794  SER795  GLU796  ALA797  LYS798  CYS799  TRP800  GLU811  SER814 

> <Gold.Protein.RotatedAtoms>
  151.3405  133.3964  159.2670 H   0  0  0  0  0  0  0  0  0  0  0  0  # atno 6907 bound_to 6896
  150.9881  134.9223  159.7894 H   0  0  0  0  0  0  0  0  0  0  0  0  # atno 6908 bound_to 6896
  152.5239  134.3370  159.9256 H   0  0  0  0  0  0  0  0  0  0  0  0  # atno 6909 bound_to 6896
  145.6636  139.2478  143.1908 H   0  0  0  0  0  0  0  0  0  0  0  0  # atno 7974 bound_to 7965
  156.1680  140.3126  155.8924 H   0  0  0  0  0  0  0  0  0  0  0  0  # atno 8008 bound_to 7997
  155.3645  140.0478  157.3063 H   0  0  0  0  0  0  0  0  0  0  0  0  # atno 8009 bound_to 7997
  154.5212  140.2199  155.8983 H   0  0  0  0  0  0  0  0  0  0  0  0  # atno 8010 bound_to 7997
  139.7376  144.7020  151.0625 H   0  0  0  0  0  0  0  0  0  0  0  0  # atno 10167 bound_to 10162
  156.2515  130.4188  149.8644 H   0  0  0  0  0  0  0  0  0  0  0  0  # atno 10718 bound_to 10713
  153.9784  135.6720  153.4749 H   0  0  0  0  0  0  0  0  0  0  0  0  # atno 10763 bound_to 10752
  153.0760  135.4948  154.8401 H   0  0  0  0  0  0  0  0  0  0  0  0  # atno 10764 bound_to 10752
  154.7179  135.3111  154.9056 H   0  0  0  0  0  0  0  0  0  0  0  0  # atno 10765 bound_to 10752
  139.8888  134.8513  156.3057 H   0  0  0  0  0  0  0  0  0  0  0  0  # atno 11005 bound_to 11000
  146.1105  140.7435  142.9506 LP  0  0  0  0  0  0  0  0  0  0  0  0  # atno 17320 bound_to 7965
  144.7080  140.3931  143.7102 LP  0  0  0  0  0  0  0  0  0  0  0  0  # atno 17321 bound_to 7965
  140.7781  143.4964  150.9827 LP  0  0  0  0  0  0  0  0  0  0  0  0  # atno 17342 bound_to 10162
  139.8653  143.7262  152.3170 LP  0  0  0  0  0  0  0  0  0  0  0  0  # atno 17343 bound_to 10162
  156.6191  130.8619  151.3471 LP  0  0  0  0  0  0  0  0  0  0  0  0  # atno 17370 bound_to 10713
  157.7216  130.9566  150.1462 LP  0  0  0  0  0  0  0  0  0  0  0  0  # atno 17371 bound_to 10713
  140.9884  133.7224  156.0776 LP  0  0  0  0  0  0  0  0  0  0  0  0  # atno 17394 bound_to 11000
  140.7658  134.3888  157.5517 LP  0  0  0  0  0  0  0  0  0  0  0  0  # atno 17395 bound_to 11000

$$$$
