AV-unprocessed.smi:72|AV-procd|sdf|710|dock5
  -GOLD-   2262017 33D 1   1.00000     0.00000
 Structure written by MMmdl.
 30 31  0  0  0  0  0  0  0  0  2 V2000
  148.3933  142.9699  158.3027 N   0  0  0  0  0  0  0  0  0  0  0  0
  149.1942  142.0959  157.5975 C   0  0  0  0  0  0  0  0  0  0  0  0
  149.6040  142.4781  156.3323 N   0  3  0  0  0  0  0  0  0  0  0  0
  150.3722  141.7427  155.5167 C   0  0  0  0  0  0  0  0  0  0  0  0
  150.7751  140.5547  155.9171 N   0  0  0  0  0  0  0  0  0  0  0  0
  151.6331  139.6959  155.0303 C   0  0  1  0  0  0  0  0  0  0  0  0
  152.7330  139.2802  155.7815 O   0  0  0  0  0  0  0  0  0  0  0  0
  152.9415  137.8824  155.6091 C   0  0  1  0  0  0  0  0  0  0  0  0
  153.6668  137.3057  156.8347 C   0  0  0  0  0  0  0  0  0  0  0  0
  154.0097  135.9568  156.6017 O   0  0  0  0  0  0  0  0  0  0  0  0
  151.5152  137.3591  155.4373 C   0  0  2  0  0  0  0  0  0  0  0  0
  151.4639  136.0770  154.8410 O   0  0  0  0  0  0  0  0  0  0  0  0
  150.8582  138.4445  154.5909 C   0  0  2  0  0  0  0  0  0  0  0  0
  151.0096  138.2181  153.2019 O   0  0  0  0  0  0  0  0  0  0  0  0
  150.4332  140.0885  157.2121 C   0  0  0  0  0  0  0  0  0  0  0  0
  150.8421  138.9995  157.6127 O   0  0  0  0  0  0  0  0  0  0  0  0
  149.6243  140.9289  157.9913 N   0  0  0  0  0  0  0  0  0  0  0  0
  151.9734  140.3285  154.2083 H   0  0  0  0  0  0  0  0  0  0  0  0
  153.5104  137.7109  154.6929 H   0  0  0  0  0  0  0  0  0  0  0  0
  151.0216  137.3174  156.4094 H   0  0  0  0  0  0  0  0  0  0  0  0
  149.7936  138.5395  154.8098 H   0  0  0  0  0  0  0  0  0  0  0  0
  148.0498  142.7776  159.2335 H   0  0  0  0  0  0  0  0  0  0  0  0
  148.0822  143.8627  157.9473 H   0  0  0  0  0  0  0  0  0  0  0  0
  150.6541  142.1351  154.5475 H   0  0  0  0  0  0  0  0  0  0  0  0
  154.5554  137.8868  157.0821 H   0  0  0  0  0  0  0  0  0  0  0  0
  153.0103  137.3300  157.7050 H   0  0  0  0  0  0  0  0  0  0  0  0
  154.3217  135.5803  157.4106 H   0  0  0  0  0  0  0  0  0  0  0  0
  150.5581  135.8344  154.7211 H   0  0  0  0  0  0  0  0  0  0  0  0
  151.0621  139.0541  152.7636 H   0  0  0  0  0  0  0  0  0  0  0  0
  149.2967  143.3815  156.0009 H   0  0  0  0  0  0  0  0  0  0  0  0
  1  2  1  0  0  0  0
  1 22  1  0  0  0  0
  1 23  1  0  0  0  0
  2 17  2  0  0  0  0
  2  3  1  0  0  0  0
  3  4  2  0  0  0  0
  3 30  1  0  0  0  0
  4  5  1  0  0  0  0
  4 24  1  0  0  0  0
  5  6  1  0  0  0  0
  5 15  1  0  0  0  0
  6 18  1  0  0  0  0
  6 13  1  0  0  0  0
  6  7  1  0  0  0  0
  7  8  1  0  0  0  0
  8 19  1  0  0  0  0
  8  9  1  0  0  0  0
  8 11  1  0  0  0  0
  9 10  1  0  0  0  0
  9 25  1  0  0  0  0
  9 26  1  0  0  0  0
 10 27  1  0  0  0  0
 11 20  1  0  0  0  0
 11 12  1  0  0  0  0
 11 13  1  0  0  0  0
 12 28  1  0  0  0  0
 13 21  1  0  0  0  0
 13 14  1  0  0  0  0
 14 29  1  0  0  0  0
 15 16  2  0  0  0  0
 15 17  1  0  0  0  0
M  CHG  1   3   1
M  END
> <s_m_source_file>
AV-unprocessed.smi

> <i_m_source_file_index>
72

> <i_lp_mmshare_version>
43012

> <i_f3d_flags>
0

> <s_epik_input>
W05IMl1jMW5bY0hdbihjKD1PKW4xKVtDQEBIXTJPW0NASF0oW0NIMl1bT0hdKVtDQEBIXShbT0hdKVtDQEhdMltPSF0=

> <s_epik_cmdline>
J2VwaWtfcHl0aG9uJywgJy1waCcsICc3LjAnLCAnLXRuJywgJzgnLCAnLW1hJywgJzIwMCcsICctbWV0YWxfYmluZGluZycsICctaW1hZScsICc8aW5maWxlLm1hZT4nLCAnLW9tYWUnLCAnPG91dGZpbGUubWFlPic=

> <r_lp_tautomer_probability>
4.77166e-05

> <r_epik_Ionization_Penalty>
0.104979

> <r_epik_Ionization_Penalty_Charging>
0.0999619

> <r_epik_Ionization_Penalty_Neutral>
0.00501745

> <r_epik_State_Penalty>
2.51541

> <r_epik_Charging_Adjusted_Penalty>
2.61537

> <i_epik_Tot_Q>
1

> <i_epik_Tot_abs_Q>
1

> <r_epik_Metal_State_Penalty>
3.53763

> <b_epik_Metal_Only>
0

> <s_epik_Chemistry_Notes>
This compound contains an acetal/aminal-like group ( X-CH(R)-Y where X, Y are N, S, or O) that may be acid/base labile, releasing an aldehyde.

> <s_lp_Force_Field>
OPLS_2005

> <r_lp_Energy>
34.5988

> <b_lp_Chiralities_Consistent>
1

> <s_lp_Variant>
AV-unprocessed.smi:72-48

> <Gold.Version>
5.8.1

> <Gold.Id.Protein>
6NUR|6NUR_protein|mol2

> <Gold.PLP.Fitness>
39.6772

> <Gold.PLP.PLP>
-23.7340

> <Gold.PLP.part.hbond>
-7.1102

> <Gold.PLP.part.metal>
0.0000

> <Gold.PLP.part.buried>
-2.5075

> <Gold.PLP.part.nonpolar>
-14.6054

> <Gold.PLP.part.repulsive>
0.1916

> <Gold.PLP.ligand.clash>
0.0000

> <Gold.PLP.ligand.torsion>
0.2089

> <Gold.PLP.Chemscore.Hbond>
5.4474

> <Gold.PLP.Chemscore.CHOScore>
0.0000

> <Gold.PLP.Chemscore.Metal>
0.0000

> <Gold.Chemscore.Hbonds>
donor molecule, donor type, donor heavy atom, donor atom, acceptor molecule, acceptor atom, score
      L1  H     1    23       P1  8029  0.40
      L1  H     3    30       P1  8028  1.56
      L1  H    14    29       P1  7957  0.10
      P1  H  7997  8010       L1     7  1.00
      P1  H 10752 10763       L1    10  0.53
      P1  H 10752 10765       L1    12  1.00

> <Gold.PLP.Chemscore.Internal.Correction>
0.0189

> <Gold.Rescore>
     Score         DG    S(hbond)    S(metal)    S(lipo)     H(rot)  DE(clash)    DE(int)     intcor
      6.01      -9.41       3.51        0.00      22.75       4.08       0.12       3.29       ----

> <Gold.Chemscore.Fitness>
6.0103

> <Gold.Chemscore.DG>
-9.4121

> <Gold.Chemscore.ZeroCoef>
-5.4800

> <Gold.Chemscore.Hbond>
3.5061

> <Gold.Chemscore.Metal>
0.0000

> <Gold.Chemscore.Lipo>
22.7522

> <Gold.Chemscore.Internal_Hbond>
0.0000

> <Gold.Chemscore.DEClash>
0.1152

> <Gold.Chemscore.DEInternal>
3.2866

> <Gold.Chemscore.Rot>
4.0783

> <Gold.Chemscore.Internal.Correction>
   9.000000E+99

> <Gold.Chemscore.Hbonds>
donor molecule, donor type, donor heavy atom, donor atom, acceptor molecule, acceptor atom, score
      L1  H     1    23       P1  8029  0.03
      L1  H     3    30       P1  8028  0.77
      L1  H    14    29       P1  7957  0.01
      P1  H  7997  8010       L1     7  0.74
      P1  H 10752 10763       L1    10  0.49
      P1  H 10752 10765       L1    12  0.68

> <Gold.Chemscore.Hbond.Weighted>
-11.7105

> <Gold.Chemscore.Metal.Weighted>
-0.0000

> <Gold.Chemscore.Lipo.Weighted>
-2.6620

> <Gold.Chemscore.Internal_Hbond.Weighted>
0.0000

> <Gold.Chemscore.DEClash.Weighted>
0.1152

> <Gold.Chemscore.DEInternal.Weighted>
3.2866

> <Gold.Chemscore.Rot.Weighted>
10.4404

> <Gold.Chemscore.Internal.Correction.Weighted>
   9.000000E+99

> <Gold.Protein.RotatedTorsions>
[ 6907 6896 6895 6894 ] final  148.01 input  -60.11 | X-H torsion
[ 7974 7965 7964 7962 ] final    4.72 input  175.53 | X-H torsion
[ 8008 7997 7996 7995 ] final   85.89 input   59.86 | X-H torsion
[ 10167 10162 10161 10158 ] final  -11.11 input  -65.29 | X-H torsion
[ 10718 10713 10712 10709 ] final  -51.02 input   66.30 | X-H torsion
[ 10763 10752 10751 10750 ] final  175.48 input  -60.55 | X-H torsion
[ 11005 11000 10999 10996 ] final  -82.86 input  -57.11 | X-H torsion

> <Gold.Protein.ActiveResidues>
 VAL166  LYS551  ARG553  GLY616  TRP617  ASP618  TYR619  PRO620  LYS621  CYS622 
 ASP623  PHE694  ASN695  SER759  ASP760  ASP761  ALA762  ILE779  LEU786  VAL792 
 PHE793  MET794  SER795  GLU796  ALA797  LYS798  CYS799  TRP800  GLU811  SER814 

> <Gold.Protein.RotatedAtoms>
  152.1472  133.4500  159.4795 H   0  0  0  0  0  0  0  0  0  0  0  0  # atno 6907 bound_to 6896
  150.6892  134.2233  159.4414 H   0  0  0  0  0  0  0  0  0  0  0  0  # atno 6908 bound_to 6896
  152.0127  134.9866  160.0619 H   0  0  0  0  0  0  0  0  0  0  0  0  # atno 6909 bound_to 6896
  146.2443  140.0491  142.8376 H   0  0  0  0  0  0  0  0  0  0  0  0  # atno 7974 bound_to 7965
  155.9559  140.3397  155.6448 H   0  0  0  0  0  0  0  0  0  0  0  0  # atno 8008 bound_to 7997
  155.6861  140.0743  157.2484 H   0  0  0  0  0  0  0  0  0  0  0  0  # atno 8009 bound_to 7997
  154.4132  140.1665  156.2023 H   0  0  0  0  0  0  0  0  0  0  0  0  # atno 8010 bound_to 7997
  140.7130  143.5674  150.9129 H   0  0  0  0  0  0  0  0  0  0  0  0  # atno 10167 bound_to 10162
  156.1747  130.4150  149.9594 H   0  0  0  0  0  0  0  0  0  0  0  0  # atno 10718 bound_to 10713
  154.4682  135.2770  155.1662 H   0  0  0  0  0  0  0  0  0  0  0  0  # atno 10763 bound_to 10752
  154.3422  135.6167  153.5606 H   0  0  0  0  0  0  0  0  0  0  0  0  # atno 10764 bound_to 10752
  152.9861  135.5791  154.5057 H   0  0  0  0  0  0  0  0  0  0  0  0  # atno 10765 bound_to 10752
  141.1661  133.7265  156.8634 H   0  0  0  0  0  0  0  0  0  0  0  0  # atno 11005 bound_to 11000
  145.1000  140.9339  143.4718 LP  0  0  0  0  0  0  0  0  0  0  0  0  # atno 17320 bound_to 7965
  145.0682  139.3052  143.5845 LP  0  0  0  0  0  0  0  0  0  0  0  0  # atno 17321 bound_to 7965
  139.9400  143.6393  152.3056 LP  0  0  0  0  0  0  0  0  0  0  0  0  # atno 17342 bound_to 10162
  139.6874  144.7650  151.1499 LP  0  0  0  0  0  0  0  0  0  0  0  0  # atno 17343 bound_to 10162
  156.7383  130.9070  151.3630 LP  0  0  0  0  0  0  0  0  0  0  0  0  # atno 17370 bound_to 10713
  157.6828  130.9156  150.0309 LP  0  0  0  0  0  0  0  0  0  0  0  0  # atno 17371 bound_to 10713
  140.1832  134.9018  157.2974 LP  0  0  0  0  0  0  0  0  0  0  0  0  # atno 17394 bound_to 11000
  140.2371  134.3839  155.7496 LP  0  0  0  0  0  0  0  0  0  0  0  0  # atno 17395 bound_to 11000

$$$$
