AV-unprocessed.smi:566|AV-procd|sdf|2955|dock7
  -GOLD-   2262023453D 1   1.00000     0.00000
 Structure written by MMmdl.
 39 40  0  0  0  0  0  0  0  0  1 V2000
  144.3266  144.8149  153.5092 C   0  0  0  0  0  0  0  0  0  0  0  0
  145.1692  143.8811  154.3698 C   0  0  0  0  0  0  0  0  0  0  0  0
  146.0200  142.9257  153.6992 C   0  0  0  0  0  0  0  0  0  0  0  0
  146.8242  142.1043  154.3928 C   0  0  0  0  0  0  0  0  0  0  0  0
  147.7262  141.1080  153.6723 C   0  0  0  0  0  0  0  0  0  0  0  0
  146.8431  142.1431  155.8143 N   0  0  0  0  0  0  0  0  0  0  0  0
  147.7472  141.2332  156.5560 C   0  0  0  0  0  0  0  0  0  0  0  0
  148.7259  141.9920  157.4729 C   0  0  0  0  0  0  0  0  0  0  0  0
  149.8057  141.1428  157.8358 O   0  0  0  0  0  0  0  0  0  0  0  0
  150.8227  141.6673  158.6034 C   0  0  0  0  0  0  0  0  0  0  0  0
  151.8149  140.7691  159.0478 C   0  0  0  0  0  0  0  0  0  0  0  0
  152.8921  141.2170  159.8362 C   0  0  0  0  0  0  0  0  0  0  0  0
  152.9860  142.5751  160.1921 C   0  0  0  0  0  0  0  0  0  0  0  0
  152.0017  143.4824  159.7580 C   0  0  0  0  0  0  0  0  0  0  0  0
  152.0895  144.7894  160.1011 F   0  0  0  0  0  0  0  0  0  0  0  0
  150.9252  143.0342  158.9675 C   0  0  0  0  0  0  0  0  0  0  0  0
  146.0401  142.9950  156.5302 C   0  0  0  0  0  0  0  0  0  0  0  0
  146.0348  142.9559  157.7648 O   0  0  0  0  0  0  0  0  0  0  0  0
  145.1927  143.9211  155.7293 C   0  0  0  0  0  0  0  0  0  0  0  0
  144.3547  144.8718  156.4863 C   0  0  0  0  0  0  0  0  0  0  0  0
  144.9667  145.4785  157.5128 N   0  0  0  0  0  0  0  0  0  0  0  0
  143.2020  145.1825  156.1902 O   0  0  0  0  0  0  0  0  0  0  0  0
  144.5973  144.7320  152.4562 H   0  0  0  0  0  0  0  0  0  0  0  0
  144.4714  145.8555  153.8016 H   0  0  0  0  0  0  0  0  0  0  0  0
  143.2684  144.5685  153.5987 H   0  0  0  0  0  0  0  0  0  0  0  0
  146.0155  142.8789  152.6198 H   0  0  0  0  0  0  0  0  0  0  0  0
  147.4470  141.0270  152.6215 H   0  0  0  0  0  0  0  0  0  0  0  0
  147.6592  140.1051  154.0902 H   0  0  0  0  0  0  0  0  0  0  0  0
  148.7643  141.4390  153.7085 H   0  0  0  0  0  0  0  0  0  0  0  0
  147.1778  140.5175  157.1464 H   0  0  0  0  0  0  0  0  0  0  0  0
  148.3118  140.5880  155.8807 H   0  0  0  0  0  0  0  0  0  0  0  0
  149.1000  142.8892  156.9788 H   0  0  0  0  0  0  0  0  0  0  0  0
  148.1948  142.3027  158.3736 H   0  0  0  0  0  0  0  0  0  0  0  0
  151.7496  139.7249  158.7786 H   0  0  0  0  0  0  0  0  0  0  0  0
  153.6461  140.5185  160.1675 H   0  0  0  0  0  0  0  0  0  0  0  0
  153.8111  142.9202  160.7975 H   0  0  0  0  0  0  0  0  0  0  0  0
  150.1893  143.7589  158.6549 H   0  0  0  0  0  0  0  0  0  0  0  0
  144.4660  146.1548  158.0709 H   0  0  0  0  0  0  0  0  0  0  0  0
  145.9333  145.2678  157.7150 H   0  0  0  0  0  0  0  0  0  0  0  0
  1  2  1  0  0  0  0
  1 23  1  0  0  0  0
  1 24  1  0  0  0  0
  1 25  1  0  0  0  0
  2 19  2  0  0  0  0
  2  3  1  0  0  0  0
  3  4  2  0  0  0  0
  3 26  1  0  0  0  0
  4  5  1  0  0  0  0
  4  6  1  0  0  0  0
  5 27  1  0  0  0  0
  5 28  1  0  0  0  0
  5 29  1  0  0  0  0
  6  7  1  0  0  0  0
  6 17  1  0  0  0  0
  7  8  1  0  0  0  0
  7 30  1  0  0  0  0
  7 31  1  0  0  0  0
  8  9  1  0  0  0  0
  8 32  1  0  0  0  0
  8 33  1  0  0  0  0
  9 10  1  0  0  0  0
 10 16  1  0  0  0  0
 10 11  2  0  0  0  0
 11 12  1  0  0  0  0
 11 34  1  0  0  0  0
 12 13  2  0  0  0  0
 12 35  1  0  0  0  0
 13 14  1  0  0  0  0
 13 36  1  0  0  0  0
 14 15  1  0  0  0  0
 14 16  2  0  0  0  0
 16 37  1  0  0  0  0
 17 18  2  0  0  0  0
 17 19  1  0  0  0  0
 19 20  1  0  0  0  0
 20 21  1  0  0  0  0
 20 22  2  0  0  0  0
 21 38  1  0  0  0  0
 21 39  1  0  0  0  0
M  END
> <s_m_source_file>
AV-unprocessed.smi

> <i_m_source_file_index>
566

> <i_lp_mmshare_version>
43012

> <i_f3d_flags>
0

> <s_epik_input>
W0NIM11jMVtjSF1jKFtDSDNdKW4oYyg9TyljMUMoPU8pW05IMl0pW0NIMl1bQ0gyXU9jMltjSF1bY0hdW2NIXWMoRilbY0hdMg==

> <s_epik_cmdline>
J2VwaWtfcHl0aG9uJywgJy1waCcsICc3LjAnLCAnLXRuJywgJzgnLCAnLW1hJywgJzIwMCcsICctbWV0YWxfYmluZGluZycsICctaW1hZScsICc8aW5maWxlLm1hZT4nLCAnLW9tYWUnLCAnPG91dGZpbGUubWFlPic=

> <r_lp_tautomer_probability>
1

> <r_epik_Ionization_Penalty>
1.93248e-07

> <r_epik_Ionization_Penalty_Charging>
2.77691e-08

> <r_epik_Ionization_Penalty_Neutral>
1.65479e-07

> <r_epik_State_Penalty>
-0

> <r_epik_Charging_Adjusted_Penalty>
2.77691e-08

> <i_epik_Tot_Q>
0

> <i_epik_Tot_abs_Q>
0

> <r_epik_Metal_State_Penalty>
-0

> <b_epik_Metal_Only>
0

> <s_lp_Force_Field>
OPLS_2005

> <r_lp_Energy>
41.2098

> <b_lp_Chiralities_Consistent>
1

> <s_lp_Variant>
AV-unprocessed.smi:566-1

> <Gold.Version>
5.8.1

> <Gold.Id.Protein>
6NUR|6NUR_protein|mol2

> <Gold.PLP.Fitness>
43.8181

> <Gold.PLP.PLP>
-42.6253

> <Gold.PLP.part.hbond>
-1.0000

> <Gold.PLP.part.metal>
0.0000

> <Gold.PLP.part.buried>
-5.3850

> <Gold.PLP.part.nonpolar>
-35.8472

> <Gold.PLP.part.repulsive>
0.1855

> <Gold.PLP.ligand.clash>
0.0000

> <Gold.PLP.ligand.torsion>
0.7659

> <Gold.PLP.Chemscore.Hbond>
0.8000

> <Gold.PLP.Chemscore.CHOScore>
0.0000

> <Gold.PLP.Chemscore.Metal>
0.0000

> <Gold.Chemscore.Hbonds>
donor molecule, donor type, donor heavy atom, donor atom, acceptor molecule, acceptor atom, score
      L1  H    21    39       P1  8029  0.73

> <Gold.PLP.Chemscore.Internal.Correction>
0.3246

> <Gold.Rescore>
     Score         DG    S(hbond)    S(metal)    S(lipo)     H(rot)  DE(clash)    DE(int)     intcor
     11.72     -14.94       0.63        0.00      99.73       1.69       0.08       3.14       ----

> <Gold.Chemscore.Fitness>
11.7186

> <Gold.Chemscore.DG>
-14.9408

> <Gold.Chemscore.ZeroCoef>
-5.4800

> <Gold.Chemscore.Hbond>
0.6326

> <Gold.Chemscore.Metal>
0.0000

> <Gold.Chemscore.Lipo>
99.7309

> <Gold.Chemscore.Internal_Hbond>
0.0000

> <Gold.Chemscore.DEClash>
0.0805

> <Gold.Chemscore.DEInternal>
3.1417

> <Gold.Chemscore.Rot>
1.6878

> <Gold.Chemscore.Internal.Correction>
   9.000000E+99

> <Gold.Chemscore.Hbonds>
donor molecule, donor type, donor heavy atom, donor atom, acceptor molecule, acceptor atom, score
      L1  H    21    39       P1  8029  0.38

> <Gold.Chemscore.Hbond.Weighted>
-2.1130

> <Gold.Chemscore.Metal.Weighted>
-0.0000

> <Gold.Chemscore.Lipo.Weighted>
-11.6685

> <Gold.Chemscore.Internal_Hbond.Weighted>
0.0000

> <Gold.Chemscore.DEClash.Weighted>
0.0805

> <Gold.Chemscore.DEInternal.Weighted>
3.1417

> <Gold.Chemscore.Rot.Weighted>
4.3207

> <Gold.Chemscore.Internal.Correction.Weighted>
   9.000000E+99

> <Gold.Protein.RotatedTorsions>
[ 6907 6896 6895 6894 ] final  -55.01 input  -60.11 | X-H torsion
[ 7974 7965 7964 7962 ] final   53.59 input  175.53 | X-H torsion
[ 8008 7997 7996 7995 ] final  -19.37 input   59.86 | X-H torsion
[ 10167 10162 10161 10158 ] final  131.35 input  -65.29 | X-H torsion
[ 10718 10713 10712 10709 ] final  161.45 input   66.30 | X-H torsion
[ 10763 10752 10751 10750 ] final   66.28 input  -60.55 | X-H torsion
[ 11005 11000 10999 10996 ] final -136.77 input  -57.11 | X-H torsion

> <Gold.Protein.ActiveResidues>
 VAL166  LYS551  ARG553  GLY616  TRP617  ASP618  TYR619  PRO620  LYS621  CYS622 
 ASP623  PHE694  ASN695  SER759  ASP760  ASP761  ALA762  ILE779  LEU786  VAL792 
 PHE793  MET794  SER795  GLU796  ALA797  LYS798  CYS799  TRP800  GLU811  SER814 

> <Gold.Protein.RotatedAtoms>
  150.8288  134.7532  159.6835 H   0  0  0  0  0  0  0  0  0  0  0  0  # atno 6907 bound_to 6896
  152.4395  134.5615  159.9905 H   0  0  0  0  0  0  0  0  0  0  0  0  # atno 6908 bound_to 6896
  151.5781  133.3343  159.3039 H   0  0  0  0  0  0  0  0  0  0  0  0  # atno 6909 bound_to 6896
  145.9696  139.4136  143.0198 H   0  0  0  0  0  0  0  0  0  0  0  0  # atno 7974 bound_to 7965
  154.4842  140.2091  155.9694 H   0  0  0  0  0  0  0  0  0  0  0  0  # atno 8008 bound_to 7997
  156.1210  140.3213  155.8178 H   0  0  0  0  0  0  0  0  0  0  0  0  # atno 8009 bound_to 7997
  155.4467  140.0514  157.2996 H   0  0  0  0  0  0  0  0  0  0  0  0  # atno 8010 bound_to 7997
  139.5388  144.6710  151.4695 H   0  0  0  0  0  0  0  0  0  0  0  0  # atno 10167 bound_to 10162
  157.1363  131.0529  151.2348 H   0  0  0  0  0  0  0  0  0  0  0  0  # atno 10718 bound_to 10713
  153.0133  135.5326  154.6799 H   0  0  0  0  0  0  0  0  0  0  0  0  # atno 10763 bound_to 10752
  154.5962  135.2863  155.0586 H   0  0  0  0  0  0  0  0  0  0  0  0  # atno 10764 bound_to 10752
  154.1660  135.6540  153.5050 H   0  0  0  0  0  0  0  0  0  0  0  0  # atno 10765 bound_to 10752
  140.8774  134.1975  157.4613 H   0  0  0  0  0  0  0  0  0  0  0  0  # atno 11005 bound_to 11000
  145.7925  140.9808  143.1041 LP  0  0  0  0  0  0  0  0  0  0  0  0  # atno 17320 bound_to 7965
  144.6833  139.9701  143.7482 LP  0  0  0  0  0  0  0  0  0  0  0  0  # atno 17321 bound_to 7965
  140.6608  143.8503  150.6885 LP  0  0  0  0  0  0  0  0  0  0  0  0  # atno 17342 bound_to 10162
  140.1896  143.4047  152.1873 LP  0  0  0  0  0  0  0  0  0  0  0  0  # atno 17343 bound_to 10162
  157.4347  130.7510  149.7019 LP  0  0  0  0  0  0  0  0  0  0  0  0  # atno 17370 bound_to 10713
  155.9797  130.4037  150.3569 LP  0  0  0  0  0  0  0  0  0  0  0  0  # atno 17371 bound_to 10713
  139.8717  134.9802  156.5065 LP  0  0  0  0  0  0  0  0  0  0  0  0  # atno 17394 bound_to 11000
  140.8502  133.8138  155.9161 LP  0  0  0  0  0  0  0  0  0  0  0  0  # atno 17395 bound_to 11000

$$$$
