#       Name:                AV-unprocessed.smi:1208
#       Creating user name   scv26
#       Creation time:       Fri Mar 27 04:10:30 2020


#       File generated by GOLD software.
#

@<TRIPOS>MOLECULE
AV-unprocessed.smi:1208
    44    45     1
SMALL
NO_CHARGES


@<TRIPOS>ATOM
      1 ****        -2.2029  -0.0949   2.6726 C.3            1 S1                 0.0000
      2 ****        -1.7166   0.5891   1.3846 C.3            1 S1                 0.0000
      3 ****        -0.2599   0.5614   1.3074 N.am           1 S1                 0.0000
      4 ****         0.5898   1.4287   1.8796 C.2            1 S1                 0.0000
      5 ****         0.2226   2.3338   2.6285 O.2            1 S1                 0.0000
      6 ****         2.0835   1.2821   1.5399 C.3            1 S1                 0.0000
      7 ****         2.3550   0.4902   0.3274 N.am           1 S1                 0.0000
      8 ****         2.7394  -0.8928   0.5947 N.pl3          1 S1                -1.0000
      9 ****         2.9678  -1.7311  -0.4509 C.2            1 S1                 0.0000
     10 ****         3.2758  -2.9114  -0.3039 O.2            1 S1                 0.0000
     11 ****         2.8393  -1.1974  -1.7968 C.2            1 S1                 0.0000
     12 ****         2.4948   0.0870  -2.0144 C.2            1 S1                 0.0000
     13 ****         2.2257   1.0167  -0.9243 C.2            1 S1                 0.0000
     14 ****         1.8929   2.1860  -1.1166 O.2            1 S1                 0.0000
     15 ****        -2.3206  -0.0543   0.1177 C.3            1 S1                 0.0000
     16 ****        -1.9458   0.6410  -1.2032 C.3            1 S1                 0.0000
     17 ****        -1.7114  -0.5185  -2.1475 C.3            1 S1                 0.0000
     18 ****        -1.1358  -1.5667  -1.2069 C.3            1 S1                 0.0000
     19 ****        -1.8913  -1.4111  -0.0138 O.3            1 S1                 0.0000
     20 ****        -3.2905  -0.0718   2.7415 H              1 S1                 0.0000
     21 ****        -1.8080   0.4042   3.5580 H              1 S1                 0.0000
     22 ****        -1.8890  -1.1385   2.7119 H              1 S1                 0.0000
     23 ****        -2.0442   1.6298   1.4109 H              1 S1                 0.0000
     24 ****         0.1446  -0.1584   0.7245 H              1 S1                 0.0000
     25 ****         2.5214   2.2764   1.4371 H              1 S1                 0.0000
     26 ****         2.5812   0.8343   2.4017 H              1 S1                 0.0000
     27 ****         3.0250  -1.8448  -2.6410 H              1 S1                 0.0000
     28 ****         2.4111   0.4410  -3.0309 H              1 S1                 0.0000
     29 ****        -3.4077  -0.0733   0.2055 H              1 S1                 0.0000
     30 ****        -2.7235   1.3191  -1.5550 H              1 S1                 0.0000
     31 ****        -1.0260   1.2188  -1.1080 H              1 S1                 0.0000
     32 ****        -2.6582  -0.8653  -2.5634 H              1 S1                 0.0000
     33 ****        -1.0406  -0.2717  -2.9709 H              1 S1                 0.0000
     34 ****        -1.2094  -2.5794  -1.6027 H              1 S1                 0.0000
     35 ****        -0.0874  -1.3574  -0.9936 H              1 S1                 0.0000
     36 ****        -0.7491   2.4484   2.8353 LP             1 S1                 0.0000
     37 ****         0.8959   2.9545   3.0302 LP             1 S1                 0.0000
     38 ****         2.8335  -1.2193   1.5352 LP             1 S1                 0.0000
     39 ****         3.3681  -3.2933   0.6157 LP             1 S1                 0.0000
     40 ****         3.4341  -3.4902  -1.1038 LP             1 S1                 0.0000
     41 ****         1.7064   2.7870  -0.3394 LP             1 S1                 0.0000
     42 ****         1.8090   2.5349  -2.0500 LP             1 S1                 0.0000
     43 ****        -2.6914  -2.0101  -0.0476 LP             1 S1                 0.0000
     44 ****        -1.3240  -1.6569   0.7722 LP             1 S1                 0.0000
@<TRIPOS>BOND
    1    1    2 1     
    2    1   20 1     
    3    1   21 1     
    4    1   22 1     
    5    2    3 1     
    6    2   15 1     
    7    2   23 1     
    8    3    4 am    
    9    3   24 1     
   10    4    5 2     
   11    4    6 1     
   12    6   25 1     
   13    6   26 1     
   14    6    7 1     
   15    7    8 1     
   16    7   13 am    
   17    8    9 1     
   18    9   10 2     
   19    9   11 1     
   20   11   27 1     
   21   11   12 2     
   22   12   28 1     
   23   12   13 1     
   24   13   14 2     
   25   15   19 1     
   26   15   16 1     
   27   15   29 1     
   28   16   17 1     
   29   16   30 1     
   30   16   31 1     
   31   17   18 1     
   32   17   32 1     
   33   17   33 1     
   34   18   19 1     
   35   18   34 1     
   36   18   35 1     
   37    5   36 1     
   38    5   37 1     
   39    8   38 1     
   40   10   39 1     
   41   10   40 1     
   42   14   41 1     
   43   14   42 1     
   44   19   43 1     
   45   19   44 1     
@<TRIPOS>SUBSTRUCTURE
      1 S1             1
@<TRIPOS>SET
LONE_PAIRS      STATIC     ATOMS    <user>   **** ""
9 36 37 38 39 40 41 42 43 44
DONOR_HYDROGENS      STATIC     ATOMS    <user>   **** ""
1 24
ATOM$BLUE        STATIC     ATOMS    COLORGROUP SYSTEM
9 36 37 38 39 40 41 42 43 44
ATOM$RED        STATIC     ATOMS    COLORGROUP SYSTEM
1 24
