AV-unprocessed.smi:215|AV-procd|sdf|1651|dock5
  -GOLD-   2262020 33D 1   1.00000     0.00000
 Structure written by MMmdl.
 59 62  0  0  0  0  0  0  0  0  2 V2000
  146.3796  136.6211  155.0288 C   0  0  0  0  0  0  0  0  0  0  0  0
  147.1556  137.3658  153.9196 C   0  0  1  0  0  0  0  0  0  0  0  0
  146.2620  137.7194  152.6997 C   0  0  2  0  0  0  0  0  0  0  0  0
  146.3267  136.7608  151.5507 N   0  3  2  0  0  0  0  0  0  0  0  0
  145.8649  137.3925  150.2865 C   0  0  0  0  0  0  0  0  0  0  0  0
  145.6634  135.4477  151.7991 C   0  0  0  0  0  0  0  0  0  0  0  0
  145.6679  134.5025  150.5825 C   0  0  0  0  0  0  0  0  0  0  0  0
  144.9508  133.3214  150.8757 O   0  0  0  0  0  0  0  0  0  0  0  0
  146.7448  139.1268  152.3092 C   0  0  0  0  0  0  0  0  0  0  0  0
  147.1671  139.7590  153.6284 C   0  0  0  0  0  0  0  0  0  0  0  0
  147.6489  138.6439  154.4234 N   0  0  0  0  0  0  0  0  0  0  0  0
  148.6417  138.7952  155.3402 C   0  0  0  0  0  0  0  0  0  0  0  0
  149.0816  137.6799  155.9801 N   0  0  0  0  0  0  0  0  0  0  0  0
  150.0598  137.7554  156.8863 C   0  0  0  0  0  0  0  0  0  0  0  0
  150.7306  138.8307  157.2994 N   0  0  0  0  0  0  0  0  0  0  0  0
  150.2957  139.9577  156.6674 C   0  0  0  0  0  0  0  0  0  0  0  0
  149.2616  140.0334  155.6887 C   0  0  0  0  0  0  0  0  0  0  0  0
  149.0878  141.3593  155.3041 N   0  0  0  0  0  0  0  0  0  0  0  0
  149.9659  142.0216  156.0053 C   0  0  0  0  0  0  0  0  0  0  0  0
  150.7538  141.2533  156.8302 N   0  0  0  0  0  0  0  0  0  0  0  0
  151.7649  141.7184  157.7341 C   0  0  0  0  0  0  0  0  0  0  0  0
  151.7354  141.3540  159.2227 C   0  0  0  0  0  0  0  0  0  0  0  0
  152.3659  142.7259  159.5571 C   0  0  0  0  0  0  0  0  0  0  0  0
  151.8355  143.4405  160.8160 C   0  0  0  0  0  0  0  0  0  0  0  0
  151.9436  142.6448  161.9794 O   0  0  0  0  0  0  0  0  0  0  0  0
  153.9030  142.7040  159.6599 C   0  0  0  0  0  0  0  0  0  0  0  0
  154.3397  141.9303  160.7592 O   0  0  0  0  0  0  0  0  0  0  0  0
  151.7991  143.1794  158.1917 C   0  0  0  0  0  0  0  0  0  0  0  0
  148.0116  136.7848  153.5789 H   0  0  0  0  0  0  0  0  0  0  0  0
  145.2259  137.7961  153.0350 H   0  0  0  0  0  0  0  0  0  0  0  0
  145.9510  135.6827  154.6825 H   0  0  0  0  0  0  0  0  0  0  0  0
  145.5570  137.2303  155.4052 H   0  0  0  0  0  0  0  0  0  0  0  0
  147.0181  136.3850  155.8794 H   0  0  0  0  0  0  0  0  0  0  0  0
  144.7911  137.5817  150.3157 H   0  0  0  0  0  0  0  0  0  0  0  0
  146.0797  136.7698  149.4197 H   0  0  0  0  0  0  0  0  0  0  0  0
  146.3668  138.3400  150.0968 H   0  0  0  0  0  0  0  0  0  0  0  0
  146.1696  134.9101  152.5980 H   0  0  0  0  0  0  0  0  0  0  0  0
  144.6398  135.6200  152.1348 H   0  0  0  0  0  0  0  0  0  0  0  0
  145.1798  134.9922  149.7394 H   0  0  0  0  0  0  0  0  0  0  0  0
  146.6737  134.2557  150.2457 H   0  0  0  0  0  0  0  0  0  0  0  0
  144.8702  132.8101  150.0844 H   0  0  0  0  0  0  0  0  0  0  0  0
  147.6127  139.0564  151.6512 H   0  0  0  0  0  0  0  0  0  0  0  0
  145.9846  139.7213  151.8019 H   0  0  0  0  0  0  0  0  0  0  0  0
  147.9275  140.5252  153.4711 H   0  0  0  0  0  0  0  0  0  0  0  0
  146.3155  140.2152  154.1345 H   0  0  0  0  0  0  0  0  0  0  0  0
  150.3472  136.8205  157.3443 H   0  0  0  0  0  0  0  0  0  0  0  0
  150.0646  143.0951  155.9347 H   0  0  0  0  0  0  0  0  0  0  0  0
  152.7190  141.4344  157.2869 H   0  0  0  0  0  0  0  0  0  0  0  0
  150.7187  141.2340  159.5998 H   0  0  0  0  0  0  0  0  0  0  0  0
  152.3488  140.4917  159.4860 H   0  0  0  0  0  0  0  0  0  0  0  0
  152.3809  144.3678  160.9941 H   0  0  0  0  0  0  0  0  0  0  0  0
  150.7854  143.7104  160.7010 H   0  0  0  0  0  0  0  0  0  0  0  0
  152.8356  142.6846  162.2886 H   0  0  0  0  0  0  0  0  0  0  0  0
  154.3512  142.3037  158.7498 H   0  0  0  0  0  0  0  0  0  0  0  0
  154.3070  143.7094  159.7802 H   0  0  0  0  0  0  0  0  0  0  0  0
  154.3644  142.4831  161.5253 H   0  0  0  0  0  0  0  0  0  0  0  0
  152.4608  143.8167  157.6043 H   0  0  0  0  0  0  0  0  0  0  0  0
  150.8006  143.6148  158.2551 H   0  0  0  0  0  0  0  0  0  0  0  0
  147.3066  136.5494  151.4243 H   0  0  0  0  0  0  0  0  0  0  0  0
  1  2  1  0  0  0  0
  1 31  1  0  0  0  0
  1 32  1  0  0  0  0
  1 33  1  0  0  0  0
  2 29  1  0  0  0  0
  2 11  1  0  0  0  0
  2  3  1  0  0  0  0
  3 30  1  0  0  0  0
  3  4  1  0  0  0  0
  3  9  1  0  0  0  0
  4  5  1  0  0  0  0
  4  6  1  0  0  0  0
  4 59  1  0  0  0  0
  5 34  1  0  0  0  0
  5 35  1  0  0  0  0
  5 36  1  0  0  0  0
  6  7  1  0  0  0  0
  6 37  1  0  0  0  0
  6 38  1  0  0  0  0
  7  8  1  0  0  0  0
  7 39  1  0  0  0  0
  7 40  1  0  0  0  0
  8 41  1  0  0  0  0
  9 10  1  0  0  0  0
  9 42  1  0  0  0  0
  9 43  1  0  0  0  0
 10 11  1  0  0  0  0
 10 44  1  0  0  0  0
 10 45  1  0  0  0  0
 11 12  1  0  0  0  0
 12 17  1  0  0  0  0
 12 13  2  0  0  0  0
 13 14  1  0  0  0  0
 14 15  2  0  0  0  0
 14 46  1  0  0  0  0
 15 16  1  0  0  0  0
 16 20  1  0  0  0  0
 16 17  2  0  0  0  0
 17 18  1  0  0  0  0
 18 19  2  0  0  0  0
 19 20  1  0  0  0  0
 19 47  1  0  0  0  0
 20 21  1  0  0  0  0
 21 28  1  0  0  0  0
 21 22  1  0  0  0  0
 21 48  1  0  0  0  0
 22 23  1  0  0  0  0
 22 49  1  0  0  0  0
 22 50  1  0  0  0  0
 23 24  1  0  0  0  0
 23 26  1  0  0  0  0
 23 28  1  0  0  0  0
 24 25  1  0  0  0  0
 24 51  1  0  0  0  0
 24 52  1  0  0  0  0
 25 53  1  0  0  0  0
 26 27  1  0  0  0  0
 26 54  1  0  0  0  0
 26 55  1  0  0  0  0
 27 56  1  0  0  0  0
 28 57  1  0  0  0  0
 28 58  1  0  0  0  0
M  CHG  1   4   1
M  END
> <s_m_source_file>
AV-unprocessed.smi

> <i_m_source_file_index>
215

> <i_lp_mmshare_version>
43012

> <i_f3d_flags>
0

> <s_epik_input>
W09IXVtDSDJdW0NIMl1OKFtDSDNdKVtDQEBIXShbQ0BIXTFbQ0gzXSlbQ0gyXVtDSDJdTjFjKG5bY0hdbjIpYyhjMjMpbltjSF1uM1tDSF0oW0NIMl00KVtDSDJdQzQoW0NIMl1bT0hdKVtDSDJdW09IXQ==

> <s_epik_cmdline>
J2VwaWtfcHl0aG9uJywgJy1waCcsICc3LjAnLCAnLXRuJywgJzgnLCAnLW1hJywgJzIwMCcsICctbWV0YWxfYmluZGluZycsICctaW1hZScsICc8aW5maWxlLm1hZT4nLCAnLW9tYWUnLCAnPG91dGZpbGUubWFlPic=

> <r_lp_tautomer_probability>
1

> <r_epik_Ionization_Penalty>
0.0036237

> <r_epik_Ionization_Penalty_Charging>
0.0032725

> <r_epik_Ionization_Penalty_Neutral>
0.000351196

> <r_epik_State_Penalty>
-0

> <r_epik_Charging_Adjusted_Penalty>
0.0032725

> <i_epik_Tot_Q>
1

> <i_epik_Tot_abs_Q>
1

> <r_epik_Metal_State_Penalty>
-0

> <b_epik_Metal_Only>
0

> <s_lp_Force_Field>
OPLS_2005

> <r_lp_Energy>
68.3917

> <b_lp_Chiralities_Consistent>
1

> <s_lp_Variant>
AV-unprocessed.smi:215-2

> <Gold.Version>
5.8.1

> <Gold.Id.Protein>
6NUR|6NUR_protein|mol2

> <Gold.PLP.Fitness>
49.0923

> <Gold.PLP.PLP>
-39.1455

> <Gold.PLP.part.hbond>
-3.4538

> <Gold.PLP.part.metal>
0.0000

> <Gold.PLP.part.buried>
-0.4965

> <Gold.PLP.part.nonpolar>
-35.3690

> <Gold.PLP.part.repulsive>
0.2000

> <Gold.PLP.ligand.clash>
0.0000

> <Gold.PLP.ligand.torsion>
0.9319

> <Gold.PLP.Chemscore.Hbond>
2.8112

> <Gold.PLP.Chemscore.CHOScore>
0.9309

> <Gold.PLP.Chemscore.Metal>
0.0000

> <Gold.Chemscore.Hbonds>
donor molecule, donor type, donor heavy atom, donor atom, acceptor molecule, acceptor atom, score
      L1  H     4    59       P1  7948  2.00
      P1  H  6933  6945       L1    25  0.71
      L1  C    19    47       P1  8028  0.98

> <Gold.PLP.Chemscore.Internal.Correction>
0.5844

> <Gold.Rescore>
     Score         DG    S(hbond)    S(metal)    S(lipo)     H(rot)  DE(clash)    DE(int)     intcor
      7.41     -12.85       1.84        0.00     108.44       4.48       2.66       2.78       ----

> <Gold.Chemscore.Fitness>
7.4128

> <Gold.Chemscore.DG>
-12.8529

> <Gold.Chemscore.ZeroCoef>
-5.4800

> <Gold.Chemscore.Hbond>
1.8418

> <Gold.Chemscore.Metal>
0.0000

> <Gold.Chemscore.Lipo>
108.4352

> <Gold.Chemscore.Internal_Hbond>
0.0000

> <Gold.Chemscore.DEClash>
2.6632

> <Gold.Chemscore.DEInternal>
2.7770

> <Gold.Chemscore.Rot>
4.4787

> <Gold.Chemscore.Internal.Correction>
   9.000000E+99

> <Gold.Chemscore.Hbonds>
donor molecule, donor type, donor heavy atom, donor atom, acceptor molecule, acceptor atom, score
      L1  H     4    59       P1  7948  1.00
      P1  H  6933  6945       L1    25  0.38

> <Gold.Chemscore.Hbond.Weighted>
-6.1515

> <Gold.Chemscore.Metal.Weighted>
-0.0000

> <Gold.Chemscore.Lipo.Weighted>
-12.6869

> <Gold.Chemscore.Internal_Hbond.Weighted>
0.0000

> <Gold.Chemscore.DEClash.Weighted>
2.6632

> <Gold.Chemscore.DEInternal.Weighted>
2.7770

> <Gold.Chemscore.Rot.Weighted>
11.4655

> <Gold.Chemscore.Internal.Correction.Weighted>
   9.000000E+99

> <Gold.Protein.RotatedTorsions>
[ 6907 6896 6895 6894 ] final  -14.44 input  -60.11 | X-H torsion
[ 7974 7965 7964 7962 ] final -151.23 input  175.53 | X-H torsion
[ 8008 7997 7996 7995 ] final  -77.54 input   59.86 | X-H torsion
[ 10167 10162 10161 10158 ] final  117.19 input  -65.29 | X-H torsion
[ 10718 10713 10712 10709 ] final   95.92 input   66.30 | X-H torsion
[ 10763 10752 10751 10750 ] final  -24.75 input  -60.55 | X-H torsion
[ 11005 11000 10999 10996 ] final  132.19 input  -57.11 | X-H torsion

> <Gold.Protein.ActiveResidues>
 VAL166  LYS551  ARG553  GLY616  TRP617  ASP618  TYR619  PRO620  LYS621  CYS622 
 ASP623  PHE694  ASN695  SER759  ASP760  ASP761  ALA762  ILE779  LEU786  VAL792 
 PHE793  MET794  SER795  GLU796  ALA797  LYS798  CYS799  TRP800  GLU811  SER814 

> <Gold.Protein.RotatedAtoms>
  151.3393  135.0860  159.9365 H   0  0  0  0  0  0  0  0  0  0  0  0  # atno 6907 bound_to 6896
  152.5215  133.9463  159.7661 H   0  0  0  0  0  0  0  0  0  0  0  0  # atno 6908 bound_to 6896
  150.9817  133.6186  159.2751 H   0  0  0  0  0  0  0  0  0  0  0  0  # atno 6909 bound_to 6896
  144.7861  140.4825  143.5805 H   0  0  0  0  0  0  0  0  0  0  0  0  # atno 7974 bound_to 7965
  154.5605  140.0709  156.8812 H   0  0  0  0  0  0  0  0  0  0  0  0  # atno 8008 bound_to 7997
  155.2820  140.3372  155.4239 H   0  0  0  0  0  0  0  0  0  0  0  0  # atno 8009 bound_to 7997
  156.2038  140.1732  156.7828 H   0  0  0  0  0  0  0  0  0  0  0  0  # atno 8010 bound_to 7997
  139.6195  144.7098  151.2664 H   0  0  0  0  0  0  0  0  0  0  0  0  # atno 10167 bound_to 10162
  157.6933  131.0561  150.4412 H   0  0  0  0  0  0  0  0  0  0  0  0  # atno 10718 bound_to 10713
  153.6888  135.6963  153.5096 H   0  0  0  0  0  0  0  0  0  0  0  0  # atno 10763 bound_to 10752
  153.2429  135.4300  155.0716 H   0  0  0  0  0  0  0  0  0  0  0  0  # atno 10764 bound_to 10752
  154.8379  135.3512  154.6430 H   0  0  0  0  0  0  0  0  0  0  0  0  # atno 10765 bound_to 10752
  139.9775  134.9559  156.9547 H   0  0  0  0  0  0  0  0  0  0  0  0  # atno 11005 bound_to 11000
  145.5917  139.1496  143.3178 LP  0  0  0  0  0  0  0  0  0  0  0  0  # atno 17320 bound_to 7965
  146.2094  140.6042  142.9066 LP  0  0  0  0  0  0  0  0  0  0  0  0  # atno 17321 bound_to 7965
  140.7373  143.6682  150.8105 LP  0  0  0  0  0  0  0  0  0  0  0  0  # atno 17342 bound_to 10162
  140.0290  143.5463  152.2768 LP  0  0  0  0  0  0  0  0  0  0  0  0  # atno 17343 bound_to 10162
  156.4770  130.4065  149.6484 LP  0  0  0  0  0  0  0  0  0  0  0  0  # atno 17370 bound_to 10713
  156.3543  130.7448  151.2412 LP  0  0  0  0  0  0  0  0  0  0  0  0  # atno 17371 bound_to 10713
  140.5164  134.0951  155.7282 LP  0  0  0  0  0  0  0  0  0  0  0  0  # atno 17394 bound_to 11000
  141.1451  133.9070  157.2235 LP  0  0  0  0  0  0  0  0  0  0  0  0  # atno 17395 bound_to 11000

$$$$
