AV-unprocessed.smi:1330|AV-procd|sdf|5486|dock5
  -GOLD-   22720 5 63D 1   1.00000     0.00000
 Structure written by MMmdl.
 42 43  0  0  0  0  0  0  0  0  1 V2000
  153.3646  140.8060  160.0878 C   0  0  0  0  0  0  0  0  0  0  0  0
  152.9297  139.7797  159.0768 C   0  0  0  0  0  0  0  0  0  0  0  0
  153.1246  138.5400  159.3865 N   0  0  0  0  0  0  0  0  0  0  0  0
  152.7648  137.5193  158.5291 N   0  0  0  0  0  0  0  0  0  0  0  0
  153.0778  136.1774  159.0362 C   0  0  0  0  0  0  0  0  0  0  0  0
  153.7833  136.2292  160.4098 C   0  0  1  0  0  0  0  0  0  0  0  0
  153.3559  135.1068  161.1567 O   0  0  0  0  0  0  0  0  0  0  0  0
  155.3123  136.1326  160.2768 C   0  0  0  0  0  0  0  0  0  0  0  0
  155.6431  134.8855  159.6883 O   0  0  0  0  0  0  0  0  0  0  0  0
  156.9989  134.8070  159.2838 C   0  0  0  0  0  0  0  0  0  0  0  0
  157.1485  135.1311  157.8114 C   0  0  0  0  0  0  0  0  0  0  0  0
  157.9115  134.2921  156.9726 C   0  0  0  0  0  0  0  0  0  0  0  0
  158.0409  134.5912  155.6021 C   0  0  0  0  0  0  0  0  0  0  0  0
  157.4073  135.7296  155.0660 C   0  0  0  0  0  0  0  0  0  0  0  0
  157.5651  136.0947  153.3871 Cl  0  0  0  0  0  0  0  0  0  0  0  0
  156.6438  136.5684  155.9014 C   0  0  0  0  0  0  0  0  0  0  0  0
  156.5142  136.2694  157.2719 C   0  0  0  0  0  0  0  0  0  0  0  0
  152.1828  137.6988  157.3087 C   0  0  0  0  0  0  0  0  0  0  0  0
  151.8817  136.7574  156.5735 O   0  0  0  0  0  0  0  0  0  0  0  0
  151.9631  139.1054  156.9644 C   0  0  0  0  0  0  0  0  0  0  0  0
  151.3579  139.3384  155.6928 C   0  0  0  0  0  0  0  0  0  0  0  0
  150.8780  139.5452  154.6599 N   0  0  0  0  0  0  0  0  0  0  0  0
  152.3148  140.1172  157.7969 C   0  0  0  0  0  0  0  0  0  0  0  0
  152.1116  141.5935  157.4857 C   0  0  0  0  0  0  0  0  0  0  0  0
  152.5156  141.4004  160.4254 H   0  0  0  0  0  0  0  0  0  0  0  0
  154.1032  141.4832  159.6590 H   0  0  0  0  0  0  0  0  0  0  0  0
  153.8143  140.3450  160.9686 H   0  0  0  0  0  0  0  0  0  0  0  0
  152.1791  135.5591  159.0896 H   0  0  0  0  0  0  0  0  0  0  0  0
  153.7161  135.6738  158.3079 H   0  0  0  0  0  0  0  0  0  0  0  0
  153.5245  137.1478  160.9380 H   0  0  0  0  0  0  0  0  0  0  0  0
  153.4640  134.3343  160.6230 H   0  0  0  0  0  0  0  0  0  0  0  0
  155.7154  136.9674  159.7002 H   0  0  0  0  0  0  0  0  0  0  0  0
  155.7728  136.1705  161.2653 H   0  0  0  0  0  0  0  0  0  0  0  0
  157.6031  135.5060  159.8645 H   0  0  0  0  0  0  0  0  0  0  0  0
  157.3909  133.8071  159.4773 H   0  0  0  0  0  0  0  0  0  0  0  0
  158.3964  133.4153  157.3764 H   0  0  0  0  0  0  0  0  0  0  0  0
  158.6254  133.9453  154.9633 H   0  0  0  0  0  0  0  0  0  0  0  0
  156.1560  137.4410  155.4926 H   0  0  0  0  0  0  0  0  0  0  0  0
  155.9242  136.9138  157.9073 H   0  0  0  0  0  0  0  0  0  0  0  0
  151.6306  141.7499  156.5206 H   0  0  0  0  0  0  0  0  0  0  0  0
  153.0691  142.1147  157.4632 H   0  0  0  0  0  0  0  0  0  0  0  0
  151.4826  142.0618  158.2434 H   0  0  0  0  0  0  0  0  0  0  0  0
  1  2  1  0  0  0  0
  1 25  1  0  0  0  0
  1 26  1  0  0  0  0
  1 27  1  0  0  0  0
  2 23  1  0  0  0  0
  2  3  2  0  0  0  0
  3  4  1  0  0  0  0
  4  5  1  0  0  0  0
  4 18  1  0  0  0  0
  5  6  1  0  0  0  0
  5 28  1  0  0  0  0
  5 29  1  0  0  0  0
  6  7  1  0  0  0  0
  6  8  1  0  0  0  0
  6 30  1  0  0  0  0
  7 31  1  0  0  0  0
  8  9  1  0  0  0  0
  8 32  1  0  0  0  0
  8 33  1  0  0  0  0
  9 10  1  0  0  0  0
 10 11  1  0  0  0  0
 10 34  1  0  0  0  0
 10 35  1  0  0  0  0
 11 17  1  0  0  0  0
 11 12  2  0  0  0  0
 12 13  1  0  0  0  0
 12 36  1  0  0  0  0
 13 14  2  0  0  0  0
 13 37  1  0  0  0  0
 14 15  1  0  0  0  0
 14 16  1  0  0  0  0
 16 17  2  0  0  0  0
 16 38  1  0  0  0  0
 17 39  1  0  0  0  0
 18 19  2  0  0  0  0
 18 20  1  0  0  0  0
 20 21  1  0  0  0  0
 20 23  2  0  0  0  0
 21 22  3  0  0  0  0
 23 24  1  0  0  0  0
 24 40  1  0  0  0  0
 24 41  1  0  0  0  0
 24 42  1  0  0  0  0
M  END
> <s_m_source_file>
AV-unprocessed.smi

> <i_m_source_file_index>
1330

> <i_lp_mmshare_version>
43012

> <i_f3d_flags>
0

> <s_epik_input>
TiNDYyhjMVtDSDNdKWMoPU8pbihuYzFbQ0gzXSlbQ0gyXVtDQEhdKFtPSF0pW0NIMl1PW0NIMl1jMltjSF1bY0hdYyhDbClbY0hdW2NIXTI=

> <s_epik_cmdline>
J2VwaWtfcHl0aG9uJywgJy1waCcsICc3LjAnLCAnLXRuJywgJzgnLCAnLW1hJywgJzIwMCcsICctbWV0YWxfYmluZGluZycsICctaW1hZScsICc8aW5maWxlLm1hZT4nLCAnLW9tYWUnLCAnPG91dGZpbGUubWFlPic=

> <r_lp_tautomer_probability>
1

> <r_epik_Ionization_Penalty>
6.27695e-08

> <r_epik_Ionization_Penalty_Charging>
2.19172e-10

> <r_epik_Ionization_Penalty_Neutral>
6.25504e-08

> <r_epik_State_Penalty>
-0

> <r_epik_Charging_Adjusted_Penalty>
2.19172e-10

> <i_epik_Tot_Q>
0

> <i_epik_Tot_abs_Q>
0

> <r_epik_Metal_State_Penalty>
-0

> <b_epik_Metal_Only>
0

> <s_lp_Force_Field>
OPLS_2005

> <r_lp_Energy>
31.5646

> <b_lp_Chiralities_Consistent>
1

> <s_lp_Variant>
AV-unprocessed.smi:1330-2

> <Gold.Version>
5.8.1

> <Gold.Id.Protein>
6NUR|6NUR_protein|mol2

> <Gold.PLP.Fitness>
42.3873

> <Gold.PLP.PLP>
-35.5232

> <Gold.PLP.part.hbond>
-3.0000

> <Gold.PLP.part.metal>
0.0000

> <Gold.PLP.part.buried>
-5.5961

> <Gold.PLP.part.nonpolar>
-27.5514

> <Gold.PLP.part.repulsive>
0.1540

> <Gold.PLP.ligand.clash>
0.0000

> <Gold.PLP.ligand.torsion>
0.9098

> <Gold.PLP.Chemscore.Hbond>
2.8640

> <Gold.PLP.Chemscore.CHOScore>
0.0000

> <Gold.PLP.Chemscore.Metal>
0.0000

> <Gold.Chemscore.Hbonds>
donor molecule, donor type, donor heavy atom, donor atom, acceptor molecule, acceptor atom, score
      P1  H  7989  7998       L1    22  1.00
      P1  H 10752 10764       L1    19  0.03

> <Gold.PLP.Chemscore.Internal.Correction>
0.0918

> <Gold.Rescore>
     Score         DG    S(hbond)    S(metal)    S(lipo)     H(rot)  DE(clash)    DE(int)     intcor
     16.79     -17.79       1.89        0.00     105.52       2.48       0.22       0.77       ----

> <Gold.Chemscore.Fitness>
16.7929

> <Gold.Chemscore.DG>
-17.7893

> <Gold.Chemscore.ZeroCoef>
-5.4800

> <Gold.Chemscore.Hbond>
1.8881

> <Gold.Chemscore.Metal>
0.0000

> <Gold.Chemscore.Lipo>
105.5205

> <Gold.Chemscore.Internal_Hbond>
0.0000

> <Gold.Chemscore.DEClash>
0.2249

> <Gold.Chemscore.DEInternal>
0.7715

> <Gold.Chemscore.Rot>
2.4777

> <Gold.Chemscore.Internal.Correction>
   9.000000E+99

> <Gold.Chemscore.Hbonds>
donor molecule, donor type, donor heavy atom, donor atom, acceptor molecule, acceptor atom, score
      P1  H  7989  7998       L1    22  0.97
      P1  H 10752 10764       L1    19  0.08

> <Gold.Chemscore.Hbond.Weighted>
-6.3062

> <Gold.Chemscore.Metal.Weighted>
-0.0000

> <Gold.Chemscore.Lipo.Weighted>
-12.3459

> <Gold.Chemscore.Internal_Hbond.Weighted>
0.0000

> <Gold.Chemscore.DEClash.Weighted>
0.2249

> <Gold.Chemscore.DEInternal.Weighted>
0.7715

> <Gold.Chemscore.Rot.Weighted>
6.3428

> <Gold.Chemscore.Internal.Correction.Weighted>
   9.000000E+99

> <Gold.Protein.RotatedTorsions>
[ 6907 6896 6895 6894 ] final   74.57 input  -60.11 | X-H torsion
[ 7974 7965 7964 7962 ] final  120.96 input  175.53 | X-H torsion
[ 8008 7997 7996 7995 ] final  -12.58 input   59.86 | X-H torsion
[ 10167 10162 10161 10158 ] final   39.79 input  -65.29 | X-H torsion
[ 10718 10713 10712 10709 ] final  -38.20 input   66.30 | X-H torsion
[ 10763 10752 10751 10750 ] final  -47.92 input  -60.55 | X-H torsion
[ 11005 11000 10999 10996 ] final   70.86 input  -57.11 | X-H torsion

> <Gold.Protein.ActiveResidues>
 VAL166  LYS551  ARG553  GLY616  TRP617  ASP618  TYR619  PRO620  LYS621  CYS622 
 ASP623  PHE694  ASN695  SER759  ASP760  ASP761  ALA762  ILE779  LEU786  VAL792 
 PHE793  MET794  SER795  GLU796  ALA797  LYS798  CYS799  TRP800  GLU811  SER814 

> <Gold.Protein.RotatedAtoms>
  152.4982  134.4251  159.9493 H   0  0  0  0  0  0  0  0  0  0  0  0  # atno 6907 bound_to 6896
  151.4226  133.3687  159.2766 H   0  0  0  0  0  0  0  0  0  0  0  0  # atno 6908 bound_to 6896
  150.9211  134.8652  159.7549 H   0  0  0  0  0  0  0  0  0  0  0  0  # atno 6909 bound_to 6896
  145.1249  139.3364  143.4695 H   0  0  0  0  0  0  0  0  0  0  0  0  # atno 7974 bound_to 7965
  154.5365  140.2272  155.8714 H   0  0  0  0  0  0  0  0  0  0  0  0  # atno 8008 bound_to 7997
  156.1816  140.3098  155.9123 H   0  0  0  0  0  0  0  0  0  0  0  0  # atno 8009 bound_to 7997
  155.3344  140.0447  157.3034 H   0  0  0  0  0  0  0  0  0  0  0  0  # atno 8010 bound_to 7997
  140.3805  144.1986  150.6131 H   0  0  0  0  0  0  0  0  0  0  0  0  # atno 10167 bound_to 10162
  156.3064  130.4247  149.8092 H   0  0  0  0  0  0  0  0  0  0  0  0  # atno 10718 bound_to 10713
  154.0693  135.6607  153.4822 H   0  0  0  0  0  0  0  0  0  0  0  0  # atno 10763 bound_to 10752
  153.0397  135.5153  154.7582 H   0  0  0  0  0  0  0  0  0  0  0  0  # atno 10764 bound_to 10752
  154.6643  135.3019  154.9793 H   0  0  0  0  0  0  0  0  0  0  0  0  # atno 10765 bound_to 10752
  139.9574  134.7120  156.0721 H   0  0  0  0  0  0  0  0  0  0  0  0  # atno 11005 bound_to 11000
  146.3518  140.1224  142.8600 LP  0  0  0  0  0  0  0  0  0  0  0  0  # atno 17320 bound_to 7965
  145.0699  140.9148  143.4888 LP  0  0  0  0  0  0  0  0  0  0  0  0  # atno 17321 bound_to 7965
  140.4942  143.2338  151.8774 LP  0  0  0  0  0  0  0  0  0  0  0  0  # atno 17342 bound_to 10162
  139.4796  144.5132  151.8904 LP  0  0  0  0  0  0  0  0  0  0  0  0  # atno 17343 bound_to 10162
  156.5451  130.8317  151.3282 LP  0  0  0  0  0  0  0  0  0  0  0  0  # atno 17370 bound_to 10713
  157.7381  130.9807  150.2230 LP  0  0  0  0  0  0  0  0  0  0  0  0  # atno 17371 bound_to 10713
  141.1248  133.6602  156.3307 LP  0  0  0  0  0  0  0  0  0  0  0  0  # atno 17394 bound_to 11000
  140.5577  134.5965  157.5425 LP  0  0  0  0  0  0  0  0  0  0  0  0  # atno 17395 bound_to 11000

$$$$
