AV-unprocessed.smi:3033|AV-procd|sdf|11573|dock3
  -GOLD-   2272016543D 1   1.00000     0.00000
 Structure written by MMmdl.
 33 34  0  0  0  0  0  0  0  0  1 V2000
  153.6435  142.3703  162.7777 C   0  0  0  0  0  0  0  0  0  0  0  0
  153.3656  141.5442  161.6564 O   0  0  0  0  0  0  0  0  0  0  0  0
  152.8220  142.1339  160.5353 C   0  0  0  0  0  0  0  0  0  0  0  0
  152.6606  143.5325  160.3702 C   0  0  0  0  0  0  0  0  0  0  0  0
  152.0911  144.0485  159.1906 C   0  0  0  0  0  0  0  0  0  0  0  0
  151.6794  143.1791  158.1642 C   0  0  0  0  0  0  0  0  0  0  0  0
  151.8377  141.7851  158.3121 C   0  0  0  0  0  0  0  0  0  0  0  0
  151.3889  140.8341  157.2129 C   0  0  2  0  0  0  0  0  0  0  0  0
  152.4011  139.8941  156.9117 O   0  0  0  0  0  0  0  0  0  0  0  0
  151.0132  141.6095  155.9311 C   0  0  0  0  0  0  0  0  0  0  0  0
  149.9126  141.0152  155.2103 N   0  0  0  0  0  0  0  0  0  0  0  0
  148.7281  141.6992  154.9829 C   0  0  0  0  0  0  0  0  0  0  0  0
  147.6698  141.1583  154.3325 C   0  0  0  0  0  0  0  0  0  0  0  0
  146.2262  142.0758  154.0920 Cl  0  0  0  0  0  0  0  0  0  0  0  0
  147.7426  139.7862  153.8321 C   0  0  0  0  0  0  0  0  0  0  0  0
  146.8465  139.1995  153.2286 O   0  0  0  0  0  0  0  0  0  0  0  0
  148.9518  139.1329  154.0897 N   0  0  0  0  0  0  0  0  0  0  0  0
  150.0453  139.6807  154.7615 C   0  0  0  0  0  0  0  0  0  0  0  0
  151.0569  139.0017  154.9365 O   0  0  0  0  0  0  0  0  0  0  0  0
  152.4053  141.2741  159.4983 C   0  0  0  0  0  0  0  0  0  0  0  0
  149.0408  138.1816  153.7634 H   0  0  0  0  0  0  0  0  0  0  0  0
  154.0598  141.7607  163.5795 H   0  0  0  0  0  0  0  0  0  0  0  0
  152.7374  142.8428  163.1597 H   0  0  0  0  0  0  0  0  0  0  0  0
  154.3772  143.1397  162.5337 H   0  0  0  0  0  0  0  0  0  0  0  0
  152.9644  144.2312  161.1348 H   0  0  0  0  0  0  0  0  0  0  0  0
  151.9693  145.1151  159.0730 H   0  0  0  0  0  0  0  0  0  0  0  0
  151.2407  143.5852  157.2642 H   0  0  0  0  0  0  0  0  0  0  0  0
  150.5209  140.2799  157.5732 H   0  0  0  0  0  0  0  0  0  0  0  0
  151.9912  139.1021  156.5998 H   0  0  0  0  0  0  0  0  0  0  0  0
  150.6521  142.6065  156.1912 H   0  0  0  0  0  0  0  0  0  0  0  0
  151.8521  141.7742  155.2515 H   0  0  0  0  0  0  0  0  0  0  0  0
  148.6409  142.7140  155.3452 H   0  0  0  0  0  0  0  0  0  0  0  0
  152.5240  140.2072  159.6203 H   0  0  0  0  0  0  0  0  0  0  0  0
  1  2  1  0  0  0  0
  1 22  1  0  0  0  0
  1 23  1  0  0  0  0
  1 24  1  0  0  0  0
  2  3  1  0  0  0  0
  3 20  1  0  0  0  0
  3  4  2  0  0  0  0
  4  5  1  0  0  0  0
  4 25  1  0  0  0  0
  5  6  2  0  0  0  0
  5 26  1  0  0  0  0
  6  7  1  0  0  0  0
  6 27  1  0  0  0  0
  7  8  1  0  0  0  0
  7 20  2  0  0  0  0
  8  9  1  0  0  0  0
  8 10  1  0  0  0  0
  8 28  1  0  0  0  0
  9 29  1  0  0  0  0
 10 11  1  0  0  0  0
 10 30  1  0  0  0  0
 10 31  1  0  0  0  0
 11 18  1  0  0  0  0
 11 12  1  0  0  0  0
 12 13  2  0  0  0  0
 12 32  1  0  0  0  0
 13 14  1  0  0  0  0
 13 15  1  0  0  0  0
 15 16  2  0  0  0  0
 15 17  1  0  0  0  0
 17 21  1  0  0  0  0
 17 18  1  0  0  0  0
 18 19  2  0  0  0  0
 20 33  1  0  0  0  0
M  END
> <s_m_source_file>
AV-unprocessed.smi

> <i_m_source_file_index>
3033

> <i_lp_mmshare_version>
43012

> <i_f3d_flags>
0

> <s_epik_input>
W0NIM11PYzFbY0hdW2NIXVtjSF1jKFtjSF0xKVtDQEhdKFtPSF0pW0NIMl1uMltjSF1jKENsKWMoPU8pW25IXWMyPU8=

> <s_epik_cmdline>
J2VwaWtfcHl0aG9uJywgJy1waCcsICc3LjAnLCAnLXRuJywgJzgnLCAnLW1hJywgJzIwMCcsICctbWV0YWxfYmluZGluZycsICctaW1hZScsICc8aW5maWxlLm1hZT4nLCAnLW9tYWUnLCAnPG91dGZpbGUubWFlPic=

> <r_lp_tautomer_probability>
0.999537

> <r_epik_Ionization_Penalty>
0.0292058

> <r_epik_Ionization_Penalty_Charging>
0.0292057

> <r_epik_Ionization_Penalty_Neutral>
7.1713e-08

> <r_epik_State_Penalty>
0.0240115

> <r_epik_Charging_Adjusted_Penalty>
0.0532172

> <i_epik_Tot_Q>
0

> <i_epik_Tot_abs_Q>
0

> <r_epik_Metal_State_Penalty>
2.21956

> <b_epik_Metal_Only>
0

> <s_lp_Force_Field>
OPLS_2005

> <r_lp_Energy>
16.8707

> <b_lp_Chiralities_Consistent>
1

> <s_lp_Variant>
AV-unprocessed.smi:3033-1

> <Gold.Version>
5.8.1

> <Gold.Id.Protein>
6NUR|6NUR_protein|mol2

> <Gold.PLP.Fitness>
47.9578

> <Gold.PLP.PLP>
-43.3286

> <Gold.PLP.part.hbond>
-1.9941

> <Gold.PLP.part.metal>
0.0000

> <Gold.PLP.part.buried>
-3.5887

> <Gold.PLP.part.nonpolar>
-37.4210

> <Gold.PLP.part.repulsive>
0.4005

> <Gold.PLP.ligand.clash>
0.0000

> <Gold.PLP.ligand.torsion>
0.7026

> <Gold.PLP.Chemscore.Hbond>
1.0000

> <Gold.PLP.Chemscore.CHOScore>
1.0000

> <Gold.PLP.Chemscore.Metal>
0.0000

> <Gold.Chemscore.Hbonds>
donor molecule, donor type, donor heavy atom, donor atom, acceptor molecule, acceptor atom, score
      P1  H  7997  8010       L1     9  1.00
      L1  C    12    32       P1  8028  1.00

> <Gold.PLP.Chemscore.Internal.Correction>
0.0344

> <Gold.Rescore>
     Score         DG    S(hbond)    S(metal)    S(lipo)     H(rot)  DE(clash)    DE(int)     intcor
     11.52     -15.29       0.97        0.00     111.08       2.51       0.11       3.66       ----

> <Gold.Chemscore.Fitness>
11.5205

> <Gold.Chemscore.DG>
-15.2906

> <Gold.Chemscore.ZeroCoef>
-5.4800

> <Gold.Chemscore.Hbond>
0.9705

> <Gold.Chemscore.Metal>
0.0000

> <Gold.Chemscore.Lipo>
111.0821

> <Gold.Chemscore.Internal_Hbond>
0.0000

> <Gold.Chemscore.DEClash>
0.1124

> <Gold.Chemscore.DEInternal>
3.6577

> <Gold.Chemscore.Rot>
2.5107

> <Gold.Chemscore.Internal.Correction>
   9.000000E+99

> <Gold.Chemscore.Hbonds>
donor molecule, donor type, donor heavy atom, donor atom, acceptor molecule, acceptor atom, score
      P1  H  7997  8010       L1     9  0.89

> <Gold.Chemscore.Hbond.Weighted>
-3.2414

> <Gold.Chemscore.Metal.Weighted>
-0.0000

> <Gold.Chemscore.Lipo.Weighted>
-12.9966

> <Gold.Chemscore.Internal_Hbond.Weighted>
0.0000

> <Gold.Chemscore.DEClash.Weighted>
0.1124

> <Gold.Chemscore.DEInternal.Weighted>
3.6577

> <Gold.Chemscore.Rot.Weighted>
6.4274

> <Gold.Chemscore.Internal.Correction.Weighted>
   9.000000E+99

> <Gold.Protein.RotatedTorsions>
[ 6907 6896 6895 6894 ] final   56.39 input  -60.11 | X-H torsion
[ 7974 7965 7964 7962 ] final -133.34 input  175.53 | X-H torsion
[ 8008 7997 7996 7995 ] final   52.65 input   59.86 | X-H torsion
[ 10167 10162 10161 10158 ] final -116.67 input  -65.29 | X-H torsion
[ 10718 10713 10712 10709 ] final  -38.22 input   66.30 | X-H torsion
[ 10763 10752 10751 10750 ] final  -32.25 input  -60.55 | X-H torsion
[ 11005 11000 10999 10996 ] final   29.27 input  -57.11 | X-H torsion

> <Gold.Protein.ActiveResidues>
 VAL166  LYS551  ARG553  GLY616  TRP617  ASP618  TYR619  PRO620  LYS621  CYS622 
 ASP623  PHE694  ASN695  SER759  ASP760  ASP761  ALA762  ILE779  LEU786  VAL792 
 PHE793  MET794  SER795  GLU796  ALA797  LYS798  CYS799  TRP800  GLU811  SER814 

> <Gold.Protein.RotatedAtoms>
  152.3631  134.6843  160.0200 H   0  0  0  0  0  0  0  0  0  0  0  0  # atno 6907 bound_to 6896
  151.7160  133.3308  159.3311 H   0  0  0  0  0  0  0  0  0  0  0  0  # atno 6908 bound_to 6896
  150.7619  134.6425  159.6289 H   0  0  0  0  0  0  0  0  0  0  0  0  # atno 6909 bound_to 6896
  144.9202  140.7004  143.4970 H   0  0  0  0  0  0  0  0  0  0  0  0  # atno 7974 bound_to 7965
  155.4552  140.3459  155.4306 H   0  0  0  0  0  0  0  0  0  0  0  0  # atno 8008 bound_to 7997
  156.1195  140.1483  156.9254 H   0  0  0  0  0  0  0  0  0  0  0  0  # atno 8009 bound_to 7997
  154.4813  140.0869  156.7363 H   0  0  0  0  0  0  0  0  0  0  0  0  # atno 8010 bound_to 7997
  140.0767  143.4826  152.1949 H   0  0  0  0  0  0  0  0  0  0  0  0  # atno 10167 bound_to 10162
  156.3062  130.4246  149.8094 H   0  0  0  0  0  0  0  0  0  0  0  0  # atno 10718 bound_to 10713
  153.8106  135.6882  153.4841 H   0  0  0  0  0  0  0  0  0  0  0  0  # atno 10763 bound_to 10752
  153.1630  135.4572  154.9797 H   0  0  0  0  0  0  0  0  0  0  0  0  # atno 10764 bound_to 10752
  154.7969  135.3322  154.7587 H   0  0  0  0  0  0  0  0  0  0  0  0  # atno 10765 bound_to 10752
  140.3067  134.2696  155.7742 H   0  0  0  0  0  0  0  0  0  0  0  0  # atno 11005 bound_to 11000
  145.3309  139.1760  143.4537 LP  0  0  0  0  0  0  0  0  0  0  0  0  # atno 17320 bound_to 7965
  146.3201  140.3338  142.8642 LP  0  0  0  0  0  0  0  0  0  0  0  0  # atno 17321 bound_to 7965
  139.5804  144.7507  151.3656 LP  0  0  0  0  0  0  0  0  0  0  0  0  # atno 17342 bound_to 10162
  140.7098  143.7419  150.7547 LP  0  0  0  0  0  0  0  0  0  0  0  0  # atno 17343 bound_to 10162
  156.5454  130.8318  151.3282 LP  0  0  0  0  0  0  0  0  0  0  0  0  # atno 17370 bound_to 10713
  157.7380  130.9806  150.2227 LP  0  0  0  0  0  0  0  0  0  0  0  0  # atno 17371 bound_to 10713
  141.2117  133.7681  156.9847 LP  0  0  0  0  0  0  0  0  0  0  0  0  # atno 17394 bound_to 11000
  140.1061  134.9505  157.1996 LP  0  0  0  0  0  0  0  0  0  0  0  0  # atno 17395 bound_to 11000

$$$$
