AV-unprocessed.smi:527|AV-procd|sdf|2829|dock4
  -GOLD-   2262023313D 1   1.00000     0.00000
 Structure written by MMmdl.
 43 44  0  0  0  0  0  0  0  0  2 V2000
  146.7787  142.6988  153.7362 C   0  0  0  0  0  0  0  0  0  0  0  0
  147.4995  141.4364  154.2373 C   0  0  2  0  0  0  0  0  0  0  0  0
  149.0295  141.6255  154.2716 C   0  0  0  0  0  0  0  0  0  0  0  0
  149.7336  140.3990  154.8731 C   0  0  0  0  0  0  0  0  0  0  0  0
  149.3417  139.1069  154.1405 C   0  0  0  0  0  0  0  0  0  0  0  0
  147.8120  138.9218  154.1097 C   0  0  2  0  0  0  0  0  0  0  0  0
  147.4798  137.6666  153.4376 N   0  0  0  0  0  0  0  0  0  0  0  0
  146.5194  136.8119  153.8199 C   0  0  0  0  0  0  0  0  0  0  0  0
  145.6510  137.0953  154.6477 O   0  0  0  0  0  0  0  0  0  0  0  0
  146.6378  135.6329  153.1791 N   0  0  0  0  0  0  0  0  0  0  0  0
  145.7507  134.6166  153.1623 C   0  0  0  0  0  0  0  0  0  0  0  0
  144.6643  134.6101  153.7442 O   0  0  0  0  0  0  0  0  0  0  0  0
  146.1533  133.3953  152.3338 C   0  0  0  0  0  0  0  0  0  0  0  0
  145.2656  133.2204  151.1799 N   0  0  0  0  0  0  0  0  0  0  0  0
  145.3553  132.2663  150.1983 C   0  0  0  0  0  0  0  0  0  0  0  0
  144.3165  132.4964  149.3333 C   0  0  0  0  0  0  0  0  0  0  0  0
  143.6375  133.5808  149.8215 N   0  3  0  0  0  0  0  0  0  0  0  0
  144.2151  134.0189  150.9449 C   0  0  0  0  0  0  0  0  0  0  0  0
  147.0999  140.1471  153.4712 C   0  0  2  0  0  0  0  0  0  0  0  0
  147.3106  140.2454  151.9423 C   0  0  0  0  0  0  0  0  0  0  0  0
  147.1135  142.9898  152.7406 H   0  0  0  0  0  0  0  0  0  0  0  0
  146.9674  143.5426  154.4006 H   0  0  0  0  0  0  0  0  0  0  0  0
  145.6996  142.5474  153.6982 H   0  0  0  0  0  0  0  0  0  0  0  0
  147.1760  141.2977  155.2703 H   0  0  0  0  0  0  0  0  0  0  0  0
  149.4090  141.8127  153.2667 H   0  0  0  0  0  0  0  0  0  0  0  0
  149.2810  142.5087  154.8597 H   0  0  0  0  0  0  0  0  0  0  0  0
  150.8150  140.5350  154.8356 H   0  0  0  0  0  0  0  0  0  0  0  0
  149.4707  140.3118  155.9280 H   0  0  0  0  0  0  0  0  0  0  0  0
  149.7411  139.1263  153.1259 H   0  0  0  0  0  0  0  0  0  0  0  0
  149.8093  138.2550  154.6358 H   0  0  0  0  0  0  0  0  0  0  0  0
  147.4784  138.8377  155.1462 H   0  0  0  0  0  0  0  0  0  0  0  0
  148.0265  137.4353  152.6212 H   0  0  0  0  0  0  0  0  0  0  0  0
  147.4868  135.4956  152.6508 H   0  0  0  0  0  0  0  0  0  0  0  0
  147.1783  133.4903  151.9715 H   0  0  0  0  0  0  0  0  0  0  0  0
  146.1066  132.4928  152.9454 H   0  0  0  0  0  0  0  0  0  0  0  0
  146.1309  131.5137  150.1879 H   0  0  0  0  0  0  0  0  0  0  0  0
  144.0176  131.9839  148.4303 H   0  0  0  0  0  0  0  0  0  0  0  0
  143.8984  134.8559  151.5423 H   0  0  0  0  0  0  0  0  0  0  0  0
  146.0279  140.0123  153.6216 H   0  0  0  0  0  0  0  0  0  0  0  0
  148.3555  140.4074  151.6814 H   0  0  0  0  0  0  0  0  0  0  0  0
  146.7328  141.0624  151.5118 H   0  0  0  0  0  0  0  0  0  0  0  0
  146.9826  139.3391  151.4339 H   0  0  0  0  0  0  0  0  0  0  0  0
  142.8176  133.9946  149.3952 H   0  0  0  0  0  0  0  0  0  0  0  0
  1  2  1  0  0  0  0
  1 21  1  0  0  0  0
  1 22  1  0  0  0  0
  1 23  1  0  0  0  0
  2 19  1  0  0  0  0
  2  3  1  0  0  0  0
  2 24  1  0  0  0  0
  3  4  1  0  0  0  0
  3 25  1  0  0  0  0
  3 26  1  0  0  0  0
  4  5  1  0  0  0  0
  4 27  1  0  0  0  0
  4 28  1  0  0  0  0
  5  6  1  0  0  0  0
  5 29  1  0  0  0  0
  5 30  1  0  0  0  0
  6  7  1  0  0  0  0
  6 19  1  0  0  0  0
  6 31  1  0  0  0  0
  7  8  1  0  0  0  0
  7 32  1  0  0  0  0
  8  9  2  0  0  0  0
  8 10  1  0  0  0  0
 10 11  1  0  0  0  0
 10 33  1  0  0  0  0
 11 12  2  0  0  0  0
 11 13  1  0  0  0  0
 13 14  1  0  0  0  0
 13 34  1  0  0  0  0
 13 35  1  0  0  0  0
 14 18  1  0  0  0  0
 14 15  1  0  0  0  0
 15 16  2  0  0  0  0
 15 36  1  0  0  0  0
 16 17  1  0  0  0  0
 16 37  1  0  0  0  0
 17 18  2  0  0  0  0
 17 43  1  0  0  0  0
 18 38  1  0  0  0  0
 19 20  1  0  0  0  0
 19 39  1  0  0  0  0
 20 40  1  0  0  0  0
 20 41  1  0  0  0  0
 20 42  1  0  0  0  0
M  CHG  1  17   1
M  END
> <s_m_source_file>
AV-unprocessed.smi

> <i_m_source_file_index>
527

> <i_lp_mmshare_version>
43012

> <i_f3d_flags>
0

> <s_epik_input>
W0NIM11bQ0BASF0xW0NIMl1bQ0gyXVtDSDJdW0NASF0oW0NASF0xW0NIM10pW05IXUMoPU8pW05IXUMoPU8pW0NIMl1uMltjSF1bY0hdbltjSF0y

> <s_epik_cmdline>
J2VwaWtfcHl0aG9uJywgJy1waCcsICc3LjAnLCAnLXRuJywgJzgnLCAnLW1hJywgJzIwMCcsICctbWV0YWxfYmluZGluZycsICctaW1hZScsICc8aW5maWxlLm1hZT4nLCAnLW9tYWUnLCAnPG91dGZpbGUubWFlPic=

> <r_lp_tautomer_probability>
1

> <r_epik_Ionization_Penalty>
0.816441

> <r_epik_Ionization_Penalty_Charging>
0

> <r_epik_Ionization_Penalty_Neutral>
0.816441

> <r_epik_State_Penalty>
0.849034

> <r_epik_Charging_Adjusted_Penalty>
0.849034

> <i_epik_Tot_Q>
1

> <i_epik_Tot_abs_Q>
1

> <r_epik_Metal_State_Penalty>
0.984327

> <b_epik_Metal_Only>
0

> <s_lp_Force_Field>
OPLS_2005

> <r_lp_Energy>
18.4408

> <b_lp_Chiralities_Consistent>
1

> <s_lp_Variant>
AV-unprocessed.smi:527-15

> <Gold.Version>
5.8.1

> <Gold.Id.Protein>
6NUR|6NUR_protein|mol2

> <Gold.PLP.Fitness>
47.8335

> <Gold.PLP.PLP>
-34.7398

> <Gold.PLP.part.hbond>
-3.0000

> <Gold.PLP.part.metal>
0.0000

> <Gold.PLP.part.buried>
-0.5050

> <Gold.PLP.part.nonpolar>
-31.0118

> <Gold.PLP.part.repulsive>
0.2065

> <Gold.PLP.ligand.clash>
0.0000

> <Gold.PLP.ligand.torsion>
0.4141

> <Gold.PLP.Chemscore.Hbond>
3.8480

> <Gold.PLP.Chemscore.CHOScore>
0.7861

> <Gold.PLP.Chemscore.Metal>
0.0000

> <Gold.Chemscore.Hbonds>
donor molecule, donor type, donor heavy atom, donor atom, acceptor molecule, acceptor atom, score
      L1  H     7    32       P1  7948  0.93
      L1  H    10    33       P1  7948  0.99
      L1  H    17    43       P1 10186  1.92
      L1  C    15    36       P1 10747  0.05

> <Gold.PLP.Chemscore.Internal.Correction>
0.0197

> <Gold.Rescore>
     Score         DG    S(hbond)    S(metal)    S(lipo)     H(rot)  DE(clash)    DE(int)     intcor
     16.66     -19.89       2.84        0.00      79.44       1.71       1.12       2.11       ----

> <Gold.Chemscore.Fitness>
16.6638

> <Gold.Chemscore.DG>
-19.8923

> <Gold.Chemscore.ZeroCoef>
-5.4800

> <Gold.Chemscore.Hbond>
2.8392

> <Gold.Chemscore.Metal>
0.0000

> <Gold.Chemscore.Lipo>
79.4402

> <Gold.Chemscore.Internal_Hbond>
0.0000

> <Gold.Chemscore.DEClash>
1.1168

> <Gold.Chemscore.DEInternal>
2.1116

> <Gold.Chemscore.Rot>
1.7052

> <Gold.Chemscore.Internal.Correction>
   9.000000E+99

> <Gold.Chemscore.Hbonds>
donor molecule, donor type, donor heavy atom, donor atom, acceptor molecule, acceptor atom, score
      L1  H     7    32       P1  7948  0.90
      L1  H    10    33       P1  7948  0.93
      L1  H    17    43       P1 10186  0.92

> <Gold.Chemscore.Hbond.Weighted>
-9.4831

> <Gold.Chemscore.Metal.Weighted>
-0.0000

> <Gold.Chemscore.Lipo.Weighted>
-9.2945

> <Gold.Chemscore.Internal_Hbond.Weighted>
0.0000

> <Gold.Chemscore.DEClash.Weighted>
1.1168

> <Gold.Chemscore.DEInternal.Weighted>
2.1116

> <Gold.Chemscore.Rot.Weighted>
4.3653

> <Gold.Chemscore.Internal.Correction.Weighted>
   9.000000E+99

> <Gold.Protein.RotatedTorsions>
[ 6907 6896 6895 6894 ] final   57.58 input  -60.11 | X-H torsion
[ 7974 7965 7964 7962 ] final -161.68 input  175.53 | X-H torsion
[ 8008 7997 7996 7995 ] final -150.24 input   59.86 | X-H torsion
[ 10167 10162 10161 10158 ] final  167.36 input  -65.29 | X-H torsion
[ 10718 10713 10712 10709 ] final  -40.20 input   66.30 | X-H torsion
[ 10763 10752 10751 10750 ] final  -91.51 input  -60.55 | X-H torsion
[ 11005 11000 10999 10996 ] final   -9.50 input  -57.11 | X-H torsion

> <Gold.Protein.ActiveResidues>
 VAL166  LYS551  ARG553  GLY616  TRP617  ASP618  TYR619  PRO620  LYS621  CYS622 
 ASP623  PHE694  ASN695  SER759  ASP760  ASP761  ALA762  ILE779  LEU786  VAL792 
 PHE793  MET794  SER795  GLU796  ALA797  LYS798  CYS799  TRP800  GLU811  SER814 

> <Gold.Protein.RotatedAtoms>
  152.3745  134.6684  160.0164 H   0  0  0  0  0  0  0  0  0  0  0  0  # atno 6907 bound_to 6896
  151.6967  133.3305  159.3264 H   0  0  0  0  0  0  0  0  0  0  0  0  # atno 6908 bound_to 6896
  150.7699  134.6587  159.6372 H   0  0  0  0  0  0  0  0  0  0  0  0  # atno 6909 bound_to 6896
  144.7383  140.3362  143.6143 H   0  0  0  0  0  0  0  0  0  0  0  0  # atno 7974 bound_to 7965
  155.6204  140.0681  157.2680 H   0  0  0  0  0  0  0  0  0  0  0  0  # atno 8008 bound_to 7997
  154.4230  140.1785  156.1414 H   0  0  0  0  0  0  0  0  0  0  0  0  # atno 8009 bound_to 7997
  156.0014  140.3336  155.6852 H   0  0  0  0  0  0  0  0  0  0  0  0  # atno 8010 bound_to 7997
  139.4944  144.3929  151.9496 H   0  0  0  0  0  0  0  0  0  0  0  0  # atno 10167 bound_to 10162
  156.2839  130.4220  149.8308 H   0  0  0  0  0  0  0  0  0  0  0  0  # atno 10718 bound_to 10713
  154.6768  135.5265  153.8210 H   0  0  0  0  0  0  0  0  0  0  0  0  # atno 10763 bound_to 10752
  153.0538  135.6542  154.0638 H   0  0  0  0  0  0  0  0  0  0  0  0  # atno 10764 bound_to 10752
  154.0530  135.2968  155.3317 H   0  0  0  0  0  0  0  0  0  0  0  0  # atno 10765 bound_to 10752
  140.7347  133.8719  155.8921 H   0  0  0  0  0  0  0  0  0  0  0  0  # atno 11005 bound_to 11000
  145.7421  139.1767  143.2370 LP  0  0  0  0  0  0  0  0  0  0  0  0  # atno 17320 bound_to 7965
  146.1126  140.7410  142.9496 LP  0  0  0  0  0  0  0  0  0  0  0  0  # atno 17321 bound_to 7965
  140.3367  144.3252  150.5975 LP  0  0  0  0  0  0  0  0  0  0  0  0  # atno 17342 bound_to 10162
  140.5600  143.2193  151.7782 LP  0  0  0  0  0  0  0  0  0  0  0  0  # atno 17343 bound_to 10162
  156.5745  130.8439  151.3366 LP  0  0  0  0  0  0  0  0  0  0  0  0  # atno 17370 bound_to 10713
  157.7323  130.9713  150.1920 LP  0  0  0  0  0  0  0  0  0  0  0  0  # atno 17371 bound_to 10713
  140.9889  134.1305  157.4426 LP  0  0  0  0  0  0  0  0  0  0  0  0  # atno 17394 bound_to 11000
  139.8818  135.0034  156.6186 LP  0  0  0  0  0  0  0  0  0  0  0  0  # atno 17395 bound_to 11000

$$$$
