AV-unprocessed.smi:1868|AV-procd|sdf|7586|dock10
  -GOLD-   22720 9293D 1   1.00000     0.00000
 Structure written by MMmdl.
 47 49  0  0  0  0  0  0  0  0  2 V2000
  150.7674  140.2616  155.7876 C   0  0  0  0  0  0  0  0  0  0  0  0
  151.1481  141.2859  156.8091 C   0  0  0  0  0  0  0  0  0  0  0  0
  151.0564  142.5941  156.5714 N   0  0  0  0  0  0  0  0  0  0  0  0
  151.4839  143.1499  157.7616 C   0  0  0  0  0  0  0  0  0  0  0  0
  151.6203  144.5024  158.1474 C   0  0  0  0  0  0  0  0  0  0  0  0
  152.0870  144.8335  159.4364 C   0  0  0  0  0  0  0  0  0  0  0  0
  152.4229  143.8193  160.3565 C   0  0  0  0  0  0  0  0  0  0  0  0
  152.2949  142.4653  159.9924 C   0  0  0  0  0  0  0  0  0  0  0  0
  151.8299  142.1401  158.7038 C   0  0  0  0  0  0  0  0  0  0  0  0
  151.6062  140.9385  158.0370 N   0  0  0  0  0  0  0  0  0  0  0  0
  151.8220  139.5993  158.5670 C   0  0  0  0  0  0  0  0  0  0  0  0
  153.0793  139.4987  159.4563 C   0  0  2  0  0  0  0  0  0  0  0  0
  154.2034  139.5476  158.6007 O   0  0  0  0  0  0  0  0  0  0  0  0
  153.1387  138.2016  160.2958 C   0  0  0  0  0  0  0  0  0  0  0  0
  154.3437  138.1177  161.1601 N   0  3  2  0  0  0  0  0  0  0  0  0
  154.3622  136.8704  161.9673 C   0  0  0  0  0  0  0  0  0  0  0  0
  155.6771  136.7325  162.7550 C   0  0  0  0  0  0  0  0  0  0  0  0
  155.9515  137.9554  163.6484 C   0  0  2  0  0  0  0  0  0  0  0  0
  155.0485  137.9982  164.8938 C   0  0  0  0  0  0  0  0  0  0  0  0
  155.8593  139.2371  162.8009 C   0  0  0  0  0  0  0  0  0  0  0  0
  154.5407  139.3216  162.0113 C   0  0  0  0  0  0  0  0  0  0  0  0
  150.4522  140.7445  154.8621 H   0  0  0  0  0  0  0  0  0  0  0  0
  149.9403  139.6533  156.1537 H   0  0  0  0  0  0  0  0  0  0  0  0
  151.6129  139.6127  155.5623 H   0  0  0  0  0  0  0  0  0  0  0  0
  151.3652  145.2871  157.4503 H   0  0  0  0  0  0  0  0  0  0  0  0
  152.1872  145.8708  159.7208 H   0  0  0  0  0  0  0  0  0  0  0  0
  152.7787  144.0820  161.3420 H   0  0  0  0  0  0  0  0  0  0  0  0
  152.5534  141.6878  160.6955 H   0  0  0  0  0  0  0  0  0  0  0  0
  150.9364  139.3075  159.1331 H   0  0  0  0  0  0  0  0  0  0  0  0
  151.8882  138.8991  157.7334 H   0  0  0  0  0  0  0  0  0  0  0  0
  153.1141  140.3744  160.1018 H   0  0  0  0  0  0  0  0  0  0  0  0
  154.9793  139.3400  159.0982 H   0  0  0  0  0  0  0  0  0  0  0  0
  152.2598  138.1042  160.9334 H   0  0  0  0  0  0  0  0  0  0  0  0
  153.1118  137.3513  159.6121 H   0  0  0  0  0  0  0  0  0  0  0  0
  153.5063  136.8579  162.6436 H   0  0  0  0  0  0  0  0  0  0  0  0
  154.2536  136.0067  161.3099 H   0  0  0  0  0  0  0  0  0  0  0  0
  155.6605  135.8219  163.3549 H   0  0  0  0  0  0  0  0  0  0  0  0
  156.5006  136.6132  162.0497 H   0  0  0  0  0  0  0  0  0  0  0  0
  156.9762  137.8739  164.0135 H   0  0  0  0  0  0  0  0  0  0  0  0
  153.9935  138.0895  164.6369 H   0  0  0  0  0  0  0  0  0  0  0  0
  155.3061  138.8437  165.5320 H   0  0  0  0  0  0  0  0  0  0  0  0
  155.1645  137.0929  165.4903 H   0  0  0  0  0  0  0  0  0  0  0  0
  155.9733  140.1176  163.4343 H   0  0  0  0  0  0  0  0  0  0  0  0
  156.6935  139.2613  162.0983 H   0  0  0  0  0  0  0  0  0  0  0  0
  154.5619  140.2211  161.3980 H   0  0  0  0  0  0  0  0  0  0  0  0
  153.6957  139.4324  162.6922 H   0  0  0  0  0  0  0  0  0  0  0  0
  155.1380  138.0598  160.5393 H   0  0  0  0  0  0  0  0  0  0  0  0
  1  2  1  0  0  0  0
  1 22  1  0  0  0  0
  1 23  1  0  0  0  0
  1 24  1  0  0  0  0
  2 10  1  0  0  0  0
  2  3  2  0  0  0  0
  3  4  1  0  0  0  0
  4  9  2  0  0  0  0
  4  5  1  0  0  0  0
  5  6  2  0  0  0  0
  5 25  1  0  0  0  0
  6  7  1  0  0  0  0
  6 26  1  0  0  0  0
  7  8  2  0  0  0  0
  7 27  1  0  0  0  0
  8  9  1  0  0  0  0
  8 28  1  0  0  0  0
  9 10  1  0  0  0  0
 10 11  1  0  0  0  0
 11 12  1  0  0  0  0
 11 29  1  0  0  0  0
 11 30  1  0  0  0  0
 12 13  1  0  0  0  0
 12 14  1  0  0  0  0
 12 31  1  0  0  0  0
 13 32  1  0  0  0  0
 14 15  1  0  0  0  0
 14 33  1  0  0  0  0
 14 34  1  0  0  0  0
 15 21  1  0  0  0  0
 15 16  1  0  0  0  0
 15 47  1  0  0  0  0
 16 17  1  0  0  0  0
 16 35  1  0  0  0  0
 16 36  1  0  0  0  0
 17 18  1  0  0  0  0
 17 37  1  0  0  0  0
 17 38  1  0  0  0  0
 18 19  1  0  0  0  0
 18 20  1  0  0  0  0
 18 39  1  0  0  0  0
 19 40  1  0  0  0  0
 19 41  1  0  0  0  0
 19 42  1  0  0  0  0
 20 21  1  0  0  0  0
 20 43  1  0  0  0  0
 20 44  1  0  0  0  0
 21 45  1  0  0  0  0
 21 46  1  0  0  0  0
M  CHG  1  15   1
M  END
> <s_m_source_file>
AV-unprocessed.smi

> <i_m_source_file_index>
1868

> <i_lp_mmshare_version>
43012

> <i_f3d_flags>
0

> <s_epik_input>
W2NIXTFbY0hdW2NIXVtjSF1jKGMxMiluKGMobjIpW0NIM10pW0NIMl1bQ0BIXShbT0hdKVtDSDJdTjNbQ0gyXVtDSDJdW0NIXShbQ0gzXSlbQ0gyXVtDSDJdMw==

> <s_epik_cmdline>
J2VwaWtfcHl0aG9uJywgJy1waCcsICc3LjAnLCAnLXRuJywgJzgnLCAnLW1hJywgJzIwMCcsICctbWV0YWxfYmluZGluZycsICctaW1hZScsICc8aW5maWxlLm1hZT4nLCAnLW9tYWUnLCAnPG91dGZpbGUubWFlPic=

> <r_epik_Ionization_Penalty>
0.101157

> <r_epik_Ionization_Penalty_Charging>
0.00181365

> <r_epik_Ionization_Penalty_Neutral>
0.0993436

> <r_epik_State_Penalty>
0.0871902

> <r_epik_Charging_Adjusted_Penalty>
0.0890039

> <i_epik_Tot_Q>
1

> <i_epik_Tot_abs_Q>
1

> <r_epik_Metal_State_Penalty>
9.24346e-05

> <b_epik_Metal_Only>
0

> <s_lp_Force_Field>
OPLS_2005

> <r_lp_Energy>
25.8314

> <b_lp_Chiralities_Consistent>
1

> <s_lp_Variant>
AV-unprocessed.smi:1868-3

> <Gold.Version>
5.8.1

> <Gold.Id.Protein>
6NUR|6NUR_protein|mol2

> <Gold.PLP.Fitness>
44.6989

> <Gold.PLP.PLP>
-42.5317

> <Gold.PLP.part.hbond>
-1.0000

> <Gold.PLP.part.metal>
0.0000

> <Gold.PLP.part.buried>
-3.9392

> <Gold.PLP.part.nonpolar>
-36.8749

> <Gold.PLP.part.repulsive>
0.1073

> <Gold.PLP.ligand.clash>
0.0000

> <Gold.PLP.ligand.torsion>
0.4251

> <Gold.PLP.Chemscore.Hbond>
1.0000

> <Gold.PLP.Chemscore.CHOScore>
0.0000

> <Gold.PLP.Chemscore.Metal>
0.0000

> <Gold.Chemscore.Hbonds>
donor molecule, donor type, donor heavy atom, donor atom, acceptor molecule, acceptor atom, score
      P1  H  7997  8010       L1    13  0.85

> <Gold.PLP.Chemscore.Internal.Correction>
0.0173

> <Gold.Rescore>
     Score         DG    S(hbond)    S(metal)    S(lipo)     H(rot)  DE(clash)    DE(int)     intcor
     17.17     -17.58       0.60        0.00     128.41       1.92       0.04       0.38       ----

> <Gold.Chemscore.Fitness>
17.1668

> <Gold.Chemscore.DG>
-17.5844

> <Gold.Chemscore.ZeroCoef>
-5.4800

> <Gold.Chemscore.Hbond>
0.5972

> <Gold.Chemscore.Metal>
0.0000

> <Gold.Chemscore.Lipo>
128.4148

> <Gold.Chemscore.Internal_Hbond>
0.0000

> <Gold.Chemscore.DEClash>
0.0382

> <Gold.Chemscore.DEInternal>
0.3794

> <Gold.Chemscore.Rot>
1.9198

> <Gold.Chemscore.Internal.Correction>
   9.000000E+99

> <Gold.Chemscore.Hbonds>
donor molecule, donor type, donor heavy atom, donor atom, acceptor molecule, acceptor atom, score
      P1  H  7997  8010       L1    13  0.14

> <Gold.Chemscore.Hbond.Weighted>
-1.9946

> <Gold.Chemscore.Metal.Weighted>
-0.0000

> <Gold.Chemscore.Lipo.Weighted>
-15.0245

> <Gold.Chemscore.Internal_Hbond.Weighted>
0.0000

> <Gold.Chemscore.DEClash.Weighted>
0.0382

> <Gold.Chemscore.DEInternal.Weighted>
0.3794

> <Gold.Chemscore.Rot.Weighted>
4.9147

> <Gold.Chemscore.Internal.Correction.Weighted>
   9.000000E+99

> <Gold.Protein.RotatedTorsions>
[ 6907 6896 6895 6894 ] final  164.17 input  -60.11 | X-H torsion
[ 7974 7965 7964 7962 ] final -164.91 input  175.53 | X-H torsion
[ 8008 7997 7996 7995 ] final    9.26 input   59.86 | X-H torsion
[ 10167 10162 10161 10158 ] final -157.56 input  -65.29 | X-H torsion
[ 10718 10713 10712 10709 ] final -112.91 input   66.30 | X-H torsion
[ 10763 10752 10751 10750 ] final  142.44 input  -60.55 | X-H torsion
[ 11005 11000 10999 10996 ] final   34.19 input  -57.11 | X-H torsion

> <Gold.Protein.ActiveResidues>
 VAL166  LYS551  ARG553  GLY616  TRP617  ASP618  TYR619  PRO620  LYS621  CYS622 
 ASP623  PHE694  ASN695  SER759  ASP760  ASP761  ALA762  ILE779  LEU786  VAL792 
 PHE793  MET794  SER795  GLU796  ALA797  LYS798  CYS799  TRP800  GLU811  SER814 

> <Gold.Protein.RotatedAtoms>
  151.9140  133.3568  159.3873 H   0  0  0  0  0  0  0  0  0  0  0  0  # atno 6907 bound_to 6896
  150.7052  134.4703  159.5431 H   0  0  0  0  0  0  0  0  0  0  0  0  # atno 6908 bound_to 6896
  152.2315  134.8318  160.0524 H   0  0  0  0  0  0  0  0  0  0  0  0  # atno 6909 bound_to 6896
  144.7284  140.2891  143.6223 H   0  0  0  0  0  0  0  0  0  0  0  0  # atno 7974 bound_to 7965
  154.7776  140.2813  155.6088 H   0  0  0  0  0  0  0  0  0  0  0  0  # atno 8008 bound_to 7997
  156.2944  140.2629  156.2522 H   0  0  0  0  0  0  0  0  0  0  0  0  # atno 8009 bound_to 7997
  154.9823  140.0374  157.2273 H   0  0  0  0  0  0  0  0  0  0  0  0  # atno 8010 bound_to 7997
  139.6761  143.9661  152.2311 H   0  0  0  0  0  0  0  0  0  0  0  0  # atno 10167 bound_to 10162
  156.0734  130.5945  150.8571 H   0  0  0  0  0  0  0  0  0  0  0  0  # atno 10718 bound_to 10713
  153.9559  135.2965  155.3436 H   0  0  0  0  0  0  0  0  0  0  0  0  # atno 10763 bound_to 10752
  154.7401  135.5028  153.9111 H   0  0  0  0  0  0  0  0  0  0  0  0  # atno 10764 bound_to 10752
  153.0971  135.6724  153.9852 H   0  0  0  0  0  0  0  0  0  0  0  0  # atno 10765 bound_to 10752
  140.2554  134.3254  155.7876 H   0  0  0  0  0  0  0  0  0  0  0  0  # atno 11005 bound_to 11000
  145.7873  139.1914  143.2123 LP  0  0  0  0  0  0  0  0  0  0  0  0  # atno 17320 bound_to 7965
  146.0785  140.7791  142.9653 LP  0  0  0  0  0  0  0  0  0  0  0  0  # atno 17321 bound_to 7965
  139.9439  144.6664  150.8239 LP  0  0  0  0  0  0  0  0  0  0  0  0  # atno 17342 bound_to 10162
  140.7636  143.3226  151.2587 LP  0  0  0  0  0  0  0  0  0  0  0  0  # atno 17343 bound_to 10162
  157.5817  131.0946  150.9260 LP  0  0  0  0  0  0  0  0  0  0  0  0  # atno 17370 bound_to 10713
  156.9455  130.5400  149.5281 LP  0  0  0  0  0  0  0  0  0  0  0  0  # atno 17371 bound_to 10713
  141.2196  133.7378  156.9103 LP  0  0  0  0  0  0  0  0  0  0  0  0  # atno 17394 bound_to 11000
  140.1517  134.9226  157.2601 LP  0  0  0  0  0  0  0  0  0  0  0  0  # atno 17395 bound_to 11000

$$$$
