AV-unprocessed.smi:275|AV-procd|sdf|2064|dock3
  -GOLD-   2262021313D 1   1.00000     0.00000
 Structure written by MMmdl.
 65 69  0  0  0  0  0  0  0  0  1 V2000
  153.8511  139.1014  159.2728 C   0  0  0  0  0  0  0  0  0  0  0  0
  153.7424  140.6244  159.4575 C   0  0  0  0  0  0  0  0  0  0  0  0
  154.3916  141.0165  160.7954 C   0  0  0  0  0  0  0  0  0  0  0  0
  152.2902  141.1301  159.3753 C   0  0  2  0  0  0  0  0  0  0  0  0
  151.6974  141.0041  158.0453 N   0  0  0  0  0  0  0  0  0  0  0  0
  150.8930  139.8671  157.7478 C   0  0  0  0  0  0  0  0  0  0  0  0
  150.7031  138.8692  158.6527 N   0  0  0  0  0  0  0  0  0  0  0  0
  149.9462  137.8083  158.3585 C   0  0  0  0  0  0  0  0  0  0  0  0
  149.2875  137.5417  157.2300 N   0  0  0  0  0  0  0  0  0  0  0  0
  149.4685  138.5340  156.3135 C   0  0  0  0  0  0  0  0  0  0  0  0
  150.2464  139.7130  156.4907 C   0  0  0  0  0  0  0  0  0  0  0  0
  150.2006  140.4886  155.3391 N   0  0  0  0  0  0  0  0  0  0  0  0
  149.4389  139.8080  154.5269 C   0  0  0  0  0  0  0  0  0  0  0  0
  148.9403  138.6304  155.0376 N   0  0  0  0  0  0  0  0  0  0  0  0
  148.0811  137.6808  154.3515 C   0  0  0  0  0  0  0  0  0  0  0  0
  146.6340  138.1823  154.1034 C   0  0  1  0  0  0  0  0  0  0  0  0
  146.6089  138.9175  152.7407 C   0  0  0  0  0  0  0  0  0  0  0  0
  147.1973  138.1469  151.7132 O   0  0  0  0  0  0  0  0  0  0  0  0
  145.5759  137.0382  154.1733 C   0  0  2  0  0  0  0  0  0  0  0  0
  145.5915  136.2094  155.4483 C   0  0  0  0  0  0  0  0  0  0  0  0
  144.8086  134.9705  155.0400 C   0  0  0  0  0  0  0  0  0  0  0  0
  145.2093  134.7247  153.7012 O   0  0  0  0  0  0  0  0  0  0  0  0
  145.7175  135.9237  153.1232 C   0  0  0  0  0  0  0  0  0  0  0  0
  150.9049  142.2051  158.2370 C   0  0  0  0  0  0  0  0  0  0  0  0
  151.9550  142.6407  159.2719 C   0  0  0  0  0  0  0  0  0  0  0  0
  153.0455  143.5900  158.7249 C   0  0  0  0  0  0  0  0  0  0  0  0
  152.5222  145.0124  158.4609 C   0  0  0  0  0  0  0  0  0  0  0  0
  151.9076  145.6216  159.7276 C   0  0  0  0  0  0  0  0  0  0  0  0
  150.8444  144.6937  160.3287 C   0  0  0  0  0  0  0  0  0  0  0  0
  151.4050  143.2800  160.5572 C   0  0  0  0  0  0  0  0  0  0  0  0
  153.2566  138.5674  160.0147 H   0  0  0  0  0  0  0  0  0  0  0  0
  154.8837  138.7655  159.3708 H   0  0  0  0  0  0  0  0  0  0  0  0
  153.5091  138.7943  158.2847 H   0  0  0  0  0  0  0  0  0  0  0  0
  154.3300  141.0872  158.6640 H   0  0  0  0  0  0  0  0  0  0  0  0
  153.8686  140.5560  161.6341 H   0  0  0  0  0  0  0  0  0  0  0  0
  154.3816  142.0927  160.9574 H   0  0  0  0  0  0  0  0  0  0  0  0
  155.4321  140.6939  160.8367 H   0  0  0  0  0  0  0  0  0  0  0  0
  151.6540  140.6761  160.1372 H   0  0  0  0  0  0  0  0  0  0  0  0
  149.8548  137.0685  159.1399 H   0  0  0  0  0  0  0  0  0  0  0  0
  149.2122  140.1531  153.5287 H   0  0  0  0  0  0  0  0  0  0  0  0
  148.5686  137.4532  153.4029 H   0  0  0  0  0  0  0  0  0  0  0  0
  148.0609  136.7463  154.9133 H   0  0  0  0  0  0  0  0  0  0  0  0
  146.4032  138.9186  154.8748 H   0  0  0  0  0  0  0  0  0  0  0  0
  145.5848  139.1175  152.4247 H   0  0  0  0  0  0  0  0  0  0  0  0
  147.1091  139.8840  152.8102 H   0  0  0  0  0  0  0  0  0  0  0  0
  147.5806  137.3738  152.0989 H   0  0  0  0  0  0  0  0  0  0  0  0
  144.5802  137.4744  154.0764 H   0  0  0  0  0  0  0  0  0  0  0  0
  146.6128  135.9311  155.7125 H   0  0  0  0  0  0  0  0  0  0  0  0
  145.1410  136.7193  156.3003 H   0  0  0  0  0  0  0  0  0  0  0  0
  145.0085  134.1133  155.6831 H   0  0  0  0  0  0  0  0  0  0  0  0
  143.7364  135.1700  155.0581 H   0  0  0  0  0  0  0  0  0  0  0  0
  145.1740  136.1506  152.2068 H   0  0  0  0  0  0  0  0  0  0  0  0
  146.7631  135.7541  152.8653 H   0  0  0  0  0  0  0  0  0  0  0  0
  150.8419  142.8323  157.3476 H   0  0  0  0  0  0  0  0  0  0  0  0
  149.9229  142.0049  158.6709 H   0  0  0  0  0  0  0  0  0  0  0  0
  153.8814  143.6550  159.4198 H   0  0  0  0  0  0  0  0  0  0  0  0
  153.4649  143.1963  157.7983 H   0  0  0  0  0  0  0  0  0  0  0  0
  153.3328  145.6463  158.1003 H   0  0  0  0  0  0  0  0  0  0  0  0
  151.7751  144.9898  157.6670 H   0  0  0  0  0  0  0  0  0  0  0  0
  152.6933  145.7956  160.4637 H   0  0  0  0  0  0  0  0  0  0  0  0
  151.4728  146.5957  159.5027 H   0  0  0  0  0  0  0  0  0  0  0  0
  150.4807  145.1068  161.2698 H   0  0  0  0  0  0  0  0  0  0  0  0
  149.9833  144.6418  159.6612 H   0  0  0  0  0  0  0  0  0  0  0  0
  150.6184  142.6553  160.9821 H   0  0  0  0  0  0  0  0  0  0  0  0
  152.1865  143.3231  161.3167 H   0  0  0  0  0  0  0  0  0  0  0  0
  1  2  1  0  0  0  0
  1 31  1  0  0  0  0
  1 32  1  0  0  0  0
  1 33  1  0  0  0  0
  2  3  1  0  0  0  0
  2  4  1  0  0  0  0
  2 34  1  0  0  0  0
  3 35  1  0  0  0  0
  3 36  1  0  0  0  0
  3 37  1  0  0  0  0
  4 25  1  0  0  0  0
  4  5  1  0  0  0  0
  4 38  1  0  0  0  0
  5  6  1  0  0  0  0
  5 24  1  0  0  0  0
  6 11  1  0  0  0  0
  6  7  2  0  0  0  0
  7  8  1  0  0  0  0
  8  9  2  0  0  0  0
  8 39  1  0  0  0  0
  9 10  1  0  0  0  0
 10 14  1  0  0  0  0
 10 11  2  0  0  0  0
 11 12  1  0  0  0  0
 12 13  2  0  0  0  0
 13 14  1  0  0  0  0
 13 40  1  0  0  0  0
 14 15  1  0  0  0  0
 15 16  1  0  0  0  0
 15 41  1  0  0  0  0
 15 42  1  0  0  0  0
 16 17  1  0  0  0  0
 16 19  1  0  0  0  0
 16 43  1  0  0  0  0
 17 18  1  0  0  0  0
 17 44  1  0  0  0  0
 17 45  1  0  0  0  0
 18 46  1  0  0  0  0
 19 23  1  0  0  0  0
 19 20  1  0  0  0  0
 19 47  1  0  0  0  0
 20 21  1  0  0  0  0
 20 48  1  0  0  0  0
 20 49  1  0  0  0  0
 21 22  1  0  0  0  0
 21 50  1  0  0  0  0
 21 51  1  0  0  0  0
 22 23  1  0  0  0  0
 23 52  1  0  0  0  0
 23 53  1  0  0  0  0
 24 25  1  0  0  0  0
 24 54  1  0  0  0  0
 24 55  1  0  0  0  0
 25 30  1  0  0  0  0
 25 26  1  0  0  0  0
 26 27  1  0  0  0  0
 26 56  1  0  0  0  0
 26 57  1  0  0  0  0
 27 28  1  0  0  0  0
 27 58  1  0  0  0  0
 27 59  1  0  0  0  0
 28 29  1  0  0  0  0
 28 60  1  0  0  0  0
 28 61  1  0  0  0  0
 29 30  1  0  0  0  0
 29 62  1  0  0  0  0
 29 63  1  0  0  0  0
 30 64  1  0  0  0  0
 30 65  1  0  0  0  0
M  END
> <s_m_source_file>
AV-unprocessed.smi

> <i_m_source_file_index>
275

> <i_lp_mmshare_version>
43012

> <i_f3d_flags>
0

> <s_epik_input>
W0NIMl0xW0NIMl1bQ0gyXVtDSDJdW0NIMl1DMTJbQ0BIXShbQ0hdKFtDSDNdKVtDSDNdKU4oW0NIMl0yKWMobltjSF1uMyljKGMzNCluW2NIXW40W0NIMl1bQ0BIXShbQ0gyXVtPSF0pW0NAQEhdNVtDSDJdW0NIMl1PW0NIMl01

> <s_epik_cmdline>
J2VwaWtfcHl0aG9uJywgJy1waCcsICc3LjAnLCAnLXRuJywgJzgnLCAnLW1hJywgJzIwMCcsICctbWV0YWxfYmluZGluZycsICctaW1hZScsICc8aW5maWxlLm1hZT4nLCAnLW9tYWUnLCAnPG91dGZpbGUubWFlPic=

> <r_lp_tautomer_probability>
1

> <r_epik_Ionization_Penalty>
0.00375122

> <r_epik_Ionization_Penalty_Charging>
0

> <r_epik_Ionization_Penalty_Neutral>
0.00375122

> <r_epik_State_Penalty>
0.00260593

> <r_epik_Charging_Adjusted_Penalty>
0.00260593

> <i_epik_Tot_Q>
0

> <i_epik_Tot_abs_Q>
0

> <r_epik_Metal_State_Penalty>
-0

> <b_epik_Metal_Only>
0

> <s_lp_Force_Field>
OPLS_2005

> <r_lp_Energy>
64.5971

> <b_lp_Chiralities_Consistent>
1

> <s_lp_Variant>
AV-unprocessed.smi:275-3

> <Gold.Version>
5.8.1

> <Gold.Id.Protein>
6NUR|6NUR_protein|mol2

> <Gold.PLP.Fitness>
51.7291

> <Gold.PLP.PLP>
-44.1212

> <Gold.PLP.part.hbond>
-3.2450

> <Gold.PLP.part.metal>
0.0000

> <Gold.PLP.part.buried>
-3.4355

> <Gold.PLP.part.nonpolar>
-38.2577

> <Gold.PLP.part.repulsive>
0.1468

> <Gold.PLP.ligand.clash>
0.0000

> <Gold.PLP.ligand.torsion>
0.8001

> <Gold.PLP.Chemscore.Hbond>
1.8567

> <Gold.PLP.Chemscore.CHOScore>
1.0000

> <Gold.PLP.Chemscore.Metal>
0.0000

> <Gold.Chemscore.Hbonds>
donor molecule, donor type, donor heavy atom, donor atom, acceptor molecule, acceptor atom, score
      L1  H    18    46       P1  7948  0.78
      P1  H  7954  7966       L1    18  0.58
      P1  H  7989  7998       L1    12  0.06
      L1  C    13    40       P1  7957  1.00

> <Gold.PLP.Chemscore.Internal.Correction>
0.6379

> <Gold.Rescore>
     Score         DG    S(hbond)    S(metal)    S(lipo)     H(rot)  DE(clash)    DE(int)     intcor
     16.54     -18.37       1.18        0.00     131.85       2.54       0.87       0.95       ----

> <Gold.Chemscore.Fitness>
16.5432

> <Gold.Chemscore.DG>
-18.3668

> <Gold.Chemscore.ZeroCoef>
-5.4800

> <Gold.Chemscore.Hbond>
1.1846

> <Gold.Chemscore.Metal>
0.0000

> <Gold.Chemscore.Lipo>
131.8528

> <Gold.Chemscore.Internal_Hbond>
0.0000

> <Gold.Chemscore.DEClash>
0.8717

> <Gold.Chemscore.DEInternal>
0.9519

> <Gold.Chemscore.Rot>
2.5377

> <Gold.Chemscore.Internal.Correction>
   9.000000E+99

> <Gold.Chemscore.Hbonds>
donor molecule, donor type, donor heavy atom, donor atom, acceptor molecule, acceptor atom, score
      L1  H    18    46       P1  7948  0.78
      P1  H  7954  7966       L1    18  0.05

> <Gold.Chemscore.Hbond.Weighted>
-3.9566

> <Gold.Chemscore.Metal.Weighted>
-0.0000

> <Gold.Chemscore.Lipo.Weighted>
-15.4268

> <Gold.Chemscore.Internal_Hbond.Weighted>
0.0000

> <Gold.Chemscore.DEClash.Weighted>
0.8717

> <Gold.Chemscore.DEInternal.Weighted>
0.9519

> <Gold.Chemscore.Rot.Weighted>
6.4966

> <Gold.Chemscore.Internal.Correction.Weighted>
   9.000000E+99

> <Gold.Protein.RotatedTorsions>
[ 6907 6896 6895 6894 ] final  -81.81 input  -60.11 | X-H torsion
[ 7974 7965 7964 7962 ] final   91.88 input  175.53 | X-H torsion
[ 8008 7997 7996 7995 ] final -147.76 input   59.86 | X-H torsion
[ 10167 10162 10161 10158 ] final  125.97 input  -65.29 | X-H torsion
[ 10718 10713 10712 10709 ] final   32.39 input   66.30 | X-H torsion
[ 10763 10752 10751 10750 ] final -111.00 input  -60.55 | X-H torsion
[ 11005 11000 10999 10996 ] final -171.45 input  -57.11 | X-H torsion

> <Gold.Protein.ActiveResidues>
 VAL166  LYS551  ARG553  GLY616  TRP617  ASP618  TYR619  PRO620  LYS621  CYS622 
 ASP623  PHE694  ASN695  SER759  ASP760  ASP761  ALA762  ILE779  LEU786  VAL792 
 PHE793  MET794  SER795  GLU796  ALA797  LYS798  CYS799  TRP800  GLU811  SER814 

> <Gold.Protein.RotatedAtoms>
  150.6906  134.3760  159.5012 H   0  0  0  0  0  0  0  0  0  0  0  0  # atno 6907 bound_to 6896
  152.1569  134.8940  160.0553 H   0  0  0  0  0  0  0  0  0  0  0  0  # atno 6908 bound_to 6896
  152.0017  133.3793  159.4221 H   0  0  0  0  0  0  0  0  0  0  0  0  # atno 6909 bound_to 6896
  145.4998  139.2276  143.2784 H   0  0  0  0  0  0  0  0  0  0  0  0  # atno 7974 bound_to 7965
  155.5808  140.0643  157.2783 H   0  0  0  0  0  0  0  0  0  0  0  0  # atno 8008 bound_to 7997
  154.4333  140.1852  156.1021 H   0  0  0  0  0  0  0  0  0  0  0  0  # atno 8009 bound_to 7997
  156.0306  140.3307  155.7140 H   0  0  0  0  0  0  0  0  0  0  0  0  # atno 8010 bound_to 7997
  139.5656  144.6909  151.3919 H   0  0  0  0  0  0  0  0  0  0  0  0  # atno 10167 bound_to 10162
  157.2846  130.7272  149.6576 H   0  0  0  0  0  0  0  0  0  0  0  0  # atno 10718 bound_to 10713
  154.8278  135.4543  154.0972 H   0  0  0  0  0  0  0  0  0  0  0  0  # atno 10763 bound_to 10752
  153.2272  135.6901  153.7938 H   0  0  0  0  0  0  0  0  0  0  0  0  # atno 10764 bound_to 10752
  153.7334  135.3323  155.3267 H   0  0  0  0  0  0  0  0  0  0  0  0  # atno 10765 bound_to 10752
  140.5081  134.5828  157.5010 H   0  0  0  0  0  0  0  0  0  0  0  0  # atno 11005 bound_to 11000
  146.2233  140.5797  142.9007 LP  0  0  0  0  0  0  0  0  0  0  0  0  # atno 17320 bound_to 7965
  144.7787  140.5794  143.6620 LP  0  0  0  0  0  0  0  0  0  0  0  0  # atno 17321 bound_to 7965
  140.6939  143.7795  150.7297 LP  0  0  0  0  0  0  0  0  0  0  0  0  # atno 17342 bound_to 10162
  140.1285  143.4547  152.2269 LP  0  0  0  0  0  0  0  0  0  0  0  0  # atno 17343 bound_to 10162
  155.9665  130.4327  150.4976 LP  0  0  0  0  0  0  0  0  0  0  0  0  # atno 17370 bound_to 10713
  157.2927  131.0629  151.2123 LP  0  0  0  0  0  0  0  0  0  0  0  0  # atno 17371 bound_to 10713
  139.9674  134.7349  156.0110 LP  0  0  0  0  0  0  0  0  0  0  0  0  # atno 17394 bound_to 11000
  141.1400  133.6567  156.3702 LP  0  0  0  0  0  0  0  0  0  0  0  0  # atno 17395 bound_to 11000

$$$$
