AV-unprocessed.smi:699|AV-procd|sdf|3403|dock7
  -GOLD-   22720 0383D 1   1.00000     0.00000
 Structure written by MMmdl.
 35 36  0  0  0  0  0  0  0  0  2 V2000
  150.2667  137.7375  153.5588 N   0  0  0  0  0  0  0  0  0  0  0  0
  150.4779  138.8411  154.2800 C   0  0  0  0  0  0  0  0  0  0  0  0
  151.6091  139.2196  154.5782 O   0  0  0  0  0  0  0  0  0  0  0  0
  149.2387  139.6297  154.7314 C   0  0  2  0  0  0  0  0  0  0  0  0
  147.9260  139.0042  154.2306 C   0  0  0  0  0  0  0  0  0  0  0  0
  146.9634  140.1794  154.0925 C   0  0  0  0  0  0  0  0  0  0  0  0
  147.8399  141.3216  153.5856 C   0  0  0  0  0  0  0  0  0  0  0  0
  149.2277  141.0925  154.2085 C   0  0  1  0  0  0  0  0  0  0  0  0
  149.4779  142.0568  155.2789 N   0  0  0  0  0  0  0  0  0  0  0  0
  150.3342  141.8802  156.2953 C   0  0  0  0  0  0  0  0  0  0  0  0
  150.9997  140.8572  156.4527 O   0  0  0  0  0  0  0  0  0  0  0  0
  150.3470  142.9474  157.1129 N   0  0  0  0  0  0  0  0  0  0  0  0
  151.1338  143.1608  158.2777 C   0  0  0  0  0  0  0  0  0  0  0  0
  151.1776  144.4699  158.8071 C   0  0  0  0  0  0  0  0  0  0  0  0
  151.9589  144.7326  159.9510 C   0  0  0  0  0  0  0  0  0  0  0  0
  152.6656  143.7360  160.5258 N   0  3  0  0  0  0  0  0  0  0  0  0
  152.6667  142.4729  160.0486 C   0  0  0  0  0  0  0  0  0  0  0  0
  151.9050  142.1503  158.9070 C   0  0  0  0  0  0  0  0  0  0  0  0
  151.0532  137.1878  153.2446 H   0  0  0  0  0  0  0  0  0  0  0  0
  149.3248  137.4535  153.3324 H   0  0  0  0  0  0  0  0  0  0  0  0
  149.2004  139.6381  155.8227 H   0  0  0  0  0  0  0  0  0  0  0  0
  148.0574  138.5293  153.2569 H   0  0  0  0  0  0  0  0  0  0  0  0
  147.5437  138.2466  154.9154 H   0  0  0  0  0  0  0  0  0  0  0  0
  146.1285  139.9625  153.4254 H   0  0  0  0  0  0  0  0  0  0  0  0
  146.5532  140.4357  155.0700 H   0  0  0  0  0  0  0  0  0  0  0  0
  147.9194  141.2529  152.4997 H   0  0  0  0  0  0  0  0  0  0  0  0
  147.4162  142.3007  153.8134 H   0  0  0  0  0  0  0  0  0  0  0  0
  149.9759  141.2508  153.4285 H   0  0  0  0  0  0  0  0  0  0  0  0
  148.9665  142.9259  155.2312 H   0  0  0  0  0  0  0  0  0  0  0  0
  149.6798  143.6748  156.9009 H   0  0  0  0  0  0  0  0  0  0  0  0
  150.6143  145.2683  158.3457 H   0  0  0  0  0  0  0  0  0  0  0  0
  152.0410  145.7033  160.4179 H   0  0  0  0  0  0  0  0  0  0  0  0
  153.2786  141.7630  160.5861 H   0  0  0  0  0  0  0  0  0  0  0  0
  151.9383  141.1392  158.5309 H   0  0  0  0  0  0  0  0  0  0  0  0
  153.2267  143.9468  161.3518 H   0  0  0  0  0  0  0  0  0  0  0  0
  1  2  1  0  0  0  0
  1 19  1  0  0  0  0
  1 20  1  0  0  0  0
  2  3  2  0  0  0  0
  2  4  1  0  0  0  0
  4  8  1  0  0  0  0
  4  5  1  0  0  0  0
  4 21  1  0  0  0  0
  5  6  1  0  0  0  0
  5 22  1  0  0  0  0
  5 23  1  0  0  0  0
  6  7  1  0  0  0  0
  6 24  1  0  0  0  0
  6 25  1  0  0  0  0
  7  8  1  0  0  0  0
  7 26  1  0  0  0  0
  7 27  1  0  0  0  0
  8  9  1  0  0  0  0
  8 28  1  0  0  0  0
  9 10  1  0  0  0  0
  9 29  1  0  0  0  0
 10 11  2  0  0  0  0
 10 12  1  0  0  0  0
 12 13  1  0  0  0  0
 12 30  1  0  0  0  0
 13 18  1  0  0  0  0
 13 14  2  0  0  0  0
 14 15  1  0  0  0  0
 14 31  1  0  0  0  0
 15 16  2  0  0  0  0
 15 32  1  0  0  0  0
 16 17  1  0  0  0  0
 16 35  1  0  0  0  0
 17 18  2  0  0  0  0
 17 33  1  0  0  0  0
 18 34  1  0  0  0  0
M  CHG  1  16   1
M  END
> <s_m_source_file>
AV-unprocessed.smi

> <i_m_source_file_index>
699

> <i_lp_mmshare_version>
43012

> <i_f3d_flags>
0

> <s_epik_input>
W05IMl1DKD1PKVtDQEBIXTFbQ0gyXVtDSDJdW0NIMl1bQ0BIXTFbTkhdQyg9TylbTkhdYzJbY0hdW2NIXW5bY0hdW2NIXTI=

> <s_epik_cmdline>
J2VwaWtfcHl0aG9uJywgJy1waCcsICc3LjAnLCAnLXRuJywgJzgnLCAnLW1hJywgJzIwMCcsICctbWV0YWxfYmluZGluZycsICctaW1hZScsICc8aW5maWxlLm1hZT4nLCAnLW9tYWUnLCAnPG91dGZpbGUubWFlPic=

> <r_epik_Ionization_Penalty>
1.0332

> <r_epik_Ionization_Penalty_Charging>
1.03318

> <r_epik_Ionization_Penalty_Neutral>
1.91967e-05

> <r_epik_State_Penalty>
1.08452

> <r_epik_Charging_Adjusted_Penalty>
2.11769

> <i_epik_Tot_Q>
1

> <i_epik_Tot_abs_Q>
1

> <r_epik_Metal_State_Penalty>
1.18144

> <b_epik_Metal_Only>
0

> <s_lp_Force_Field>
OPLS_2005

> <r_lp_Energy>
26.3794

> <b_lp_Chiralities_Consistent>
1

> <s_lp_Variant>
AV-unprocessed.smi:699-5

> <Gold.Version>
5.8.1

> <Gold.Id.Protein>
6NUR|6NUR_protein|mol2

> <Gold.PLP.Fitness>
47.1456

> <Gold.PLP.PLP>
-36.6938

> <Gold.PLP.part.hbond>
-5.0892

> <Gold.PLP.part.metal>
0.0000

> <Gold.PLP.part.buried>
-1.5448

> <Gold.PLP.part.nonpolar>
-29.7133

> <Gold.PLP.part.repulsive>
0.4450

> <Gold.PLP.ligand.clash>
0.1832

> <Gold.PLP.ligand.torsion>
0.3631

> <Gold.PLP.Chemscore.Hbond>
3.7863

> <Gold.PLP.Chemscore.CHOScore>
0.0000

> <Gold.PLP.Chemscore.Metal>
0.0000

> <Gold.Chemscore.Hbonds>
donor molecule, donor type, donor heavy atom, donor atom, acceptor molecule, acceptor atom, score
      L1  H     1    19       P1  7949  0.42
      L1  H     1    20       P1  7948  0.40
      L1  H     9    29       P1  8028  0.98
      L1  H    12    30       P1  8028  0.99
      P1  H  7989  7998       L1     3  0.90

> <Gold.PLP.Chemscore.Internal.Correction>
0.0024

> <Gold.Rescore>
     Score         DG    S(hbond)    S(metal)    S(lipo)     H(rot)  DE(clash)    DE(int)     intcor
     15.79     -21.61       3.05        0.00      83.58       1.50       0.05       5.77       ----

> <Gold.Chemscore.Fitness>
15.7883

> <Gold.Chemscore.DG>
-21.6108

> <Gold.Chemscore.ZeroCoef>
-5.4800

> <Gold.Chemscore.Hbond>
3.0543

> <Gold.Chemscore.Metal>
0.0000

> <Gold.Chemscore.Lipo>
83.5817

> <Gold.Chemscore.Internal_Hbond>
0.0000

> <Gold.Chemscore.DEClash>
0.0500

> <Gold.Chemscore.DEInternal>
5.7726

> <Gold.Chemscore.Rot>
1.5038

> <Gold.Chemscore.Internal.Correction>
   9.000000E+99

> <Gold.Chemscore.Hbonds>
donor molecule, donor type, donor heavy atom, donor atom, acceptor molecule, acceptor atom, score
      L1  H     1    19       P1  7949  0.14
      L1  H     1    20       P1  7948  0.39
      L1  H     9    29       P1  8028  0.93
      L1  H    12    30       P1  8028  0.90
      P1  H  7989  7998       L1     3  0.17

> <Gold.Chemscore.Hbond.Weighted>
-10.2014

> <Gold.Chemscore.Metal.Weighted>
-0.0000

> <Gold.Chemscore.Lipo.Weighted>
-9.7791

> <Gold.Chemscore.Internal_Hbond.Weighted>
0.0000

> <Gold.Chemscore.DEClash.Weighted>
0.0500

> <Gold.Chemscore.DEInternal.Weighted>
5.7726

> <Gold.Chemscore.Rot.Weighted>
3.8496

> <Gold.Chemscore.Internal.Correction.Weighted>
   9.000000E+99

> <Gold.Protein.RotatedTorsions>
[ 6907 6896 6895 6894 ] final    0.78 input  -60.11 | X-H torsion
[ 7974 7965 7964 7962 ] final -175.94 input  175.53 | X-H torsion
[ 8008 7997 7996 7995 ] final -106.85 input   59.86 | X-H torsion
[ 10167 10162 10161 10158 ] final  -91.43 input  -65.29 | X-H torsion
[ 10718 10713 10712 10709 ] final  137.40 input   66.30 | X-H torsion
[ 10763 10752 10751 10750 ] final  123.31 input  -60.55 | X-H torsion
[ 11005 11000 10999 10996 ] final   89.95 input  -57.11 | X-H torsion

> <Gold.Protein.ActiveResidues>
 VAL166  LYS551  ARG553  GLY616  TRP617  ASP618  TYR619  PRO620  LYS621  CYS622 
 ASP623  PHE694  ASN695  SER759  ASP760  ASP761  ALA762  ILE779  LEU786  VAL792 
 PHE793  MET794  SER795  GLU796  ALA797  LYS798  CYS799  TRP800  GLU811  SER814 

> <Gold.Protein.RotatedAtoms>
  151.5820  135.1058  160.0019 H   0  0  0  0  0  0  0  0  0  0  0  0  # atno 6907 bound_to 6896
  152.4349  133.7339  159.6613 H   0  0  0  0  0  0  0  0  0  0  0  0  # atno 6908 bound_to 6896
  150.8245  133.8125  159.3147 H   0  0  0  0  0  0  0  0  0  0  0  0  # atno 6909 bound_to 6896
  144.7127  140.1245  143.6403 H   0  0  0  0  0  0  0  0  0  0  0  0  # atno 7974 bound_to 7965
  154.9206  140.0407  157.1996 H   0  0  0  0  0  0  0  0  0  0  0  0  # atno 8008 bound_to 7997
  154.8257  140.2891  155.5734 H   0  0  0  0  0  0  0  0  0  0  0  0  # atno 8009 bound_to 7997
  156.2983  140.2510  156.3173 H   0  0  0  0  0  0  0  0  0  0  0  0  # atno 8010 bound_to 7997
  140.3449  143.2922  151.9792 H   0  0  0  0  0  0  0  0  0  0  0  0  # atno 10167 bound_to 10162
  157.4365  131.1053  151.0192 H   0  0  0  0  0  0  0  0  0  0  0  0  # atno 10718 bound_to 10713
  153.6436  135.3375  155.3079 H   0  0  0  0  0  0  0  0  0  0  0  0  # atno 10763 bound_to 10752
  154.8554  135.4324  154.1979 H   0  0  0  0  0  0  0  0  0  0  0  0  # atno 10764 bound_to 10752
  153.2904  135.7016  153.7373 H   0  0  0  0  0  0  0  0  0  0  0  0  # atno 10765 bound_to 10752
  139.8865  134.8583  156.3214 H   0  0  0  0  0  0  0  0  0  0  0  0  # atno 11005 bound_to 11000
  145.9341  139.2625  143.1307 LP  0  0  0  0  0  0  0  0  0  0  0  0  # atno 17320 bound_to 7965
  145.9492  140.8921  143.0268 LP  0  0  0  0  0  0  0  0  0  0  0  0  # atno 17321 bound_to 7965
  139.4835  144.6125  151.7407 LP  0  0  0  0  0  0  0  0  0  0  0  0  # atno 17342 bound_to 10162
  140.5274  144.0784  150.6042 LP  0  0  0  0  0  0  0  0  0  0  0  0  # atno 17343 bound_to 10162
  157.1070  130.6006  149.5473 LP  0  0  0  0  0  0  0  0  0  0  0  0  # atno 17370 bound_to 10713
  155.9932  130.4992  150.7372 LP  0  0  0  0  0  0  0  0  0  0  0  0  # atno 17371 bound_to 10713
  140.9784  133.7283  156.0636 LP  0  0  0  0  0  0  0  0  0  0  0  0  # atno 17394 bound_to 11000
  140.7781  134.3756  157.5493 LP  0  0  0  0  0  0  0  0  0  0  0  0  # atno 17395 bound_to 11000

$$$$
