AV-unprocessed.smi:283|AV-procd|sdf|2130|dock5
  -GOLD-   2262021443D 1   1.00000     0.00000
 Structure written by MMmdl.
 48 51  0  0  0  0  0  0  0  0  1 V2000
  152.1459  143.8299  157.7419 C   0  0  0  0  0  0  0  0  0  0  0  0
  151.7166  142.6195  158.5910 C   0  0  1  0  0  0  0  0  0  0  0  0
  152.0115  141.3608  157.9072 N   0  0  0  0  0  0  0  0  0  0  0  0
  151.5101  140.1817  158.3375 C   0  0  0  0  0  0  0  0  0  0  0  0
  152.3067  139.2373  158.9027 N   0  0  0  0  0  0  0  0  0  0  0  0
  151.7827  138.0786  159.3130 C   0  0  0  0  0  0  0  0  0  0  0  0
  150.5133  137.6690  159.2529 N   0  0  0  0  0  0  0  0  0  0  0  0
  149.7095  138.6131  158.6826 C   0  0  0  0  0  0  0  0  0  0  0  0
  150.1300  139.8830  158.1996 C   0  0  0  0  0  0  0  0  0  0  0  0
  149.0432  140.5691  157.6765 N   0  0  0  0  0  0  0  0  0  0  0  0
  148.0431  139.7445  157.8356 C   0  0  0  0  0  0  0  0  0  0  0  0
  148.3513  138.5474  158.4528 N   0  0  0  0  0  0  0  0  0  0  0  0
  147.4767  137.3661  158.7651 C   0  0  2  0  0  0  0  0  0  0  0  0
  147.3065  137.3282  160.1480 O   0  0  0  0  0  0  0  0  0  0  0  0
  148.2768  136.4618  160.7219 C   0  0  1  0  0  0  0  0  0  0  0  0
  147.8891  136.0658  162.1584 C   0  0  0  0  0  0  0  0  0  0  0  0
  148.2387  137.0969  163.0569 O   0  0  0  0  0  0  0  0  0  0  0  0
  148.3244  135.3158  159.6994 C   0  0  1  0  0  0  0  0  0  0  0  0
  147.3032  134.3672  159.9648 O   0  0  0  0  0  0  0  0  0  0  0  0
  148.1347  136.0327  158.3563 C   0  0  1  0  0  0  0  0  0  0  0  0
  147.3511  135.2935  157.4378 O   0  0  0  0  0  0  0  0  0  0  0  0
  152.3614  142.6991  159.9737 C   0  0  0  0  0  0  0  0  0  0  0  0
  153.2029  141.6533  160.4213 C   0  0  0  0  0  0  0  0  0  0  0  0
  153.8106  141.7124  161.6895 C   0  0  0  0  0  0  0  0  0  0  0  0
  153.5890  142.8225  162.5238 C   0  0  0  0  0  0  0  0  0  0  0  0
  152.7648  143.8747  162.0848 C   0  0  0  0  0  0  0  0  0  0  0  0
  152.1544  143.8218  160.8154 C   0  0  0  0  0  0  0  0  0  0  0  0
  151.1687  145.1547  160.3231 Cl  0  0  0  0  0  0  0  0  0  0  0  0
  146.5313  137.5646  158.2593 H   0  0  0  0  0  0  0  0  0  0  0  0
  149.2471  136.9597  160.7304 H   0  0  0  0  0  0  0  0  0  0  0  0
  149.2802  134.7923  159.7387 H   0  0  0  0  0  0  0  0  0  0  0  0
  149.1011  136.2147  157.8879 H   0  0  0  0  0  0  0  0  0  0  0  0
  151.8810  144.7653  158.2353 H   0  0  0  0  0  0  0  0  0  0  0  0
  151.6646  143.8337  156.7643 H   0  0  0  0  0  0  0  0  0  0  0  0
  153.2241  143.8358  157.5789 H   0  0  0  0  0  0  0  0  0  0  0  0
  150.6369  142.6566  158.7295 H   0  0  0  0  0  0  0  0  0  0  0  0
  152.5615  141.4430  157.0644 H   0  0  0  0  0  0  0  0  0  0  0  0
  152.4798  137.3800  159.7517 H   0  0  0  0  0  0  0  0  0  0  0  0
  147.0489  140.0006  157.5009 H   0  0  0  0  0  0  0  0  0  0  0  0
  146.8245  135.8437  162.2385 H   0  0  0  0  0  0  0  0  0  0  0  0
  148.4329  135.1707  162.4618 H   0  0  0  0  0  0  0  0  0  0  0  0
  147.4537  137.4036  163.4842 H   0  0  0  0  0  0  0  0  0  0  0  0
  147.6500  133.5027  159.8048 H   0  0  0  0  0  0  0  0  0  0  0  0
  147.0490  134.5067  157.8653 H   0  0  0  0  0  0  0  0  0  0  0  0
  153.3937  140.7963  159.7924 H   0  0  0  0  0  0  0  0  0  0  0  0
  154.4491  140.9066  162.0207 H   0  0  0  0  0  0  0  0  0  0  0  0
  154.0550  142.8699  163.4970 H   0  0  0  0  0  0  0  0  0  0  0  0
  152.6037  144.7297  162.7249 H   0  0  0  0  0  0  0  0  0  0  0  0
  1  2  1  0  0  0  0
  1 33  1  0  0  0  0
  1 34  1  0  0  0  0
  1 35  1  0  0  0  0
  2  3  1  0  0  0  0
  2 22  1  0  0  0  0
  2 36  1  0  0  0  0
  3  4  1  0  0  0  0
  3 37  1  0  0  0  0
  4  9  1  0  0  0  0
  4  5  2  0  0  0  0
  5  6  1  0  0  0  0
  6  7  2  0  0  0  0
  6 38  1  0  0  0  0
  7  8  1  0  0  0  0
  8 12  1  0  0  0  0
  8  9  2  0  0  0  0
  9 10  1  0  0  0  0
 10 11  2  0  0  0  0
 11 12  1  0  0  0  0
 11 39  1  0  0  0  0
 12 13  1  0  0  0  0
 13 29  1  0  0  0  0
 13 20  1  0  0  0  0
 13 14  1  0  0  0  0
 14 15  1  0  0  0  0
 15 30  1  0  0  0  0
 15 16  1  0  0  0  0
 15 18  1  0  0  0  0
 16 17  1  0  0  0  0
 16 40  1  0  0  0  0
 16 41  1  0  0  0  0
 17 42  1  0  0  0  0
 18 31  1  0  0  0  0
 18 19  1  0  0  0  0
 18 20  1  0  0  0  0
 19 43  1  0  0  0  0
 20 32  1  0  0  0  0
 20 21  1  0  0  0  0
 21 44  1  0  0  0  0
 22 27  1  0  0  0  0
 22 23  2  0  0  0  0
 23 24  1  0  0  0  0
 23 45  1  0  0  0  0
 24 25  2  0  0  0  0
 24 46  1  0  0  0  0
 25 26  1  0  0  0  0
 25 47  1  0  0  0  0
 26 27  2  0  0  0  0
 26 48  1  0  0  0  0
 27 28  1  0  0  0  0
M  END
> <s_m_source_file>
AV-unprocessed.smi

> <i_m_source_file_index>
283

> <i_lp_mmshare_version>
43012

> <i_f3d_flags>
0

> <s_epik_input>
Q2xjMVtjSF1bY0hdW2NIXVtjSF1jMVtDQEhdKFtDSDNdKVtOSF1jKG5bY0hdbjIpYyhjMjMpbltjSF1uM1tDQEBIXTRPW0NASF0oW0NIMl1bT0hdKVtDQEBIXShbT0hdKVtDQEhdNFtPSF0=

> <s_epik_cmdline>
J2VwaWtfcHl0aG9uJywgJy1waCcsICc3LjAnLCAnLXRuJywgJzgnLCAnLW1hJywgJzIwMCcsICctbWV0YWxfYmluZGluZycsICctaW1hZScsICc8aW5maWxlLm1hZT4nLCAnLW9tYWUnLCAnPG91dGZpbGUubWFlPic=

> <r_lp_tautomer_probability>
1

> <r_epik_Ionization_Penalty>
0.000266407

> <r_epik_Ionization_Penalty_Charging>
0

> <r_epik_Ionization_Penalty_Neutral>
0.000266407

> <r_epik_State_Penalty>
-0

> <r_epik_Charging_Adjusted_Penalty>
0

> <i_epik_Tot_Q>
0

> <i_epik_Tot_abs_Q>
0

> <r_epik_Metal_State_Penalty>
-0

> <b_epik_Metal_Only>
0

> <s_epik_Chemistry_Notes>
This compound contains an acetal/aminal-like group ( X-CH(R)-Y where X, Y are N, S, or O) that may be acid/base labile, releasing an aldehyde.

> <s_lp_Force_Field>
OPLS_2005

> <r_lp_Energy>
48.0921

> <b_lp_Chiralities_Consistent>
1

> <s_lp_Variant>
AV-unprocessed.smi:283-6

> <Gold.Version>
5.8.1

> <Gold.Id.Protein>
6NUR|6NUR_protein|mol2

> <Gold.PLP.Fitness>
52.0793

> <Gold.PLP.PLP>
-49.0599

> <Gold.PLP.part.hbond>
-2.0236

> <Gold.PLP.part.metal>
0.0000

> <Gold.PLP.part.buried>
-8.1190

> <Gold.PLP.part.nonpolar>
-40.4073

> <Gold.PLP.part.repulsive>
0.0984

> <Gold.PLP.ligand.clash>
0.0000

> <Gold.PLP.ligand.torsion>
1.2632

> <Gold.PLP.Chemscore.Hbond>
1.8160

> <Gold.PLP.Chemscore.CHOScore>
0.0000

> <Gold.PLP.Chemscore.Metal>
0.0000

> <Gold.Chemscore.Hbonds>
donor molecule, donor type, donor heavy atom, donor atom, acceptor molecule, acceptor atom, score
      P1  H  6931  6943       L1    17  0.70
      P1  H  6934  6947       L1    14  1.00

> <Gold.PLP.Chemscore.Internal.Correction>
0.0978

> <Gold.Rescore>
     Score         DG    S(hbond)    S(metal)    S(lipo)     H(rot)  DE(clash)    DE(int)     intcor
     11.25     -13.86       1.33        0.00     123.40       4.10       0.08       2.53       ----

> <Gold.Chemscore.Fitness>
11.2543

> <Gold.Chemscore.DG>
-13.8609

> <Gold.Chemscore.ZeroCoef>
-5.4800

> <Gold.Chemscore.Hbond>
1.3266

> <Gold.Chemscore.Metal>
0.0000

> <Gold.Chemscore.Lipo>
123.4017

> <Gold.Chemscore.Internal_Hbond>
0.0000

> <Gold.Chemscore.DEClash>
0.0796

> <Gold.Chemscore.DEInternal>
2.5270

> <Gold.Chemscore.Rot>
4.0968

> <Gold.Chemscore.Internal.Correction>
   9.000000E+99

> <Gold.Chemscore.Hbonds>
donor molecule, donor type, donor heavy atom, donor atom, acceptor molecule, acceptor atom, score
      P1  H  6931  6943       L1    17  0.19
      P1  H  6934  6947       L1    14  0.77

> <Gold.Chemscore.Hbond.Weighted>
-4.4308

> <Gold.Chemscore.Metal.Weighted>
-0.0000

> <Gold.Chemscore.Lipo.Weighted>
-14.4380

> <Gold.Chemscore.Internal_Hbond.Weighted>
0.0000

> <Gold.Chemscore.DEClash.Weighted>
0.0796

> <Gold.Chemscore.DEInternal.Weighted>
2.5270

> <Gold.Chemscore.Rot.Weighted>
10.4879

> <Gold.Chemscore.Internal.Correction.Weighted>
   9.000000E+99

> <Gold.Protein.RotatedTorsions>
[ 6907 6896 6895 6894 ] final -165.63 input  -60.11 | X-H torsion
[ 7974 7965 7964 7962 ] final -158.94 input  175.53 | X-H torsion
[ 8008 7997 7996 7995 ] final  -29.50 input   59.86 | X-H torsion
[ 10167 10162 10161 10158 ] final  132.39 input  -65.29 | X-H torsion
[ 10718 10713 10712 10709 ] final -102.93 input   66.30 | X-H torsion
[ 10763 10752 10751 10750 ] final  130.65 input  -60.55 | X-H torsion
[ 11005 11000 10999 10996 ] final -135.06 input  -57.11 | X-H torsion

> <Gold.Protein.ActiveResidues>
 VAL166  LYS551  ARG553  GLY616  TRP617  ASP618  TYR619  PRO620  LYS621  CYS622 
 ASP623  PHE694  ASN695  SER759  ASP760  ASP761  ALA762  ILE779  LEU786  VAL792 
 PHE793  MET794  SER795  GLU796  ALA797  LYS798  CYS799  TRP800  GLU811  SER814 

> <Gold.Protein.RotatedAtoms>
  151.4307  133.3671  159.2768 H   0  0  0  0  0  0  0  0  0  0  0  0  # atno 6907 bound_to 6896
  150.9227  134.8646  159.7510 H   0  0  0  0  0  0  0  0  0  0  0  0  # atno 6908 bound_to 6896
  152.4990  134.4246  159.9544 H   0  0  0  0  0  0  0  0  0  0  0  0  # atno 6909 bound_to 6896
  144.7485  140.3756  143.6066 H   0  0  0  0  0  0  0  0  0  0  0  0  # atno 7974 bound_to 7965
  154.4287  140.1816  156.1258 H   0  0  0  0  0  0  0  0  0  0  0  0  # atno 8008 bound_to 7997
  156.0107  140.3351  155.6913 H   0  0  0  0  0  0  0  0  0  0  0  0  # atno 8009 bound_to 7997
  155.6114  140.0650  157.2695 H   0  0  0  0  0  0  0  0  0  0  0  0  # atno 8010 bound_to 7997
  139.5342  144.6664  151.4845 H   0  0  0  0  0  0  0  0  0  0  0  0  # atno 10167 bound_to 10162
  156.0246  130.5443  150.7179 H   0  0  0  0  0  0  0  0  0  0  0  0  # atno 10718 bound_to 10713
  153.7615  135.3195  155.3338 H   0  0  0  0  0  0  0  0  0  0  0  0  # atno 10763 bound_to 10752
  154.8228  135.4591  154.0833 H   0  0  0  0  0  0  0  0  0  0  0  0  # atno 10764 bound_to 10752
  153.2065  135.6930  153.8249 H   0  0  0  0  0  0  0  0  0  0  0  0  # atno 10765 bound_to 10752
  140.8933  134.1784  157.4512 H   0  0  0  0  0  0  0  0  0  0  0  0  # atno 11005 bound_to 11000
  145.7031  139.1666  143.2581 LP  0  0  0  0  0  0  0  0  0  0  0  0  # atno 17320 bound_to 7965
  146.1401  140.7069  142.9371 LP  0  0  0  0  0  0  0  0  0  0  0  0  # atno 17321 bound_to 7965
  140.6538  143.8641  150.6813 LP  0  0  0  0  0  0  0  0  0  0  0  0  # atno 17342 bound_to 10162
  140.2014  143.3956  152.1788 LP  0  0  0  0  0  0  0  0  0  0  0  0  # atno 17343 bound_to 10162
  157.4802  131.0901  151.0545 LP  0  0  0  0  0  0  0  0  0  0  0  0  # atno 17370 bound_to 10713
  157.0980  130.5970  149.5454 LP  0  0  0  0  0  0  0  0  0  0  0  0  # atno 17371 bound_to 10713
  139.8732  134.9868  156.5339 LP  0  0  0  0  0  0  0  0  0  0  0  0  # atno 17394 bound_to 11000
  140.8320  133.8272  155.8993 LP  0  0  0  0  0  0  0  0  0  0  0  0  # atno 17395 bound_to 11000

$$$$
