AV-unprocessed.smi:1964|AV-procd|sdf|7929|dock6
  -GOLD-   2272010103D 1   1.00000     0.00000
 Structure written by MMmdl.
 46 48  0  0  0  0  0  0  0  0  1 V2000
  148.1596  139.8644  154.2216 C   0  0  0  0  0  0  0  0  0  0  0  0
  149.6491  140.0270  154.5722 C   0  0  1  0  0  0  0  0  0  0  0  0
  149.8335  140.5716  156.0051 C   0  0  0  0  0  0  0  0  0  0  0  0
  151.3189  140.7748  156.3466 C   0  0  0  0  0  0  0  0  0  0  0  0
  152.1260  139.4836  156.1409 C   0  0  0  0  0  0  0  0  0  0  0  0
  151.9458  138.9354  154.7137 C   0  0  0  0  0  0  0  0  0  0  0  0
  150.4593  138.7241  154.3594 C   0  0  1  0  0  0  0  0  0  0  0  0
  149.9005  137.6446  155.1661 N   0  0  0  0  0  0  0  0  0  0  0  0
  150.4883  136.4814  155.4880 C   0  0  0  0  0  0  0  0  0  0  0  0
  151.6218  136.1770  155.1201 O   0  0  0  0  0  0  0  0  0  0  0  0
  149.6870  135.5036  156.3672 C   0  0  0  0  0  0  0  0  0  0  0  0
  149.4717  134.1711  155.7531 N   0  0  0  0  0  0  0  0  0  0  0  0
  148.4930  134.0444  154.7337 C   0  0  0  0  0  0  0  0  0  0  0  0
  147.8170  135.0113  154.3788 O   0  0  0  0  0  0  0  0  0  0  0  0
  148.3653  132.7131  154.1457 C   0  0  0  0  0  0  0  0  0  0  0  0
  147.3627  132.5354  153.1481 C   0  0  0  0  0  0  0  0  0  0  0  0
  146.5314  132.3986  152.3547 N   0  0  0  0  0  0  0  0  0  0  0  0
  149.1713  131.7028  154.5318 C   0  0  0  0  0  0  0  0  0  0  0  0
  150.1565  131.8634  155.4813 N   0  0  0  0  0  0  0  0  0  0  0  0
  150.9313  130.7518  155.9553 C   0  0  0  0  0  0  0  0  0  0  0  0
  152.4467  130.8018  155.9070 C   0  0  0  0  0  0  0  0  0  0  0  0
  151.6916  129.9091  154.9542 C   0  0  0  0  0  0  0  0  0  0  0  0
  150.2947  133.0927  156.1611 C   0  0  0  0  0  0  0  0  0  0  0  0
  151.1173  133.2312  157.0697 O   0  0  0  0  0  0  0  0  0  0  0  0
  147.6608  139.1603  154.8881 H   0  0  0  0  0  0  0  0  0  0  0  0
  148.0346  139.5015  153.2012 H   0  0  0  0  0  0  0  0  0  0  0  0
  147.6344  140.8165  154.2985 H   0  0  0  0  0  0  0  0  0  0  0  0
  150.0540  140.7733  153.8867 H   0  0  0  0  0  0  0  0  0  0  0  0
  149.3049  141.5194  156.1128 H   0  0  0  0  0  0  0  0  0  0  0  0
  149.3829  139.8887  156.7272 H   0  0  0  0  0  0  0  0  0  0  0  0
  151.7316  141.5654  155.7186 H   0  0  0  0  0  0  0  0  0  0  0  0
  151.4194  141.1153  157.3775 H   0  0  0  0  0  0  0  0  0  0  0  0
  153.1823  139.6720  156.3342 H   0  0  0  0  0  0  0  0  0  0  0  0
  151.8107  138.7346  156.8687 H   0  0  0  0  0  0  0  0  0  0  0  0
  152.3876  139.6352  154.0031 H   0  0  0  0  0  0  0  0  0  0  0  0
  152.4982  138.0017  154.6009 H   0  0  0  0  0  0  0  0  0  0  0  0
  150.3908  138.4491  153.3053 H   0  0  0  0  0  0  0  0  0  0  0  0
  148.9667  137.7976  155.5178 H   0  0  0  0  0  0  0  0  0  0  0  0
  150.2005  135.4111  157.3251 H   0  0  0  0  0  0  0  0  0  0  0  0
  148.7377  135.9755  156.6250 H   0  0  0  0  0  0  0  0  0  0  0  0
  149.0499  130.7323  154.0723 H   0  0  0  0  0  0  0  0  0  0  0  0
  150.5022  130.2130  156.7981 H   0  0  0  0  0  0  0  0  0  0  0  0
  152.9217  131.6852  155.4847 H   0  0  0  0  0  0  0  0  0  0  0  0
  152.9896  130.3256  156.7208 H   0  0  0  0  0  0  0  0  0  0  0  0
  151.7333  128.8363  155.1310 H   0  0  0  0  0  0  0  0  0  0  0  0
  151.6677  130.2076  153.9078 H   0  0  0  0  0  0  0  0  0  0  0  0
  1  2  1  0  0  0  0
  1 25  1  0  0  0  0
  1 26  1  0  0  0  0
  1 27  1  0  0  0  0
  2  7  1  0  0  0  0
  2  3  1  0  0  0  0
  2 28  1  0  0  0  0
  3  4  1  0  0  0  0
  3 29  1  0  0  0  0
  3 30  1  0  0  0  0
  4  5  1  0  0  0  0
  4 31  1  0  0  0  0
  4 32  1  0  0  0  0
  5  6  1  0  0  0  0
  5 33  1  0  0  0  0
  5 34  1  0  0  0  0
  6  7  1  0  0  0  0
  6 35  1  0  0  0  0
  6 36  1  0  0  0  0
  7  8  1  0  0  0  0
  7 37  1  0  0  0  0
  8  9  1  0  0  0  0
  8 38  1  0  0  0  0
  9 10  2  0  0  0  0
  9 11  1  0  0  0  0
 11 12  1  0  0  0  0
 11 39  1  0  0  0  0
 11 40  1  0  0  0  0
 12 23  1  0  0  0  0
 12 13  1  0  0  0  0
 13 14  2  0  0  0  0
 13 15  1  0  0  0  0
 15 16  1  0  0  0  0
 15 18  2  0  0  0  0
 16 17  3  0  0  0  0
 18 19  1  0  0  0  0
 18 41  1  0  0  0  0
 19 20  1  0  0  0  0
 19 23  1  0  0  0  0
 20 22  1  0  0  0  0
 20 21  1  0  0  0  0
 20 42  1  0  0  0  0
 21 22  1  0  0  0  0
 21 43  1  0  0  0  0
 21 44  1  0  0  0  0
 22 45  1  0  0  0  0
 22 46  1  0  0  0  0
 23 24  2  0  0  0  0
M  END
> <s_m_source_file>
AV-unprocessed.smi

> <i_m_source_file_index>
1964

> <i_lp_mmshare_version>
43012

> <i_f3d_flags>
0

> <s_epik_input>
W0NIM11bQ0BASF0xW0NIMl1bQ0gyXVtDSDJdW0NIMl1bQ0BIXTFbTkhdQyg9TylbQ0gyXW4yYyg9TyljKEMjTilbY0hdbihjMj1PKVtDSF0zW0NIMl1bQ0gyXTM=

> <s_epik_cmdline>
J2VwaWtfcHl0aG9uJywgJy1waCcsICc3LjAnLCAnLXRuJywgJzgnLCAnLW1hJywgJzIwMCcsICctbWV0YWxfYmluZGluZycsICctaW1hZScsICc8aW5maWxlLm1hZT4nLCAnLW9tYWUnLCAnPG91dGZpbGUubWFlPic=

> <r_lp_tautomer_probability>
1

> <r_epik_Ionization_Penalty>
1.91372e-08

> <r_epik_Ionization_Penalty_Charging>
9.0283e-11

> <r_epik_Ionization_Penalty_Neutral>
1.90469e-08

> <r_epik_State_Penalty>
-0

> <r_epik_Charging_Adjusted_Penalty>
9.0283e-11

> <i_epik_Tot_Q>
0

> <i_epik_Tot_abs_Q>
0

> <r_epik_Metal_State_Penalty>
-0

> <b_epik_Metal_Only>
0

> <s_lp_Force_Field>
OPLS_2005

> <r_lp_Energy>
33.6562

> <b_lp_Chiralities_Consistent>
1

> <s_lp_Variant>
AV-unprocessed.smi:1964-2

> <Gold.Version>
5.8.1

> <Gold.Id.Protein>
6NUR|6NUR_protein|mol2

> <Gold.PLP.Fitness>
44.1140

> <Gold.PLP.PLP>
-39.9024

> <Gold.PLP.part.hbond>
-2.0000

> <Gold.PLP.part.metal>
0.0000

> <Gold.PLP.part.buried>
-4.2639

> <Gold.PLP.part.nonpolar>
-36.6865

> <Gold.PLP.part.repulsive>
1.8822

> <Gold.PLP.ligand.clash>
0.0000

> <Gold.PLP.ligand.torsion>
0.5963

> <Gold.PLP.Chemscore.Hbond>
1.7389

> <Gold.PLP.Chemscore.CHOScore>
0.0000

> <Gold.PLP.Chemscore.Metal>
0.0000

> <Gold.Chemscore.Hbonds>
donor molecule, donor type, donor heavy atom, donor atom, acceptor molecule, acceptor atom, score
      P1  H  6896  6907       L1    24  0.61
      P1  H 10752 10763       L1    10  1.00

> <Gold.PLP.Chemscore.Internal.Correction>
0.1873

> <Gold.Rescore>
     Score         DG    S(hbond)    S(metal)    S(lipo)     H(rot)  DE(clash)    DE(int)     intcor
     13.28     -15.81       1.86        0.00      72.48       1.70       0.01       2.52       ----

> <Gold.Chemscore.Fitness>
13.2800

> <Gold.Chemscore.DG>
-15.8116

> <Gold.Chemscore.ZeroCoef>
-5.4800

> <Gold.Chemscore.Hbond>
1.8601

> <Gold.Chemscore.Metal>
0.0000

> <Gold.Chemscore.Lipo>
72.4837

> <Gold.Chemscore.Internal_Hbond>
0.0000

> <Gold.Chemscore.DEClash>
0.0089

> <Gold.Chemscore.DEInternal>
2.5227

> <Gold.Chemscore.Rot>
1.7038

> <Gold.Chemscore.Internal.Correction>
   9.000000E+99

> <Gold.Chemscore.Hbonds>
donor molecule, donor type, donor heavy atom, donor atom, acceptor molecule, acceptor atom, score
      P1  H  6896  6907       L1    24  0.59
      P1  H 10752 10763       L1    10  0.93

> <Gold.Chemscore.Hbond.Weighted>
-6.2127

> <Gold.Chemscore.Metal.Weighted>
-0.0000

> <Gold.Chemscore.Lipo.Weighted>
-8.4806

> <Gold.Chemscore.Internal_Hbond.Weighted>
0.0000

> <Gold.Chemscore.DEClash.Weighted>
0.0089

> <Gold.Chemscore.DEInternal.Weighted>
2.5227

> <Gold.Chemscore.Rot.Weighted>
4.3618

> <Gold.Chemscore.Internal.Correction.Weighted>
   9.000000E+99

> <Gold.Protein.RotatedTorsions>
[ 6907 6896 6895 6894 ] final -152.78 input  -60.11 | X-H torsion
[ 7974 7965 7964 7962 ] final  -91.14 input  175.53 | X-H torsion
[ 8008 7997 7996 7995 ] final -116.93 input   59.86 | X-H torsion
[ 10167 10162 10161 10158 ] final   47.62 input  -65.29 | X-H torsion
[ 10718 10713 10712 10709 ] final  -30.50 input   66.30 | X-H torsion
[ 10763 10752 10751 10750 ] final   57.85 input  -60.55 | X-H torsion
[ 11005 11000 10999 10996 ] final -127.74 input  -57.11 | X-H torsion

> <Gold.Protein.ActiveResidues>
 VAL166  LYS551  ARG553  GLY616  TRP617  ASP618  TYR619  PRO620  LYS621  CYS622 
 ASP623  PHE694  ASN695  SER759  ASP760  ASP761  ALA762  ILE779  LEU786  VAL792 
 PHE793  MET794  SER795  GLU796  ALA797  LYS798  CYS799  TRP800  GLU811  SER814 

> <Gold.Protein.RotatedAtoms>
  151.2328  133.4441  159.2604 H   0  0  0  0  0  0  0  0  0  0  0  0  # atno 6907 bound_to 6896
  151.0779  134.9840  159.8351 H   0  0  0  0  0  0  0  0  0  0  0  0  # atno 6908 bound_to 6896
  152.5420  134.2269  159.8862 H   0  0  0  0  0  0  0  0  0  0  0  0  # atno 6909 bound_to 6896
  145.4171  140.9549  143.2202 H   0  0  0  0  0  0  0  0  0  0  0  0  # atno 7974 bound_to 7965
  155.0757  140.0394  157.2623 H   0  0  0  0  0  0  0  0  0  0  0  0  # atno 8008 bound_to 7997
  154.6947  140.2661  155.6753 H   0  0  0  0  0  0  0  0  0  0  0  0  # atno 8009 bound_to 7997
  156.2740  140.2752  156.1537 H   0  0  0  0  0  0  0  0  0  0  0  0  # atno 8010 bound_to 7997
  140.3017  144.2925  150.6217 H   0  0  0  0  0  0  0  0  0  0  0  0  # atno 10167 bound_to 10162
  156.3990  130.4387  149.7337 H   0  0  0  0  0  0  0  0  0  0  0  0  # atno 10718 bound_to 10713
  152.9858  135.5627  154.5457 H   0  0  0  0  0  0  0  0  0  0  0  0  # atno 10763 bound_to 10752
  154.4903  135.2792  155.1504 H   0  0  0  0  0  0  0  0  0  0  0  0  # atno 10764 bound_to 10752
  154.2976  135.6314  153.5464 H   0  0  0  0  0  0  0  0  0  0  0  0  # atno 10765 bound_to 10752
  140.9575  134.0982  157.4002 H   0  0  0  0  0  0  0  0  0  0  0  0  # atno 11005 bound_to 11000
  144.8270  139.5693  143.6961 LP  0  0  0  0  0  0  0  0  0  0  0  0  # atno 17320 bound_to 7965
  146.2675  139.6556  142.9319 LP  0  0  0  0  0  0  0  0  0  0  0  0  # atno 17321 bound_to 7965
  140.5645  143.2188  151.7708 LP  0  0  0  0  0  0  0  0  0  0  0  0  # atno 17342 bound_to 10162
  139.4913  144.4303  151.9880 LP  0  0  0  0  0  0  0  0  0  0  0  0  # atno 17343 bound_to 10162
  156.4360  130.7838  151.2859 LP  0  0  0  0  0  0  0  0  0  0  0  0  # atno 17370 bound_to 10713
  157.7503  131.0139  150.3444 LP  0  0  0  0  0  0  0  0  0  0  0  0  # atno 17371 bound_to 10713
  139.8867  135.0083  156.6514 LP  0  0  0  0  0  0  0  0  0  0  0  0  # atno 17394 bound_to 11000
  140.7515  133.8893  155.8351 LP  0  0  0  0  0  0  0  0  0  0  0  0  # atno 17395 bound_to 11000

$$$$
