AV-unprocessed.smi:1588|AV-procd|sdf|6390|dock2
  -GOLD-   22720 7 23D 1   1.00000     0.00000
 Structure written by MMmdl.
 37 38  0  0  0  0  0  0  0  0  2 V2000
  146.0197  132.6508  150.2876 C   0  0  0  0  0  0  0  0  0  0  0  0
  145.8418  131.7196  151.4945 C   0  0  0  0  0  0  0  0  0  0  0  0
  147.1264  131.4492  152.1814 N   0  3  2  0  0  0  0  0  0  0  0  0
  146.9941  130.6448  153.4152 C   0  0  0  0  0  0  0  0  0  0  0  0
  148.1604  131.0711  154.3023 C   0  0  0  0  0  0  0  0  0  0  0  0
  148.2675  132.5651  154.0111 C   0  0  1  0  0  0  0  0  0  0  0  0
  149.6181  133.1857  154.4171 C   0  0  0  0  0  0  0  0  0  0  0  0
  149.6753  134.6149  154.1239 N   0  0  0  0  0  0  0  0  0  0  0  0
  150.4255  135.5156  154.7747 C   0  0  0  0  0  0  0  0  0  0  0  0
  151.1757  135.2301  155.7081 O   0  0  0  0  0  0  0  0  0  0  0  0
  150.2532  136.7490  154.2721 N   0  0  0  0  0  0  0  0  0  0  0  0
  150.8863  137.9459  154.6927 C   0  0  0  0  0  0  0  0  0  0  0  0
  150.4897  139.2527  154.2981 C   0  0  0  0  0  0  0  0  0  0  0  0
  151.2635  140.1789  154.8459 N   0  0  0  0  0  0  0  0  0  0  0  0
  152.1499  139.4759  155.5866 N   0  0  0  0  0  0  0  0  0  0  0  0
  151.9586  138.1133  155.5236 C   0  0  0  0  0  0  0  0  0  0  0  0
  147.9297  132.6512  152.5134 C   0  0  0  0  0  0  0  0  0  0  0  0
  152.8716  139.9354  156.1240 H   0  0  0  0  0  0  0  0  0  0  0  0
  145.0699  132.8017  149.7741 H   0  0  0  0  0  0  0  0  0  0  0  0
  146.7217  132.2307  149.5669 H   0  0  0  0  0  0  0  0  0  0  0  0
  146.3909  133.6318  150.5844 H   0  0  0  0  0  0  0  0  0  0  0  0
  145.1222  132.1378  152.2001 H   0  0  0  0  0  0  0  0  0  0  0  0
  145.4255  130.7737  151.1450 H   0  0  0  0  0  0  0  0  0  0  0  0
  146.0534  130.8838  153.9147 H   0  0  0  0  0  0  0  0  0  0  0  0
  146.9981  129.5760  153.2001 H   0  0  0  0  0  0  0  0  0  0  0  0
  147.9888  130.8556  155.3575 H   0  0  0  0  0  0  0  0  0  0  0  0
  149.0717  130.5557  153.9946 H   0  0  0  0  0  0  0  0  0  0  0  0
  147.4711  133.0645  154.5662 H   0  0  0  0  0  0  0  0  0  0  0  0
  149.7628  133.0672  155.4912 H   0  0  0  0  0  0  0  0  0  0  0  0
  150.4455  132.6576  153.9395 H   0  0  0  0  0  0  0  0  0  0  0  0
  149.0873  134.9457  153.3726 H   0  0  0  0  0  0  0  0  0  0  0  0
  149.6017  136.8432  153.5066 H   0  0  0  0  0  0  0  0  0  0  0  0
  149.6830  139.5538  153.6458 H   0  0  0  0  0  0  0  0  0  0  0  0
  152.5851  137.4163  156.0606 H   0  0  0  0  0  0  0  0  0  0  0  0
  148.8339  132.6147  151.9057 H   0  0  0  0  0  0  0  0  0  0  0  0
  147.4151  133.5850  152.2824 H   0  0  0  0  0  0  0  0  0  0  0  0
  147.6907  130.9000  151.5485 H   0  0  0  0  0  0  0  0  0  0  0  0
  1  2  1  0  0  0  0
  1 19  1  0  0  0  0
  1 20  1  0  0  0  0
  1 21  1  0  0  0  0
  2  3  1  0  0  0  0
  2 22  1  0  0  0  0
  2 23  1  0  0  0  0
  3 17  1  0  0  0  0
  3  4  1  0  0  0  0
  3 37  1  0  0  0  0
  4  5  1  0  0  0  0
  4 24  1  0  0  0  0
  4 25  1  0  0  0  0
  5  6  1  0  0  0  0
  5 26  1  0  0  0  0
  5 27  1  0  0  0  0
  6  7  1  0  0  0  0
  6 17  1  0  0  0  0
  6 28  1  0  0  0  0
  7  8  1  0  0  0  0
  7 29  1  0  0  0  0
  7 30  1  0  0  0  0
  8  9  1  0  0  0  0
  8 31  1  0  0  0  0
  9 10  2  0  0  0  0
  9 11  1  0  0  0  0
 11 12  1  0  0  0  0
 11 32  1  0  0  0  0
 12 16  2  0  0  0  0
 12 13  1  0  0  0  0
 13 14  2  0  0  0  0
 13 33  1  0  0  0  0
 14 15  1  0  0  0  0
 15 18  1  0  0  0  0
 15 16  1  0  0  0  0
 16 34  1  0  0  0  0
 17 35  1  0  0  0  0
 17 36  1  0  0  0  0
M  CHG  1   3   1
M  END
> <s_m_source_file>
AV-unprocessed.smi

> <i_m_source_file_index>
1588

> <i_lp_mmshare_version>
43012

> <i_f3d_flags>
0

> <s_epik_input>
W0NIM11bQ0gyXU4xW0NIMl1bQ0gyXVtDQEhdKFtDSDJdMSlbQ0gyXVtOSF1DKD1PKVtOSF1jMltjSF1uW25IXVtjSF0y

> <s_epik_cmdline>
J2VwaWtfcHl0aG9uJywgJy1waCcsICc3LjAnLCAnLXRuJywgJzgnLCAnLW1hJywgJzIwMCcsICctbWV0YWxfYmluZGluZycsICctaW1hZScsICc8aW5maWxlLm1hZT4nLCAnLW9tYWUnLCAnPG91dGZpbGUubWFlPic=

> <r_lp_tautomer_probability>
0.5

> <r_epik_Ionization_Penalty>
0.000628417

> <r_epik_Ionization_Penalty_Charging>
0.000582718

> <r_epik_Ionization_Penalty_Neutral>
4.56984e-05

> <r_epik_State_Penalty>
0.000366292

> <r_epik_Charging_Adjusted_Penalty>
0.00094901

> <i_epik_Tot_Q>
1

> <i_epik_Tot_abs_Q>
1

> <r_epik_Metal_State_Penalty>
-0

> <b_epik_Metal_Only>
0

> <s_lp_Force_Field>
OPLS_2005

> <r_lp_Energy>
30.8561

> <b_lp_Chiralities_Consistent>
1

> <s_lp_Variant>
AV-unprocessed.smi:1588-2

> <Gold.Version>
5.8.1

> <Gold.Id.Protein>
6NUR|6NUR_protein|mol2

> <Gold.PLP.Fitness>
46.2794

> <Gold.PLP.PLP>
-30.1027

> <Gold.PLP.part.hbond>
-6.2048

> <Gold.PLP.part.metal>
0.0000

> <Gold.PLP.part.buried>
-0.3641

> <Gold.PLP.part.nonpolar>
-23.8892

> <Gold.PLP.part.repulsive>
0.4126

> <Gold.PLP.ligand.clash>
0.0000

> <Gold.PLP.ligand.torsion>
0.2469

> <Gold.PLP.Chemscore.Hbond>
4.5500

> <Gold.PLP.Chemscore.CHOScore>
1.0000

> <Gold.PLP.Chemscore.Metal>
0.0000

> <Gold.Chemscore.Hbonds>
donor molecule, donor type, donor heavy atom, donor atom, acceptor molecule, acceptor atom, score
      L1  H     3    37       P1 10747  0.98
      L1  H     8    31       P1  7948  0.79
      L1  H    11    32       P1  7948  0.96
      P1  H  7989  7998       L1    14  0.80
      P1  H 10752 10764       L1    10  0.99
      L1  C    13    33       P1  7957  1.00

> <Gold.PLP.Chemscore.Internal.Correction>
0.0206

> <Gold.Rescore>
     Score         DG    S(hbond)    S(metal)    S(lipo)     H(rot)  DE(clash)    DE(int)     intcor
     17.06     -18.51       2.89        0.00      63.29       1.58       0.06       1.39       ----

> <Gold.Chemscore.Fitness>
17.0604

> <Gold.Chemscore.DG>
-18.5095

> <Gold.Chemscore.ZeroCoef>
-5.4800

> <Gold.Chemscore.Hbond>
2.8915

> <Gold.Chemscore.Metal>
0.0000

> <Gold.Chemscore.Lipo>
63.2887

> <Gold.Chemscore.Internal_Hbond>
0.0000

> <Gold.Chemscore.DEClash>
0.0595

> <Gold.Chemscore.DEInternal>
1.3896

> <Gold.Chemscore.Rot>
1.5753

> <Gold.Chemscore.Internal.Correction>
   9.000000E+99

> <Gold.Chemscore.Hbonds>
donor molecule, donor type, donor heavy atom, donor atom, acceptor molecule, acceptor atom, score
      L1  H     3    37       P1 10747  0.93
      L1  H     8    31       P1  7948  0.15
      L1  H    11    32       P1  7948  0.69
      P1  H  7989  7998       L1    14  0.11
      P1  H 10752 10764       L1    10  0.31

> <Gold.Chemscore.Hbond.Weighted>
-9.6575

> <Gold.Chemscore.Metal.Weighted>
-0.0000

> <Gold.Chemscore.Lipo.Weighted>
-7.4048

> <Gold.Chemscore.Internal_Hbond.Weighted>
0.0000

> <Gold.Chemscore.DEClash.Weighted>
0.0595

> <Gold.Chemscore.DEInternal.Weighted>
1.3896

> <Gold.Chemscore.Rot.Weighted>
4.0328

> <Gold.Chemscore.Internal.Correction.Weighted>
   9.000000E+99

> <Gold.Protein.RotatedTorsions>
[ 6907 6896 6895 6894 ] final  -59.49 input  -60.11 | X-H torsion
[ 7974 7965 7964 7962 ] final -164.26 input  175.53 | X-H torsion
[ 8008 7997 7996 7995 ] final -125.76 input   59.86 | X-H torsion
[ 10167 10162 10161 10158 ] final  -34.27 input  -65.29 | X-H torsion
[ 10718 10713 10712 10709 ] final  -37.42 input   66.30 | X-H torsion
[ 10763 10752 10751 10750 ] final  -43.17 input  -60.55 | X-H torsion
[ 11005 11000 10999 10996 ] final -108.50 input  -57.11 | X-H torsion

> <Gold.Protein.ActiveResidues>
 VAL166  LYS551  ARG553  GLY616  TRP617  ASP618  TYR619  PRO620  LYS621  CYS622 
 ASP623  PHE694  ASN695  SER759  ASP760  ASP761  ALA762  ILE779  LEU786  VAL792 
 PHE793  MET794  SER795  GLU796  ALA797  LYS798  CYS799  TRP800  GLU811  SER814 

> <Gold.Protein.RotatedAtoms>
  150.7926  134.6962  159.6523 H   0  0  0  0  0  0  0  0  0  0  0  0  # atno 6907 bound_to 6896
  152.4034  134.6244  160.0069 H   0  0  0  0  0  0  0  0  0  0  0  0  # atno 6908 bound_to 6896
  151.6509  133.3284  159.3188 H   0  0  0  0  0  0  0  0  0  0  0  0  # atno 6909 bound_to 6896
  144.7302  140.2986  143.6208 H   0  0  0  0  0  0  0  0  0  0  0  0  # atno 7974 bound_to 7965
  155.2186  140.0421  157.2945 H   0  0  0  0  0  0  0  0  0  0  0  0  # atno 8008 bound_to 7997
  154.5964  140.2440  155.7822 H   0  0  0  0  0  0  0  0  0  0  0  0  # atno 8009 bound_to 7997
  156.2293  140.2944  156.0156 H   0  0  0  0  0  0  0  0  0  0  0  0  # atno 8010 bound_to 7997
  140.7189  143.3560  151.2059 H   0  0  0  0  0  0  0  0  0  0  0  0  # atno 10167 bound_to 10162
  156.3154  130.4258  149.8010 H   0  0  0  0  0  0  0  0  0  0  0  0  # atno 10718 bound_to 10713
  153.9911  135.6705  153.4754 H   0  0  0  0  0  0  0  0  0  0  0  0  # atno 10763 bound_to 10752
  153.0705  135.4977  154.8290 H   0  0  0  0  0  0  0  0  0  0  0  0  # atno 10764 bound_to 10752
  154.7109  135.3097  154.9161 H   0  0  0  0  0  0  0  0  0  0  0  0  # atno 10765 bound_to 10752
  141.0898  133.9075  157.2102 H   0  0  0  0  0  0  0  0  0  0  0  0  # atno 11005 bound_to 11000
  145.7783  139.1882  143.2172 LP  0  0  0  0  0  0  0  0  0  0  0  0  # atno 17320 bound_to 7965
  146.0855  140.7716  142.9621 LP  0  0  0  0  0  0  0  0  0  0  0  0  # atno 17321 bound_to 7965
  139.7101  143.9390  152.2944 LP  0  0  0  0  0  0  0  0  0  0  0  0  # atno 17342 bound_to 10162
  139.9113  144.6855  150.8560 LP  0  0  0  0  0  0  0  0  0  0  0  0  # atno 17343 bound_to 10162
  156.5338  130.8269  151.3246 LP  0  0  0  0  0  0  0  0  0  0  0  0  # atno 17370 bound_to 10713
  157.7400  130.9843  150.2352 LP  0  0  0  0  0  0  0  0  0  0  0  0  # atno 17371 bound_to 10713
  139.9722  135.0125  156.9541 LP  0  0  0  0  0  0  0  0  0  0  0  0  # atno 17394 bound_to 11000
  140.5278  134.0843  155.7308 LP  0  0  0  0  0  0  0  0  0  0  0  0  # atno 17395 bound_to 11000

$$$$
