AV-unprocessed.smi:1702|AV-procd|sdf|6851|dock3
  -GOLD-   22720 8 33D 1   1.00000     0.00000
 Structure written by MMmdl.
 45 47  0  0  0  0  0  0  0  0  3 V2000
  147.9093  134.0177  156.8761 C   0  0  0  0  0  0  0  0  0  0  0  0
  147.7050  134.4594  155.4163 C   0  0  2  0  0  0  0  0  0  0  0  0
  148.9118  134.1302  154.5192 C   0  0  0  0  0  0  0  0  0  0  0  0
  150.1049  135.0673  154.7798 C   0  0  0  0  0  0  0  0  0  0  0  0
  149.7170  136.4937  154.6268 N   0  3  2  0  0  0  0  0  0  0  0  0
  150.8869  137.4032  154.7452 C   0  0  0  0  0  0  0  0  0  0  0  0
  150.4976  138.8699  155.0264 C   0  0  2  0  0  0  0  0  0  0  0  0
  150.6941  139.6390  153.8544 O   0  0  0  0  0  0  0  0  0  0  0  0
  151.3511  139.4677  156.1632 C   0  0  0  0  0  0  0  0  0  0  0  0
  150.9248  140.8184  156.5544 N   0  0  0  0  0  0  0  0  0  0  0  0
  150.0168  141.6511  155.9757 C   0  0  0  0  0  0  0  0  0  0  0  0
  149.9798  142.7953  156.7140 N   0  3  0  0  0  0  0  0  0  0  0  0
  150.8777  142.6929  157.7789 C   0  0  0  0  0  0  0  0  0  0  0  0
  151.1951  143.5889  158.7946 C   0  0  0  0  0  0  0  0  0  0  0  0
  152.1627  143.1702  159.7318 C   0  0  0  0  0  0  0  0  0  0  0  0
  152.5083  144.0034  160.7415 F   0  0  0  0  0  0  0  0  0  0  0  0
  152.7752  141.9023  159.6378 C   0  0  0  0  0  0  0  0  0  0  0  0
  153.6981  141.5382  160.5591 F   0  0  0  0  0  0  0  0  0  0  0  0
  152.4459  141.0024  158.6025 C   0  0  0  0  0  0  0  0  0  0  0  0
  151.4885  141.4250  157.6816 C   0  0  0  0  0  0  0  0  0  0  0  0
  148.5938  136.8536  155.5341 C   0  0  0  0  0  0  0  0  0  0  0  0
  147.3677  135.9558  155.2881 C   0  0  0  0  0  0  0  0  0  0  0  0
  148.7501  134.5258  157.3474 H   0  0  0  0  0  0  0  0  0  0  0  0
  148.0972  132.9454  156.9364 H   0  0  0  0  0  0  0  0  0  0  0  0
  147.0220  134.2263  157.4745 H   0  0  0  0  0  0  0  0  0  0  0  0
  146.8507  133.8948  155.0402 H   0  0  0  0  0  0  0  0  0  0  0  0
  149.2142  133.0916  154.6583 H   0  0  0  0  0  0  0  0  0  0  0  0
  148.6144  134.2196  153.4734 H   0  0  0  0  0  0  0  0  0  0  0  0
  150.5115  134.9029  155.7787 H   0  0  0  0  0  0  0  0  0  0  0  0
  150.9014  134.8265  154.0746 H   0  0  0  0  0  0  0  0  0  0  0  0
  151.5480  137.0281  155.5285 H   0  0  0  0  0  0  0  0  0  0  0  0
  151.4688  137.3752  153.8221 H   0  0  0  0  0  0  0  0  0  0  0  0
  149.4482  138.9428  155.3083 H   0  0  0  0  0  0  0  0  0  0  0  0
  150.3342  139.1730  153.1153 H   0  0  0  0  0  0  0  0  0  0  0  0
  151.3269  138.8300  157.0479 H   0  0  0  0  0  0  0  0  0  0  0  0
  152.3968  139.5323  155.8585 H   0  0  0  0  0  0  0  0  0  0  0  0
  149.4305  141.4416  155.0922 H   0  0  0  0  0  0  0  0  0  0  0  0
  150.7290  144.5602  158.8703 H   0  0  0  0  0  0  0  0  0  0  0  0
  152.9221  140.0355  158.5394 H   0  0  0  0  0  0  0  0  0  0  0  0
  148.9203  136.7755  156.5720 H   0  0  0  0  0  0  0  0  0  0  0  0
  148.2974  137.8903  155.3812 H   0  0  0  0  0  0  0  0  0  0  0  0
  146.9823  136.1506  154.2863 H   0  0  0  0  0  0  0  0  0  0  0  0
  146.5645  136.2217  155.9763 H   0  0  0  0  0  0  0  0  0  0  0  0
  149.3764  136.5866  153.6807 H   0  0  0  0  0  0  0  0  0  0  0  0
  149.3848  143.5865  156.5027 H   0  0  0  0  0  0  0  0  0  0  0  0
  1  2  1  0  0  0  0
  1 23  1  0  0  0  0
  1 24  1  0  0  0  0
  1 25  1  0  0  0  0
  2 22  1  0  0  0  0
  2  3  1  0  0  0  0
  2 26  1  0  0  0  0
  3  4  1  0  0  0  0
  3 27  1  0  0  0  0
  3 28  1  0  0  0  0
  4  5  1  0  0  0  0
  4 29  1  0  0  0  0
  4 30  1  0  0  0  0
  5  6  1  0  0  0  0
  5 21  1  0  0  0  0
  5 44  1  0  0  0  0
  6  7  1  0  0  0  0
  6 31  1  0  0  0  0
  6 32  1  0  0  0  0
  7  8  1  0  0  0  0
  7  9  1  0  0  0  0
  7 33  1  0  0  0  0
  8 34  1  0  0  0  0
  9 10  1  0  0  0  0
  9 35  1  0  0  0  0
  9 36  1  0  0  0  0
 10 20  1  0  0  0  0
 10 11  1  0  0  0  0
 11 12  2  0  0  0  0
 11 37  1  0  0  0  0
 12 13  1  0  0  0  0
 12 45  1  0  0  0  0
 13 20  2  0  0  0  0
 13 14  1  0  0  0  0
 14 15  2  0  0  0  0
 14 38  1  0  0  0  0
 15 16  1  0  0  0  0
 15 17  1  0  0  0  0
 17 18  1  0  0  0  0
 17 19  2  0  0  0  0
 19 20  1  0  0  0  0
 19 39  1  0  0  0  0
 21 22  1  0  0  0  0
 21 40  1  0  0  0  0
 21 41  1  0  0  0  0
 22 42  1  0  0  0  0
 22 43  1  0  0  0  0
M  CHG  1   5   1
M  CHG  1  12   1
M  END
> <s_m_source_file>
AV-unprocessed.smi

> <i_m_source_file_index>
1702

> <i_lp_mmshare_version>
43012

> <i_f3d_flags>
0

> <s_epik_input>
W0NIM11bQ0hdMVtDSDJdW0NIMl1OKFtDSDJdW0NIMl0xKVtDSDJdW0NASF0oW09IXSlbQ0gyXW4oW2NIXW4yKWMoYzIzKVtjSF1jKEYpYyhGKVtjSF0z

> <s_epik_cmdline>
J2VwaWtfcHl0aG9uJywgJy1waCcsICc3LjAnLCAnLXRuJywgJzgnLCAnLW1hJywgJzIwMCcsICctbWV0YWxfYmluZGluZycsICctaW1hZScsICc8aW5maWxlLm1hZT4nLCAnLW9tYWUnLCAnPG91dGZpbGUubWFlPic=

> <r_epik_Ionization_Penalty>
2.33291

> <r_epik_Ionization_Penalty_Charging>
2.33291

> <r_epik_Ionization_Penalty_Neutral>
6.90208e-07

> <r_epik_State_Penalty>
2.4838

> <r_epik_Charging_Adjusted_Penalty>
4.81672

> <i_epik_Tot_Q>
2

> <i_epik_Tot_abs_Q>
2

> <r_epik_Metal_State_Penalty>
6.56754

> <b_epik_Metal_Only>
0

> <s_lp_Force_Field>
OPLS_2005

> <r_lp_Energy>
33.1183

> <b_lp_Chiralities_Consistent>
1

> <s_lp_Variant>
AV-unprocessed.smi:1702-7

> <Gold.Version>
5.8.1

> <Gold.Id.Protein>
6NUR|6NUR_protein|mol2

> <Gold.PLP.Fitness>
55.8613

> <Gold.PLP.PLP>
-41.8428

> <Gold.PLP.part.hbond>
-3.6656

> <Gold.PLP.part.metal>
0.0000

> <Gold.PLP.part.buried>
-2.3919

> <Gold.PLP.part.nonpolar>
-35.4028

> <Gold.PLP.part.repulsive>
0.0788

> <Gold.PLP.ligand.clash>
0.0000

> <Gold.PLP.ligand.torsion>
0.9558

> <Gold.PLP.Chemscore.Hbond>
5.2902

> <Gold.PLP.Chemscore.CHOScore>
0.0000

> <Gold.PLP.Chemscore.Metal>
0.0000

> <Gold.Chemscore.Hbonds>
donor molecule, donor type, donor heavy atom, donor atom, acceptor molecule, acceptor atom, score
      L1  H     5    44       P1  7948  2.00
      L1  H     8    34       P1  7957  0.26
      L1  H    12    45       P1  8028  1.82
      P1  H  7989  7998       L1     8  1.00

> <Gold.PLP.Chemscore.Internal.Correction>
0.0596

> <Gold.Rescore>
     Score         DG    S(hbond)    S(metal)    S(lipo)     H(rot)  DE(clash)    DE(int)     intcor
     18.15     -20.78       3.14        0.00      92.02       2.32       0.55       2.08       ----

> <Gold.Chemscore.Fitness>
18.1491

> <Gold.Chemscore.DG>
-20.7797

> <Gold.Chemscore.ZeroCoef>
-5.4800

> <Gold.Chemscore.Hbond>
3.1364

> <Gold.Chemscore.Metal>
0.0000

> <Gold.Chemscore.Lipo>
92.0152

> <Gold.Chemscore.Internal_Hbond>
0.0000

> <Gold.Chemscore.DEClash>
0.5547

> <Gold.Chemscore.DEInternal>
2.0760

> <Gold.Chemscore.Rot>
2.3210

> <Gold.Chemscore.Internal.Correction>
   9.000000E+99

> <Gold.Chemscore.Hbonds>
donor molecule, donor type, donor heavy atom, donor atom, acceptor molecule, acceptor atom, score
      L1  H     5    44       P1  7948  0.90
      L1  H     8    34       P1  7957  0.21
      L1  H    12    45       P1  8028  0.85
      P1  H  7989  7998       L1     8  0.84

> <Gold.Chemscore.Hbond.Weighted>
-10.4756

> <Gold.Chemscore.Metal.Weighted>
-0.0000

> <Gold.Chemscore.Lipo.Weighted>
-10.7658

> <Gold.Chemscore.Internal_Hbond.Weighted>
0.0000

> <Gold.Chemscore.DEClash.Weighted>
0.5547

> <Gold.Chemscore.DEInternal.Weighted>
2.0760

> <Gold.Chemscore.Rot.Weighted>
5.9416

> <Gold.Chemscore.Internal.Correction.Weighted>
   9.000000E+99

> <Gold.Protein.RotatedTorsions>
[ 6907 6896 6895 6894 ] final   17.43 input  -60.11 | X-H torsion
[ 7974 7965 7964 7962 ] final -127.90 input  175.53 | X-H torsion
[ 8008 7997 7996 7995 ] final   48.56 input   59.86 | X-H torsion
[ 10167 10162 10161 10158 ] final -157.76 input  -65.29 | X-H torsion
[ 10718 10713 10712 10709 ] final    5.25 input   66.30 | X-H torsion
[ 10763 10752 10751 10750 ] final   82.84 input  -60.55 | X-H torsion
[ 11005 11000 10999 10996 ] final   81.50 input  -57.11 | X-H torsion

> <Gold.Protein.ActiveResidues>
 VAL166  LYS551  ARG553  GLY616  TRP617  ASP618  TYR619  PRO620  LYS621  CYS622 
 ASP623  PHE694  ASN695  SER759  ASP760  ASP761  ALA762  ILE779  LEU786  VAL792 
 PHE793  MET794  SER795  GLU796  ALA797  LYS798  CYS799  TRP800  GLU811  SER814 

> <Gold.Protein.RotatedAtoms>
  151.8494  135.0563  160.0456 H   0  0  0  0  0  0  0  0  0  0  0  0  # atno 6907 bound_to 6896
  152.2748  133.5411  159.5469 H   0  0  0  0  0  0  0  0  0  0  0  0  # atno 6908 bound_to 6896
  150.7165  134.0564  159.3858 H   0  0  0  0  0  0  0  0  0  0  0  0  # atno 6909 bound_to 6896
  144.9724  140.7559  143.4662 H   0  0  0  0  0  0  0  0  0  0  0  0  # atno 7974 bound_to 7965
  155.3876  140.3432  155.4250 H   0  0  0  0  0  0  0  0  0  0  0  0  # atno 8008 bound_to 7997
  156.1575  140.1590  156.8701 H   0  0  0  0  0  0  0  0  0  0  0  0  # atno 8009 bound_to 7997
  154.5108  140.0790  156.7968 H   0  0  0  0  0  0  0  0  0  0  0  0  # atno 8010 bound_to 7997
  139.6745  143.9688  152.2302 H   0  0  0  0  0  0  0  0  0  0  0  0  # atno 10167 bound_to 10162
  156.9046  130.5734  149.5647 H   0  0  0  0  0  0  0  0  0  0  0  0  # atno 10718 bound_to 10713
  153.1238  135.4713  154.9239 H   0  0  0  0  0  0  0  0  0  0  0  0  # atno 10763 bound_to 10752
  154.7601  135.3129  154.8398 H   0  0  0  0  0  0  0  0  0  0  0  0  # atno 10764 bound_to 10752
  153.8956  135.6880  153.4812 H   0  0  0  0  0  0  0  0  0  0  0  0  # atno 10765 bound_to 10752
  139.9096  134.8001  156.2049 H   0  0  0  0  0  0  0  0  0  0  0  0  # atno 11005 bound_to 11000
  145.2539  139.2020  143.4927 LP  0  0  0  0  0  0  0  0  0  0  0  0  # atno 17320 bound_to 7965
  146.3386  140.2457  142.8597 LP  0  0  0  0  0  0  0  0  0  0  0  0  # atno 17321 bound_to 7965
  139.9461  144.6650  150.8218 LP  0  0  0  0  0  0  0  0  0  0  0  0  # atno 17342 bound_to 10162
  140.7630  143.3213  151.2617 LP  0  0  0  0  0  0  0  0  0  0  0  0  # atno 17343 bound_to 10162
  156.0565  130.5626  150.9103 LP  0  0  0  0  0  0  0  0  0  0  0  0  # atno 17370 bound_to 10713
  157.6005  131.0941  150.8968 LP  0  0  0  0  0  0  0  0  0  0  0  0  # atno 17371 bound_to 10713
  141.0501  133.6893  156.1756 LP  0  0  0  0  0  0  0  0  0  0  0  0  # atno 17394 bound_to 11000
  140.6823  134.4754  157.5589 LP  0  0  0  0  0  0  0  0  0  0  0  0  # atno 17395 bound_to 11000

$$$$
