AV-unprocessed.smi:2275|AV-procd|sdf|9170|dock7
  -GOLD-   2272012383D 1   1.00000     0.00000
 Structure written by MMmdl.
 38 39  0  0  0  0  0  0  0  0  1 V2000
  155.7897  135.3184  163.8927 C   0  0  0  0  0  0  0  0  0  0  0  0
  155.1197  136.1258  162.7950 C   0  0  0  0  0  0  0  0  0  0  0  0
  154.8080  137.4485  163.1233 N   0  0  0  0  0  0  0  0  0  0  0  0
  154.2292  138.2095  162.2531 C   0  0  0  0  0  0  0  0  0  0  0  0
  153.8999  137.7445  160.9696 N   0  0  0  0  0  0  0  0  0  0  0  0
  153.2392  138.7103  160.0760 C   0  0  0  0  0  0  0  0  0  0  0  0
  154.1697  139.8813  159.6880 C   0  0  2  0  0  0  0  0  0  0  0  0
  155.4210  139.3944  159.2456 O   0  0  0  0  0  0  0  0  0  0  0  0
  154.4292  140.8546  160.8508 C   0  0  0  0  0  0  0  0  0  0  0  0
  153.2014  141.4175  161.2983 O   0  0  0  0  0  0  0  0  0  0  0  0
  152.7579  142.5781  160.7014 C   0  0  0  0  0  0  0  0  0  0  0  0
  151.8288  143.3540  161.4252 C   0  0  0  0  0  0  0  0  0  0  0  0
  151.3223  144.5554  160.8932 C   0  0  0  0  0  0  0  0  0  0  0  0
  151.7430  144.9950  159.6246 C   0  0  0  0  0  0  0  0  0  0  0  0
  152.6686  144.2305  158.8905 C   0  0  0  0  0  0  0  0  0  0  0  0
  153.1745  143.0284  159.4227 C   0  0  0  0  0  0  0  0  0  0  0  0
  154.1827  136.4733  160.5621 C   0  0  0  0  0  0  0  0  0  0  0  0
  153.9089  136.0827  159.4256 O   0  0  0  0  0  0  0  0  0  0  0  0
  154.8328  135.6157  161.5663 C   0  0  0  0  0  0  0  0  0  0  0  0
  155.1466  134.1831  161.1534 C   0  0  0  0  0  0  0  0  0  0  0  0
  155.1731  134.4620  164.1669 H   0  0  0  0  0  0  0  0  0  0  0  0
  155.9453  135.9195  164.7896 H   0  0  0  0  0  0  0  0  0  0  0  0
  156.7633  134.9565  163.5614 H   0  0  0  0  0  0  0  0  0  0  0  0
  153.9676  139.2491  162.4582 H   0  0  0  0  0  0  0  0  0  0  0  0
  152.9288  138.1840  159.1713 H   0  0  0  0  0  0  0  0  0  0  0  0
  152.3057  139.0883  160.4986 H   0  0  0  0  0  0  0  0  0  0  0  0
  153.7364  140.4541  158.8672 H   0  0  0  0  0  0  0  0  0  0  0  0
  155.5537  138.5317  159.6069 H   0  0  0  0  0  0  0  0  0  0  0  0
  154.9497  140.3455  161.6641 H   0  0  0  0  0  0  0  0  0  0  0  0
  155.0769  141.6573  160.4950 H   0  0  0  0  0  0  0  0  0  0  0  0
  151.5014  143.0244  162.4003 H   0  0  0  0  0  0  0  0  0  0  0  0
  150.6114  145.1391  161.4591 H   0  0  0  0  0  0  0  0  0  0  0  0
  151.3557  145.9167  159.2155 H   0  0  0  0  0  0  0  0  0  0  0  0
  152.9923  144.5662  157.9162 H   0  0  0  0  0  0  0  0  0  0  0  0
  153.8819  142.4695  158.8291 H   0  0  0  0  0  0  0  0  0  0  0  0
  155.8297  134.1775  160.3036 H   0  0  0  0  0  0  0  0  0  0  0  0
  154.2325  133.6679  160.8563 H   0  0  0  0  0  0  0  0  0  0  0  0
  155.6066  133.5981  161.9478 H   0  0  0  0  0  0  0  0  0  0  0  0
  1  2  1  0  0  0  0
  1 21  1  0  0  0  0
  1 22  1  0  0  0  0
  1 23  1  0  0  0  0
  2 19  2  0  0  0  0
  2  3  1  0  0  0  0
  3  4  2  0  0  0  0
  4  5  1  0  0  0  0
  4 24  1  0  0  0  0
  5  6  1  0  0  0  0
  5 17  1  0  0  0  0
  6  7  1  0  0  0  0
  6 25  1  0  0  0  0
  6 26  1  0  0  0  0
  7  8  1  0  0  0  0
  7  9  1  0  0  0  0
  7 27  1  0  0  0  0
  8 28  1  0  0  0  0
  9 10  1  0  0  0  0
  9 29  1  0  0  0  0
  9 30  1  0  0  0  0
 10 11  1  0  0  0  0
 11 16  1  0  0  0  0
 11 12  2  0  0  0  0
 12 13  1  0  0  0  0
 12 31  1  0  0  0  0
 13 14  2  0  0  0  0
 13 32  1  0  0  0  0
 14 15  1  0  0  0  0
 14 33  1  0  0  0  0
 15 16  2  0  0  0  0
 15 34  1  0  0  0  0
 16 35  1  0  0  0  0
 17 18  2  0  0  0  0
 17 19  1  0  0  0  0
 19 20  1  0  0  0  0
 20 36  1  0  0  0  0
 20 37  1  0  0  0  0
 20 38  1  0  0  0  0
M  END
> <s_m_source_file>
AV-unprocessed.smi

> <i_m_source_file_index>
2275

> <i_lp_mmshare_version>
43012

> <i_f3d_flags>
0

> <s_epik_input>
W0NIM11jMW5bY0hdbihjKD1PKWMxW0NIM10pW0NIMl1bQ0BIXShbT0hdKVtDSDJdT2MyW2NIXVtjSF1bY0hdW2NIXVtjSF0y

> <s_epik_cmdline>
J2VwaWtfcHl0aG9uJywgJy1waCcsICc3LjAnLCAnLXRuJywgJzgnLCAnLW1hJywgJzIwMCcsICctbWV0YWxfYmluZGluZycsICctaW1hZScsICc8aW5maWxlLm1hZT4nLCAnLW9tYWUnLCAnPG91dGZpbGUubWFlPic=

> <r_lp_tautomer_probability>
1

> <r_epik_Ionization_Penalty>
4.18311e-05

> <r_epik_Ionization_Penalty_Charging>
1.04093e-07

> <r_epik_Ionization_Penalty_Neutral>
4.1727e-05

> <r_epik_State_Penalty>
-0

> <r_epik_Charging_Adjusted_Penalty>
1.04093e-07

> <i_epik_Tot_Q>
0

> <i_epik_Tot_abs_Q>
0

> <r_epik_Metal_State_Penalty>
-0

> <b_epik_Metal_Only>
0

> <s_lp_Force_Field>
OPLS_2005

> <r_lp_Energy>
24.2901

> <b_lp_Chiralities_Consistent>
1

> <s_lp_Variant>
AV-unprocessed.smi:2275-1

> <Gold.Version>
5.8.1

> <Gold.Id.Protein>
6NUR|6NUR_protein|mol2

> <Gold.PLP.Fitness>
49.0927

> <Gold.PLP.PLP>
-44.1928

> <Gold.PLP.part.hbond>
-2.0000

> <Gold.PLP.part.metal>
0.0000

> <Gold.PLP.part.buried>
-5.1407

> <Gold.PLP.part.nonpolar>
-37.1447

> <Gold.PLP.part.repulsive>
0.0000

> <Gold.PLP.ligand.clash>
0.0000

> <Gold.PLP.ligand.torsion>
0.5884

> <Gold.PLP.Chemscore.Hbond>
2.0000

> <Gold.PLP.Chemscore.CHOScore>
0.0000

> <Gold.PLP.Chemscore.Metal>
0.0000

> <Gold.Chemscore.Hbonds>
donor molecule, donor type, donor heavy atom, donor atom, acceptor molecule, acceptor atom, score
      P1  H  6896  6908       L1    18  0.69
      P1  H  7997  8008       L1     8  1.00

> <Gold.PLP.Chemscore.Internal.Correction>
0.0767

> <Gold.Rescore>
     Score         DG    S(hbond)    S(metal)    S(lipo)     H(rot)  DE(clash)    DE(int)     intcor
     18.63     -19.17       1.98        0.00     112.64       2.38       0.02       0.52       ----

> <Gold.Chemscore.Fitness>
18.6325

> <Gold.Chemscore.DG>
-19.1718

> <Gold.Chemscore.ZeroCoef>
-5.4800

> <Gold.Chemscore.Hbond>
1.9796

> <Gold.Chemscore.Metal>
0.0000

> <Gold.Chemscore.Lipo>
112.6445

> <Gold.Chemscore.Internal_Hbond>
0.0000

> <Gold.Chemscore.DEClash>
0.0237

> <Gold.Chemscore.DEInternal>
0.5156

> <Gold.Chemscore.Rot>
2.3826

> <Gold.Chemscore.Internal.Correction>
   9.000000E+99

> <Gold.Chemscore.Hbonds>
donor molecule, donor type, donor heavy atom, donor atom, acceptor molecule, acceptor atom, score
      P1  H  6896  6908       L1    18  0.12
      P1  H  7997  8008       L1     8  0.34

> <Gold.Chemscore.Hbond.Weighted>
-6.6119

> <Gold.Chemscore.Metal.Weighted>
-0.0000

> <Gold.Chemscore.Lipo.Weighted>
-13.1794

> <Gold.Chemscore.Internal_Hbond.Weighted>
0.0000

> <Gold.Chemscore.DEClash.Weighted>
0.0237

> <Gold.Chemscore.DEInternal.Weighted>
0.5156

> <Gold.Chemscore.Rot.Weighted>
6.0996

> <Gold.Chemscore.Internal.Correction.Weighted>
   9.000000E+99

> <Gold.Protein.RotatedTorsions>
[ 6907 6896 6895 6894 ] final  -60.11 input  -60.11 | X-H torsion
[ 7974 7965 7964 7962 ] final  145.65 input  175.53 | X-H torsion
[ 8008 7997 7996 7995 ] final -142.28 input   59.86 | X-H torsion
[ 10167 10162 10161 10158 ] final -145.12 input  -65.29 | X-H torsion
[ 10718 10713 10712 10709 ] final   -3.00 input   66.30 | X-H torsion
[ 10763 10752 10751 10750 ] final   47.93 input  -60.55 | X-H torsion
[ 11005 11000 10999 10996 ] final  -48.17 input  -57.11 | X-H torsion

> <Gold.Protein.ActiveResidues>
 VAL166  LYS551  ARG553  GLY616  TRP617  ASP618  TYR619  PRO620  LYS621  CYS622 
 ASP623  PHE694  ASN695  SER759  ASP760  ASP761  ALA762  ILE779  LEU786  VAL792 
 PHE793  MET794  SER795  GLU796  ALA797  LYS798  CYS799  TRP800  GLU811  SER814 

> <Gold.Protein.RotatedAtoms>
  150.7880  134.6880  159.6480 H   0  0  0  0  0  0  0  0  0  0  0  0  # atno 6907 bound_to 6896
  152.3980  134.6329  160.0090 H   0  0  0  0  0  0  0  0  0  0  0  0  # atno 6908 bound_to 6896
  151.6609  133.3280  159.3210 H   0  0  0  0  0  0  0  0  0  0  0  0  # atno 6909 bound_to 6896
  144.8735  139.5809  143.5876 H   0  0  0  0  0  0  0  0  0  0  0  0  # atno 7974 bound_to 7965
  155.4917  140.0568  157.2952 H   0  0  0  0  0  0  0  0  0  0  0  0  # atno 8008 bound_to 7997
  154.4621  140.2001  156.0169 H   0  0  0  0  0  0  0  0  0  0  0  0  # atno 8009 bound_to 7997
  156.0908  140.3233  155.7818 H   0  0  0  0  0  0  0  0  0  0  0  0  # atno 8010 bound_to 7997
  139.7836  143.8066  152.2642 H   0  0  0  0  0  0  0  0  0  0  0  0  # atno 10167 bound_to 10162
  156.7825  130.5335  149.5748 H   0  0  0  0  0  0  0  0  0  0  0  0  # atno 10718 bound_to 10713
  152.9795  135.5960  154.3843 H   0  0  0  0  0  0  0  0  0  0  0  0  # atno 10763 bound_to 10752
  154.3505  135.2767  155.2376 H   0  0  0  0  0  0  0  0  0  0  0  0  # atno 10764 bound_to 10752
  154.4418  135.6011  153.6189 H   0  0  0  0  0  0  0  0  0  0  0  0  # atno 10765 bound_to 10752
  141.0684  133.6686  156.3402 H   0  0  0  0  0  0  0  0  0  0  0  0  # atno 11005 bound_to 11000
  146.2946  139.7241  142.9136 LP  0  0  0  0  0  0  0  0  0  0  0  0  # atno 17320 bound_to 7965
  145.4086  141.0394  143.3030 LP  0  0  0  0  0  0  0  0  0  0  0  0  # atno 17321 bound_to 7965
  139.8136  144.7325  150.9664 LP  0  0  0  0  0  0  0  0  0  0  0  0  # atno 17342 bound_to 10162
  140.7819  143.4226  151.0817 LP  0  0  0  0  0  0  0  0  0  0  0  0  # atno 17343 bound_to 10162
  156.1209  130.6109  151.0192 LP  0  0  0  0  0  0  0  0  0  0  0  0  # atno 17370 bound_to 10713
  157.6640  131.0875  150.7773 LP  0  0  0  0  0  0  0  0  0  0  0  0  # atno 17371 bound_to 10713
  140.5724  134.5827  157.5461 LP  0  0  0  0  0  0  0  0  0  0  0  0  # atno 17394 bound_to 11000
  139.9499  134.7635  156.0472 LP  0  0  0  0  0  0  0  0  0  0  0  0  # atno 17395 bound_to 11000

$$$$
