#       Name:                AV-unprocessed.smi:1492
#       Creating user name   scv26
#       Creation time:       Fri Mar 27 06:16:05 2020


#       File generated by GOLD software.
#

@<TRIPOS>MOLECULE
AV-unprocessed.smi:1492
    60    61     1
SMALL
NO_CHARGES


@<TRIPOS>ATOM
      1 ****         0.8378   2.5896   1.8616 C.3            1 S1                 0.0000
      2 ****        -0.1237   1.4721   1.4164 C.3            1 S1                 0.0000
      3 ****        -0.9679   1.7201   0.1203 C.3            1 S1                 0.0000
      4 ****        -2.0250   2.8130   0.4143 C.3            1 S1                 0.0000
      5 ****        -0.0279   2.2366  -1.0142 C.3            1 S1                 0.0000
      6 ****         1.0308   1.2785  -1.3084 N.am           1 S1                 0.0000
      7 ****         1.0947   0.4560  -2.3652 C.2            1 S1                 0.0000
      8 ****         0.3711   0.5542  -3.3550 O.2            1 S1                 0.0000
      9 ****         2.0870  -0.7017  -2.2422 C.3            1 S1                 0.0000
     10 ****         2.0110  -1.4358  -0.9025 C.2            1 S1                 0.0000
     11 ****         2.8277  -1.1678   0.1569 C.2            1 S1                 0.0000
     12 ****         3.9553  -0.1522   0.1005 C.3            1 S1                 0.0000
     13 ****         2.6446  -1.8089   1.3937 N.2            1 S1                 0.0000
     14 ****         1.6803  -2.6356   1.5387 C.2            1 S1                 0.0000
     15 ****         1.4763  -3.3053   2.8807 C.3            1 S1                 0.0000
     16 ****         0.7911  -2.9608   0.5393 N.pl3          1 S1                -1.0000
     17 ****         0.9291  -2.4147  -0.7013 C.2            1 S1                 0.0000
     18 ****         0.1745  -2.7003  -1.6296 O.2            1 S1                 0.0000
     19 ****        -1.6330   0.4298  -0.3122 N.4            1 S1                 1.0000
     20 ****        -2.2951  -0.3660   0.7638 C.3            1 S1                 0.0000
     21 ****        -2.8278  -1.7068   0.2243 C.3            1 S1                 0.0000
     22 ****        -3.6922  -1.4891  -0.8806 O.3            1 S1                 0.0000
     23 ****        -3.0157  -0.8418  -1.9473 C.3            1 S1                 0.0000
     24 ****        -2.5576   0.5457  -1.4767 C.3            1 S1                 0.0000
     25 ****         1.2911   2.3337   2.8194 H              1 S1                 0.0000
     26 ****         0.3292   3.5440   1.9912 H              1 S1                 0.0000
     27 ****         1.6562   2.7302   1.1560 H              1 S1                 0.0000
     28 ****         0.4623   0.5585   1.3034 H              1 S1                 0.0000
     29 ****        -0.7934   1.2956   2.2583 H              1 S1                 0.0000
     30 ****        -1.5610   3.7357   0.7609 H              1 S1                 0.0000
     31 ****        -2.7309   2.5014   1.1839 H              1 S1                 0.0000
     32 ****        -2.5975   3.0825  -0.4731 H              1 S1                 0.0000
     33 ****        -0.5800   2.4982  -1.9160 H              1 S1                 0.0000
     34 ****         0.4457   3.1733  -0.7225 H              1 S1                 0.0000
     35 ****         1.6970   1.1172  -0.5664 H              1 S1                 0.0000
     36 ****         1.9266  -1.4085  -3.0578 H              1 S1                 0.0000
     37 ****         3.0889  -0.3051  -2.4021 H              1 S1                 0.0000
     38 ****         4.7038  -0.4555  -0.6317 H              1 S1                 0.0000
     39 ****         4.4522  -0.0603   1.0670 H              1 S1                 0.0000
     40 ****         3.5781   0.8327  -0.1741 H              1 S1                 0.0000
     41 ****         1.2341  -4.3610   2.7518 H              1 S1                 0.0000
     42 ****         0.6580  -2.8253   3.4181 H              1 S1                 0.0000
     43 ****         2.3768  -3.2368   3.4927 H              1 S1                 0.0000
     44 ****        -1.6037  -0.6099   1.5683 H              1 S1                 0.0000
     45 ****        -3.1144   0.2066   1.1991 H              1 S1                 0.0000
     46 ****        -2.0108  -2.3652  -0.0684 H              1 S1                 0.0000
     47 ****        -3.3815  -2.2281   1.0054 H              1 S1                 0.0000
     48 ****        -2.1719  -1.4410  -2.2922 H              1 S1                 0.0000
     49 ****        -3.7012  -0.7436  -2.7893 H              1 S1                 0.0000
     50 ****        -3.4371   1.1298  -1.2054 H              1 S1                 0.0000
     51 ****        -2.0889   1.0489  -2.3184 H              1 S1                 0.0000
     52 ****        -0.8727  -0.1547  -0.6314 H              1 S1                 0.0000
     53 ****        -0.3147   1.2804  -3.4030 LP             1 S1                 0.0000
     54 ****         0.4686  -0.0922  -4.1118 LP             1 S1                 0.0000
     55 ****         3.2644  -1.6198   2.1553 LP             1 S1                 0.0000
     56 ****         0.0432  -3.5985   0.7240 LP             1 S1                 0.0000
     57 ****         0.2949  -2.2677  -2.5231 LP             1 S1                 0.0000
     58 ****        -0.5595  -3.3652  -1.4909 LP             1 S1                 0.0000
     59 ****        -4.4584  -0.9176  -0.5867 LP             1 S1                 0.0000
     60 ****        -4.0380  -2.3707  -1.2019 LP             1 S1                 0.0000
@<TRIPOS>BOND
    1    1    2 1     
    2    1   25 1     
    3    1   26 1     
    4    1   27 1     
    5    2    3 1     
    6    2   28 1     
    7    2   29 1     
    8    3    4 1     
    9    3    5 1     
   10    3   19 1     
   11    4   30 1     
   12    4   31 1     
   13    4   32 1     
   14    5    6 1     
   15    5   33 1     
   16    5   34 1     
   17    6    7 am    
   18    6   35 1     
   19    7    8 2     
   20    7    9 1     
   21    9   10 1     
   22    9   36 1     
   23    9   37 1     
   24   10   17 1     
   25   10   11 2     
   26   11   12 1     
   27   11   13 1     
   28   12   38 1     
   29   12   39 1     
   30   12   40 1     
   31   13   14 2     
   32   14   15 1     
   33   14   16 1     
   34   15   41 1     
   35   15   42 1     
   36   15   43 1     
   37   16   17 1     
   38   17   18 2     
   39   19   24 1     
   40   19   20 1     
   41   19   52 1     
   42   20   21 1     
   43   20   44 1     
   44   20   45 1     
   45   21   22 1     
   46   21   46 1     
   47   21   47 1     
   48   22   23 1     
   49   23   24 1     
   50   23   48 1     
   51   23   49 1     
   52   24   50 1     
   53   24   51 1     
   54    8   53 1     
   55    8   54 1     
   56   13   55 1     
   57   16   56 1     
   58   18   57 1     
   59   18   58 1     
   60   22   59 1     
   61   22   60 1     
@<TRIPOS>SUBSTRUCTURE
      1 S1             1
@<TRIPOS>SET
LONE_PAIRS      STATIC     ATOMS    <user>   **** ""
8 53 54 55 56 57 58 59 60
DONOR_HYDROGENS      STATIC     ATOMS    <user>   **** ""
2 35 52
ATOM$BLUE        STATIC     ATOMS    COLORGROUP SYSTEM
8 53 54 55 56 57 58 59 60
ATOM$RED        STATIC     ATOMS    COLORGROUP SYSTEM
2 35 52
