#       Name:                AV-unprocessed.smi:1725
#       Creating user name   scv26
#       Creation time:       Fri Mar 27 08:16:54 2020


#       File generated by GOLD software.
#

@<TRIPOS>MOLECULE
AV-unprocessed.smi:1725
    42    43     1
SMALL
NO_CHARGES


@<TRIPOS>ATOM
      1 ****        -0.2725  -2.7947   2.3662 C.3            1 S1                 0.0000
      2 ****        -0.0037  -2.1225   1.0110 C.3            1 S1                 0.0000
      3 ****         1.4045  -2.1449   0.7902 O.3            1 S1                 0.0000
      4 ****         1.8191  -1.8416  -0.5365 C.3            1 S1                 0.0000
      5 ****         3.3205  -2.0057  -0.6283 C.3            1 S1                 0.0000
      6 ****         4.2415  -0.8381  -0.3553 C.3            1 S1                 0.0000
      7 ****         4.0892  -1.3626  -1.7605 C.3            1 S1                 0.0000
      8 ****        -0.5291  -0.6771   0.9786 C.2            1 S1                 0.0000
      9 ****        -0.3097   0.0717   1.9310 O.2            1 S1                 0.0000
     10 ****        -1.1797  -0.3273  -0.1482 N.am           1 S1                 0.0000
     11 ****        -1.7608   0.9038  -0.4930 C.2            1 S1                 0.0000
     12 ****        -2.1416   1.8572   0.4015 C.2            1 S1                 0.0000
     13 ****        -2.7544   3.1132  -0.0122 C.2            1 S1                 0.0000
     14 ****        -3.1023   4.2389   0.9455 C.3            1 S1                 0.0000
     15 ****        -2.8600   5.4282   0.3936 F              1 S1                 0.0000
     16 ****        -4.3958   4.1836   1.2600 F              1 S1                 0.0000
     17 ****        -2.3954   4.1456   2.0717 F              1 S1                 0.0000
     18 ****        -2.8853   3.2058  -1.3843 C.2            1 S1                 0.0000
     19 ****        -2.5626   2.2994  -2.3331 N.pl3          1 S1                -1.0000
     20 ****        -1.9902   1.1281  -1.9351 C.2            1 S1                 0.0000
     21 ****        -1.6635   0.2611  -2.7466 O.2            1 S1                 0.0000
     22 ****        -1.3362  -2.7907   2.6066 H              1 S1                 0.0000
     23 ****         0.2576  -2.2927   3.1765 H              1 S1                 0.0000
     24 ****         0.0576  -3.8335   2.3533 H              1 S1                 0.0000
     25 ****        -0.5003  -2.7119   0.2377 H              1 S1                 0.0000
     26 ****         1.3470  -2.5234  -1.2449 H              1 S1                 0.0000
     27 ****         1.5490  -0.8238  -0.8203 H              1 S1                 0.0000
     28 ****         3.6761  -2.9851  -0.3138 H              1 S1                 0.0000
     29 ****         3.7861   0.1234  -0.1257 H              1 S1                 0.0000
     30 ****         5.1757  -1.0472   0.1620 H              1 S1                 0.0000
     31 ****         4.9233  -1.9200  -2.1821 H              1 S1                 0.0000
     32 ****         3.5341  -0.7482  -2.4669 H              1 S1                 0.0000
     33 ****        -1.2096  -1.0214  -0.8810 H              1 S1                 0.0000
     34 ****        -2.0193   1.6986   1.4607 H              1 S1                 0.0000
     35 ****        -3.3110   4.1531  -1.7793 H              1 S1                 0.0000
     36 ****         1.7377  -3.0604   1.0159 LP             1 S1                 0.0000
     37 ****         1.8239  -1.4767   1.4048 LP             1 S1                 0.0000
     38 ****         0.2075  -0.2608   2.7197 LP             1 S1                 0.0000
     39 ****        -0.6486   1.0124   1.9159 LP             1 S1                 0.0000
     40 ****        -2.7387   2.4828  -3.3002 LP             1 S1                 0.0000
     41 ****        -1.2452  -0.5896  -2.4282 LP             1 S1                 0.0000
     42 ****        -1.8165   0.4079  -3.7238 LP             1 S1                 0.0000
@<TRIPOS>BOND
    1    1    2 1     
    2    1   22 1     
    3    1   23 1     
    4    1   24 1     
    5    2    3 1     
    6    2    8 1     
    7    2   25 1     
    8    3    4 1     
    9    4    5 1     
   10    4   26 1     
   11    4   27 1     
   12    5    7 1     
   13    5    6 1     
   14    5   28 1     
   15    6    7 1     
   16    6   29 1     
   17    6   30 1     
   18    7   31 1     
   19    7   32 1     
   20    8    9 2     
   21    8   10 am    
   22   10   11 1     
   23   10   33 1     
   24   11   20 1     
   25   11   12 2     
   26   12   13 1     
   27   12   34 1     
   28   13   14 1     
   29   13   18 2     
   30   14   15 1     
   31   14   16 1     
   32   14   17 1     
   33   18   19 1     
   34   18   35 1     
   35   19   20 1     
   36   20   21 2     
   37    3   36 1     
   38    3   37 1     
   39    9   38 1     
   40    9   39 1     
   41   19   40 1     
   42   21   41 1     
   43   21   42 1     
@<TRIPOS>SUBSTRUCTURE
      1 S1             1
@<TRIPOS>SET
LONE_PAIRS      STATIC     ATOMS    <user>   **** ""
7 36 37 38 39 40 41 42
DONOR_HYDROGENS      STATIC     ATOMS    <user>   **** ""
1 33
ATOM$BLUE        STATIC     ATOMS    COLORGROUP SYSTEM
7 36 37 38 39 40 41 42
ATOM$RED        STATIC     ATOMS    COLORGROUP SYSTEM
1 33
