AV-unprocessed.smi:1423|AV-procd|sdf|5798|dock2
  -GOLD-   22720 5453D 1   1.00000     0.00000
 Structure written by MMmdl.
 43 44  0  0  0  0  0  0  0  0  3 V2000
  152.5274  139.9840  158.3320 C   0  0  0  0  0  0  0  0  0  0  0  0
  152.4395  140.1251  156.9185 O   0  0  0  0  0  0  0  0  0  0  0  0
  151.4406  139.4450  156.2522 C   0  0  0  0  0  0  0  0  0  0  0  0
  150.4837  138.7419  157.0102 C   0  0  0  0  0  0  0  0  0  0  0  0
  149.4606  138.0449  156.3398 C   0  0  0  0  0  0  0  0  0  0  0  0
  149.4216  138.0796  154.9250 C   0  0  0  0  0  0  0  0  0  0  0  0
  148.4551  137.4048  154.1295 N   0  0  0  0  0  0  0  0  0  0  0  0
  147.1852  137.0885  154.4374 C   0  0  0  0  0  0  0  0  0  0  0  0
  146.6110  137.3814  155.4855 O   0  0  0  0  0  0  0  0  0  0  0  0
  146.5970  136.4132  153.4391 N   0  0  0  0  0  0  0  0  0  0  0  0
  145.2179  135.9247  153.4495 C   0  0  2  0  0  0  0  0  0  0  0  0
  145.1100  134.5312  154.0998 C   0  0  0  0  0  0  0  0  0  0  0  0
  145.7245  133.4321  153.2154 C   0  0  0  0  0  0  0  0  0  0  0  0
  145.1111  133.4287  151.8602 N   0  3  2  0  0  0  0  0  0  0  0  0
  145.5742  132.3018  151.0125 C   0  0  0  0  0  0  0  0  0  0  0  0
  144.6611  132.1464  149.7916 C   0  0  0  0  0  0  0  0  0  0  0  0
  145.2891  132.4445  148.6386 N   0  5  0  0  0  0  0  0  0  0  0  0
  143.5007  131.7705  149.9451 O   0  0  0  0  0  0  0  0  0  0  0  0
  145.2681  134.7424  151.1862 C   0  0  0  0  0  0  0  0  0  0  0  0
  144.6482  135.8775  152.0212 C   0  0  0  0  0  0  0  0  0  0  0  0
  150.4338  138.8032  154.2603 C   0  0  0  0  0  0  0  0  0  0  0  0
  151.4177  139.4731  154.8968 N   0  0  0  0  0  0  0  0  0  0  0  0
  153.3672  140.5725  158.7009 H   0  0  0  0  0  0  0  0  0  0  0  0
  152.6996  138.9459  158.6198 H   0  0  0  0  0  0  0  0  0  0  0  0
  151.6258  140.3483  158.8263 H   0  0  0  0  0  0  0  0  0  0  0  0
  150.5356  138.7335  158.0889 H   0  0  0  0  0  0  0  0  0  0  0  0
  148.7423  137.4920  156.9241 H   0  0  0  0  0  0  0  0  0  0  0  0
  148.7583  137.1652  153.1970 H   0  0  0  0  0  0  0  0  0  0  0  0
  147.1412  136.2255  152.6100 H   0  0  0  0  0  0  0  0  0  0  0  0
  144.6165  136.6292  154.0273 H   0  0  0  0  0  0  0  0  0  0  0  0
  145.5818  134.5268  155.0830 H   0  0  0  0  0  0  0  0  0  0  0  0
  144.0582  134.2985  154.2720 H   0  0  0  0  0  0  0  0  0  0  0  0
  146.8029  133.5747  153.1286 H   0  0  0  0  0  0  0  0  0  0  0  0
  145.5758  132.4662  153.6988 H   0  0  0  0  0  0  0  0  0  0  0  0
  146.5751  132.5086  150.6315 H   0  0  0  0  0  0  0  0  0  0  0  0
  145.6513  131.3869  151.6041 H   0  0  0  0  0  0  0  0  0  0  0  0
  145.2335  133.4060  148.2814 H   0  0  0  0  0  0  0  0  0  0  0  0
  146.3267  134.9355  151.0055 H   0  0  0  0  0  0  0  0  0  0  0  0
  144.7818  134.7141  150.2105 H   0  0  0  0  0  0  0  0  0  0  0  0
  143.5686  135.7285  152.0730 H   0  0  0  0  0  0  0  0  0  0  0  0
  144.7969  136.8355  151.5214 H   0  0  0  0  0  0  0  0  0  0  0  0
  150.4556  138.8490  153.1812 H   0  0  0  0  0  0  0  0  0  0  0  0
  144.1187  133.2874  151.9857 H   0  0  0  0  0  0  0  0  0  0  0  0
  1  2  1  0  0  0  0
  1 23  1  0  0  0  0
  1 24  1  0  0  0  0
  1 25  1  0  0  0  0
  2  3  1  0  0  0  0
  3 22  1  0  0  0  0
  3  4  2  0  0  0  0
  4  5  1  0  0  0  0
  4 26  1  0  0  0  0
  5  6  2  0  0  0  0
  5 27  1  0  0  0  0
  6  7  1  0  0  0  0
  6 21  1  0  0  0  0
  7  8  1  0  0  0  0
  7 28  1  0  0  0  0
  8  9  2  0  0  0  0
  8 10  1  0  0  0  0
 10 11  1  0  0  0  0
 10 29  1  0  0  0  0
 11 20  1  0  0  0  0
 11 12  1  0  0  0  0
 11 30  1  0  0  0  0
 12 13  1  0  0  0  0
 12 31  1  0  0  0  0
 12 32  1  0  0  0  0
 13 14  1  0  0  0  0
 13 33  1  0  0  0  0
 13 34  1  0  0  0  0
 14 15  1  0  0  0  0
 14 19  1  0  0  0  0
 14 43  1  0  0  0  0
 15 16  1  0  0  0  0
 15 35  1  0  0  0  0
 15 36  1  0  0  0  0
 16 17  1  0  0  0  0
 16 18  2  0  0  0  0
 17 37  1  0  0  0  0
 19 20  1  0  0  0  0
 19 38  1  0  0  0  0
 19 39  1  0  0  0  0
 20 40  1  0  0  0  0
 20 41  1  0  0  0  0
 21 22  2  0  0  0  0
 21 42  1  0  0  0  0
M  CHG  1  14   1
M  CHG  1  17  -1
M  END
> <s_m_source_file>
AV-unprocessed.smi

> <i_m_source_file_index>
1423

> <i_lp_mmshare_version>
43012

> <i_f3d_flags>
0

> <s_epik_input>
W0NIM11PYzFbY0hdW2NIXWMoW2NIXW4xKVtOSF1DKD1PKVtOSF1bQ0hdMltDSDJdW0NIMl1OKFtDSDJdW0NIMl0yKVtDSDJdQyg9TylbTkgyXQ==

> <s_epik_cmdline>
J2VwaWtfcHl0aG9uJywgJy1waCcsICc3LjAnLCAnLXRuJywgJzgnLCAnLW1hJywgJzIwMCcsICctbWV0YWxfYmluZGluZycsICctaW1hZScsICc8aW5maWxlLm1hZT4nLCAnLW9tYWUnLCAnPG91dGZpbGUubWFlPic=

> <r_lp_tautomer_probability>
1

> <r_epik_Ionization_Penalty>
5.72888

> <r_epik_Ionization_Penalty_Charging>
5.7288

> <r_epik_Ionization_Penalty_Neutral>
7.8452e-05

> <r_epik_State_Penalty>
6.54882

> <r_epik_Charging_Adjusted_Penalty>
12.2776

> <i_epik_Tot_Q>
0

> <i_epik_Tot_abs_Q>
2

> <r_epik_Metal_State_Penalty>
2.51301

> <b_epik_Metal_Only>
1

> <s_lp_Force_Field>
OPLS_2005

> <r_lp_Energy>
11.3515

> <b_lp_Chiralities_Consistent>
1

> <s_lp_Variant>
AV-unprocessed.smi:1423-5

> <Gold.Version>
5.8.1

> <Gold.Id.Protein>
6NUR|6NUR_protein|mol2

> <Gold.PLP.Fitness>
45.7313

> <Gold.PLP.PLP>
-27.5113

> <Gold.PLP.part.hbond>
-7.0000

> <Gold.PLP.part.metal>
0.0000

> <Gold.PLP.part.buried>
-4.2301

> <Gold.PLP.part.nonpolar>
-17.4072

> <Gold.PLP.part.repulsive>
0.7417

> <Gold.PLP.ligand.clash>
0.6331

> <Gold.PLP.ligand.torsion>
0.6921

> <Gold.PLP.Chemscore.Hbond>
5.7292

> <Gold.PLP.Chemscore.CHOScore>
1.0000

> <Gold.PLP.Chemscore.Metal>
0.0000

> <Gold.Chemscore.Hbonds>
donor molecule, donor type, donor heavy atom, donor atom, acceptor molecule, acceptor atom, score
      L1  H     7    28       P1  7948  1.00
      L1  H    10    29       P1  7948  0.91
      L1  H    17    37       P1  7921  0.91
      P1  H  7989  7998       L1    22  0.80
      P1  H  7997  8009       L1     2  1.00
      P1  H 10785 10796       L1    18  0.96
      L1  C    21    42       P1  7957  1.00

> <Gold.PLP.Chemscore.Internal.Correction>
0.0496

> <Gold.Rescore>
     Score         DG    S(hbond)    S(metal)    S(lipo)     H(rot)  DE(clash)    DE(int)     intcor
     16.19     -18.50       3.98        0.00      47.69       2.29       1.38       0.93       ----

> <Gold.Chemscore.Fitness>
16.1913

> <Gold.Chemscore.DG>
-18.5026

> <Gold.Chemscore.ZeroCoef>
-5.4800

> <Gold.Chemscore.Hbond>
3.9832

> <Gold.Chemscore.Metal>
0.0000

> <Gold.Chemscore.Lipo>
47.6873

> <Gold.Chemscore.Internal_Hbond>
0.0000

> <Gold.Chemscore.DEClash>
1.3763

> <Gold.Chemscore.DEInternal>
0.9350

> <Gold.Chemscore.Rot>
2.2894

> <Gold.Chemscore.Internal.Correction>
   9.000000E+99

> <Gold.Chemscore.Hbonds>
donor molecule, donor type, donor heavy atom, donor atom, acceptor molecule, acceptor atom, score
      L1  H     7    28       P1  7948  0.99
      L1  H    10    29       P1  7948  0.87
      L1  H    17    37       P1  7921  0.36
      P1  H  7989  7998       L1    22  0.11
      P1  H  7997  8009       L1     2  0.33
      P1  H 10785 10796       L1    18  0.56

> <Gold.Chemscore.Hbond.Weighted>
-13.3040

> <Gold.Chemscore.Metal.Weighted>
-0.0000

> <Gold.Chemscore.Lipo.Weighted>
-5.5794

> <Gold.Chemscore.Internal_Hbond.Weighted>
0.0000

> <Gold.Chemscore.DEClash.Weighted>
1.3763

> <Gold.Chemscore.DEInternal.Weighted>
0.9350

> <Gold.Chemscore.Rot.Weighted>
5.8608

> <Gold.Chemscore.Internal.Correction.Weighted>
   9.000000E+99

> <Gold.Protein.RotatedTorsions>
[ 6907 6896 6895 6894 ] final   24.94 input  -60.11 | X-H torsion
[ 7974 7965 7964 7962 ] final  146.72 input  175.53 | X-H torsion
[ 8008 7997 7996 7995 ] final -165.26 input   59.86 | X-H torsion
[ 10167 10162 10161 10158 ] final  -24.18 input  -65.29 | X-H torsion
[ 10718 10713 10712 10709 ] final  170.76 input   66.30 | X-H torsion
[ 10763 10752 10751 10750 ] final   61.38 input  -60.55 | X-H torsion
[ 11005 11000 10999 10996 ] final   23.47 input  -57.11 | X-H torsion

> <Gold.Protein.ActiveResidues>
 VAL166  LYS551  ARG553  GLY616  TRP617  ASP618  TYR619  PRO620  LYS621  CYS622 
 ASP623  PHE694  ASN695  SER759  ASP760  ASP761  ALA762  ILE779  LEU786  VAL792 
 PHE793  MET794  SER795  GLU796  ALA797  LYS798  CYS799  TRP800  GLU811  SER814 

> <Gold.Protein.RotatedAtoms>
  151.9651  135.0104  160.0549 H   0  0  0  0  0  0  0  0  0  0  0  0  # atno 6907 bound_to 6896
  152.1833  133.4718  159.4978 H   0  0  0  0  0  0  0  0  0  0  0  0  # atno 6908 bound_to 6896
  150.6921  134.1722  159.4259 H   0  0  0  0  0  0  0  0  0  0  0  0  # atno 6909 bound_to 6896
  144.8649  139.5939  143.5914 H   0  0  0  0  0  0  0  0  0  0  0  0  # atno 7974 bound_to 7965
  155.8472  140.0957  157.1697 H   0  0  0  0  0  0  0  0  0  0  0  0  # atno 8008 bound_to 7997
  154.3984  140.1390  156.3862 H   0  0  0  0  0  0  0  0  0  0  0  0  # atno 8009 bound_to 7997
  155.8000  140.3453  155.5400 H   0  0  0  0  0  0  0  0  0  0  0  0  # atno 8010 bound_to 7997
  140.7288  143.4376  151.0706 H   0  0  0  0  0  0  0  0  0  0  0  0  # atno 10167 bound_to 10162
  157.0034  131.0183  151.2824 H   0  0  0  0  0  0  0  0  0  0  0  0  # atno 10718 bound_to 10713
  152.9949  135.5503  154.6024 H   0  0  0  0  0  0  0  0  0  0  0  0  # atno 10763 bound_to 10752
  154.5363  135.2817  155.1138 H   0  0  0  0  0  0  0  0  0  0  0  0  # atno 10764 bound_to 10752
  154.2433  135.6412  153.5267 H   0  0  0  0  0  0  0  0  0  0  0  0  # atno 10765 bound_to 10752
  140.3693  134.2040  155.7667 H   0  0  0  0  0  0  0  0  0  0  0  0  # atno 11005 bound_to 11000
  146.2888  139.7079  142.9176 LP  0  0  0  0  0  0  0  0  0  0  0  0  # atno 17320 bound_to 7965
  145.4241  141.0409  143.2947 LP  0  0  0  0  0  0  0  0  0  0  0  0  # atno 17321 bound_to 7965
  139.8040  143.8044  152.3165 LP  0  0  0  0  0  0  0  0  0  0  0  0  # atno 17342 bound_to 10162
  139.8070  144.7351  150.9747 LP  0  0  0  0  0  0  0  0  0  0  0  0  # atno 17343 bound_to 10162
  157.5373  130.8097  149.7987 LP  0  0  0  0  0  0  0  0  0  0  0  0  # atno 17370 bound_to 10713
  156.0162  130.3812  150.2102 LP  0  0  0  0  0  0  0  0  0  0  0  0  # atno 17371 bound_to 10713
  141.1959  133.8094  157.0693 LP  0  0  0  0  0  0  0  0  0  0  0  0  # atno 17394 bound_to 11000
  140.0564  134.9778  157.1228 LP  0  0  0  0  0  0  0  0  0  0  0  0  # atno 17395 bound_to 11000

$$$$
