#       Name:                AV-unprocessed.smi:160
#       Creating user name   scv26
#       Creation time:       Thu Mar 26 19:07:54 2020


#       File generated by GOLD software.
#

@<TRIPOS>MOLECULE
AV-unprocessed.smi:160
    41    42     1
SMALL
NO_CHARGES


@<TRIPOS>ATOM
      1 ****        -3.5993   2.0299  -0.9045 N.pl3          1 S1                -1.0000
      2 ****        -4.0239   1.0318  -0.0993 C.2            1 S1                 0.0000
      3 ****        -5.1549   0.9057   0.3688 O.2            1 S1                 0.0000
      4 ****        -2.9723  -0.0028   0.2237 C.2            1 S1                 0.0000
      5 ****        -3.2699  -1.0749   1.0186 N.2            1 S1                 0.0000
      6 ****        -2.0875  -1.6754   1.0154 C.2            1 S1                 0.0000
      7 ****        -1.1567  -1.0569   0.2828 N.pl3          1 S1                 0.0000
      8 ****         0.2878  -1.4189   0.0857 C.3            1 S1                 0.0000
      9 ****         1.0379  -0.7455   1.0449 O.3            1 S1                 0.0000
     10 ****         1.3987   0.5360   0.5468 C.3            1 S1                 0.0000
     11 ****         2.6269   1.0618   1.3051 C.3            1 S1                 0.0000
     12 ****         2.2335   1.6352   2.5338 O.3            1 S1                 0.0000
     13 ****         1.6719   0.2656  -0.9428 C.3            1 S1                 0.0000
     14 ****         1.2624   1.3760  -1.7156 O.3            1 S1                 0.0000
     15 ****         0.8272  -0.9672  -1.2835 C.3            1 S1                 0.0000
     16 ****         1.6283  -1.9731  -1.8710 O.3            1 S1                 0.0000
     17 ****        -1.7186   0.0652  -0.2343 N.2            1 S1                 0.0000
     18 ****         0.3129  -2.4982   0.2419 H              1 S1                 0.0000
     19 ****         0.5557   1.2201   0.6610 H              1 S1                 0.0000
     20 ****         2.7326   0.0698  -1.1105 H              1 S1                 0.0000
     21 ****         0.0087  -0.7519  -1.9720 H              1 S1                 0.0000
     22 ****        -2.6235   2.0181  -1.2246 H              1 S1                 0.0000
     23 ****        -1.8944  -2.5864   1.5623 H              1 S1                 0.0000
     24 ****         3.3600   0.2716   1.4703 H              1 S1                 0.0000
     25 ****         3.1172   1.8431   0.7237 H              1 S1                 0.0000
     26 ****         3.0000   1.9819   2.9635 H              1 S1                 0.0000
     27 ****         1.3599   1.1579  -2.6298 H              1 S1                 0.0000
     28 ****         1.0793  -2.7186  -2.0607 H              1 S1                 0.0000
     29 ****        -4.2203   2.7628  -1.1823 LP             1 S1                 0.0000
     30 ****        -5.8606   1.5829   0.1605 LP             1 S1                 0.0000
     31 ****        -5.3683   0.1261   0.9576 LP             1 S1                 0.0000
     32 ****        -4.1255  -1.3304   1.4689 LP             1 S1                 0.0000
     33 ****         1.8650  -1.2689   1.2498 LP             1 S1                 0.0000
     34 ****         0.4957  -0.6391   1.8784 LP             1 S1                 0.0000
     35 ****         1.8103   0.9370   3.1113 LP             1 S1                 0.0000
     36 ****         1.5783   2.3721   2.3673 LP             1 S1                 0.0000
     37 ****         1.8314   2.1683  -1.4954 LP             1 S1                 0.0000
     38 ****         0.3050   1.5884  -1.5198 LP             1 S1                 0.0000
     39 ****         2.3537  -2.2405  -1.2368 LP             1 S1                 0.0000
     40 ****         2.0354  -1.6294  -2.7172 LP             1 S1                 0.0000
     41 ****        -1.3001   0.7659  -0.8121 LP             1 S1                 0.0000
@<TRIPOS>BOND
    1    1    2 1     
    2    1   22 1     
    3    2    3 2     
    4    2    4 1     
    5    4   17 2     
    6    4    5 1     
    7    5    6 2     
    8    6    7 1     
    9    6   23 1     
   10    7    8 1     
   11    7   17 1     
   12    8   18 1     
   13    8   15 1     
   14    8    9 1     
   15    9   10 1     
   16   10   19 1     
   17   10   11 1     
   18   10   13 1     
   19   11   12 1     
   20   11   24 1     
   21   11   25 1     
   22   12   26 1     
   23   13   20 1     
   24   13   14 1     
   25   13   15 1     
   26   14   27 1     
   27   15   21 1     
   28   15   16 1     
   29   16   28 1     
   30    1   29 1     
   31    3   30 1     
   32    3   31 1     
   33    5   32 1     
   34    9   33 1     
   35    9   34 1     
   36   12   35 1     
   37   12   36 1     
   38   14   37 1     
   39   14   38 1     
   40   16   39 1     
   41   16   40 1     
   42   17   41 1     
@<TRIPOS>SUBSTRUCTURE
      1 S1             1
@<TRIPOS>SET
LONE_PAIRS      STATIC     ATOMS    <user>   **** ""
13 29 30 31 32 33 34 35 36 37 38 39 40 41
DONOR_HYDROGENS      STATIC     ATOMS    <user>   **** ""
4 22 26 27 28
ATOM$BLUE        STATIC     ATOMS    COLORGROUP SYSTEM
13 29 30 31 32 33 34 35 36 37 38 39 40 41
ATOM$RED        STATIC     ATOMS    COLORGROUP SYSTEM
4 22 26 27 28
