#       Name:                AV-unprocessed.smi:2046
#       Creating user name   scv26
#       Creation time:       Fri Mar 27 10:58:08 2020


#       File generated by GOLD software.
#

@<TRIPOS>MOLECULE
AV-unprocessed.smi:2046
    36    37     1
SMALL
NO_CHARGES


@<TRIPOS>ATOM
      1 ****         2.2308   0.1471   0.0489 O.2            1 S1                 0.0000
      2 ****         1.6772  -0.9203  -0.2258 C.2            1 S1                 0.0000
      3 ****         2.2882  -2.1077  -0.4404 N.pl3          1 S1                -1.0000
      4 ****         3.6234  -2.2042  -0.3305 C.2            1 S1                 0.0000
      5 ****         4.4359  -2.1923  -1.3995 N.2            1 S1                 0.0000
      6 ****         5.7788  -2.3073  -1.0658 N.2            1 S1                 0.0000
      7 ****         5.9445  -2.4116   0.2525 C.2            1 S1                 0.0000
      8 ****         4.4759  -2.3838   1.2056 S.3            1 S1                 0.0000
      9 ****         0.3403  -0.9734  -0.3308 N.am           1 S1                 0.0000
     10 ****        -0.5896   0.1430  -0.1369 C.3            1 S1                 0.0000
     11 ****        -1.9068  -0.2136  -0.8639 C.3            1 S1                 0.0000
     12 ****        -2.7676   1.0091  -1.2279 C.3            1 S1                 0.0000
     13 ****        -3.3138   1.8004  -0.0294 C.3            1 S1                 0.0000
     14 ****        -2.2177   2.4226   0.8525 C.3            1 S1                 0.0000
     15 ****        -1.6009   1.4396   1.7330 N.am           1 S1                 0.0000
     16 ****        -0.8821   0.3679   1.3657 C.2            1 S1                 0.0000
     17 ****        -0.4711  -0.4229   2.2147 O.2            1 S1                 0.0000
     18 ****         6.9370  -2.5097   0.6661 H              1 S1                 0.0000
     19 ****        -0.0684  -1.8695  -0.5518 H              1 S1                 0.0000
     20 ****        -0.1534   1.0434  -0.5732 H              1 S1                 0.0000
     21 ****        -1.6693  -0.7251  -1.7981 H              1 S1                 0.0000
     22 ****        -2.4925  -0.9283  -0.2826 H              1 S1                 0.0000
     23 ****        -2.1927   1.6769  -1.8707 H              1 S1                 0.0000
     24 ****        -3.6105   0.6707  -1.8315 H              1 S1                 0.0000
     25 ****        -3.9441   2.6031  -0.4133 H              1 S1                 0.0000
     26 ****        -3.9682   1.1690   0.5729 H              1 S1                 0.0000
     27 ****        -1.4611   2.9261   0.2490 H              1 S1                 0.0000
     28 ****        -2.6615   3.1882   1.4891 H              1 S1                 0.0000
     29 ****        -1.7613   1.5638   2.7220 H              1 S1                 0.0000
     30 ****         3.2266   0.1871   0.1315 LP             1 S1                 0.0000
     31 ****         1.6839   0.9724   0.1890 LP             1 S1                 0.0000
     32 ****         1.7464  -2.9131  -0.6807 LP             1 S1                 0.0000
     33 ****         4.1073  -2.1091  -2.3403 LP             1 S1                 0.0000
     34 ****         6.5264  -2.3114  -1.7300 LP             1 S1                 0.0000
     35 ****         0.0596  -1.2237   1.9369 LP             1 S1                 0.0000
     36 ****        -0.6679  -0.2647   3.1823 LP             1 S1                 0.0000
@<TRIPOS>BOND
    1    1    2 2     
    2    2    3 1     
    3    2    9 am    
    4    3    4 1     
    5    4    8 1     
    6    4    5 2     
    7    5    6 1     
    8    6    7 2     
    9    7    8 1     
   10    7   18 1     
   11    9   10 1     
   12    9   19 1     
   13   10   16 1     
   14   10   11 1     
   15   10   20 1     
   16   11   12 1     
   17   11   21 1     
   18   11   22 1     
   19   12   13 1     
   20   12   23 1     
   21   12   24 1     
   22   13   14 1     
   23   13   25 1     
   24   13   26 1     
   25   14   15 1     
   26   14   27 1     
   27   14   28 1     
   28   15   16 am    
   29   15   29 1     
   30   16   17 2     
   31    1   30 1     
   32    1   31 1     
   33    3   32 1     
   34    5   33 1     
   35    6   34 1     
   36   17   35 1     
   37   17   36 1     
@<TRIPOS>SUBSTRUCTURE
      1 S1             1
@<TRIPOS>SET
LONE_PAIRS      STATIC     ATOMS    <user>   **** ""
7 30 31 32 33 34 35 36
DONOR_HYDROGENS      STATIC     ATOMS    <user>   **** ""
2 19 29
ATOM$BLUE        STATIC     ATOMS    COLORGROUP SYSTEM
7 30 31 32 33 34 35 36
ATOM$RED        STATIC     ATOMS    COLORGROUP SYSTEM
2 19 29
