AV-unprocessed.smi:2499|AV-procd|sdf|9834|dock2
  -GOLD-   2272013463D 1   1.00000     0.00000
 Structure written by MMmdl.
 28 29  0  0  0  0  0  0  0  0  2 V2000
  152.0095  142.5755  159.0315 C   0  0  0  0  0  0  0  0  0  0  0  0
  151.9256  143.7022  157.9929 C   0  0  1  0  0  0  0  0  0  0  0  0
  150.9341  143.3370  156.9856 N   0  0  0  0  0  0  0  0  0  0  0  0
  150.8298  142.1333  156.4022 C   0  0  0  0  0  0  0  0  0  0  0  0
  151.5679  141.1816  156.6593 O   0  0  0  0  0  0  0  0  0  0  0  0
  149.8277  142.1001  155.5107 N   0  0  0  0  0  0  0  0  0  0  0  0
  149.4571  140.9806  154.7303 C   0  0  0  0  0  0  0  0  0  0  0  0
  148.2144  140.7374  154.3173 N   0  3  0  0  0  0  0  0  0  0  0  0
  148.2124  139.5744  153.5876 C   0  0  0  0  0  0  0  0  0  0  0  0
  149.5138  139.1330  153.5846 C   0  0  0  0  0  0  0  0  0  0  0  0
  150.3085  140.0072  154.2986 O   0  0  0  0  0  0  0  0  0  0  0  0
  151.6438  145.0363  158.6636 C   0  0  0  0  0  0  0  0  0  0  0  0
  151.8721  145.2398  160.1429 C   0  0  0  0  0  0  0  0  0  0  0  0
  150.4648  145.2033  159.5929 C   0  0  0  0  0  0  0  0  0  0  0  0
  152.7777  142.7851  159.7766 H   0  0  0  0  0  0  0  0  0  0  0  0
  152.2610  141.6237  158.5622 H   0  0  0  0  0  0  0  0  0  0  0  0
  151.0630  142.4486  159.5586 H   0  0  0  0  0  0  0  0  0  0  0  0
  152.9026  143.7675  157.5096 H   0  0  0  0  0  0  0  0  0  0  0  0
  150.2837  144.0595  156.7124 H   0  0  0  0  0  0  0  0  0  0  0  0
  147.3840  141.2902  154.4901 H   0  0  0  0  0  0  0  0  0  0  0  0
  147.3039  139.1840  153.1517 H   0  0  0  0  0  0  0  0  0  0  0  0
  150.0109  138.2766  153.1525 H   0  0  0  0  0  0  0  0  0  0  0  0
  151.8601  145.8942  158.0291 H   0  0  0  0  0  0  0  0  0  0  0  0
  152.1999  144.3855  160.7320 H   0  0  0  0  0  0  0  0  0  0  0  0
  152.2633  146.2035  160.4620 H   0  0  0  0  0  0  0  0  0  0  0  0
  149.9182  146.1430  159.5486 H   0  0  0  0  0  0  0  0  0  0  0  0
  149.8636  144.3234  159.8146 H   0  0  0  0  0  0  0  0  0  0  0  0
  149.2865  142.9417  155.3800 H   0  0  0  0  0  0  0  0  0  0  0  0
  1  2  1  0  0  0  0
  1 15  1  0  0  0  0
  1 16  1  0  0  0  0
  1 17  1  0  0  0  0
  2  3  1  0  0  0  0
  2 12  1  0  0  0  0
  2 18  1  0  0  0  0
  3 19  1  0  0  0  0
  3  4  1  0  0  0  0
  4  6  1  0  0  0  0
  4  5  2  0  0  0  0
  6  7  1  0  0  0  0
  6 28  1  0  0  0  0
  7 11  1  0  0  0  0
  7  8  2  0  0  0  0
  8 20  1  0  0  0  0
  8  9  1  0  0  0  0
  9 21  1  0  0  0  0
  9 10  2  0  0  0  0
 10 22  1  0  0  0  0
 10 11  1  0  0  0  0
 12 14  1  0  0  0  0
 12 13  1  0  0  0  0
 12 23  1  0  0  0  0
 13 14  1  0  0  0  0
 13 24  1  0  0  0  0
 13 25  1  0  0  0  0
 14 26  1  0  0  0  0
 14 27  1  0  0  0  0
M  CHG  1   8   1
M  END
> <s_m_source_file>
AV-unprocessed.smi

> <i_m_source_file_index>
2499

> <i_lp_mmshare_version>
43012

> <i_f3d_flags>
0

> <s_epik_input>
W0NIMl0xW0NIMl1bQ0hdMVtDQEhdKFtDSDNdKVtOSF1DKD1PKVtOSF1jMm5bY0hdW2NIXW8y

> <s_epik_cmdline>
J2VwaWtfcHl0aG9uJywgJy1waCcsICc3LjAnLCAnLXRuJywgJzgnLCAnLW1hJywgJzIwMCcsICctbWV0YWxfYmluZGluZycsICctaW1hZScsICc8aW5maWxlLm1hZT4nLCAnLW9tYWUnLCAnPG91dGZpbGUubWFlPic=

> <r_epik_Ionization_Penalty>
6.56099

> <r_epik_Ionization_Penalty_Charging>
6.51293

> <r_epik_Ionization_Penalty_Neutral>
0.0480564

> <r_epik_State_Penalty>
1.72359

> <r_epik_Charging_Adjusted_Penalty>
8.23652

> <i_epik_Tot_Q>
1

> <i_epik_Tot_abs_Q>
1

> <r_epik_Metal_State_Penalty>
1.73747

> <b_epik_Metal_Only>
0

> <s_lp_Force_Field>
OPLS_2005

> <r_lp_Energy>
20.6817

> <b_lp_Chiralities_Consistent>
1

> <s_lp_Variant>
AV-unprocessed.smi:2499-4

> <Gold.Version>
5.8.1

> <Gold.Id.Protein>
6NUR|6NUR_protein|mol2

> <Gold.PLP.Fitness>
41.5533

> <Gold.PLP.PLP>
-30.3865

> <Gold.PLP.part.hbond>
-3.0000

> <Gold.PLP.part.metal>
0.0000

> <Gold.PLP.part.buried>
-2.2464

> <Gold.PLP.part.nonpolar>
-25.5630

> <Gold.PLP.part.repulsive>
0.3690

> <Gold.PLP.ligand.clash>
0.0000

> <Gold.PLP.ligand.torsion>
0.9451

> <Gold.PLP.Chemscore.Hbond>
3.0000

> <Gold.PLP.Chemscore.CHOScore>
0.9968

> <Gold.PLP.Chemscore.Metal>
0.0000

> <Gold.Chemscore.Hbonds>
donor molecule, donor type, donor heavy atom, donor atom, acceptor molecule, acceptor atom, score
      L1  H     3    19       P1  8028  1.00
      L1  H     6    28       P1  8028  1.00
      P1  H  7989  7998       L1    11  1.00
      L1  C    10    22       P1  7948  0.84

> <Gold.PLP.Chemscore.Internal.Correction>
1.0667

> <Gold.Rescore>
     Score         DG    S(hbond)    S(metal)    S(lipo)     H(rot)  DE(clash)    DE(int)     intcor
     13.56     -16.90       1.91        0.00      71.59       1.30       0.11       3.23       ----

> <Gold.Chemscore.Fitness>
13.5598

> <Gold.Chemscore.DG>
-16.9031

> <Gold.Chemscore.ZeroCoef>
-5.4800

> <Gold.Chemscore.Hbond>
1.9114

> <Gold.Chemscore.Metal>
0.0000

> <Gold.Chemscore.Lipo>
71.5906

> <Gold.Chemscore.Internal_Hbond>
0.0000

> <Gold.Chemscore.DEClash>
0.1150

> <Gold.Chemscore.DEInternal>
3.2283

> <Gold.Chemscore.Rot>
1.3036

> <Gold.Chemscore.Internal.Correction>
   9.000000E+99

> <Gold.Chemscore.Hbonds>
donor molecule, donor type, donor heavy atom, donor atom, acceptor molecule, acceptor atom, score
      L1  H     3    19       P1  8028  0.97
      L1  H     6    28       P1  8028  0.98
      P1  H  7989  7998       L1    11  0.48

> <Gold.Chemscore.Hbond.Weighted>
-6.3841

> <Gold.Chemscore.Metal.Weighted>
-0.0000

> <Gold.Chemscore.Lipo.Weighted>
-8.3761

> <Gold.Chemscore.Internal_Hbond.Weighted>
0.0000

> <Gold.Chemscore.DEClash.Weighted>
0.1150

> <Gold.Chemscore.DEInternal.Weighted>
3.2283

> <Gold.Chemscore.Rot.Weighted>
3.3371

> <Gold.Chemscore.Internal.Correction.Weighted>
   9.000000E+99

> <Gold.Protein.RotatedTorsions>
[ 6907 6896 6895 6894 ] final -166.96 input  -60.11 | X-H torsion
[ 7974 7965 7964 7962 ] final  -39.64 input  175.53 | X-H torsion
[ 8008 7997 7996 7995 ] final -123.72 input   59.86 | X-H torsion
[ 10167 10162 10161 10158 ] final   83.32 input  -65.29 | X-H torsion
[ 10718 10713 10712 10709 ] final  120.08 input   66.30 | X-H torsion
[ 10763 10752 10751 10750 ] final   -6.98 input  -60.55 | X-H torsion
[ 11005 11000 10999 10996 ] final  140.61 input  -57.11 | X-H torsion

> <Gold.Protein.ActiveResidues>
 VAL166  LYS551  ARG553  GLY616  TRP617  ASP618  TYR619  PRO620  LYS621  CYS622 
 ASP623  PHE694  ASN695  SER759  ASP760  ASP761  ALA762  ILE779  LEU786  VAL792 
 PHE793  MET794  SER795  GLU796  ALA797  LYS798  CYS799  TRP800  GLU811  SER814 

> <Gold.Protein.RotatedAtoms>
  151.4520  133.3615  159.2796 H   0  0  0  0  0  0  0  0  0  0  0  0  # atno 6907 bound_to 6896
  150.9084  134.8502  159.7419 H   0  0  0  0  0  0  0  0  0  0  0  0  # atno 6908 bound_to 6896
  152.4919  134.4447  159.9607 H   0  0  0  0  0  0  0  0  0  0  0  0  # atno 6909 bound_to 6896
  146.0378  140.6648  142.9102 H   0  0  0  0  0  0  0  0  0  0  0  0  # atno 7974 bound_to 7965
  155.1851  140.0411  157.2890 H   0  0  0  0  0  0  0  0  0  0  0  0  # atno 8008 bound_to 7997
  154.6176  140.2493  155.7561 H   0  0  0  0  0  0  0  0  0  0  0  0  # atno 8009 bound_to 7997
  156.2415  140.2901  156.0469 H   0  0  0  0  0  0  0  0  0  0  0  0  # atno 8010 bound_to 7997
  139.9197  144.6220  150.8453 H   0  0  0  0  0  0  0  0  0  0  0  0  # atno 10167 bound_to 10162
  157.5916  131.1063  150.7986 H   0  0  0  0  0  0  0  0  0  0  0  0  # atno 10718 bound_to 10713
  153.4200  135.7010  153.6301 H   0  0  0  0  0  0  0  0  0  0  0  0  # atno 10763 bound_to 10752
  153.4759  135.3704  155.2416 H   0  0  0  0  0  0  0  0  0  0  0  0  # atno 10764 bound_to 10752
  154.8721  135.4054  154.3566 H   0  0  0  0  0  0  0  0  0  0  0  0  # atno 10765 bound_to 10752
  140.0340  134.9338  157.0717 H   0  0  0  0  0  0  0  0  0  0  0  0  # atno 11005 bound_to 11000
  144.7060  140.3852  143.7118 LP  0  0  0  0  0  0  0  0  0  0  0  0  # atno 17320 bound_to 7965
  145.6935  139.1644  143.2633 LP  0  0  0  0  0  0  0  0  0  0  0  0  # atno 17321 bound_to 7965
  140.7665  143.3306  151.2419 LP  0  0  0  0  0  0  0  0  0  0  0  0  # atno 17342 bound_to 10162
  139.6872  143.9753  152.2840 LP  0  0  0  0  0  0  0  0  0  0  0  0  # atno 17343 bound_to 10162
  156.8406  130.5047  149.5321 LP  0  0  0  0  0  0  0  0  0  0  0  0  # atno 17370 bound_to 10713
  156.0972  130.5941  150.9833 LP  0  0  0  0  0  0  0  0  0  0  0  0  # atno 17371 bound_to 10713
  140.4179  134.1912  155.7164 LP  0  0  0  0  0  0  0  0  0  0  0  0  # atno 17394 bound_to 11000
  141.1847  133.8339  157.1131 LP  0  0  0  0  0  0  0  0  0  0  0  0  # atno 17395 bound_to 11000

$$$$
