#       Name:                AV-unprocessed.smi:3161
#       Creating user name   scv26
#       Creation time:       Fri Mar 27 17:49:11 2020


#       File generated by GOLD software.
#

@<TRIPOS>MOLECULE
AV-unprocessed.smi:3161
    44    45     1
SMALL
NO_CHARGES


@<TRIPOS>ATOM
      1 ****        -3.7804   3.2216  -2.9956 C.3            1 S1                 0.0000
      2 ****        -3.1260   2.0710  -2.2867 C.2            1 S1                 0.0000
      3 ****        -2.9244   1.9057  -0.8870 C.2            1 S1                 0.0000
      4 ****        -2.3146   0.7716  -0.5853 N.2            1 S1                 0.0000
      5 ****        -2.0971   0.1763  -1.7777 N.pl3          1 S1                 0.0000
      6 ****        -1.4338  -1.1170  -1.8325 C.3            1 S1                 0.0000
      7 ****         0.1123  -1.0290  -1.9049 C.3            1 S1                 0.0000
      8 ****         0.5980  -0.2476  -3.1358 C.3            1 S1                 0.0000
      9 ****         0.7154  -0.4542  -0.6973 N.3            1 S1                 0.0000
     10 ****         0.4942  -1.2041   0.5379 C.3            1 S1                 0.0000
     11 ****         1.2753  -0.5810   1.7031 C.3            1 S1                 0.0000
     12 ****         0.8176  -1.1493   3.0604 C.3            1 S1                 0.0000
     13 ****         1.6761  -0.5870   4.1992 C.3            1 S1                 0.0000
     14 ****         3.1584  -0.8217   3.8914 C.3            1 S1                 0.0000
     15 ****         3.5045  -0.2828   2.4945 C.3            1 S1                 0.0000
     16 ****         2.6575  -0.8843   1.5203 O.3            1 S1                 0.0000
     17 ****        -2.5833   0.9366  -2.8206 C.2            1 S1                 0.0000
     18 ****        -4.1186   3.9886  -2.2985 H              1 S1                 0.0000
     19 ****        -4.6520   2.8993  -3.5655 H              1 S1                 0.0000
     20 ****        -3.0974   3.7033  -3.6956 H              1 S1                 0.0000
     21 ****        -3.2040   2.5731  -0.0851 H              1 S1                 0.0000
     22 ****        -1.7624  -1.7208  -0.9867 H              1 S1                 0.0000
     23 ****        -1.8018  -1.6383  -2.7170 H              1 S1                 0.0000
     24 ****         0.4834  -2.0487  -2.0151 H              1 S1                 0.0000
     25 ****         0.1699  -0.6542  -4.0523 H              1 S1                 0.0000
     26 ****         1.6830  -0.3014  -3.2293 H              1 S1                 0.0000
     27 ****         0.3257   0.8068  -3.0786 H              1 S1                 0.0000
     28 ****         1.7129  -0.3316  -0.8408 H              1 S1                 0.0000
     29 ****        -0.5665  -1.2012   0.7871 H              1 S1                 0.0000
     30 ****         0.7870  -2.2473   0.4124 H              1 S1                 0.0000
     31 ****         1.1305   0.5013   1.6994 H              1 S1                 0.0000
     32 ****        -0.2325  -0.9124   3.2349 H              1 S1                 0.0000
     33 ****         0.8945  -2.2373   3.0487 H              1 S1                 0.0000
     34 ****         1.4883   0.4819   4.3084 H              1 S1                 0.0000
     35 ****         1.4050  -1.0528   5.1470 H              1 S1                 0.0000
     36 ****         3.7822  -0.3439   4.6473 H              1 S1                 0.0000
     37 ****         3.3764  -1.8897   3.9336 H              1 S1                 0.0000
     38 ****         3.4044   0.8031   2.4590 H              1 S1                 0.0000
     39 ****         4.5411  -0.5149   2.2500 H              1 S1                 0.0000
     40 ****        -2.4997   0.6117  -3.8473 H              1 S1                 0.0000
     41 ****        -2.0695   0.4312   0.3225 LP             1 S1                 0.0000
     42 ****         0.2473   0.4194  -0.5641 LP             1 S1                 0.0000
     43 ****         2.9357  -0.5608   0.6159 LP             1 S1                 0.0000
     44 ****         2.7731  -1.8764   1.5695 LP             1 S1                 0.0000
@<TRIPOS>BOND
    1    1    2 1     
    2    1   18 1     
    3    1   19 1     
    4    1   20 1     
    5    2   17 2     
    6    2    3 1     
    7    3    4 2     
    8    3   21 1     
    9    4    5 1     
   10    5    6 1     
   11    5   17 1     
   12    6    7 1     
   13    6   22 1     
   14    6   23 1     
   15    7    8 1     
   16    7    9 1     
   17    7   24 1     
   18    8   25 1     
   19    8   26 1     
   20    8   27 1     
   21    9   10 1     
   22    9   28 1     
   23   10   11 1     
   24   10   29 1     
   25   10   30 1     
   26   11   16 1     
   27   11   12 1     
   28   11   31 1     
   29   12   13 1     
   30   12   32 1     
   31   12   33 1     
   32   13   14 1     
   33   13   34 1     
   34   13   35 1     
   35   14   15 1     
   36   14   36 1     
   37   14   37 1     
   38   15   16 1     
   39   15   38 1     
   40   15   39 1     
   41   17   40 1     
   42    4   41 1     
   43    9   42 1     
   44   16   43 1     
   45   16   44 1     
@<TRIPOS>SUBSTRUCTURE
      1 S1             1
@<TRIPOS>SET
LONE_PAIRS      STATIC     ATOMS    <user>   **** ""
4 41 42 43 44
DONOR_HYDROGENS      STATIC     ATOMS    <user>   **** ""
1 28
ATOM$BLUE        STATIC     ATOMS    COLORGROUP SYSTEM
4 41 42 43 44
ATOM$RED        STATIC     ATOMS    COLORGROUP SYSTEM
1 28
