AV-unprocessed.smi:2104|AV-procd|sdf|8590|dock1
  -GOLD-   2272011323D 1   1.00000     0.00000
 Structure written by MMmdl.
 42 43  0  0  0  0  0  0  0  0  2 V2000
  144.9568  133.9235  162.5057 C   0  0  0  0  0  0  0  0  0  0  0  0
  145.9502  134.6730  161.6861 C   0  0  0  0  0  0  0  0  0  0  0  0
  146.3632  135.9751  161.6865 C   0  0  0  0  0  0  0  0  0  0  0  0
  147.3412  136.0058  160.6552 C   0  0  0  0  0  0  0  0  0  0  0  0
  148.0426  137.0798  160.2614 N   0  5  0  0  0  0  0  0  0  0  0  0
  148.9900  136.9572  159.3033 C   0  0  0  0  0  0  0  0  0  0  0  0
  149.4588  135.9013  158.8716 O   0  0  0  0  0  0  0  0  0  0  0  0
  149.4099  138.1294  158.8063 N   0  0  0  0  0  0  0  0  0  0  0  0
  150.3580  138.3058  157.7106 C   0  0  0  0  0  0  0  0  0  0  0  0
  150.6853  139.7903  157.4909 C   0  0  0  0  0  0  0  0  0  0  0  0
  151.3340  140.3063  158.6450 O   0  0  0  0  0  0  0  0  0  0  0  0
  151.9100  141.5963  158.4840 C   0  0  1  0  0  0  0  0  0  0  0  0
  150.8917  142.5473  157.8196 C   0  0  0  0  0  0  0  0  0  0  0  0
  151.4248  143.9857  157.7503 C   0  0  0  0  0  0  0  0  0  0  0  0
  151.8177  144.4951  159.1435 C   0  0  0  0  0  0  0  0  0  0  0  0
  152.8393  143.5576  159.8041 C   0  0  0  0  0  0  0  0  0  0  0  0
  152.3199  142.1080  159.8844 C   0  0  2  0  0  0  0  0  0  0  0  0
  153.3688  141.1959  160.5430 C   0  0  0  0  0  0  0  0  0  0  0  0
  147.4944  134.8302  160.0685 N   0  0  0  0  0  0  0  0  0  0  0  0
  146.6106  133.9682  160.7285 O   0  0  0  0  0  0  0  0  0  0  0  0
  144.3668  133.2516  161.8823 H   0  0  0  0  0  0  0  0  0  0  0  0
  144.2719  134.6070  163.0074 H   0  0  0  0  0  0  0  0  0  0  0  0
  145.4586  133.3270  163.2674 H   0  0  0  0  0  0  0  0  0  0  0  0
  146.0268  136.7770  162.3262 H   0  0  0  0  0  0  0  0  0  0  0  0
  149.0009  138.9670  159.1936 H   0  0  0  0  0  0  0  0  0  0  0  0
  151.2692  137.7716  157.9794 H   0  0  0  0  0  0  0  0  0  0  0  0
  149.9926  137.8474  156.7905 H   0  0  0  0  0  0  0  0  0  0  0  0
  151.3149  139.9020  156.6068 H   0  0  0  0  0  0  0  0  0  0  0  0
  149.7641  140.3428  157.3070 H   0  0  0  0  0  0  0  0  0  0  0  0
  152.8084  141.5319  157.8670 H   0  0  0  0  0  0  0  0  0  0  0  0
  150.6500  142.2076  156.8129 H   0  0  0  0  0  0  0  0  0  0  0  0
  149.9577  142.5330  158.3828 H   0  0  0  0  0  0  0  0  0  0  0  0
  152.2913  144.0230  157.0888 H   0  0  0  0  0  0  0  0  0  0  0  0
  150.6719  144.6415  157.3125 H   0  0  0  0  0  0  0  0  0  0  0  0
  152.2308  145.5014  159.0688 H   0  0  0  0  0  0  0  0  0  0  0  0
  150.9289  144.5702  159.7712 H   0  0  0  0  0  0  0  0  0  0  0  0
  153.7720  143.5830  159.2389 H   0  0  0  0  0  0  0  0  0  0  0  0
  153.0756  143.9248  160.8034 H   0  0  0  0  0  0  0  0  0  0  0  0
  151.4330  142.1049  160.5200 H   0  0  0  0  0  0  0  0  0  0  0  0
  154.2733  141.1280  159.9379 H   0  0  0  0  0  0  0  0  0  0  0  0
  152.9874  140.1848  160.6808 H   0  0  0  0  0  0  0  0  0  0  0  0
  153.6534  141.5692  161.5270 H   0  0  0  0  0  0  0  0  0  0  0  0
  1  2  1  0  0  0  0
  1 21  1  0  0  0  0
  1 22  1  0  0  0  0
  1 23  1  0  0  0  0
  2 20  1  0  0  0  0
  2  3  2  0  0  0  0
  3  4  1  0  0  0  0
  3 24  1  0  0  0  0
  4  5  1  0  0  0  0
  4 19  2  0  0  0  0
  5  6  1  0  0  0  0
  6  7  2  0  0  0  0
  6  8  1  0  0  0  0
  8  9  1  0  0  0  0
  8 25  1  0  0  0  0
  9 10  1  0  0  0  0
  9 26  1  0  0  0  0
  9 27  1  0  0  0  0
 10 11  1  0  0  0  0
 10 28  1  0  0  0  0
 10 29  1  0  0  0  0
 11 12  1  0  0  0  0
 12 17  1  0  0  0  0
 12 13  1  0  0  0  0
 12 30  1  0  0  0  0
 13 14  1  0  0  0  0
 13 31  1  0  0  0  0
 13 32  1  0  0  0  0
 14 15  1  0  0  0  0
 14 33  1  0  0  0  0
 14 34  1  0  0  0  0
 15 16  1  0  0  0  0
 15 35  1  0  0  0  0
 15 36  1  0  0  0  0
 16 17  1  0  0  0  0
 16 37  1  0  0  0  0
 16 38  1  0  0  0  0
 17 18  1  0  0  0  0
 17 39  1  0  0  0  0
 18 40  1  0  0  0  0
 18 41  1  0  0  0  0
 18 42  1  0  0  0  0
 19 20  1  0  0  0  0
M  CHG  1   5  -1
M  END
> <s_m_source_file>
AV-unprocessed.smi

> <i_m_source_file_index>
2104

> <i_lp_mmshare_version>
43012

> <i_f3d_flags>
0

> <s_epik_input>
W0NIM11jMVtjSF1jKG5vMSlbTkhdQyg9TylbTkhdW0NIMl1bQ0gyXU9bQ0BASF0yW0NIMl1bQ0gyXVtDSDJdW0NIMl1bQ0BIXTJbQ0gzXQ==

> <s_epik_cmdline>
J2VwaWtfcHl0aG9uJywgJy1waCcsICc3LjAnLCAnLXRuJywgJzgnLCAnLW1hJywgJzIwMCcsICctbWV0YWxfYmluZGluZycsICctaW1hZScsICc8aW5maWxlLm1hZT4nLCAnLW9tYWUnLCAnPG91dGZpbGUubWFlPic=

> <r_lp_tautomer_probability>
1

> <r_epik_Ionization_Penalty>
6.47137

> <r_epik_Ionization_Penalty_Charging>
6.47125

> <r_epik_Ionization_Penalty_Neutral>
0.000118933

> <r_epik_State_Penalty>
6.47124

> <r_epik_Charging_Adjusted_Penalty>
12.9425

> <i_epik_Tot_Q>
-1

> <i_epik_Tot_abs_Q>
1

> <r_epik_Metal_State_Penalty>
2.3995

> <b_epik_Metal_Only>
1

> <s_lp_Force_Field>
OPLS_2005

> <r_lp_Energy>
3.24625

> <b_lp_Chiralities_Consistent>
1

> <s_lp_Variant>
AV-unprocessed.smi:2104-8

> <Gold.Version>
5.8.1

> <Gold.Id.Protein>
6NUR|6NUR_protein|mol2

> <Gold.PLP.Fitness>
51.4982

> <Gold.PLP.PLP>
-40.6724

> <Gold.PLP.part.hbond>
-3.0000

> <Gold.PLP.part.metal>
0.0000

> <Gold.PLP.part.buried>
-5.5342

> <Gold.PLP.part.nonpolar>
-33.0860

> <Gold.PLP.part.repulsive>
0.2283

> <Gold.PLP.ligand.clash>
0.0000

> <Gold.PLP.ligand.torsion>
0.1524

> <Gold.PLP.Chemscore.Hbond>
3.6755

> <Gold.PLP.Chemscore.CHOScore>
0.0000

> <Gold.PLP.Chemscore.Metal>
0.0000

> <Gold.Chemscore.Hbonds>
donor molecule, donor type, donor heavy atom, donor atom, acceptor molecule, acceptor atom, score
      P1  H  6896  6907       L1     7  1.00
      P1  H  6931  6943       L1     5  0.68
      P1  H  6934  6947       L1     5  0.78

> <Gold.PLP.Chemscore.Internal.Correction>
0.1040

> <Gold.Rescore>
     Score         DG    S(hbond)    S(metal)    S(lipo)     H(rot)  DE(clash)    DE(int)     intcor
     18.03     -20.01       1.89        0.00     107.57       1.71       0.11       1.88       ----

> <Gold.Chemscore.Fitness>
18.0271

> <Gold.Chemscore.DG>
-20.0136

> <Gold.Chemscore.ZeroCoef>
-5.4800

> <Gold.Chemscore.Hbond>
1.8940

> <Gold.Chemscore.Metal>
0.0000

> <Gold.Chemscore.Lipo>
107.5737

> <Gold.Chemscore.Internal_Hbond>
0.0000

> <Gold.Chemscore.DEClash>
0.1110

> <Gold.Chemscore.DEInternal>
1.8756

> <Gold.Chemscore.Rot>
1.7103

> <Gold.Chemscore.Internal.Correction>
   9.000000E+99

> <Gold.Chemscore.Hbonds>
donor molecule, donor type, donor heavy atom, donor atom, acceptor molecule, acceptor atom, score
      P1  H  6896  6907       L1     7  1.00
      P1  H  6931  6943       L1     5  0.14
      P1  H  6934  6947       L1     5  0.35

> <Gold.Chemscore.Hbond.Weighted>
-6.3259

> <Gold.Chemscore.Metal.Weighted>
-0.0000

> <Gold.Chemscore.Lipo.Weighted>
-12.5861

> <Gold.Chemscore.Internal_Hbond.Weighted>
0.0000

> <Gold.Chemscore.DEClash.Weighted>
0.1110

> <Gold.Chemscore.DEInternal.Weighted>
1.8756

> <Gold.Chemscore.Rot.Weighted>
4.3784

> <Gold.Chemscore.Internal.Correction.Weighted>
   9.000000E+99

> <Gold.Protein.RotatedTorsions>
[ 6907 6896 6895 6894 ] final  -68.41 input  -60.11 | X-H torsion
[ 7974 7965 7964 7962 ] final  126.41 input  175.53 | X-H torsion
[ 8008 7997 7996 7995 ] final  -72.64 input   59.86 | X-H torsion
[ 10167 10162 10161 10158 ] final   38.12 input  -65.29 | X-H torsion
[ 10718 10713 10712 10709 ] final   40.16 input   66.30 | X-H torsion
[ 10763 10752 10751 10750 ] final    2.32 input  -60.55 | X-H torsion
[ 11005 11000 10999 10996 ] final   55.29 input  -57.11 | X-H torsion

> <Gold.Protein.ActiveResidues>
 VAL166  LYS551  ARG553  GLY616  TRP617  ASP618  TYR619  PRO620  LYS621  CYS622 
 ASP623  PHE694  ASN695  SER759  ASP760  ASP761  ALA762  ILE779  LEU786  VAL792 
 PHE793  MET794  SER795  GLU796  ALA797  LYS798  CYS799  TRP800  GLU811  SER814 

> <Gold.Protein.RotatedAtoms>
  150.7358  134.5744  159.5906 H   0  0  0  0  0  0  0  0  0  0  0  0  # atno 6907 bound_to 6896
  152.3174  134.7420  160.0331 H   0  0  0  0  0  0  0  0  0  0  0  0  # atno 6908 bound_to 6896
  151.7947  133.3327  159.3546 H   0  0  0  0  0  0  0  0  0  0  0  0  # atno 6909 bound_to 6896
  145.0621  139.3797  143.5000 H   0  0  0  0  0  0  0  0  0  0  0  0  # atno 7974 bound_to 7965
  154.5182  140.0793  156.8122 H   0  0  0  0  0  0  0  0  0  0  0  0  # atno 8008 bound_to 7997
  155.3633  140.3419  155.4223 H   0  0  0  0  0  0  0  0  0  0  0  0  # atno 8009 bound_to 7997
  156.1652  140.1601  156.8531 H   0  0  0  0  0  0  0  0  0  0  0  0  # atno 8010 bound_to 7997
  140.3967  144.1779  150.6132 H   0  0  0  0  0  0  0  0  0  0  0  0  # atno 10167 bound_to 10162
  157.3790  130.7743  149.7177 H   0  0  0  0  0  0  0  0  0  0  0  0  # atno 10718 bound_to 10713
  153.2971  135.6953  153.7238 H   0  0  0  0  0  0  0  0  0  0  0  0  # atno 10763 bound_to 10752
  153.6167  135.3434  155.2998 H   0  0  0  0  0  0  0  0  0  0  0  0  # atno 10764 bound_to 10752
  154.8540  135.4376  154.2071 H   0  0  0  0  0  0  0  0  0  0  0  0  # atno 10765 bound_to 10752
  140.0619  134.5591  155.9143 H   0  0  0  0  0  0  0  0  0  0  0  0  # atno 11005 bound_to 11000
  146.3525  140.0324  142.8649 LP  0  0  0  0  0  0  0  0  0  0  0  0  # atno 17320 bound_to 7965
  145.1396  140.9564  143.4496 LP  0  0  0  0  0  0  0  0  0  0  0  0  # atno 17321 bound_to 7965
  140.4782  143.2388  151.8992 LP  0  0  0  0  0  0  0  0  0  0  0  0  # atno 17342 bound_to 10162
  139.4786  144.5297  151.8684 LP  0  0  0  0  0  0  0  0  0  0  0  0  # atno 17343 bound_to 10162
  155.9771  130.4067  150.3732 LP  0  0  0  0  0  0  0  0  0  0  0  0  # atno 17370 bound_to 10713
  157.1833  131.0397  151.2737 LP  0  0  0  0  0  0  0  0  0  0  0  0  # atno 17371 bound_to 10713
  141.1976  133.6597  156.5752 LP  0  0  0  0  0  0  0  0  0  0  0  0  # atno 17394 bound_to 11000
  140.3758  134.7566  157.4628 LP  0  0  0  0  0  0  0  0  0  0  0  0  # atno 17395 bound_to 11000

$$$$
