AV-unprocessed.smi:2886|AV-procd|sdf|11094|dock7
  -GOLD-   2272015563D 1   1.00000     0.00000
 Structure written by MMmdl.
 28 30  0  0  0  0  0  0  0  0  3 V2000
  152.4675  144.3387  160.5456 O   0  0  0  0  0  0  0  0  0  0  0  0
  151.9593  143.7561  159.5896 C   0  0  0  0  0  0  0  0  0  0  0  0
  151.1314  144.3701  158.6926 N   0  5  0  0  0  0  0  0  0  0  0  0
  150.6015  143.7221  157.6791 N   0  3  0  0  0  0  0  0  0  0  0  0
  150.8172  142.4331  157.4358 C   0  0  0  0  0  0  0  0  0  0  0  0
  151.6565  141.6741  158.2984 C   0  0  0  0  0  0  0  0  0  0  0  0
  151.9132  140.3258  158.0827 N   0  0  0  0  0  0  0  0  0  0  0  0
  151.4210  139.4652  157.0158 C   0  0  1  0  0  0  0  0  0  0  0  0
  151.5401  140.1126  155.6337 C   0  0  0  0  0  0  0  0  0  0  0  0
  152.3640  139.0680  154.8700 C   0  0  2  0  0  0  0  0  0  0  0  0
  151.5773  137.7731  154.6213 C   0  0  0  0  0  0  0  0  0  0  0  0
  151.5607  137.1441  156.0146 C   0  0  0  0  0  0  0  0  0  0  0  0
  152.2882  138.2067  156.8489 C   0  0  1  0  0  0  0  0  0  0  0  0
  153.2438  138.6482  155.8978 O   0  0  0  0  0  0  0  0  0  0  0  0
  152.2237  142.3244  159.3551 C   0  0  0  0  0  0  0  0  0  0  0  0
  153.2653  141.4865  160.4577 Cl  0  0  0  0  0  0  0  0  0  0  0  0
  149.9835  144.2084  157.0106 H   0  0  0  0  0  0  0  0  0  0  0  0
  150.3337  142.0096  156.5648 H   0  0  0  0  0  0  0  0  0  0  0  0
  152.3815  139.8334  158.8308 H   0  0  0  0  0  0  0  0  0  0  0  0
  150.3939  139.1661  157.2245 H   0  0  0  0  0  0  0  0  0  0  0  0
  150.5704  140.2991  155.1714 H   0  0  0  0  0  0  0  0  0  0  0  0
  152.0807  141.0592  155.6801 H   0  0  0  0  0  0  0  0  0  0  0  0
  152.8632  139.4610  153.9839 H   0  0  0  0  0  0  0  0  0  0  0  0
  150.5772  137.9657  154.2313 H   0  0  0  0  0  0  0  0  0  0  0  0
  152.1015  137.1267  153.9162 H   0  0  0  0  0  0  0  0  0  0  0  0
  150.5528  136.9427  156.3787 H   0  0  0  0  0  0  0  0  0  0  0  0
  152.1176  136.2064  156.0163 H   0  0  0  0  0  0  0  0  0  0  0  0
  152.7116  137.8206  157.7770 H   0  0  0  0  0  0  0  0  0  0  0  0
  1  2  2  0  0  0  0
  2  3  1  0  0  0  0
  2 15  1  0  0  0  0
  3  4  1  0  0  0  0
  4  5  2  0  0  0  0
  4 17  1  0  0  0  0
  5  6  1  0  0  0  0
  5 18  1  0  0  0  0
  6 15  2  0  0  0  0
  6  7  1  0  0  0  0
  7  8  1  0  0  0  0
  7 19  1  0  0  0  0
  8 13  1  0  0  0  0
  8  9  1  0  0  0  0
  8 20  1  0  0  0  0
  9 10  1  0  0  0  0
  9 21  1  0  0  0  0
  9 22  1  0  0  0  0
 10 14  1  0  0  0  0
 10 11  1  0  0  0  0
 10 23  1  0  0  0  0
 11 12  1  0  0  0  0
 11 24  1  0  0  0  0
 11 25  1  0  0  0  0
 12 13  1  0  0  0  0
 12 26  1  0  0  0  0
 12 27  1  0  0  0  0
 13 14  1  0  0  0  0
 13 28  1  0  0  0  0
 15 16  1  0  0  0  0
M  CHG  1   3  -1
M  CHG  1   4   1
M  END
> <s_m_source_file>
AV-unprocessed.smi

> <i_m_source_file_index>
2886

> <i_lp_mmshare_version>
43012

> <i_f3d_flags>
0

> <s_epik_input>
Tz1jMVtuSF1uW2NIXWMoYzFDbClbTkhdW0NASF0oW0NIMl1bQ0BASF0yMylbQ0BASF0oTzMpW0NIMl1bQ0gyXTI=

> <s_epik_cmdline>
J2VwaWtfcHl0aG9uJywgJy1waCcsICc3LjAnLCAnLXRuJywgJzgnLCAnLW1hJywgJzIwMCcsICctbWV0YWxfYmluZGluZycsICctaW1hZScsICc8aW5maWxlLm1hZT4nLCAnLW9tYWUnLCAnPG91dGZpbGUubWFlPic=

> <r_lp_tautomer_probability>
0.0138196

> <r_epik_Ionization_Penalty>
2.43027

> <r_epik_Ionization_Penalty_Charging>
2.43027

> <r_epik_Ionization_Penalty_Neutral>
1.33267e-06

> <r_epik_State_Penalty>
2.7044

> <r_epik_Charging_Adjusted_Penalty>
5.13467

> <i_epik_Tot_Q>
0

> <i_epik_Tot_abs_Q>
2

> <r_epik_Metal_State_Penalty>
2.98589

> <b_epik_Metal_Only>
0

> <s_lp_Force_Field>
OPLS_2005

> <r_lp_Energy>
57.4962

> <b_lp_Chiralities_Consistent>
1

> <s_lp_Variant>
AV-unprocessed.smi:2886-8

> <Gold.Version>
5.8.1

> <Gold.Id.Protein>
6NUR|6NUR_protein|mol2

> <Gold.PLP.Fitness>
38.7915

> <Gold.PLP.PLP>
-30.2270

> <Gold.PLP.part.hbond>
-2.0000

> <Gold.PLP.part.metal>
0.0000

> <Gold.PLP.part.buried>
-2.3379

> <Gold.PLP.part.nonpolar>
-25.8702

> <Gold.PLP.part.repulsive>
0.2919

> <Gold.PLP.ligand.clash>
0.0000

> <Gold.PLP.ligand.torsion>
0.2151

> <Gold.PLP.Chemscore.Hbond>
2.9920

> <Gold.PLP.Chemscore.CHOScore>
0.0000

> <Gold.PLP.Chemscore.Metal>
0.0000

> <Gold.Chemscore.Hbonds>
donor molecule, donor type, donor heavy atom, donor atom, acceptor molecule, acceptor atom, score
      L1  H     4    17       P1  8028  2.00
      P1  H  7997  8010       L1    14  0.99

> <Gold.PLP.Chemscore.Internal.Correction>
0.0188

> <Gold.Rescore>
     Score         DG    S(hbond)    S(metal)    S(lipo)     H(rot)  DE(clash)    DE(int)     intcor
     15.30     -16.53       1.50        0.00      73.59       1.00       0.14       1.09       ----

> <Gold.Chemscore.Fitness>
15.2979

> <Gold.Chemscore.DG>
-16.5328

> <Gold.Chemscore.ZeroCoef>
-5.4800

> <Gold.Chemscore.Hbond>
1.4977

> <Gold.Chemscore.Metal>
0.0000

> <Gold.Chemscore.Lipo>
73.5928

> <Gold.Chemscore.Internal_Hbond>
0.0000

> <Gold.Chemscore.DEClash>
0.1401

> <Gold.Chemscore.DEInternal>
1.0948

> <Gold.Chemscore.Rot>
1.0000

> <Gold.Chemscore.Internal.Correction>
   9.000000E+99

> <Gold.Chemscore.Hbonds>
donor molecule, donor type, donor heavy atom, donor atom, acceptor molecule, acceptor atom, score
      L1  H     4    17       P1  8028  0.82
      P1  H  7997  8010       L1    14  0.46

> <Gold.Chemscore.Hbond.Weighted>
-5.0024

> <Gold.Chemscore.Metal.Weighted>
-0.0000

> <Gold.Chemscore.Lipo.Weighted>
-8.6104

> <Gold.Chemscore.Internal_Hbond.Weighted>
0.0000

> <Gold.Chemscore.DEClash.Weighted>
0.1401

> <Gold.Chemscore.DEInternal.Weighted>
1.0948

> <Gold.Chemscore.Rot.Weighted>
2.5600

> <Gold.Chemscore.Internal.Correction.Weighted>
   9.000000E+99

> <Gold.Protein.RotatedTorsions>
[ 6907 6896 6895 6894 ] final  -78.91 input  -60.11 | X-H torsion
[ 7974 7965 7964 7962 ] final  -35.74 input  175.53 | X-H torsion
[ 8008 7997 7996 7995 ] final   85.10 input   59.86 | X-H torsion
[ 10167 10162 10161 10158 ] final -102.24 input  -65.29 | X-H torsion
[ 10718 10713 10712 10709 ] final  172.18 input   66.30 | X-H torsion
[ 10763 10752 10751 10750 ] final   37.20 input  -60.55 | X-H torsion
[ 11005 11000 10999 10996 ] final  144.35 input  -57.11 | X-H torsion

> <Gold.Protein.ActiveResidues>
 VAL166  LYS551  ARG553  GLY616  TRP617  ASP618  TYR619  PRO620  LYS621  CYS622 
 ASP623  PHE694  ASN695  SER759  ASP760  ASP761  ALA762  ILE779  LEU786  VAL792 
 PHE793  MET794  SER795  GLU796  ALA797  LYS798  CYS799  TRP800  GLU811  SER814 

> <Gold.Protein.RotatedAtoms>
  150.6962  134.4201  159.5200 H   0  0  0  0  0  0  0  0  0  0  0  0  # atno 6907 bound_to 6896
  152.1945  134.8640  160.0523 H   0  0  0  0  0  0  0  0  0  0  0  0  # atno 6908 bound_to 6896
  151.9583  133.3652  159.4062 H   0  0  0  0  0  0  0  0  0  0  0  0  # atno 6909 bound_to 6896
  146.0721  140.6195  142.8947 H   0  0  0  0  0  0  0  0  0  0  0  0  # atno 7974 bound_to 7965
  155.9456  140.3405  155.6364 H   0  0  0  0  0  0  0  0  0  0  0  0  # atno 8008 bound_to 7997
  155.6984  140.0757  157.2438 H   0  0  0  0  0  0  0  0  0  0  0  0  # atno 8009 bound_to 7997
  154.4111  140.1644  156.2151 H   0  0  0  0  0  0  0  0  0  0  0  0  # atno 8010 bound_to 7997
  140.2328  143.3594  152.0871 H   0  0  0  0  0  0  0  0  0  0  0  0  # atno 10167 bound_to 10162
  156.9827  131.0124  151.2877 H   0  0  0  0  0  0  0  0  0  0  0  0  # atno 10718 bound_to 10713
  153.0046  135.6284  154.2107 H   0  0  0  0  0  0  0  0  0  0  0  0  # atno 10763 bound_to 10752
  154.1851  135.2811  155.3041 H   0  0  0  0  0  0  0  0  0  0  0  0  # atno 10764 bound_to 10752
  154.5804  135.5649  153.7239 H   0  0  0  0  0  0  0  0  0  0  0  0  # atno 10765 bound_to 10752
  140.0625  134.9196  157.1209 H   0  0  0  0  0  0  0  0  0  0  0  0  # atno 11005 bound_to 11000
  144.7238  140.4460  143.6988 LP  0  0  0  0  0  0  0  0  0  0  0  0  # atno 17320 bound_to 7965
  145.6372  139.1544  143.2936 LP  0  0  0  0  0  0  0  0  0  0  0  0  # atno 17321 bound_to 7965
  139.5104  144.6883  151.5827 LP  0  0  0  0  0  0  0  0  0  0  0  0  # atno 17342 bound_to 10162
  140.6172  143.9326  150.6498 LP  0  0  0  0  0  0  0  0  0  0  0  0  # atno 17343 bound_to 10162
  157.5514  130.8185  149.8150 LP  0  0  0  0  0  0  0  0  0  0  0  0  # atno 17370 bound_to 10713
  156.0238  130.3786  150.1884 LP  0  0  0  0  0  0  0  0  0  0  0  0  # atno 17371 bound_to 10713
  140.3748  134.2351  155.7175 LP  0  0  0  0  0  0  0  0  0  0  0  0  # atno 17394 bound_to 11000
  141.1979  133.8048  157.0606 LP  0  0  0  0  0  0  0  0  0  0  0  0  # atno 17395 bound_to 11000

$$$$
