AV-unprocessed.smi:2168|AV-procd|sdf|8820|dock5
  -GOLD-   2272012 13D 1   1.00000     0.00000
 Structure written by MMmdl.
 45 46  0  0  0  0  0  0  0  0  2 V2000
  148.9160  132.5401  157.9029 C   0  0  0  0  0  0  0  0  0  0  0  0
  148.7960  133.8943  157.1872 C   0  0  0  0  0  0  0  0  0  0  0  0
  150.0073  134.2409  156.4163 N   0  0  0  0  0  0  0  0  0  0  0  0
  150.3350  133.3909  155.2528 C   0  0  0  0  0  0  0  0  0  0  0  0
  149.3738  133.5874  154.0694 C   0  0  0  0  0  0  0  0  0  0  0  0
  150.8586  135.7387  156.7112 S   0  0  0  0  0  0  0  0  0  0  0  0
  150.4234  136.1757  158.0469 O   0  0  0  0  0  0  0  0  0  0  0  0
  152.2915  135.4484  156.5258 O   0  0  0  0  0  0  0  0  0  0  0  0
  150.1811  136.6381  155.5336 N   0  5  0  0  0  0  0  0  0  0  0  0
  150.9290  137.6552  154.8099 C   0  0  0  0  0  0  0  0  0  0  0  0
  151.2620  138.8377  155.7074 C   0  0  0  0  0  0  0  0  0  0  0  0
  150.6004  140.0755  155.5567 C   0  0  0  0  0  0  0  0  0  0  0  0
  150.9517  141.1466  156.4016 C   0  0  0  0  0  0  0  0  0  0  0  0
  151.9560  140.9560  157.3804 C   0  0  0  0  0  0  0  0  0  0  0  0
  152.3318  142.0180  158.2325 N   0  0  0  0  0  0  0  0  0  0  0  0
  152.3864  141.7600  159.6706 C   0  0  0  0  0  0  0  0  0  0  0  0
  153.1035  142.9114  160.3953 C   0  0  0  0  0  0  0  0  0  0  0  0
  152.4702  144.1464  160.0791 O   0  0  0  0  0  0  0  0  0  0  0  0
  152.5301  144.4299  158.6854 C   0  0  0  0  0  0  0  0  0  0  0  0
  151.7921  143.3335  157.8978 C   0  0  0  0  0  0  0  0  0  0  0  0
  152.5904  139.7659  157.5214 N   0  0  0  0  0  0  0  0  0  0  0  0
  152.2522  138.7407  156.7097 C   0  0  0  0  0  0  0  0  0  0  0  0
  148.0405  132.3563  158.5253 H   0  0  0  0  0  0  0  0  0  0  0  0
  149.7936  132.4971  158.5470 H   0  0  0  0  0  0  0  0  0  0  0  0
  148.9840  131.7184  157.1904 H   0  0  0  0  0  0  0  0  0  0  0  0
  147.9410  133.8749  156.5113 H   0  0  0  0  0  0  0  0  0  0  0  0
  148.5834  134.6815  157.9108 H   0  0  0  0  0  0  0  0  0  0  0  0
  151.3537  133.5962  154.9256 H   0  0  0  0  0  0  0  0  0  0  0  0
  150.3219  132.3474  155.5679 H   0  0  0  0  0  0  0  0  0  0  0  0
  149.7051  133.0062  153.2089 H   0  0  0  0  0  0  0  0  0  0  0  0
  149.3266  134.6306  153.7615 H   0  0  0  0  0  0  0  0  0  0  0  0
  148.3619  133.2618  154.3086 H   0  0  0  0  0  0  0  0  0  0  0  0
  151.8642  137.2600  154.4120 H   0  0  0  0  0  0  0  0  0  0  0  0
  150.3774  138.0259  153.9453 H   0  0  0  0  0  0  0  0  0  0  0  0
  149.8386  140.2236  154.8031 H   0  0  0  0  0  0  0  0  0  0  0  0
  150.4623  142.1000  156.2720 H   0  0  0  0  0  0  0  0  0  0  0  0
  151.3720  141.6496  160.0561 H   0  0  0  0  0  0  0  0  0  0  0  0
  152.9148  140.8268  159.8692 H   0  0  0  0  0  0  0  0  0  0  0  0
  153.0643  142.7577  161.4736 H   0  0  0  0  0  0  0  0  0  0  0  0
  154.1581  142.9488  160.1172 H   0  0  0  0  0  0  0  0  0  0  0  0
  152.0686  145.3999  158.5003 H   0  0  0  0  0  0  0  0  0  0  0  0
  153.5701  144.5060  158.3633 H   0  0  0  0  0  0  0  0  0  0  0  0
  151.8739  143.5490  156.8337 H   0  0  0  0  0  0  0  0  0  0  0  0
  150.7295  143.3494  158.1431 H   0  0  0  0  0  0  0  0  0  0  0  0
  152.8017  137.8248  156.8786 H   0  0  0  0  0  0  0  0  0  0  0  0
  1  2  1  0  0  0  0
  1 23  1  0  0  0  0
  1 24  1  0  0  0  0
  1 25  1  0  0  0  0
  2  3  1  0  0  0  0
  2 26  1  0  0  0  0
  2 27  1  0  0  0  0
  3  4  1  0  0  0  0
  3  6  1  0  0  0  0
  4  5  1  0  0  0  0
  4 28  1  0  0  0  0
  4 29  1  0  0  0  0
  5 30  1  0  0  0  0
  5 31  1  0  0  0  0
  5 32  1  0  0  0  0
  6  7  2  0  0  0  0
  6  8  2  0  0  0  0
  6  9  1  0  0  0  0
  9 10  1  0  0  0  0
 10 11  1  0  0  0  0
 10 33  1  0  0  0  0
 10 34  1  0  0  0  0
 11 22  1  0  0  0  0
 11 12  2  0  0  0  0
 12 13  1  0  0  0  0
 12 35  1  0  0  0  0
 13 14  2  0  0  0  0
 13 36  1  0  0  0  0
 14 15  1  0  0  0  0
 14 21  1  0  0  0  0
 15 20  1  0  0  0  0
 15 16  1  0  0  0  0
 16 17  1  0  0  0  0
 16 37  1  0  0  0  0
 16 38  1  0  0  0  0
 17 18  1  0  0  0  0
 17 39  1  0  0  0  0
 17 40  1  0  0  0  0
 18 19  1  0  0  0  0
 19 20  1  0  0  0  0
 19 41  1  0  0  0  0
 19 42  1  0  0  0  0
 20 43  1  0  0  0  0
 20 44  1  0  0  0  0
 21 22  2  0  0  0  0
 22 45  1  0  0  0  0
M  CHG  1   9  -1
M  END
> <s_m_source_file>
AV-unprocessed.smi

> <i_m_source_file_index>
2168

> <i_lp_mmshare_version>
43012

> <i_f3d_flags>
0

> <s_epik_input>
W0NIM11bQ0gyXU4oW0NIMl1bQ0gzXSlTKD1PKSg9TylbTkhdW0NIMl1jMVtjSF1bY0hdYyhuW2NIXTEpTjJbQ0gyXVtDSDJdT1tDSDJdW0NIMl0y

> <s_epik_cmdline>
J2VwaWtfcHl0aG9uJywgJy1waCcsICc3LjAnLCAnLXRuJywgJzgnLCAnLW1hJywgJzIwMCcsICctbWV0YWxfYmluZGluZycsICctaW1hZScsICc8aW5maWxlLm1hZT4nLCAnLW9tYWUnLCAnPG91dGZpbGUubWFlPic=

> <r_lp_tautomer_probability>
1

> <r_epik_Ionization_Penalty>
2.49252

> <r_epik_Ionization_Penalty_Charging>
2.41478

> <r_epik_Ionization_Penalty_Neutral>
0.0777351

> <r_epik_State_Penalty>
2.68884

> <r_epik_Charging_Adjusted_Penalty>
5.10362

> <i_epik_Tot_Q>
-1

> <i_epik_Tot_abs_Q>
1

> <r_epik_Metal_State_Penalty>
0.584574

> <b_epik_Metal_Only>
0

> <s_lp_Force_Field>
OPLS_2005

> <r_lp_Energy>
16.7

> <b_lp_Chiralities_Consistent>
1

> <s_lp_Variant>
AV-unprocessed.smi:2168-3

> <Gold.Version>
5.8.1

> <Gold.Id.Protein>
6NUR|6NUR_protein|mol2

> <Gold.PLP.Fitness>
44.4599

> <Gold.PLP.PLP>
-37.2890

> <Gold.PLP.part.hbond>
-3.0000

> <Gold.PLP.part.metal>
0.0000

> <Gold.PLP.part.buried>
-4.3498

> <Gold.PLP.part.nonpolar>
-30.1983

> <Gold.PLP.part.repulsive>
0.1267

> <Gold.PLP.ligand.clash>
0.0000

> <Gold.PLP.ligand.torsion>
2.2716

> <Gold.PLP.Chemscore.Hbond>
2.6634

> <Gold.PLP.Chemscore.CHOScore>
0.0000

> <Gold.PLP.Chemscore.Metal>
0.0000

> <Gold.Chemscore.Hbonds>
donor molecule, donor type, donor heavy atom, donor atom, acceptor molecule, acceptor atom, score
      P1  H  6896  6909       L1     7  0.57
      P1  H  7997  8009       L1    21  1.00
      P1  H 10752 10763       L1     8  1.00

> <Gold.PLP.Chemscore.Internal.Correction>
3.7240

> <Gold.Rescore>
     Score         DG    S(hbond)    S(metal)    S(lipo)     H(rot)  DE(clash)    DE(int)     intcor
     16.27     -18.55       1.96        0.00      92.28       1.66       0.01       2.28       ----

> <Gold.Chemscore.Fitness>
16.2683

> <Gold.Chemscore.DG>
-18.5531

> <Gold.Chemscore.ZeroCoef>
-5.4800

> <Gold.Chemscore.Hbond>
1.9571

> <Gold.Chemscore.Metal>
0.0000

> <Gold.Chemscore.Lipo>
92.2806

> <Gold.Chemscore.Internal_Hbond>
0.0000

> <Gold.Chemscore.DEClash>
0.0073

> <Gold.Chemscore.DEInternal>
2.2775

> <Gold.Chemscore.Rot>
1.6642

> <Gold.Chemscore.Internal.Correction>
   9.000000E+99

> <Gold.Chemscore.Hbonds>
donor molecule, donor type, donor heavy atom, donor atom, acceptor molecule, acceptor atom, score
      P1  H  6896  6909       L1     7  0.53
      P1  H  7997  8009       L1    21  0.14
      P1  H 10752 10763       L1     8  1.00

> <Gold.Chemscore.Hbond.Weighted>
-6.5367

> <Gold.Chemscore.Metal.Weighted>
-0.0000

> <Gold.Chemscore.Lipo.Weighted>
-10.7968

> <Gold.Chemscore.Internal_Hbond.Weighted>
0.0000

> <Gold.Chemscore.DEClash.Weighted>
0.0073

> <Gold.Chemscore.DEInternal.Weighted>
2.2775

> <Gold.Chemscore.Rot.Weighted>
4.2604

> <Gold.Chemscore.Internal.Correction.Weighted>
   9.000000E+99

> <Gold.Protein.RotatedTorsions>
[ 6907 6896 6895 6894 ] final   70.68 input  -60.11 | X-H torsion
[ 7974 7965 7964 7962 ] final   96.52 input  175.53 | X-H torsion
[ 8008 7997 7996 7995 ] final  161.01 input   59.86 | X-H torsion
[ 10167 10162 10161 10158 ] final  173.58 input  -65.29 | X-H torsion
[ 10718 10713 10712 10709 ] final  -50.85 input   66.30 | X-H torsion
[ 10763 10752 10751 10750 ] final   99.18 input  -60.55 | X-H torsion
[ 11005 11000 10999 10996 ] final  -73.57 input  -57.11 | X-H torsion

> <Gold.Protein.ActiveResidues>
 VAL166  LYS551  ARG553  GLY616  TRP617  ASP618  TYR619  PRO620  LYS621  CYS622 
 ASP623  PHE694  ASN695  SER759  ASP760  ASP761  ALA762  ILE779  LEU786  VAL792 
 PHE793  MET794  SER795  GLU796  ALA797  LYS798  CYS799  TRP800  GLU811  SER814 

> <Gold.Protein.RotatedAtoms>
  152.4764  134.4833  159.9672 H   0  0  0  0  0  0  0  0  0  0  0  0  # atno 6907 bound_to 6896
  151.4848  133.3532  159.2852 H   0  0  0  0  0  0  0  0  0  0  0  0  # atno 6908 bound_to 6896
  150.8805  134.8222  159.7283 H   0  0  0  0  0  0  0  0  0  0  0  0  # atno 6909 bound_to 6896
  145.4378  139.2304  143.3109 H   0  0  0  0  0  0  0  0  0  0  0  0  # atno 7974 bound_to 7965
  156.2133  140.1789  156.7647 H   0  0  0  0  0  0  0  0  0  0  0  0  # atno 8008 bound_to 7997
  154.5754  140.0675  156.9055 H   0  0  0  0  0  0  0  0  0  0  0  0  # atno 8009 bound_to 7997
  155.2598  140.3335  155.4276 H   0  0  0  0  0  0  0  0  0  0  0  0  # atno 8010 bound_to 7997
  139.5113  144.3245  152.0171 H   0  0  0  0  0  0  0  0  0  0  0  0  # atno 10167 bound_to 10162
  156.1763  130.4150  149.9573 H   0  0  0  0  0  0  0  0  0  0  0  0  # atno 10718 bound_to 10713
  153.2982  135.4122  155.1229 H   0  0  0  0  0  0  0  0  0  0  0  0  # atno 10763 bound_to 10752
  154.8541  135.3535  154.5887 H   0  0  0  0  0  0  0  0  0  0  0  0  # atno 10764 bound_to 10752
  153.6312  135.7060  153.5333 H   0  0  0  0  0  0  0  0  0  0  0  0  # atno 10765 bound_to 10752
  141.1624  133.6883  156.7233 H   0  0  0  0  0  0  0  0  0  0  0  0  # atno 11005 bound_to 11000
  146.2573  140.5122  142.8868 LP  0  0  0  0  0  0  0  0  0  0  0  0  # atno 17320 bound_to 7965
  144.8141  140.6437  143.6396 LP  0  0  0  0  0  0  0  0  0  0  0  0  # atno 17321 bound_to 7965
  140.2686  144.3989  150.6159 LP  0  0  0  0  0  0  0  0  0  0  0  0  # atno 17342 bound_to 10162
  140.6105  143.2169  151.6895 LP  0  0  0  0  0  0  0  0  0  0  0  0  # atno 17343 bound_to 10162
  156.7357  130.9060  151.3629 LP  0  0  0  0  0  0  0  0  0  0  0  0  # atno 17370 bound_to 10713
  157.6838  130.9165  150.0333 LP  0  0  0  0  0  0  0  0  0  0  0  0  # atno 17371 bound_to 10713
  140.2800  134.8324  157.3924 LP  0  0  0  0  0  0  0  0  0  0  0  0  # atno 17394 bound_to 11000
  140.1442  134.4932  155.8008 LP  0  0  0  0  0  0  0  0  0  0  0  0  # atno 17395 bound_to 11000

$$$$
