AV-unprocessed.smi:3103|AV-procd|sdf|11814|dock4
  -GOLD-   2272017183D 1   1.00000     0.00000
 Structure written by MMmdl.
 32 32  0  0  0  0  0  0  0  0  1 V2000
  152.8154  143.1864  162.2491 C   0  0  0  0  0  0  0  0  0  0  0  0
  152.2204  143.1640  160.8544 C   0  0  0  0  0  0  0  0  0  0  0  0
  151.2855  144.1362  160.4398 C   0  0  0  0  0  0  0  0  0  0  0  0
  150.7461  144.1243  159.2017 N   0  0  0  0  0  0  0  0  0  0  0  0
  151.1359  143.1478  158.3793 C   0  0  0  0  0  0  0  0  0  0  0  0
  150.5569  143.1602  157.1250 N   0  0  0  0  0  0  0  0  0  0  0  0
  151.0062  142.3359  156.0135 C   0  0  0  0  0  0  0  0  0  0  0  0
  150.6453  140.8623  156.2239 C   0  0  0  0  0  0  0  0  0  0  0  0
  150.7393  140.1866  154.9810 O   0  0  0  0  0  0  0  0  0  0  0  0
  150.6319  138.7788  155.1076 C   0  0  0  0  0  0  0  0  0  0  0  0
  151.8295  138.1243  154.4086 C   0  0  0  0  0  0  0  0  0  0  0  0
  151.5296  136.7832  154.0856 O   0  0  0  0  0  0  0  0  0  0  0  0
  152.0148  142.1787  158.6611 N   0  0  0  0  0  0  0  0  0  0  0  0
  152.5614  142.1802  159.8972 C   0  0  0  0  0  0  0  0  0  0  0  0
  153.5532  141.0727  160.1982 C   0  0  0  0  0  0  0  0  0  0  0  0
  152.3885  143.9931  162.8458 H   0  0  0  0  0  0  0  0  0  0  0  0
  153.8943  143.3354  162.1997 H   0  0  0  0  0  0  0  0  0  0  0  0
  152.6189  142.2450  162.7629 H   0  0  0  0  0  0  0  0  0  0  0  0
  150.9663  144.9276  161.1019 H   0  0  0  0  0  0  0  0  0  0  0  0
  149.7005  143.6836  157.0163 H   0  0  0  0  0  0  0  0  0  0  0  0
  150.5333  142.7011  155.1012 H   0  0  0  0  0  0  0  0  0  0  0  0
  152.0838  142.4436  155.8828 H   0  0  0  0  0  0  0  0  0  0  0  0
  151.3006  140.4052  156.9671 H   0  0  0  0  0  0  0  0  0  0  0  0
  149.6235  140.7903  156.5990 H   0  0  0  0  0  0  0  0  0  0  0  0
  150.6511  138.5213  156.1677 H   0  0  0  0  0  0  0  0  0  0  0  0
  149.6880  138.4105  154.7013 H   0  0  0  0  0  0  0  0  0  0  0  0
  152.1184  138.6776  153.5143 H   0  0  0  0  0  0  0  0  0  0  0  0
  152.6904  138.1184  155.0776 H   0  0  0  0  0  0  0  0  0  0  0  0
  151.2695  136.7438  153.1781 H   0  0  0  0  0  0  0  0  0  0  0  0
  154.5083  141.4927  160.5143 H   0  0  0  0  0  0  0  0  0  0  0  0
  153.7334  140.4495  159.3212 H   0  0  0  0  0  0  0  0  0  0  0  0
  153.1753  140.4331  160.9960 H   0  0  0  0  0  0  0  0  0  0  0  0
  1  2  1  0  0  0  0
  1 16  1  0  0  0  0
  1 17  1  0  0  0  0
  1 18  1  0  0  0  0
  2 14  1  0  0  0  0
  2  3  2  0  0  0  0
  3  4  1  0  0  0  0
  3 19  1  0  0  0  0
  4  5  2  0  0  0  0
  5  6  1  0  0  0  0
  5 13  1  0  0  0  0
  6  7  1  0  0  0  0
  6 20  1  0  0  0  0
  7  8  1  0  0  0  0
  7 21  1  0  0  0  0
  7 22  1  0  0  0  0
  8  9  1  0  0  0  0
  8 23  1  0  0  0  0
  8 24  1  0  0  0  0
  9 10  1  0  0  0  0
 10 11  1  0  0  0  0
 10 25  1  0  0  0  0
 10 26  1  0  0  0  0
 11 12  1  0  0  0  0
 11 27  1  0  0  0  0
 11 28  1  0  0  0  0
 12 29  1  0  0  0  0
 13 14  2  0  0  0  0
 14 15  1  0  0  0  0
 15 30  1  0  0  0  0
 15 31  1  0  0  0  0
 15 32  1  0  0  0  0
M  END
> <s_m_source_file>
AV-unprocessed.smi

> <i_m_source_file_index>
3103

> <i_lp_mmshare_version>
43012

> <i_f3d_flags>
0

> <s_epik_input>
W0NIM11jMVtjSF1uYyhuYzFbQ0gzXSlbTkhdW0NIMl1bQ0gyXU9bQ0gyXVtDSDJdW09IXQ==

> <s_epik_cmdline>
J2VwaWtfcHl0aG9uJywgJy1waCcsICc3LjAnLCAnLXRuJywgJzgnLCAnLW1hJywgJzIwMCcsICctbWV0YWxfYmluZGluZycsICctaW1hZScsICc8aW5maWxlLm1hZT4nLCAnLW9tYWUnLCAnPG91dGZpbGUubWFlPic=

> <r_lp_tautomer_probability>
1

> <r_epik_Ionization_Penalty>
0.00815169

> <r_epik_Ionization_Penalty_Charging>
0

> <r_epik_Ionization_Penalty_Neutral>
0.00815169

> <r_epik_State_Penalty>
0.00530275

> <r_epik_Charging_Adjusted_Penalty>
0.00530275

> <i_epik_Tot_Q>
0

> <i_epik_Tot_abs_Q>
0

> <r_epik_Metal_State_Penalty>
-0

> <b_epik_Metal_Only>
0

> <s_lp_Force_Field>
OPLS_2005

> <r_lp_Energy>
-2.90403

> <b_lp_Chiralities_Consistent>
1

> <s_lp_Variant>
AV-unprocessed.smi:3103-1

> <Gold.Version>
5.8.1

> <Gold.Id.Protein>
6NUR|6NUR_protein|mol2

> <Gold.PLP.Fitness>
45.0859

> <Gold.PLP.PLP>
-35.0575

> <Gold.PLP.part.hbond>
-4.0000

> <Gold.PLP.part.metal>
0.0000

> <Gold.PLP.part.buried>
-6.8079

> <Gold.PLP.part.nonpolar>
-23.9207

> <Gold.PLP.part.repulsive>
0.1806

> <Gold.PLP.ligand.clash>
0.0000

> <Gold.PLP.ligand.torsion>
0.6494

> <Gold.PLP.Chemscore.Hbond>
3.7520

> <Gold.PLP.Chemscore.CHOScore>
0.0000

> <Gold.PLP.Chemscore.Metal>
0.0000

> <Gold.Chemscore.Hbonds>
donor molecule, donor type, donor heavy atom, donor atom, acceptor molecule, acceptor atom, score
      L1  H     6    20       P1  8028  0.74
      L1  H    12    29       P1  7949  1.00
      P1  H  7989  7998       L1     9  1.00
      P1  H 10752 10765       L1    12  1.00

> <Gold.PLP.Chemscore.Internal.Correction>
0.0712

> <Gold.Rescore>
     Score         DG    S(hbond)    S(metal)    S(lipo)     H(rot)  DE(clash)    DE(int)     intcor
     18.79     -19.53       3.27        0.00      83.93       2.61       0.04       0.69       ----

> <Gold.Chemscore.Fitness>
18.7943

> <Gold.Chemscore.DG>
-19.5299

> <Gold.Chemscore.ZeroCoef>
-5.4800

> <Gold.Chemscore.Hbond>
3.2681

> <Gold.Chemscore.Metal>
0.0000

> <Gold.Chemscore.Lipo>
83.9270

> <Gold.Chemscore.Internal_Hbond>
0.0000

> <Gold.Chemscore.DEClash>
0.0437

> <Gold.Chemscore.DEInternal>
0.6919

> <Gold.Chemscore.Rot>
2.6113

> <Gold.Chemscore.Internal.Correction>
   9.000000E+99

> <Gold.Chemscore.Hbonds>
donor molecule, donor type, donor heavy atom, donor atom, acceptor molecule, acceptor atom, score
      L1  H     6    20       P1  8028  0.70
      L1  H    12    29       P1  7949  0.64
      P1  H  7989  7998       L1     9  0.95
      P1  H 10752 10765       L1    12  0.51

> <Gold.Chemscore.Hbond.Weighted>
-10.9153

> <Gold.Chemscore.Metal.Weighted>
-0.0000

> <Gold.Chemscore.Lipo.Weighted>
-9.8195

> <Gold.Chemscore.Internal_Hbond.Weighted>
0.0000

> <Gold.Chemscore.DEClash.Weighted>
0.0437

> <Gold.Chemscore.DEInternal.Weighted>
0.6919

> <Gold.Chemscore.Rot.Weighted>
6.6849

> <Gold.Chemscore.Internal.Correction.Weighted>
   9.000000E+99

> <Gold.Protein.RotatedTorsions>
[ 6907 6896 6895 6894 ] final -150.22 input  -60.11 | X-H torsion
[ 7974 7965 7964 7962 ] final   -7.79 input  175.53 | X-H torsion
[ 8008 7997 7996 7995 ] final   50.47 input   59.86 | X-H torsion
[ 10167 10162 10161 10158 ] final -107.31 input  -65.29 | X-H torsion
[ 10718 10713 10712 10709 ] final   96.32 input   66.30 | X-H torsion
[ 10763 10752 10751 10750 ] final  162.41 input  -60.55 | X-H torsion
[ 11005 11000 10999 10996 ] final -175.11 input  -57.11 | X-H torsion

> <Gold.Protein.ActiveResidues>
 VAL166  LYS551  ARG553  GLY616  TRP617  ASP618  TYR619  PRO620  LYS621  CYS622 
 ASP623  PHE694  ASN695  SER759  ASP760  ASP761  ALA762  ILE779  LEU786  VAL792 
 PHE793  MET794  SER795  GLU796  ALA797  LYS798  CYS799  TRP800  GLU811  SER814 

> <Gold.Protein.RotatedAtoms>
  151.1954  133.4642  159.2595 H   0  0  0  0  0  0  0  0  0  0  0  0  # atno 6907 bound_to 6896
  151.1122  135.0033  159.8509 H   0  0  0  0  0  0  0  0  0  0  0  0  # atno 6908 bound_to 6896
  152.5451  134.1873  159.8712 H   0  0  0  0  0  0  0  0  0  0  0  0  # atno 6909 bound_to 6896
  146.2297  140.2373  142.8342 H   0  0  0  0  0  0  0  0  0  0  0  0  # atno 7974 bound_to 7965
  155.4193  140.3446  155.4270 H   0  0  0  0  0  0  0  0  0  0  0  0  # atno 8008 bound_to 7997
  156.1402  140.1540  156.8963 H   0  0  0  0  0  0  0  0  0  0  0  0  # atno 8009 bound_to 7997
  154.4965  140.0826  156.7688 H   0  0  0  0  0  0  0  0  0  0  0  0  # atno 8010 bound_to 7997
  140.1784  143.3987  152.1301 H   0  0  0  0  0  0  0  0  0  0  0  0  # atno 10167 bound_to 10162
  157.6928  131.0574  150.4473 H   0  0  0  0  0  0  0  0  0  0  0  0  # atno 10718 bound_to 10713
  154.2779  135.2764  155.2710 H   0  0  0  0  0  0  0  0  0  0  0  0  # atno 10763 bound_to 10752
  154.5244  135.5747  153.6710 H   0  0  0  0  0  0  0  0  0  0  0  0  # atno 10764 bound_to 10752
  152.9934  135.6212  154.2937 H   0  0  0  0  0  0  0  0  0  0  0  0  # atno 10765 bound_to 10752
  140.4670  134.6201  157.4866 H   0  0  0  0  0  0  0  0  0  0  0  0  # atno 11005 bound_to 11000
  144.9512  140.8180  143.5571 LP  0  0  0  0  0  0  0  0  0  0  0  0  # atno 17320 bound_to 7965
  145.2333  139.2105  143.5031 LP  0  0  0  0  0  0  0  0  0  0  0  0  # atno 17321 bound_to 7965
  139.5307  144.7155  151.5067 LP  0  0  0  0  0  0  0  0  0  0  0  0  # atno 17342 bound_to 10162
  140.6536  143.8645  150.6811 LP  0  0  0  0  0  0  0  0  0  0  0  0  # atno 17343 bound_to 10162
  156.4827  130.4077  149.6452 LP  0  0  0  0  0  0  0  0  0  0  0  0  # atno 17370 bound_to 10713
  156.3492  130.7423  151.2380 LP  0  0  0  0  0  0  0  0  0  0  0  0  # atno 17371 bound_to 10713
  139.9909  134.6987  155.9692 LP  0  0  0  0  0  0  0  0  0  0  0  0  # atno 17394 bound_to 11000
  141.1595  133.6540  156.4270 LP  0  0  0  0  0  0  0  0  0  0  0  0  # atno 17395 bound_to 11000

$$$$
