AV-unprocessed.smi:2243|AV-procd|sdf|9070|dock8
  -GOLD-   2272012273D 1   1.00000     0.00000
 Structure written by MMmdl.
 33 34  0  0  0  0  0  0  0  0  2 V2000
  154.3744  140.8926  160.7257 C   0  0  0  0  0  0  0  0  0  0  0  0
  153.0386  141.1904  160.0234 C   0  0  2  0  0  0  0  0  0  0  0  0
  153.2141  140.9163  158.5955 N   0  0  0  0  0  0  0  0  0  0  0  0
  152.6543  139.9220  157.8886 C   0  0  0  0  0  0  0  0  0  0  0  0
  151.8880  139.1267  158.4369 O   0  0  0  0  0  0  0  0  0  0  0  0
  153.0129  139.9166  156.5849 N   0  5  0  0  0  0  0  0  0  0  0  0
  152.2218  139.3229  155.6769 C   0  0  0  0  0  0  0  0  0  0  0  0
  152.0855  138.0095  155.4845 N   0  0  0  0  0  0  0  0  0  0  0  0
  151.1758  137.8709  154.4475 C   0  0  0  0  0  0  0  0  0  0  0  0
  150.8017  139.1246  154.0470 C   0  0  0  0  0  0  0  0  0  0  0  0
  151.4573  140.0489  154.8126 O   0  0  0  0  0  0  0  0  0  0  0  0
  152.5389  142.6438  160.2472 C   0  0  0  0  0  0  0  0  0  0  0  0
  152.2051  142.9348  161.7247 C   0  0  0  0  0  0  0  0  0  0  0  0
  151.6441  144.3549  161.9041 C   0  0  0  0  0  0  0  0  0  0  0  0
  150.4932  144.5330  161.0882 O   0  0  0  0  0  0  0  0  0  0  0  0
  150.7812  144.4016  159.7017 C   0  0  0  0  0  0  0  0  0  0  0  0
  151.2928  142.9839  159.4016 C   0  0  0  0  0  0  0  0  0  0  0  0
  154.2816  140.9390  161.8103 H   0  0  0  0  0  0  0  0  0  0  0  0
  155.1487  141.5985  160.4230 H   0  0  0  0  0  0  0  0  0  0  0  0
  154.7273  139.8897  160.4824 H   0  0  0  0  0  0  0  0  0  0  0  0
  152.2977  140.5076  160.4424 H   0  0  0  0  0  0  0  0  0  0  0  0
  153.8285  141.5393  158.0922 H   0  0  0  0  0  0  0  0  0  0  0  0
  150.8713  136.9021  154.0805 H   0  0  0  0  0  0  0  0  0  0  0  0
  150.1314  139.5052  153.2912 H   0  0  0  0  0  0  0  0  0  0  0  0
  153.3374  143.3238  159.9457 H   0  0  0  0  0  0  0  0  0  0  0  0
  151.4757  142.2095  162.0877 H   0  0  0  0  0  0  0  0  0  0  0  0
  153.0906  142.8287  162.3504 H   0  0  0  0  0  0  0  0  0  0  0  0
  151.3638  144.5165  162.9450 H   0  0  0  0  0  0  0  0  0  0  0  0
  152.3974  145.1051  161.6588 H   0  0  0  0  0  0  0  0  0  0  0  0
  149.8721  144.5983  159.1336 H   0  0  0  0  0  0  0  0  0  0  0  0
  151.5136  145.1512  159.3981 H   0  0  0  0  0  0  0  0  0  0  0  0
  151.5143  142.9101  158.3368 H   0  0  0  0  0  0  0  0  0  0  0  0
  150.5007  142.2620  159.6048 H   0  0  0  0  0  0  0  0  0  0  0  0
  1  2  1  0  0  0  0
  1 18  1  0  0  0  0
  1 19  1  0  0  0  0
  1 20  1  0  0  0  0
  2  3  1  0  0  0  0
  2 12  1  0  0  0  0
  2 21  1  0  0  0  0
  3 22  1  0  0  0  0
  3  4  1  0  0  0  0
  4  6  1  0  0  0  0
  4  5  2  0  0  0  0
  6  7  1  0  0  0  0
  7 11  1  0  0  0  0
  7  8  2  0  0  0  0
  8  9  1  0  0  0  0
  9 23  1  0  0  0  0
  9 10  2  0  0  0  0
 10 24  1  0  0  0  0
 10 11  1  0  0  0  0
 12 17  1  0  0  0  0
 12 13  1  0  0  0  0
 12 25  1  0  0  0  0
 13 14  1  0  0  0  0
 13 26  1  0  0  0  0
 13 27  1  0  0  0  0
 14 15  1  0  0  0  0
 14 28  1  0  0  0  0
 14 29  1  0  0  0  0
 15 16  1  0  0  0  0
 16 17  1  0  0  0  0
 16 30  1  0  0  0  0
 16 31  1  0  0  0  0
 17 32  1  0  0  0  0
 17 33  1  0  0  0  0
M  CHG  1   6  -1
M  END
> <s_m_source_file>
AV-unprocessed.smi

> <i_m_source_file_index>
2243

> <i_lp_mmshare_version>
43012

> <i_f3d_flags>
0

> <s_epik_input>
W0NIMl0xW0NIMl1PW0NIMl1bQ0gyXVtDSF0xW0NASF0oW0NIM10pW05IXUMoPU8pW05IXWMybltjSF1bY0hdbzI=

> <s_epik_cmdline>
J2VwaWtfcHl0aG9uJywgJy1waCcsICc3LjAnLCAnLXRuJywgJzgnLCAnLW1hJywgJzIwMCcsICctbWV0YWxfYmluZGluZycsICctaW1hZScsICc8aW5maWxlLm1hZT4nLCAnLW9tYWUnLCAnPG91dGZpbGUubWFlPic=

> <r_lp_tautomer_probability>
0.107061

> <r_epik_Ionization_Penalty>
11.1403

> <r_epik_Ionization_Penalty_Charging>
7.81312

> <r_epik_Ionization_Penalty_Neutral>
3.32719

> <r_epik_State_Penalty>
5.94317

> <r_epik_Charging_Adjusted_Penalty>
13.7563

> <i_epik_Tot_Q>
-1

> <i_epik_Tot_abs_Q>
1

> <r_epik_Metal_State_Penalty>
1.86619

> <b_epik_Metal_Only>
1

> <s_lp_Force_Field>
OPLS_2005

> <r_lp_Energy>
6.48942

> <b_lp_Chiralities_Consistent>
1

> <s_lp_Variant>
AV-unprocessed.smi:2243-9

> <Gold.Version>
5.8.1

> <Gold.Id.Protein>
6NUR|6NUR_protein|mol2

> <Gold.PLP.Fitness>
46.7883

> <Gold.PLP.PLP>
-33.6375

> <Gold.PLP.part.hbond>
-2.0000

> <Gold.PLP.part.metal>
0.0000

> <Gold.PLP.part.buried>
-3.7456

> <Gold.PLP.part.nonpolar>
-29.1094

> <Gold.PLP.part.repulsive>
1.7753

> <Gold.PLP.ligand.clash>
0.0000

> <Gold.PLP.ligand.torsion>
0.9029

> <Gold.PLP.Chemscore.Hbond>
3.0000

> <Gold.PLP.Chemscore.CHOScore>
1.9747

> <Gold.PLP.Chemscore.Metal>
0.0000

> <Gold.Chemscore.Hbonds>
donor molecule, donor type, donor heavy atom, donor atom, acceptor molecule, acceptor atom, score
      P1  H  7989  7998       L1    11  0.35
      P1  H  7997  8009       L1     6  1.37
      L1  C     9    23       P1  7949  0.37
      L1  C    10    24       P1  7957  1.00

> <Gold.PLP.Chemscore.Internal.Correction>
0.0326

> <Gold.Rescore>
     Score         DG    S(hbond)    S(metal)    S(lipo)     H(rot)  DE(clash)    DE(int)     intcor
     15.35     -16.35       1.33        0.00      83.58       1.31       0.08       0.91       ----

> <Gold.Chemscore.Fitness>
15.3502

> <Gold.Chemscore.DG>
-16.3453

> <Gold.Chemscore.ZeroCoef>
-5.4800

> <Gold.Chemscore.Hbond>
1.3267

> <Gold.Chemscore.Metal>
0.0000

> <Gold.Chemscore.Lipo>
83.5753

> <Gold.Chemscore.Internal_Hbond>
0.0000

> <Gold.Chemscore.DEClash>
0.0814

> <Gold.Chemscore.DEInternal>
0.9137

> <Gold.Chemscore.Rot>
1.3063

> <Gold.Chemscore.Internal.Correction>
   9.000000E+99

> <Gold.Chemscore.Hbonds>
donor molecule, donor type, donor heavy atom, donor atom, acceptor molecule, acceptor atom, score
      P1  H  7989  7998       L1    11  0.01
      P1  H  7997  8009       L1     6  0.59

> <Gold.Chemscore.Hbond.Weighted>
-4.4313

> <Gold.Chemscore.Metal.Weighted>
-0.0000

> <Gold.Chemscore.Lipo.Weighted>
-9.7783

> <Gold.Chemscore.Internal_Hbond.Weighted>
0.0000

> <Gold.Chemscore.DEClash.Weighted>
0.0814

> <Gold.Chemscore.DEInternal.Weighted>
0.9137

> <Gold.Chemscore.Rot.Weighted>
3.3443

> <Gold.Chemscore.Internal.Correction.Weighted>
   9.000000E+99

> <Gold.Protein.RotatedTorsions>
[ 6907 6896 6895 6894 ] final  -42.91 input  -60.11 | X-H torsion
[ 7974 7965 7964 7962 ] final  114.84 input  175.53 | X-H torsion
[ 8008 7997 7996 7995 ] final -154.10 input   59.86 | X-H torsion
[ 10167 10162 10161 10158 ] final   24.54 input  -65.29 | X-H torsion
[ 10718 10713 10712 10709 ] final -102.64 input   66.30 | X-H torsion
[ 10763 10752 10751 10750 ] final   10.76 input  -60.55 | X-H torsion
[ 11005 11000 10999 10996 ] final  164.10 input  -57.11 | X-H torsion

> <Gold.Protein.ActiveResidues>
 VAL166  LYS551  ARG553  GLY616  TRP617  ASP618  TYR619  PRO620  LYS621  CYS622 
 ASP623  PHE694  ASN695  SER759  ASP760  ASP761  ALA762  ILE779  LEU786  VAL792 
 PHE793  MET794  SER795  GLU796  ALA797  LYS798  CYS799  TRP800  GLU811  SER814 

> <Gold.Protein.RotatedAtoms>
  150.9499  134.8900  159.7665 H   0  0  0  0  0  0  0  0  0  0  0  0  # atno 6907 bound_to 6896
  152.5115  134.3821  159.9365 H   0  0  0  0  0  0  0  0  0  0  0  0  # atno 6908 bound_to 6896
  151.3838  133.3772  159.2748 H   0  0  0  0  0  0  0  0  0  0  0  0  # atno 6909 bound_to 6896
  145.1994  139.2960  143.4326 H   0  0  0  0  0  0  0  0  0  0  0  0  # atno 7974 bound_to 7965
  155.6811  140.0744  157.2484 H   0  0  0  0  0  0  0  0  0  0  0  0  # atno 8008 bound_to 7997
  154.4105  140.1681  156.2036 H   0  0  0  0  0  0  0  0  0  0  0  0  # atno 8009 bound_to 7997
  155.9534  140.3375  155.6430 H   0  0  0  0  0  0  0  0  0  0  0  0  # atno 8010 bound_to 7997
  140.5179  144.0051  150.6403 H   0  0  0  0  0  0  0  0  0  0  0  0  # atno 10167 bound_to 10162
  156.0236  130.5430  150.7138 H   0  0  0  0  0  0  0  0  0  0  0  0  # atno 10718 bound_to 10713
  153.1998  135.6854  153.8246 H   0  0  0  0  0  0  0  0  0  0  0  0  # atno 10763 bound_to 10752
  153.7516  135.3223  155.3323 H   0  0  0  0  0  0  0  0  0  0  0  0  # atno 10764 bound_to 10752
  154.8165  135.4682  154.0758 H   0  0  0  0  0  0  0  0  0  0  0  0  # atno 10765 bound_to 10752
  140.2425  134.8040  157.3424 H   0  0  0  0  0  0  0  0  0  0  0  0  # atno 11005 bound_to 11000
  146.3420  140.2234  142.8592 LP  0  0  0  0  0  0  0  0  0  0  0  0  # atno 17320 bound_to 7965
  144.9962  140.8591  143.5309 LP  0  0  0  0  0  0  0  0  0  0  0  0  # atno 17321 bound_to 7965
  140.3392  143.3030  152.0606 LP  0  0  0  0  0  0  0  0  0  0  0  0  # atno 17342 bound_to 10162
  139.4915  144.6455  151.6788 LP  0  0  0  0  0  0  0  0  0  0  0  0  # atno 17343 bound_to 10162
  157.4770  131.0898  151.0579 LP  0  0  0  0  0  0  0  0  0  0  0  0  # atno 17370 bound_to 10713
  157.1023  130.5987  149.5463 LP  0  0  0  0  0  0  0  0  0  0  0  0  # atno 17371 bound_to 10713
  140.1639  134.4693  155.7876 LP  0  0  0  0  0  0  0  0  0  0  0  0  # atno 17394 bound_to 11000
  141.2209  133.6913  156.7592 LP  0  0  0  0  0  0  0  0  0  0  0  0  # atno 17395 bound_to 11000

$$$$
