AV-unprocessed.smi:794|AV-procd|sdf|3756|dock5
  -GOLD-   22720 1193D 1   1.00000     0.00000
 Structure written by MMmdl.
 41 43  0  0  0  0  0  0  0  0  1 V2000
  148.2785  124.5688  154.0320 C   0  0  0  0  0  0  0  0  0  0  0  0
  148.3029  125.4320  152.8081 C   0  0  0  0  0  0  0  0  0  0  0  0
  147.9536  126.7820  152.9080 N   0  0  0  0  0  0  0  0  0  0  0  0
  148.0255  127.4121  151.7313 C   0  0  0  0  0  0  0  0  0  0  0  0
  147.7257  128.7860  151.5381 N   0  0  0  0  0  0  0  0  0  0  0  0
  146.5998  129.4446  151.8641 C   0  0  0  0  0  0  0  0  0  0  0  0
  145.6134  128.9422  152.4033 O   0  0  0  0  0  0  0  0  0  0  0  0
  146.6827  130.7391  151.5256 N   0  0  0  0  0  0  0  0  0  0  0  0
  145.6491  131.7440  151.7650 C   0  0  2  0  0  0  0  0  0  0  0  0
  144.5611  131.6739  150.6706 C   0  0  1  0  0  0  0  0  0  0  0  0
  143.3219  132.4464  151.1570 C   0  0  0  0  0  0  0  0  0  0  0  0
  143.7883  133.9117  151.0690 C   0  0  0  0  0  0  0  0  0  0  0  0
  145.2362  133.7844  150.5472 C   0  0  2  0  0  0  0  0  0  0  0  0
  145.0999  132.6071  149.5900 C   0  0  0  0  0  0  0  0  0  0  0  0
  146.1860  133.1914  151.6154 C   0  0  1  0  0  0  0  0  0  0  0  0
  146.2689  133.9925  152.9290 C   0  0  0  0  0  0  0  0  0  0  0  0
  146.5521  135.3475  152.6541 O   0  0  0  0  0  0  0  0  0  0  0  0
  148.5312  126.3762  150.4079 S   0  0  0  0  0  0  0  0  0  0  0  0
  148.6425  125.0446  151.5324 C   0  0  0  0  0  0  0  0  0  0  0  0
  149.0621  123.6876  151.0745 C   0  0  0  0  0  0  0  0  0  0  0  0
  147.6281  123.7057  153.8901 H   0  0  0  0  0  0  0  0  0  0  0  0
  147.9149  125.1138  154.9038 H   0  0  0  0  0  0  0  0  0  0  0  0
  149.2754  124.1969  154.2689 H   0  0  0  0  0  0  0  0  0  0  0  0
  148.4556  129.3318  151.1044 H   0  0  0  0  0  0  0  0  0  0  0  0
  147.5313  131.0606  151.0834 H   0  0  0  0  0  0  0  0  0  0  0  0
  145.1950  131.5820  152.7446 H   0  0  0  0  0  0  0  0  0  0  0  0
  144.3315  130.6616  150.3354 H   0  0  0  0  0  0  0  0  0  0  0  0
  142.4720  132.2751  150.4949 H   0  0  0  0  0  0  0  0  0  0  0  0
  143.0205  132.1633  152.1663 H   0  0  0  0  0  0  0  0  0  0  0  0
  143.1732  134.4592  150.3536 H   0  0  0  0  0  0  0  0  0  0  0  0
  143.7166  134.4351  152.0218 H   0  0  0  0  0  0  0  0  0  0  0  0
  145.6155  134.6985  150.0895 H   0  0  0  0  0  0  0  0  0  0  0  0
  146.0500  132.2787  149.1654 H   0  0  0  0  0  0  0  0  0  0  0  0
  144.3910  132.7857  148.7792 H   0  0  0  0  0  0  0  0  0  0  0  0
  147.1843  133.1707  151.1728 H   0  0  0  0  0  0  0  0  0  0  0  0
  145.3204  133.9428  153.4641 H   0  0  0  0  0  0  0  0  0  0  0  0
  147.0396  133.5996  153.5919 H   0  0  0  0  0  0  0  0  0  0  0  0
  147.3327  135.3918  152.1233 H   0  0  0  0  0  0  0  0  0  0  0  0
  149.9445  123.3513  151.6192 H   0  0  0  0  0  0  0  0  0  0  0  0
  149.3028  123.6853  150.0112 H   0  0  0  0  0  0  0  0  0  0  0  0
  148.2660  122.9616  151.2403 H   0  0  0  0  0  0  0  0  0  0  0  0
  1  2  1  0  0  0  0
  1 21  1  0  0  0  0
  1 22  1  0  0  0  0
  1 23  1  0  0  0  0
  2 19  2  0  0  0  0
  2  3  1  0  0  0  0
  3  4  2  0  0  0  0
  4  5  1  0  0  0  0
  4 18  1  0  0  0  0
  5  6  1  0  0  0  0
  5 24  1  0  0  0  0
  6  7  2  0  0  0  0
  6  8  1  0  0  0  0
  8  9  1  0  0  0  0
  8 25  1  0  0  0  0
  9 15  1  0  0  0  0
  9 10  1  0  0  0  0
  9 26  1  0  0  0  0
 10 14  1  0  0  0  0
 10 11  1  0  0  0  0
 10 27  1  0  0  0  0
 11 12  1  0  0  0  0
 11 28  1  0  0  0  0
 11 29  1  0  0  0  0
 12 13  1  0  0  0  0
 12 30  1  0  0  0  0
 12 31  1  0  0  0  0
 13 14  1  0  0  0  0
 13 15  1  0  0  0  0
 13 32  1  0  0  0  0
 14 33  1  0  0  0  0
 14 34  1  0  0  0  0
 15 16  1  0  0  0  0
 15 35  1  0  0  0  0
 16 17  1  0  0  0  0
 16 36  1  0  0  0  0
 16 37  1  0  0  0  0
 17 38  1  0  0  0  0
 18 19  1  0  0  0  0
 19 20  1  0  0  0  0
 20 39  1  0  0  0  0
 20 40  1  0  0  0  0
 20 41  1  0  0  0  0
M  END
> <s_m_source_file>
AV-unprocessed.smi

> <i_m_source_file_index>
794

> <i_lp_mmshare_version>
43012

> <i_f3d_flags>
0

> <s_epik_input>
W0NIM11jMW5jKHNjMVtDSDNdKVtOSF1DKD1PKVtOSF1bQ0BIXShbQ0BASF0yMylbQ0BIXShbQ0gyXVtPSF0pW0NAQEhdKFtDSDJdMylbQ0gyXVtDSDJdMg==

> <s_epik_cmdline>
J2VwaWtfcHl0aG9uJywgJy1waCcsICc3LjAnLCAnLXRuJywgJzgnLCAnLW1hJywgJzIwMCcsICctbWV0YWxfYmluZGluZycsICctaW1hZScsICc8aW5maWxlLm1hZT4nLCAnLW9tYWUnLCAnPG91dGZpbGUubWFlPic=

> <r_lp_tautomer_probability>
0.999

> <r_epik_Ionization_Penalty>
0.000713029

> <r_epik_Ionization_Penalty_Charging>
0

> <r_epik_Ionization_Penalty_Neutral>
0.000713029

> <r_epik_State_Penalty>
0.000177984

> <r_epik_Charging_Adjusted_Penalty>
0.000177984

> <i_epik_Tot_Q>
0

> <i_epik_Tot_abs_Q>
0

> <r_epik_Metal_State_Penalty>
-0

> <b_epik_Metal_Only>
0

> <s_lp_Force_Field>
OPLS_2005

> <r_lp_Energy>
47.5891

> <b_lp_Chiralities_Consistent>
1

> <s_lp_Variant>
AV-unprocessed.smi:794-1

> <Gold.Version>
5.8.1

> <Gold.Id.Protein>
6NUR|6NUR_protein|mol2

> <Gold.PLP.Fitness>
43.9986

> <Gold.PLP.PLP>
-37.4734

> <Gold.PLP.part.hbond>
-3.0000

> <Gold.PLP.part.metal>
0.0000

> <Gold.PLP.part.buried>
-4.4024

> <Gold.PLP.part.nonpolar>
-30.2342

> <Gold.PLP.part.repulsive>
0.2928

> <Gold.PLP.ligand.clash>
0.0000

> <Gold.PLP.ligand.torsion>
0.7887

> <Gold.PLP.Chemscore.Hbond>
2.6940

> <Gold.PLP.Chemscore.CHOScore>
0.0000

> <Gold.PLP.Chemscore.Metal>
0.0000

> <Gold.Chemscore.Hbonds>
donor molecule, donor type, donor heavy atom, donor atom, acceptor molecule, acceptor atom, score
      L1  H     5    24       P1 10747  0.75
      L1  H     8    25       P1 10747  1.00
      L1  H    17    38       P1  7948  0.94

> <Gold.PLP.Chemscore.Internal.Correction>
0.0206

> <Gold.Rescore>
     Score         DG    S(hbond)    S(metal)    S(lipo)     H(rot)  DE(clash)    DE(int)     intcor
     16.53     -17.35       2.23        0.00      76.71       1.78       0.08       0.74       ----

> <Gold.Chemscore.Fitness>
16.5333

> <Gold.Chemscore.DG>
-17.3534

> <Gold.Chemscore.ZeroCoef>
-5.4800

> <Gold.Chemscore.Hbond>
2.2320

> <Gold.Chemscore.Metal>
0.0000

> <Gold.Chemscore.Lipo>
76.7076

> <Gold.Chemscore.Internal_Hbond>
0.0000

> <Gold.Chemscore.DEClash>
0.0844

> <Gold.Chemscore.DEInternal>
0.7357

> <Gold.Chemscore.Rot>
1.7798

> <Gold.Chemscore.Internal.Correction>
   9.000000E+99

> <Gold.Chemscore.Hbonds>
donor molecule, donor type, donor heavy atom, donor atom, acceptor molecule, acceptor atom, score
      L1  H     5    24       P1 10747  0.09
      L1  H     8    25       P1 10747  0.97
      L1  H    17    38       P1  7948  0.92

> <Gold.Chemscore.Hbond.Weighted>
-7.4548

> <Gold.Chemscore.Metal.Weighted>
-0.0000

> <Gold.Chemscore.Lipo.Weighted>
-8.9748

> <Gold.Chemscore.Internal_Hbond.Weighted>
0.0000

> <Gold.Chemscore.DEClash.Weighted>
0.0844

> <Gold.Chemscore.DEInternal.Weighted>
0.7357

> <Gold.Chemscore.Rot.Weighted>
4.5562

> <Gold.Chemscore.Internal.Correction.Weighted>
   9.000000E+99

> <Gold.Protein.RotatedTorsions>
[ 6907 6896 6895 6894 ] final   95.74 input  -60.11 | X-H torsion
[ 7974 7965 7964 7962 ] final   25.63 input  175.53 | X-H torsion
[ 8008 7997 7996 7995 ] final  179.46 input   59.86 | X-H torsion
[ 10167 10162 10161 10158 ] final -104.19 input  -65.29 | X-H torsion
[ 10718 10713 10712 10709 ] final    9.75 input   66.30 | X-H torsion
[ 10763 10752 10751 10750 ] final  113.51 input  -60.55 | X-H torsion
[ 11005 11000 10999 10996 ] final  -52.77 input  -57.11 | X-H torsion

> <Gold.Protein.ActiveResidues>
 VAL166  LYS551  ARG553  GLY616  TRP617  ASP618  TYR619  PRO620  LYS621  CYS622 
 ASP623  PHE694  ASN695  SER759  ASP760  ASP761  ALA762  ILE779  LEU786  VAL792 
 PHE793  MET794  SER795  GLU796  ALA797  LYS798  CYS799  TRP800  GLU811  SER814 

> <Gold.Protein.RotatedAtoms>
  152.5441  134.0994  159.8310 H   0  0  0  0  0  0  0  0  0  0  0  0  # atno 6907 bound_to 6896
  151.1073  133.5191  159.2614 H   0  0  0  0  0  0  0  0  0  0  0  0  # atno 6908 bound_to 6896
  151.1923  135.0417  159.8892 H   0  0  0  0  0  0  0  0  0  0  0  0  # atno 6909 bound_to 6896
  146.1879  139.7439  142.8853 H   0  0  0  0  0  0  0  0  0  0  0  0  # atno 7974 bound_to 7965
  156.0432  140.1308  157.0133 H   0  0  0  0  0  0  0  0  0  0  0  0  # atno 8008 bound_to 7997
  154.4400  140.1026  156.6338 H   0  0  0  0  0  0  0  0  0  0  0  0  # atno 8009 bound_to 7997
  155.5636  140.3465  155.4499 H   0  0  0  0  0  0  0  0  0  0  0  0  # atno 8010 bound_to 7997
  140.2120  143.3740  152.1043 H   0  0  0  0  0  0  0  0  0  0  0  0  # atno 10167 bound_to 10162
  156.9708  130.5968  149.5669 H   0  0  0  0  0  0  0  0  0  0  0  0  # atno 10718 bound_to 10713
  153.4936  135.3653  155.2504 H   0  0  0  0  0  0  0  0  0  0  0  0  # atno 10763 bound_to 10752
  154.8751  135.3983  154.3560 H   0  0  0  0  0  0  0  0  0  0  0  0  # atno 10764 bound_to 10752
  153.4184  135.7079  153.6377 H   0  0  0  0  0  0  0  0  0  0  0  0  # atno 10765 bound_to 10752
  141.0941  133.6627  156.4073 H   0  0  0  0  0  0  0  0  0  0  0  0  # atno 11005 bound_to 11000
  145.3883  141.0368  143.3138 LP  0  0  0  0  0  0  0  0  0  0  0  0  # atno 17320 bound_to 7965
  144.8431  139.5440  143.6891 LP  0  0  0  0  0  0  0  0  0  0  0  0  # atno 17321 bound_to 7965
  139.5176  144.6994  151.5536 LP  0  0  0  0  0  0  0  0  0  0  0  0  # atno 17342 bound_to 10162
  140.6317  143.9064  150.6611 LP  0  0  0  0  0  0  0  0  0  0  0  0  # atno 17343 bound_to 10162
  156.0283  130.5376  150.8467 LP  0  0  0  0  0  0  0  0  0  0  0  0  # atno 17370 bound_to 10713
  157.5593  131.0945  150.9582 LP  0  0  0  0  0  0  0  0  0  0  0  0  # atno 17371 bound_to 10713
  140.5181  134.6330  157.5308 LP  0  0  0  0  0  0  0  0  0  0  0  0  # atno 17394 bound_to 11000
  139.9774  134.7193  155.9924 LP  0  0  0  0  0  0  0  0  0  0  0  0  # atno 17395 bound_to 11000

$$$$
