AV-unprocessed.smi:1911|AV-procd|sdf|7739|dock5
  -GOLD-   22720 9483D 1   1.00000     0.00000
 Structure written by MMmdl.
 52 54  0  0  0  0  0  0  0  0  2 V2000
  150.9690  128.4722  154.9569 N   0  0  0  0  0  0  0  0  0  0  0  0
  150.1991  129.3164  155.6474 C   0  0  0  0  0  0  0  0  0  0  0  0
  150.3554  129.5101  156.8518 O   0  0  0  0  0  0  0  0  0  0  0  0
  149.1117  130.0589  154.8631 C   0  0  0  0  0  0  0  0  0  0  0  0
  149.3673  131.5185  154.7504 N   0  3  2  0  0  0  0  0  0  0  0  0
  149.5141  132.1892  156.0705 C   0  0  0  0  0  0  0  0  0  0  0  0
  149.9086  133.6661  155.9022 C   0  0  0  0  0  0  0  0  0  0  0  0
  148.8885  134.4157  155.0307 C   0  0  1  0  0  0  0  0  0  0  0  0
  149.3233  135.7947  154.8273 N   0  0  0  0  0  0  0  0  0  0  0  0
  149.7048  136.6329  155.8021 C   0  0  0  0  0  0  0  0  0  0  0  0
  149.7142  136.3238  156.9932 O   0  0  0  0  0  0  0  0  0  0  0  0
  150.0458  137.8345  155.3057 N   0  0  0  0  0  0  0  0  0  0  0  0
  150.5078  138.9819  156.0057 C   0  0  0  0  0  0  0  0  0  0  0  0
  150.5644  140.2046  155.3088 C   0  0  0  0  0  0  0  0  0  0  0  0
  151.0319  141.3556  155.9708 C   0  0  0  0  0  0  0  0  0  0  0  0
  151.4403  141.2526  157.3218 C   0  0  0  0  0  0  0  0  0  0  0  0
  151.9192  142.3750  158.0266 N   0  0  0  0  0  0  0  0  0  0  0  0
  151.6771  143.7365  157.5782 C   0  0  0  0  0  0  0  0  0  0  0  0
  152.2504  144.6182  158.6875 C   0  0  0  0  0  0  0  0  0  0  0  0
  152.0361  143.7785  159.9466 C   0  0  0  0  0  0  0  0  0  0  0  0
  152.1849  142.3329  159.4593 C   0  0  0  0  0  0  0  0  0  0  0  0
  151.4051  140.0735  157.9865 N   0  0  0  0  0  0  0  0  0  0  0  0
  150.9549  138.9727  157.3484 C   0  0  0  0  0  0  0  0  0  0  0  0
  148.7272  133.6829  153.6860 C   0  0  0  0  0  0  0  0  0  0  0  0
  148.3617  132.2043  153.8991 C   0  0  0  0  0  0  0  0  0  0  0  0
  151.7028  127.9633  155.4295 H   0  0  0  0  0  0  0  0  0  0  0  0
  150.8231  128.3453  153.9655 H   0  0  0  0  0  0  0  0  0  0  0  0
  149.0881  129.6132  153.8676 H   0  0  0  0  0  0  0  0  0  0  0  0
  148.1304  129.8837  155.3079 H   0  0  0  0  0  0  0  0  0  0  0  0
  148.5772  132.1134  156.6246 H   0  0  0  0  0  0  0  0  0  0  0  0
  150.2737  131.6838  156.6675 H   0  0  0  0  0  0  0  0  0  0  0  0
  149.9845  134.1404  156.8815 H   0  0  0  0  0  0  0  0  0  0  0  0
  150.9007  133.7262  155.4514 H   0  0  0  0  0  0  0  0  0  0  0  0
  147.9295  134.4191  155.5531 H   0  0  0  0  0  0  0  0  0  0  0  0
  149.3415  136.1333  153.8761 H   0  0  0  0  0  0  0  0  0  0  0  0
  149.9096  137.9612  154.3135 H   0  0  0  0  0  0  0  0  0  0  0  0
  150.2492  140.2654  154.2773 H   0  0  0  0  0  0  0  0  0  0  0  0
  151.0708  142.2919  155.4347 H   0  0  0  0  0  0  0  0  0  0  0  0
  152.1558  143.9389  156.6196 H   0  0  0  0  0  0  0  0  0  0  0  0
  150.6035  143.8984  157.4731 H   0  0  0  0  0  0  0  0  0  0  0  0
  153.3186  144.7692  158.5244 H   0  0  0  0  0  0  0  0  0  0  0  0
  151.7745  145.5979  158.7399 H   0  0  0  0  0  0  0  0  0  0  0  0
  152.7303  144.0283  160.7494 H   0  0  0  0  0  0  0  0  0  0  0  0
  151.0227  143.9352  160.3195 H   0  0  0  0  0  0  0  0  0  0  0  0
  151.5005  141.6705  159.9907 H   0  0  0  0  0  0  0  0  0  0  0  0
  153.2019  141.9727  159.6179 H   0  0  0  0  0  0  0  0  0  0  0  0
  150.9804  138.0701  157.9383 H   0  0  0  0  0  0  0  0  0  0  0  0
  147.9573  134.1645  153.0821 H   0  0  0  0  0  0  0  0  0  0  0  0
  149.6541  133.7487  153.1139 H   0  0  0  0  0  0  0  0  0  0  0  0
  148.3005  131.7094  152.9291 H   0  0  0  0  0  0  0  0  0  0  0  0
  147.3762  132.1227  154.3604 H   0  0  0  0  0  0  0  0  0  0  0  0
  150.2531  131.6099  154.2730 H   0  0  0  0  0  0  0  0  0  0  0  0
  1  2  1  0  0  0  0
  1 26  1  0  0  0  0
  1 27  1  0  0  0  0
  2  3  2  0  0  0  0
  2  4  1  0  0  0  0
  4  5  1  0  0  0  0
  4 28  1  0  0  0  0
  4 29  1  0  0  0  0
  5 25  1  0  0  0  0
  5  6  1  0  0  0  0
  5 52  1  0  0  0  0
  6  7  1  0  0  0  0
  6 30  1  0  0  0  0
  6 31  1  0  0  0  0
  7  8  1  0  0  0  0
  7 32  1  0  0  0  0
  7 33  1  0  0  0  0
  8  9  1  0  0  0  0
  8 24  1  0  0  0  0
  8 34  1  0  0  0  0
  9 10  1  0  0  0  0
  9 35  1  0  0  0  0
 10 11  2  0  0  0  0
 10 12  1  0  0  0  0
 12 13  1  0  0  0  0
 12 36  1  0  0  0  0
 13 23  1  0  0  0  0
 13 14  2  0  0  0  0
 14 15  1  0  0  0  0
 14 37  1  0  0  0  0
 15 16  2  0  0  0  0
 15 38  1  0  0  0  0
 16 17  1  0  0  0  0
 16 22  1  0  0  0  0
 17 21  1  0  0  0  0
 17 18  1  0  0  0  0
 18 19  1  0  0  0  0
 18 39  1  0  0  0  0
 18 40  1  0  0  0  0
 19 20  1  0  0  0  0
 19 41  1  0  0  0  0
 19 42  1  0  0  0  0
 20 21  1  0  0  0  0
 20 43  1  0  0  0  0
 20 44  1  0  0  0  0
 21 45  1  0  0  0  0
 21 46  1  0  0  0  0
 22 23  2  0  0  0  0
 23 47  1  0  0  0  0
 24 25  1  0  0  0  0
 24 48  1  0  0  0  0
 24 49  1  0  0  0  0
 25 50  1  0  0  0  0
 25 51  1  0  0  0  0
M  CHG  1   5   1
M  END
> <s_m_source_file>
AV-unprocessed.smi

> <i_m_source_file_index>
1911

> <i_lp_mmshare_version>
43012

> <i_f3d_flags>
0

> <s_epik_input>
W05IMl1DKD1PKVtDSDJdTjFbQ0gyXVtDSDJdW0NIXShbQ0gyXVtDSDJdMSlbTkhdQyg9TylbTkhdYzJbY0hdW2NIXWMobltjSF0yKU4zW0NIMl1bQ0gyXVtDSDJdW0NIMl0z

> <s_epik_cmdline>
J2VwaWtfcHl0aG9uJywgJy1waCcsICc3LjAnLCAnLXRuJywgJzgnLCAnLW1hJywgJzIwMCcsICctbWV0YWxfYmluZGluZycsICctaW1hZScsICc8aW5maWxlLm1hZT4nLCAnLW9tYWUnLCAnPG91dGZpbGUubWFlPic=

> <r_lp_tautomer_probability>
1

> <r_epik_Ionization_Penalty>
0.91661

> <r_epik_Ionization_Penalty_Charging>
0.838844

> <r_epik_Ionization_Penalty_Neutral>
0.0777665

> <r_epik_State_Penalty>
0.927046

> <r_epik_Charging_Adjusted_Penalty>
1.76589

> <i_epik_Tot_Q>
1

> <i_epik_Tot_abs_Q>
1

> <r_epik_Metal_State_Penalty>
0.950553

> <b_epik_Metal_Only>
0

> <s_lp_Force_Field>
OPLS_2005

> <r_lp_Energy>
39.0232

> <b_lp_Chiralities_Consistent>
1

> <s_lp_Variant>
AV-unprocessed.smi:1911-2

> <Gold.Version>
5.8.1

> <Gold.Id.Protein>
6NUR|6NUR_protein|mol2

> <Gold.PLP.Fitness>
50.1404

> <Gold.PLP.PLP>
-44.4918

> <Gold.PLP.part.hbond>
-2.0000

> <Gold.PLP.part.metal>
0.0000

> <Gold.PLP.part.buried>
-3.5165

> <Gold.PLP.part.nonpolar>
-37.8852

> <Gold.PLP.part.repulsive>
0.1423

> <Gold.PLP.ligand.clash>
0.0000

> <Gold.PLP.ligand.torsion>
0.2667

> <Gold.PLP.Chemscore.Hbond>
2.0000

> <Gold.PLP.Chemscore.CHOScore>
0.0000

> <Gold.PLP.Chemscore.Metal>
0.0000

> <Gold.Chemscore.Hbonds>
donor molecule, donor type, donor heavy atom, donor atom, acceptor molecule, acceptor atom, score
      L1  H     9    35       P1  7948  1.00

> <Gold.PLP.Chemscore.Internal.Correction>
0.1821

> <Gold.Rescore>
     Score         DG    S(hbond)    S(metal)    S(lipo)     H(rot)  DE(clash)    DE(int)     intcor
     14.23     -18.46       1.77        0.00     102.24       1.91       0.11       4.11       ----

> <Gold.Chemscore.Fitness>
14.2288

> <Gold.Chemscore.DG>
-18.4567

> <Gold.Chemscore.ZeroCoef>
-5.4800

> <Gold.Chemscore.Hbond>
1.7657

> <Gold.Chemscore.Metal>
0.0000

> <Gold.Chemscore.Lipo>
102.2416

> <Gold.Chemscore.Internal_Hbond>
0.0000

> <Gold.Chemscore.DEClash>
0.1132

> <Gold.Chemscore.DEInternal>
4.1148

> <Gold.Chemscore.Rot>
1.9074

> <Gold.Chemscore.Internal.Correction>
   9.000000E+99

> <Gold.Chemscore.Hbonds>
donor molecule, donor type, donor heavy atom, donor atom, acceptor molecule, acceptor atom, score
      L1  H     9    35       P1  7948  0.76

> <Gold.Chemscore.Hbond.Weighted>
-5.8974

> <Gold.Chemscore.Metal.Weighted>
-0.0000

> <Gold.Chemscore.Lipo.Weighted>
-11.9623

> <Gold.Chemscore.Internal_Hbond.Weighted>
0.0000

> <Gold.Chemscore.DEClash.Weighted>
0.1132

> <Gold.Chemscore.DEInternal.Weighted>
4.1148

> <Gold.Chemscore.Rot.Weighted>
4.8829

> <Gold.Chemscore.Internal.Correction.Weighted>
   9.000000E+99

> <Gold.Protein.RotatedTorsions>
[ 6907 6896 6895 6894 ] final   34.06 input  -60.11 | X-H torsion
[ 7974 7965 7964 7962 ] final  157.77 input  175.53 | X-H torsion
[ 8008 7997 7996 7995 ] final  176.81 input   59.86 | X-H torsion
[ 10167 10162 10161 10158 ] final   -1.23 input  -65.29 | X-H torsion
[ 10718 10713 10712 10709 ] final  106.84 input   66.30 | X-H torsion
[ 10763 10752 10751 10750 ] final  -27.20 input  -60.55 | X-H torsion
[ 11005 11000 10999 10996 ] final    8.02 input  -57.11 | X-H torsion

> <Gold.Protein.ActiveResidues>
 VAL166  LYS551  ARG553  GLY616  TRP617  ASP618  TYR619  PRO620  LYS621  CYS622 
 ASP623  PHE694  ASN695  SER759  ASP760  ASP761  ALA762  ILE779  LEU786  VAL792 
 PHE793  MET794  SER795  GLU796  ALA797  LYS798  CYS799  TRP800  GLU811  SER814 

> <Gold.Protein.RotatedAtoms>
  152.0971  134.9367  160.0570 H   0  0  0  0  0  0  0  0  0  0  0  0  # atno 6907 bound_to 6896
  152.0596  133.4051  159.4420 H   0  0  0  0  0  0  0  0  0  0  0  0  # atno 6908 bound_to 6896
  150.6838  134.3136  159.4800 H   0  0  0  0  0  0  0  0  0  0  0  0  # atno 6909 bound_to 6896
  144.7884  139.7386  143.6231 H   0  0  0  0  0  0  0  0  0  0  0  0  # atno 7974 bound_to 7965
  156.0724  140.1374  156.9812 H   0  0  0  0  0  0  0  0  0  0  0  0  # atno 8008 bound_to 7997
  154.4539  140.0969  156.6751 H   0  0  0  0  0  0  0  0  0  0  0  0  # atno 8009 bound_to 7997
  155.5207  140.3456  155.4408 H   0  0  0  0  0  0  0  0  0  0  0  0  # atno 8010 bound_to 7997
  140.6801  143.6800  150.8113 H   0  0  0  0  0  0  0  0  0  0  0  0  # atno 10167 bound_to 10162
  157.6652  131.0859  150.6067 H   0  0  0  0  0  0  0  0  0  0  0  0  # atno 10718 bound_to 10713
  153.7283  135.6940  153.4996 H   0  0  0  0  0  0  0  0  0  0  0  0  # atno 10763 bound_to 10752
  153.2154  135.4388  155.0427 H   0  0  0  0  0  0  0  0  0  0  0  0  # atno 10764 bound_to 10752
  154.8262  135.3447  154.6813 H   0  0  0  0  0  0  0  0  0  0  0  0  # atno 10765 bound_to 10752
  140.5417  134.0368  155.7906 H   0  0  0  0  0  0  0  0  0  0  0  0  # atno 11005 bound_to 11000
  146.2126  139.5493  142.9671 LP  0  0  0  0  0  0  0  0  0  0  0  0  # atno 17320 bound_to 7965
  145.5859  141.0376  143.2096 LP  0  0  0  0  0  0  0  0  0  0  0  0  # atno 17321 bound_to 7965
  140.0499  143.5260  152.2678 LP  0  0  0  0  0  0  0  0  0  0  0  0  # atno 17342 bound_to 10162
  139.6118  144.7610  151.2935 LP  0  0  0  0  0  0  0  0  0  0  0  0  # atno 17343 bound_to 10162
  156.6368  130.4447  149.5767 LP  0  0  0  0  0  0  0  0  0  0  0  0  # atno 17370 bound_to 10713
  156.2240  130.6754  151.1397 LP  0  0  0  0  0  0  0  0  0  0  0  0  # atno 17371 bound_to 10713
  141.1223  133.9441  157.2705 LP  0  0  0  0  0  0  0  0  0  0  0  0  # atno 17394 bound_to 11000
  139.9500  135.0177  156.8967 LP  0  0  0  0  0  0  0  0  0  0  0  0  # atno 17395 bound_to 11000

$$$$
