AV-unprocessed.smi:613|AV-procd|sdf|3064|dock10
  -GOLD-   2262023593D 1   1.00000     0.00000
 Structure written by MMmdl.
 38 39  0  0  0  0  0  0  0  0  1 V2000
  149.7896  142.7600  158.2838 C   0  0  0  0  0  0  0  0  0  0  0  0
  151.0011  142.3081  157.6092 N   0  0  0  0  0  0  0  0  0  0  0  0
  150.9460  142.0604  156.1673 C   0  0  0  0  0  0  0  0  0  0  0  0
  149.7984  141.1141  155.7666 C   0  0  2  0  0  0  0  0  0  0  0  0
  150.1565  139.6391  156.0362 C   0  0  0  0  0  0  0  0  0  0  0  0
  149.1054  138.7259  155.5939 N   0  0  0  0  0  0  0  0  0  0  0  0
  149.4386  137.3298  155.9055 C   0  0  0  0  0  0  0  0  0  0  0  0
  150.7248  136.8199  155.2434 C   0  0  0  0  0  0  0  0  0  0  0  0
  150.7080  136.6614  153.9177 N   0  0  0  0  0  0  0  0  0  0  0  0
  151.7186  136.5682  155.9216 O   0  0  0  0  0  0  0  0  0  0  0  0
  148.8049  138.9678  154.1803 C   0  0  0  0  0  0  0  0  0  0  0  0
  148.4753  140.4456  153.9112 C   0  0  0  0  0  0  0  0  0  0  0  0
  149.5438  141.2648  154.3719 O   0  0  0  0  0  0  0  0  0  0  0  0
  152.0581  141.7723  158.3842 C   0  0  0  0  0  0  0  0  0  0  0  0
  152.5335  142.4291  159.5459 C   0  0  0  0  0  0  0  0  0  0  0  0
  153.5867  141.8334  160.2608 C   0  0  0  0  0  0  0  0  0  0  0  0
  154.0979  140.6209  159.7685 C   0  0  0  0  0  0  0  0  0  0  0  0
  153.6162  140.0305  158.6539 N   0  0  0  0  0  0  0  0  0  0  0  0
  152.6147  140.6013  157.9762 N   0  0  0  0  0  0  0  0  0  0  0  0
  149.9995  143.6234  158.9156 H   0  0  0  0  0  0  0  0  0  0  0  0
  149.3703  141.9645  158.9009 H   0  0  0  0  0  0  0  0  0  0  0  0
  149.0281  143.0576  157.5623 H   0  0  0  0  0  0  0  0  0  0  0  0
  150.8344  143.0117  155.6460 H   0  0  0  0  0  0  0  0  0  0  0  0
  151.9012  141.6594  155.8270 H   0  0  0  0  0  0  0  0  0  0  0  0
  148.8984  141.3699  156.3288 H   0  0  0  0  0  0  0  0  0  0  0  0
  151.0952  139.3954  155.5351 H   0  0  0  0  0  0  0  0  0  0  0  0
  150.3330  139.5065  157.1047 H   0  0  0  0  0  0  0  0  0  0  0  0
  149.5076  137.1974  156.9871 H   0  0  0  0  0  0  0  0  0  0  0  0
  148.6297  136.6784  155.5718 H   0  0  0  0  0  0  0  0  0  0  0  0
  151.5324  136.3292  153.4389 H   0  0  0  0  0  0  0  0  0  0  0  0
  149.8689  136.8765  153.3987 H   0  0  0  0  0  0  0  0  0  0  0  0
  149.6550  138.6703  153.5642 H   0  0  0  0  0  0  0  0  0  0  0  0
  147.9574  138.3651  153.8534 H   0  0  0  0  0  0  0  0  0  0  0  0
  148.3312  140.6139  152.8439 H   0  0  0  0  0  0  0  0  0  0  0  0
  147.5472  140.7320  154.4085 H   0  0  0  0  0  0  0  0  0  0  0  0
  152.1198  143.3626  159.8955 H   0  0  0  0  0  0  0  0  0  0  0  0
  153.9880  142.2899  161.1533 H   0  0  0  0  0  0  0  0  0  0  0  0
  154.9073  140.1159  160.2747 H   0  0  0  0  0  0  0  0  0  0  0  0
  1  2  1  0  0  0  0
  1 20  1  0  0  0  0
  1 21  1  0  0  0  0
  1 22  1  0  0  0  0
  2  3  1  0  0  0  0
  2 14  1  0  0  0  0
  3  4  1  0  0  0  0
  3 23  1  0  0  0  0
  3 24  1  0  0  0  0
  4 13  1  0  0  0  0
  4  5  1  0  0  0  0
  4 25  1  0  0  0  0
  5  6  1  0  0  0  0
  5 26  1  0  0  0  0
  5 27  1  0  0  0  0
  6  7  1  0  0  0  0
  6 11  1  0  0  0  0
  7  8  1  0  0  0  0
  7 28  1  0  0  0  0
  7 29  1  0  0  0  0
  8  9  1  0  0  0  0
  8 10  2  0  0  0  0
  9 30  1  0  0  0  0
  9 31  1  0  0  0  0
 11 12  1  0  0  0  0
 11 32  1  0  0  0  0
 11 33  1  0  0  0  0
 12 13  1  0  0  0  0
 12 34  1  0  0  0  0
 12 35  1  0  0  0  0
 14 19  1  0  0  0  0
 14 15  2  0  0  0  0
 15 16  1  0  0  0  0
 15 36  1  0  0  0  0
 16 17  2  0  0  0  0
 16 37  1  0  0  0  0
 17 18  1  0  0  0  0
 17 38  1  0  0  0  0
 18 19  2  0  0  0  0
M  END
> <s_m_source_file>
AV-unprocessed.smi

> <i_m_source_file_index>
613

> <i_lp_mmshare_version>
43012

> <i_f3d_flags>
0

> <s_epik_input>
bjFuW2NIXVtjSF1bY0hdYzFOKFtDSDNdKVtDSDJdW0NAQEhdMltDSDJdTihbQ0gyXVtDSDJdTzIpW0NIMl1DKD1PKVtOSDJd

> <s_epik_cmdline>
J2VwaWtfcHl0aG9uJywgJy1waCcsICc3LjAnLCAnLXRuJywgJzgnLCAnLW1hJywgJzIwMCcsICctbWV0YWxfYmluZGluZycsICctaW1hZScsICc8aW5maWxlLm1hZT4nLCAnLW9tYWUnLCAnPG91dGZpbGUubWFlPic=

> <r_lp_tautomer_probability>
1

> <r_epik_Ionization_Penalty>
0.0398875

> <r_epik_Ionization_Penalty_Charging>
0

> <r_epik_Ionization_Penalty_Neutral>
0.0398875

> <r_epik_State_Penalty>
0.0543012

> <r_epik_Charging_Adjusted_Penalty>
0.0543012

> <i_epik_Tot_Q>
0

> <i_epik_Tot_abs_Q>
0

> <r_epik_Metal_State_Penalty>
0.0489294

> <b_epik_Metal_Only>
0

> <s_lp_Force_Field>
OPLS_2005

> <r_lp_Energy>
27.5025

> <b_lp_Chiralities_Consistent>
1

> <s_lp_Variant>
AV-unprocessed.smi:613-1

> <Gold.Version>
5.8.1

> <Gold.Id.Protein>
6NUR|6NUR_protein|mol2

> <Gold.PLP.Fitness>
38.3566

> <Gold.PLP.PLP>
-30.7407

> <Gold.PLP.part.hbond>
-6.5207

> <Gold.PLP.part.metal>
0.0000

> <Gold.PLP.part.buried>
0.4634

> <Gold.PLP.part.nonpolar>
-23.9034

> <Gold.PLP.part.repulsive>
0.3052

> <Gold.PLP.ligand.clash>
0.0000

> <Gold.PLP.ligand.torsion>
0.9263

> <Gold.PLP.Chemscore.Hbond>
3.0664

> <Gold.PLP.Chemscore.CHOScore>
0.0000

> <Gold.PLP.Chemscore.Metal>
0.0000

> <Gold.Chemscore.Hbonds>
donor molecule, donor type, donor heavy atom, donor atom, acceptor molecule, acceptor atom, score
      L1  H     9    30       P1  7949  0.24
      L1  H     9    31       P1  7948  0.74
      P1  H  7989  7998       L1    13  0.16
      P1  H  7997  8009       L1    18  0.77
      P1  H  8011  8017       L1    13  0.10
      P1  H 10752 10763       L1    10  1.00

> <Gold.PLP.Chemscore.Internal.Correction>
0.2694

> <Gold.Rescore>
     Score         DG    S(hbond)    S(metal)    S(lipo)     H(rot)  DE(clash)    DE(int)     intcor
     10.49     -13.55       1.72        0.00      67.77       2.18       1.07       1.99       ----

> <Gold.Chemscore.Fitness>
10.4891

> <Gold.Chemscore.DG>
-13.5522

> <Gold.Chemscore.ZeroCoef>
-5.4800

> <Gold.Chemscore.Hbond>
1.7154

> <Gold.Chemscore.Metal>
0.0000

> <Gold.Chemscore.Lipo>
67.7734

> <Gold.Chemscore.Internal_Hbond>
0.0000

> <Gold.Chemscore.DEClash>
1.0739

> <Gold.Chemscore.DEInternal>
1.9893

> <Gold.Chemscore.Rot>
2.1823

> <Gold.Chemscore.Internal.Correction>
   9.000000E+99

> <Gold.Chemscore.Hbonds>
donor molecule, donor type, donor heavy atom, donor atom, acceptor molecule, acceptor atom, score
      L1  H     9    30       P1  7949  0.20
      L1  H     9    31       P1  7948  0.26
      P1  H  7989  7998       L1    13  0.05
      P1  H  7997  8009       L1    18  0.16
      P1  H  8011  8017       L1    13  0.01
      P1  H 10752 10763       L1    10  0.77

> <Gold.Chemscore.Hbond.Weighted>
-5.7295

> <Gold.Chemscore.Metal.Weighted>
-0.0000

> <Gold.Chemscore.Lipo.Weighted>
-7.9295

> <Gold.Chemscore.Internal_Hbond.Weighted>
0.0000

> <Gold.Chemscore.DEClash.Weighted>
1.0739

> <Gold.Chemscore.DEInternal.Weighted>
1.9893

> <Gold.Chemscore.Rot.Weighted>
5.5867

> <Gold.Chemscore.Internal.Correction.Weighted>
   9.000000E+99

> <Gold.Protein.RotatedTorsions>
[ 6907 6896 6895 6894 ] final  106.94 input  -60.11 | X-H torsion
[ 7974 7965 7964 7962 ] final  -66.51 input  175.53 | X-H torsion
[ 8008 7997 7996 7995 ] final  121.62 input   59.86 | X-H torsion
[ 10167 10162 10161 10158 ] final  158.24 input  -65.29 | X-H torsion
[ 10718 10713 10712 10709 ] final -169.54 input   66.30 | X-H torsion
[ 10763 10752 10751 10750 ] final   76.93 input  -60.55 | X-H torsion
[ 11005 11000 10999 10996 ] final  133.05 input  -57.11 | X-H torsion

> <Gold.Protein.ActiveResidues>
 VAL166  LYS551  ARG553  GLY616  TRP617  ASP618  TYR619  PRO620  LYS621  CYS622 
 ASP623  PHE694  ASN695  SER759  ASP760  ASP761  ALA762  ILE779  LEU786  VAL792 
 PHE793  MET794  SER795  GLU796  ALA797  LYS798  CYS799  TRP800  GLU811  SER814 

> <Gold.Protein.RotatedAtoms>
  152.5174  133.9307  159.7578 H   0  0  0  0  0  0  0  0  0  0  0  0  # atno 6907 bound_to 6896
  150.9658  133.6388  159.2753 H   0  0  0  0  0  0  0  0  0  0  0  0  # atno 6908 bound_to 6896
  151.3616  135.0910  159.9489 H   0  0  0  0  0  0  0  0  0  0  0  0  # atno 6909 bound_to 6896
  145.7408  140.8954  143.0531 H   0  0  0  0  0  0  0  0  0  0  0  0  # atno 7974 bound_to 7965
  156.2694  140.2804  156.1337 H   0  0  0  0  0  0  0  0  0  0  0  0  # atno 8008 bound_to 7997
  155.1027  140.0390  157.2719 H   0  0  0  0  0  0  0  0  0  0  0  0  # atno 8009 bound_to 7997
  154.6803  140.2607  155.6921 H   0  0  0  0  0  0  0  0  0  0  0  0  # atno 8010 bound_to 7997
  139.4826  144.4842  151.8400 H   0  0  0  0  0  0  0  0  0  0  0  0  # atno 10167 bound_to 10162
  156.7130  130.9241  151.3091 H   0  0  0  0  0  0  0  0  0  0  0  0  # atno 10718 bound_to 10713
  153.0761  135.4933  154.8408 H   0  0  0  0  0  0  0  0  0  0  0  0  # atno 10763 bound_to 10752
  154.7089  135.3016  154.9229 H   0  0  0  0  0  0  0  0  0  0  0  0  # atno 10764 bound_to 10752
  153.9929  135.6776  153.4808 H   0  0  0  0  0  0  0  0  0  0  0  0  # atno 10765 bound_to 10752
  139.9828  134.9542  156.9670 H   0  0  0  0  0  0  0  0  0  0  0  0  # atno 11005 bound_to 11000
  144.6871  139.9458  143.7476 LP  0  0  0  0  0  0  0  0  0  0  0  0  # atno 17320 bound_to 7965
  146.0449  139.3456  143.0674 LP  0  0  0  0  0  0  0  0  0  0  0  0  # atno 17321 bound_to 7965
  140.4321  144.2101  150.5888 LP  0  0  0  0  0  0  0  0  0  0  0  0  # atno 17342 bound_to 10162
  140.4769  143.2393  151.9011 LP  0  0  0  0  0  0  0  0  0  0  0  0  # atno 17343 bound_to 10162
  157.6928  130.9251  150.0562 LP  0  0  0  0  0  0  0  0  0  0  0  0  # atno 17370 bound_to 10713
  156.1648  130.3645  149.9248 LP  0  0  0  0  0  0  0  0  0  0  0  0  # atno 17371 bound_to 10713
  140.5062  134.1047  155.7260 LP  0  0  0  0  0  0  0  0  0  0  0  0  # atno 17394 bound_to 11000
  141.1497  133.8990  157.2127 LP  0  0  0  0  0  0  0  0  0  0  0  0  # atno 17395 bound_to 11000

$$$$
