AV-unprocessed.smi:69|AV-procd|sdf|644|dock2
  -GOLD-   2262016533D 1   1.00000     0.00000
 Structure written by MMmdl.
 32 34  0  0  0  0  0  0  0  0  1 V2000
  145.4886  133.4632  153.9850 N   0  0  0  0  0  0  0  0  0  0  0  0
  145.3907  134.7627  153.6727 C   0  0  0  0  0  0  0  0  0  0  0  0
  144.6612  135.1118  152.5866 N   0  0  0  0  0  0  0  0  0  0  0  0
  144.5502  136.4026  152.2541 C   0  0  0  0  0  0  0  0  0  0  0  0
  145.0773  137.4711  152.8596 N   0  0  0  0  0  0  0  0  0  0  0  0
  145.8099  137.1133  153.9546 C   0  0  0  0  0  0  0  0  0  0  0  0
  146.0161  135.7882  154.4256 C   0  0  0  0  0  0  0  0  0  0  0  0
  146.8169  135.8101  155.5597 N   0  0  0  0  0  0  0  0  0  0  0  0
  147.0690  137.0792  155.7430 C   0  0  0  0  0  0  0  0  0  0  0  0
  146.5025  137.9328  154.8184 N   0  0  0  0  0  0  0  0  0  0  0  0
  146.5811  139.4277  154.7280 C   0  0  1  0  0  0  0  0  0  0  0  0
  147.2700  139.9004  155.8474 O   0  0  0  0  0  0  0  0  0  0  0  0
  148.6011  140.2496  155.4829 C   0  0  2  0  0  0  0  0  0  0  0  0
  149.1831  141.2294  156.5125 C   0  0  0  0  0  0  0  0  0  0  0  0
  148.2878  142.3022  156.7130 O   0  0  0  0  0  0  0  0  0  0  0  0
  148.3760  140.8631  154.1012 C   0  0  1  0  0  0  0  0  0  0  0  0
  149.5691  140.9913  153.3500 O   0  0  0  0  0  0  0  0  0  0  0  0
  147.3595  139.9086  153.4787 C   0  0  1  0  0  0  0  0  0  0  0  0
  147.9831  138.8607  152.7499 O   0  0  0  0  0  0  0  0  0  0  0  0
  145.5438  139.7634  154.7591 H   0  0  0  0  0  0  0  0  0  0  0  0
  149.2177  139.3528  155.3945 H   0  0  0  0  0  0  0  0  0  0  0  0
  147.9202  141.8484  154.2107 H   0  0  0  0  0  0  0  0  0  0  0  0
  146.6805  140.4367  152.8084 H   0  0  0  0  0  0  0  0  0  0  0  0
  146.0285  133.1811  154.7905 H   0  0  0  0  0  0  0  0  0  0  0  0
  145.0225  132.7708  153.4167 H   0  0  0  0  0  0  0  0  0  0  0  0
  143.9540  136.6086  151.3774 H   0  0  0  0  0  0  0  0  0  0  0  0
  147.6789  137.4234  156.5653 H   0  0  0  0  0  0  0  0  0  0  0  0
  149.3167  140.7311  157.4731 H   0  0  0  0  0  0  0  0  0  0  0  0
  150.1597  141.6015  156.2011 H   0  0  0  0  0  0  0  0  0  0  0  0
  148.5795  143.0375  156.1961 H   0  0  0  0  0  0  0  0  0  0  0  0
  149.5799  140.3176  152.6875 H   0  0  0  0  0  0  0  0  0  0  0  0
  148.5299  139.2462  152.0822 H   0  0  0  0  0  0  0  0  0  0  0  0
  1  2  1  0  0  0  0
  1 24  1  0  0  0  0
  1 25  1  0  0  0  0
  2  7  1  0  0  0  0
  2  3  2  0  0  0  0
  3  4  1  0  0  0  0
  4  5  2  0  0  0  0
  4 26  1  0  0  0  0
  5  6  1  0  0  0  0
  6 10  1  0  0  0  0
  6  7  2  0  0  0  0
  7  8  1  0  0  0  0
  8  9  2  0  0  0  0
  9 10  1  0  0  0  0
  9 27  1  0  0  0  0
 10 11  1  0  0  0  0
 11 20  1  0  0  0  0
 11 18  1  0  0  0  0
 11 12  1  0  0  0  0
 12 13  1  0  0  0  0
 13 21  1  0  0  0  0
 13 14  1  0  0  0  0
 13 16  1  0  0  0  0
 14 15  1  0  0  0  0
 14 28  1  0  0  0  0
 14 29  1  0  0  0  0
 15 30  1  0  0  0  0
 16 22  1  0  0  0  0
 16 17  1  0  0  0  0
 16 18  1  0  0  0  0
 17 31  1  0  0  0  0
 18 23  1  0  0  0  0
 18 19  1  0  0  0  0
 19 32  1  0  0  0  0
M  END
> <s_m_source_file>
AV-unprocessed.smi

> <i_m_source_file_index>
69

> <i_lp_mmshare_version>
43012

> <i_f3d_flags>
0

> <s_epik_input>
bjFbY0hdbmMoW05IMl0pYyhjMTIpbltjSF1uMltDQEBIXTNPW0NASF0oW0NIMl1bT0hdKVtDQEBIXShbT0hdKVtDQEhdM1tPSF0=

> <s_epik_cmdline>
J2VwaWtfcHl0aG9uJywgJy1waCcsICc3LjAnLCAnLXRuJywgJzgnLCAnLW1hJywgJzIwMCcsICctbWV0YWxfYmluZGluZycsICctaW1hZScsICc8aW5maWxlLm1hZT4nLCAnLW9tYWUnLCAnPG91dGZpbGUubWFlPic=

> <r_lp_tautomer_probability>
1

> <r_epik_Ionization_Penalty>
0.000428445

> <r_epik_Ionization_Penalty_Charging>
0

> <r_epik_Ionization_Penalty_Neutral>
0.000428445

> <r_epik_State_Penalty>
-0

> <r_epik_Charging_Adjusted_Penalty>
0

> <i_epik_Tot_Q>
0

> <i_epik_Tot_abs_Q>
0

> <r_epik_Metal_State_Penalty>
-0

> <b_epik_Metal_Only>
0

> <s_epik_Chemistry_Notes>
This compound contains an acetal/aminal-like group ( X-CH(R)-Y where X, Y are N, S, or O) that may be acid/base labile, releasing an aldehyde.

> <s_lp_Force_Field>
OPLS_2005

> <r_lp_Energy>
41.389

> <b_lp_Chiralities_Consistent>
1

> <s_lp_Variant>
AV-unprocessed.smi:69-2

> <Gold.Version>
5.8.1

> <Gold.Id.Protein>
6NUR|6NUR_protein|mol2

> <Gold.PLP.Fitness>
32.4141

> <Gold.PLP.PLP>
-17.5346

> <Gold.PLP.part.hbond>
-5.4747

> <Gold.PLP.part.metal>
0.0000

> <Gold.PLP.part.buried>
-3.6778

> <Gold.PLP.part.nonpolar>
-8.2776

> <Gold.PLP.part.repulsive>
0.3307

> <Gold.PLP.ligand.clash>
0.0000

> <Gold.PLP.ligand.torsion>
0.0947

> <Gold.PLP.Chemscore.Hbond>
3.9974

> <Gold.PLP.Chemscore.CHOScore>
1.0000

> <Gold.PLP.Chemscore.Metal>
0.0000

> <Gold.Chemscore.Hbonds>
donor molecule, donor type, donor heavy atom, donor atom, acceptor molecule, acceptor atom, score
      L1  H    15    30       P1  8028  1.00
      L1  H    17    31       P1  7957  0.88
      L1  H    19    32       P1  7957  1.00
      P1  H  7989  7998       L1    17  0.10
      P1  H  8011  8017       L1    17  0.95
      L1  C     4    26       P1 10171  1.00

> <Gold.PLP.Chemscore.Internal.Correction>
0.0766

> <Gold.Rescore>
     Score         DG    S(hbond)    S(metal)    S(lipo)     H(rot)  DE(clash)    DE(int)     intcor
      9.09      -9.34       3.40        0.00      24.15       4.03       0.02       0.23       ----

> <Gold.Chemscore.Fitness>
9.0875

> <Gold.Chemscore.DG>
-9.3394

> <Gold.Chemscore.ZeroCoef>
-5.4800

> <Gold.Chemscore.Hbond>
3.3965

> <Gold.Chemscore.Metal>
0.0000

> <Gold.Chemscore.Lipo>
24.1541

> <Gold.Chemscore.Internal_Hbond>
0.0000

> <Gold.Chemscore.DEClash>
0.0174

> <Gold.Chemscore.DEInternal>
0.2345

> <Gold.Chemscore.Rot>
4.0277

> <Gold.Chemscore.Internal.Correction>
   9.000000E+99

> <Gold.Chemscore.Hbonds>
donor molecule, donor type, donor heavy atom, donor atom, acceptor molecule, acceptor atom, score
      L1  H    15    30       P1  8028  0.95
      L1  H    17    31       P1  7957  0.82
      L1  H    19    32       P1  7957  0.99
      P1  H  8011  8017       L1    17  0.21

> <Gold.Chemscore.Hbond.Weighted>
-11.3443

> <Gold.Chemscore.Metal.Weighted>
-0.0000

> <Gold.Chemscore.Lipo.Weighted>
-2.8260

> <Gold.Chemscore.Internal_Hbond.Weighted>
0.0000

> <Gold.Chemscore.DEClash.Weighted>
0.0174

> <Gold.Chemscore.DEInternal.Weighted>
0.2345

> <Gold.Chemscore.Rot.Weighted>
10.3110

> <Gold.Chemscore.Internal.Correction.Weighted>
   9.000000E+99

> <Gold.Protein.RotatedTorsions>
[ 6907 6896 6895 6894 ] final   -5.43 input  -60.11 | X-H torsion
[ 7974 7965 7964 7962 ] final  -10.90 input  175.53 | X-H torsion
[ 8008 7997 7996 7995 ] final  -10.66 input   59.86 | X-H torsion
[ 10167 10162 10161 10158 ] final   91.70 input  -65.29 | X-H torsion
[ 10718 10713 10712 10709 ] final  -66.43 input   66.30 | X-H torsion
[ 10763 10752 10751 10750 ] final  -40.09 input  -60.55 | X-H torsion
[ 11005 11000 10999 10996 ] final    6.24 input  -57.11 | X-H torsion

> <Gold.Protein.ActiveResidues>
 VAL166  LYS551  ARG553  GLY616  TRP617  ASP618  TYR619  PRO620  LYS621  CYS622 
 ASP623  PHE694  ASN695  SER759  ASP760  ASP761  ALA762  ILE779  LEU786  VAL792 
 PHE793  MET794  SER795  GLU796  ALA797  LYS798  CYS799  TRP800  GLU811  SER814 

> <Gold.Protein.RotatedAtoms>
  151.4817  135.1052  159.9779 H   0  0  0  0  0  0  0  0  0  0  0  0  # atno 6907 bound_to 6896
  152.4776  133.8173  159.7045 H   0  0  0  0  0  0  0  0  0  0  0  0  # atno 6908 bound_to 6896
  150.8825  133.7290  159.2954 H   0  0  0  0  0  0  0  0  0  0  0  0  # atno 6909 bound_to 6896
  146.2205  140.2833  142.8363 H   0  0  0  0  0  0  0  0  0  0  0  0  # atno 7974 bound_to 7965
  154.5534  140.2323  155.8449 H   0  0  0  0  0  0  0  0  0  0  0  0  # atno 8008 bound_to 7997
  156.1967  140.3063  155.9402 H   0  0  0  0  0  0  0  0  0  0  0  0  # atno 8009 bound_to 7997
  155.3027  140.0432  157.3021 H   0  0  0  0  0  0  0  0  0  0  0  0  # atno 8010 bound_to 7997
  139.8349  144.6669  150.9354 H   0  0  0  0  0  0  0  0  0  0  0  0  # atno 10167 bound_to 10162
  156.0613  130.4262  150.1708 H   0  0  0  0  0  0  0  0  0  0  0  0  # atno 10718 bound_to 10713
  153.9403  135.6762  153.4744 H   0  0  0  0  0  0  0  0  0  0  0  0  # atno 10763 bound_to 10752
  153.0935  135.4863  154.8732 H   0  0  0  0  0  0  0  0  0  0  0  0  # atno 10764 bound_to 10752
  154.7381  135.3154  154.8735 H   0  0  0  0  0  0  0  0  0  0  0  0  # atno 10765 bound_to 10752
  140.5616  134.0187  155.7974 H   0  0  0  0  0  0  0  0  0  0  0  0  # atno 11005 bound_to 11000
  144.9181  140.7836  143.5765 LP  0  0  0  0  0  0  0  0  0  0  0  0  # atno 17320 bound_to 7965
  145.2767  139.1933  143.4812 LP  0  0  0  0  0  0  0  0  0  0  0  0  # atno 17321 bound_to 7965
  140.7803  143.3966  151.1219 LP  0  0  0  0  0  0  0  0  0  0  0  0  # atno 17342 bound_to 10162
  139.7617  143.8625  152.3101 LP  0  0  0  0  0  0  0  0  0  0  0  0  # atno 17343 bound_to 10162
  156.9776  130.9854  151.3445 LP  0  0  0  0  0  0  0  0  0  0  0  0  # atno 17370 bound_to 10713
  157.5623  130.8254  149.8282 LP  0  0  0  0  0  0  0  0  0  0  0  0  # atno 17371 bound_to 10713
  141.1111  133.9615  157.2909 LP  0  0  0  0  0  0  0  0  0  0  0  0  # atno 17394 bound_to 11000
  139.9405  135.0191  156.8692 LP  0  0  0  0  0  0  0  0  0  0  0  0  # atno 17395 bound_to 11000

$$$$
