#       Name:                AV-unprocessed.smi:885
#       Creating user name   scv26
#       Creation time:       Fri Mar 27 01:53:41 2020


#       File generated by GOLD software.
#

@<TRIPOS>MOLECULE
AV-unprocessed.smi:885
    46    48     1
SMALL
NO_CHARGES


@<TRIPOS>ATOM
      1 ****        -4.2289  -2.1469  -0.8319 C.3            1 S1                 0.0000
      2 ****        -4.4288  -2.2457   0.6909 C.3            1 S1                 0.0000
      3 ****        -3.3492  -1.5908   1.5711 C.3            1 S1                 0.0000
      4 ****        -1.9013  -1.7672   1.0828 C.3            1 S1                 0.0000
      5 ****        -1.4615  -0.6901   0.0668 C.3            1 S1                 0.0000
      6 ****         0.0326  -0.6217  -0.0392 C.2            1 S1                 0.0000
      7 ****         0.7463  -1.6491  -0.4873 N.2            1 S1                 0.0000
      8 ****         2.0650  -1.1760  -0.4366 O.3            1 S1                 0.0000
      9 ****         1.9891   0.0834   0.0565 C.2            1 S1                 0.0000
     10 ****         3.2489   0.8793   0.1836 C.3            1 S1                 0.0000
     11 ****         3.6066   1.6181  -1.1205 C.3            1 S1                 0.0000
     12 ****         4.7940   2.4482  -0.9235 N.3            1 S1                 0.0000
     13 ****         4.6154   3.3685   0.1987 C.3            1 S1                 0.0000
     14 ****         4.2261   2.5929   1.4701 C.3            1 S1                 0.0000
     15 ****         3.0477   1.8328   1.2244 O.3            1 S1                 0.0000
     16 ****         0.7440   0.4883   0.3011 N.2            1 S1                 0.0000
     17 ****        -2.1099  -0.7971  -1.3284 C.3            1 S1                 0.0000
     18 ****        -3.6485  -0.8157  -1.3355 C.3            1 S1                 0.0000
     19 ****        -5.1953  -2.3152  -1.3080 H              1 S1                 0.0000
     20 ****        -3.5970  -2.9686  -1.1713 H              1 S1                 0.0000
     21 ****        -5.3908  -1.8040   0.9528 H              1 S1                 0.0000
     22 ****        -4.5126  -3.3009   0.9536 H              1 S1                 0.0000
     23 ****        -3.5678  -0.5290   1.6897 H              1 S1                 0.0000
     24 ****        -3.4369  -2.0119   2.5733 H              1 S1                 0.0000
     25 ****        -1.2586  -1.6773   1.9601 H              1 S1                 0.0000
     26 ****        -1.7339  -2.7728   0.6949 H              1 S1                 0.0000
     27 ****        -1.7755   0.2712   0.4771 H              1 S1                 0.0000
     28 ****         4.0536   0.1974   0.4651 H              1 S1                 0.0000
     29 ****         3.7804   0.9017  -1.9238 H              1 S1                 0.0000
     30 ****         2.7677   2.2419  -1.4322 H              1 S1                 0.0000
     31 ****         4.9847   2.9760  -1.7693 H              1 S1                 0.0000
     32 ****         5.5318   3.9336   0.3693 H              1 S1                 0.0000
     33 ****         3.8382   4.0960  -0.0382 H              1 S1                 0.0000
     34 ****         5.0375   1.9386   1.7930 H              1 S1                 0.0000
     35 ****         4.0331   3.2872   2.2879 H              1 S1                 0.0000
     36 ****        -1.7779   0.0539  -1.9247 H              1 S1                 0.0000
     37 ****        -1.7372  -1.6818  -1.8462 H              1 S1                 0.0000
     38 ****        -3.9736  -0.6776  -2.3673 H              1 S1                 0.0000
     39 ****        -4.0583   0.0287  -0.7802 H              1 S1                 0.0000
     40 ****         0.4207  -2.5453  -0.7886 LP             1 S1                 0.0000
     41 ****         2.4669  -1.1673  -1.3522 LP             1 S1                 0.0000
     42 ****         2.6184  -1.7522   0.1649 LP             1 S1                 0.0000
     43 ****         5.5657   1.8469  -0.7161 LP             1 S1                 0.0000
     44 ****         2.7916   1.3504   2.0621 LP             1 S1                 0.0000
     45 ****         2.3102   2.4535   0.9585 LP             1 S1                 0.0000
     46 ****         0.4191   1.3702   0.6428 LP             1 S1                 0.0000
@<TRIPOS>BOND
    1    1   18 1     
    2    1    2 1     
    3    1   19 1     
    4    1   20 1     
    5    2    3 1     
    6    2   21 1     
    7    2   22 1     
    8    3    4 1     
    9    3   23 1     
   10    3   24 1     
   11    4    5 1     
   12    4   25 1     
   13    4   26 1     
   14    5    6 1     
   15    5   17 1     
   16    5   27 1     
   17    6   16 1     
   18    6    7 2     
   19    7    8 1     
   20    8    9 1     
   21    9   10 1     
   22    9   16 2     
   23   10   15 1     
   24   10   11 1     
   25   10   28 1     
   26   11   12 1     
   27   11   29 1     
   28   11   30 1     
   29   12   13 1     
   30   12   31 1     
   31   13   14 1     
   32   13   32 1     
   33   13   33 1     
   34   14   15 1     
   35   14   34 1     
   36   14   35 1     
   37   17   18 1     
   38   17   36 1     
   39   17   37 1     
   40   18   38 1     
   41   18   39 1     
   42    7   40 1     
   43    8   41 1     
   44    8   42 1     
   45   12   43 1     
   46   15   44 1     
   47   15   45 1     
   48   16   46 1     
@<TRIPOS>SUBSTRUCTURE
      1 S1             1
@<TRIPOS>SET
LONE_PAIRS      STATIC     ATOMS    <user>   **** ""
7 40 41 42 43 44 45 46
DONOR_HYDROGENS      STATIC     ATOMS    <user>   **** ""
1 31
ATOM$BLUE        STATIC     ATOMS    COLORGROUP SYSTEM
7 40 41 42 43 44 45 46
ATOM$RED        STATIC     ATOMS    COLORGROUP SYSTEM
1 31
