AV-unprocessed.smi:1695|AV-procd|sdf|6794|dock5
  -GOLD-   22720 7553D 1   1.00000     0.00000
 Structure written by MMmdl.
 52 54  0  0  0  0  0  0  0  0  3 V2000
  152.0434  143.7642  160.3143 C   0  0  0  0  0  0  0  0  0  0  0  0
  151.8873  142.7489  159.1949 C   0  0  0  0  0  0  0  0  0  0  0  0
  151.0360  143.0646  158.1118 C   0  0  0  0  0  0  0  0  0  0  0  0
  150.9125  142.1150  157.1046 C   0  0  0  0  0  0  0  0  0  0  0  0
  150.1664  142.1235  155.9239 N   0  3  0  0  0  0  0  0  0  0  0  0
  150.3680  140.9574  155.2498 C   0  0  0  0  0  0  0  0  0  0  0  0
  151.2275  140.2016  155.9866 N   0  0  0  0  0  0  0  0  0  0  0  0
  151.7762  138.8646  155.7229 C   0  0  0  0  0  0  0  0  0  0  0  0
  151.1379  138.1840  154.4955 C   0  0  1  0  0  0  0  0  0  0  0  0
  152.1105  137.3859  153.8489 O   0  0  0  0  0  0  0  0  0  0  0  0
  149.9477  137.2895  154.8945 C   0  0  0  0  0  0  0  0  0  0  0  0
  148.7213  137.5856  154.1096 N   0  3  1  0  0  0  0  0  0  0  0  0
  147.5437  136.8256  154.6002 C   0  0  0  0  0  0  0  0  0  0  0  0
  146.3228  137.0306  153.6828 C   0  0  0  0  0  0  0  0  0  0  0  0
  145.9621  138.5158  153.4704 C   0  0  1  0  0  0  0  0  0  0  0  0
  145.2384  139.1327  154.6820 C   0  0  0  0  0  0  0  0  0  0  0  0
  144.1214  139.8212  154.4340 N   0  0  0  0  0  0  0  0  0  0  0  0
  145.6725  138.9960  155.8237 O   0  0  0  0  0  0  0  0  0  0  0  0
  147.2298  139.2988  153.0676 C   0  0  0  0  0  0  0  0  0  0  0  0
  148.4292  139.0394  153.9997 C   0  0  0  0  0  0  0  0  0  0  0  0
  151.5993  140.8862  157.1486 C   0  0  0  0  0  0  0  0  0  0  0  0
  152.4443  140.5602  158.2066 C   0  0  0  0  0  0  0  0  0  0  0  0
  152.5828  141.5128  159.2412 C   0  0  0  0  0  0  0  0  0  0  0  0
  153.4954  141.1849  160.4107 C   0  0  0  0  0  0  0  0  0  0  0  0
  151.4550  144.6623  160.1238 H   0  0  0  0  0  0  0  0  0  0  0  0
  153.0864  144.0650  160.4168 H   0  0  0  0  0  0  0  0  0  0  0  0
  151.7095  143.3424  161.2625 H   0  0  0  0  0  0  0  0  0  0  0  0
  150.5043  144.0042  158.0697 H   0  0  0  0  0  0  0  0  0  0  0  0
  149.9243  140.6817  154.3036 H   0  0  0  0  0  0  0  0  0  0  0  0
  152.8522  138.9753  155.5795 H   0  0  0  0  0  0  0  0  0  0  0  0
  151.6444  138.2573  156.6195 H   0  0  0  0  0  0  0  0  0  0  0  0
  150.8166  138.9547  153.7965 H   0  0  0  0  0  0  0  0  0  0  0  0
  151.8384  137.2463  152.9544 H   0  0  0  0  0  0  0  0  0  0  0  0
  150.2379  136.2475  154.7478 H   0  0  0  0  0  0  0  0  0  0  0  0
  149.7272  137.3943  155.9581 H   0  0  0  0  0  0  0  0  0  0  0  0
  147.7834  135.7621  154.6281 H   0  0  0  0  0  0  0  0  0  0  0  0
  147.3179  137.1178  155.6261 H   0  0  0  0  0  0  0  0  0  0  0  0
  146.5315  136.5780  152.7125 H   0  0  0  0  0  0  0  0  0  0  0  0
  145.4662  136.4870  154.0841 H   0  0  0  0  0  0  0  0  0  0  0  0
  145.2679  138.5652  152.6296 H   0  0  0  0  0  0  0  0  0  0  0  0
  143.6081  140.2463  155.1926 H   0  0  0  0  0  0  0  0  0  0  0  0
  143.7921  139.9150  153.4838 H   0  0  0  0  0  0  0  0  0  0  0  0
  147.5080  139.0178  152.0508 H   0  0  0  0  0  0  0  0  0  0  0  0
  147.0179  140.3683  153.0314 H   0  0  0  0  0  0  0  0  0  0  0  0
  148.2484  139.4546  154.9912 H   0  0  0  0  0  0  0  0  0  0  0  0
  149.2941  139.5686  153.6025 H   0  0  0  0  0  0  0  0  0  0  0  0
  152.9744  139.6199  158.2415 H   0  0  0  0  0  0  0  0  0  0  0  0
  153.9495  140.1998  160.2992 H   0  0  0  0  0  0  0  0  0  0  0  0
  152.9359  141.1891  161.3463 H   0  0  0  0  0  0  0  0  0  0  0  0
  154.3007  141.9161  160.4848 H   0  0  0  0  0  0  0  0  0  0  0  0
  148.9000  137.2479  153.1745 H   0  0  0  0  0  0  0  0  0  0  0  0
  149.5656  142.8703  155.5982 H   0  0  0  0  0  0  0  0  0  0  0  0
  1  2  1  0  0  0  0
  1 25  1  0  0  0  0
  1 26  1  0  0  0  0
  1 27  1  0  0  0  0
  2 23  1  0  0  0  0
  2  3  2  0  0  0  0
  3  4  1  0  0  0  0
  3 28  1  0  0  0  0
  4 21  2  0  0  0  0
  4  5  1  0  0  0  0
  5  6  2  0  0  0  0
  5 52  1  0  0  0  0
  6  7  1  0  0  0  0
  6 29  1  0  0  0  0
  7  8  1  0  0  0  0
  7 21  1  0  0  0  0
  8  9  1  0  0  0  0
  8 30  1  0  0  0  0
  8 31  1  0  0  0  0
  9 10  1  0  0  0  0
  9 11  1  0  0  0  0
  9 32  1  0  0  0  0
 10 33  1  0  0  0  0
 11 12  1  0  0  0  0
 11 34  1  0  0  0  0
 11 35  1  0  0  0  0
 12 20  1  0  0  0  0
 12 13  1  0  0  0  0
 12 51  1  0  0  0  0
 13 14  1  0  0  0  0
 13 36  1  0  0  0  0
 13 37  1  0  0  0  0
 14 15  1  0  0  0  0
 14 38  1  0  0  0  0
 14 39  1  0  0  0  0
 15 16  1  0  0  0  0
 15 19  1  0  0  0  0
 15 40  1  0  0  0  0
 16 17  1  0  0  0  0
 16 18  2  0  0  0  0
 17 41  1  0  0  0  0
 17 42  1  0  0  0  0
 19 20  1  0  0  0  0
 19 43  1  0  0  0  0
 19 44  1  0  0  0  0
 20 45  1  0  0  0  0
 20 46  1  0  0  0  0
 21 22  1  0  0  0  0
 22 23  2  0  0  0  0
 22 47  1  0  0  0  0
 23 24  1  0  0  0  0
 24 48  1  0  0  0  0
 24 49  1  0  0  0  0
 24 50  1  0  0  0  0
M  CHG  1   5   1
M  CHG  1  12   1
M  END
> <s_m_source_file>
AV-unprocessed.smi

> <i_m_source_file_index>
1695

> <i_lp_mmshare_version>
43012

> <i_f3d_flags>
0

> <s_epik_input>
W0NIM11jKFtjSF0xKWMoW0NIM10pW2NIXWMoYzEyKW4oW2NIXW4yKVtDSDJdW0NASF0oW09IXSlbQ0gyXU4zW0NIMl1bQ0gyXVtDSF0oQyg9TylbTkgyXSlbQ0gyXVtDSDJdMw==

> <s_epik_cmdline>
J2VwaWtfcHl0aG9uJywgJy1waCcsICc3LjAnLCAnLXRuJywgJzgnLCAnLW1hJywgJzIwMCcsICctbWV0YWxfYmluZGluZycsICctaW1hZScsICc8aW5maWxlLm1hZT4nLCAnLW9tYWUnLCAnPG91dGZpbGUubWFlPic=

> <r_epik_Ionization_Penalty>
1.20173

> <r_epik_Ionization_Penalty_Charging>
1.20172

> <r_epik_Ionization_Penalty_Neutral>
1.7852e-06

> <r_epik_State_Penalty>
1.28089

> <r_epik_Charging_Adjusted_Penalty>
2.48261

> <i_epik_Tot_Q>
2

> <i_epik_Tot_abs_Q>
2

> <r_epik_Metal_State_Penalty>
1.35652

> <b_epik_Metal_Only>
0

> <s_lp_Force_Field>
OPLS_2005

> <r_lp_Energy>
25.0715

> <b_lp_Chiralities_Consistent>
1

> <s_lp_Variant>
AV-unprocessed.smi:1695-6

> <Gold.Version>
5.8.1

> <Gold.Id.Protein>
6NUR|6NUR_protein|mol2

> <Gold.PLP.Fitness>
60.2349

> <Gold.PLP.PLP>
-42.4425

> <Gold.PLP.part.hbond>
-4.8227

> <Gold.PLP.part.metal>
0.0000

> <Gold.PLP.part.buried>
-4.0089

> <Gold.PLP.part.nonpolar>
-34.2193

> <Gold.PLP.part.repulsive>
0.1482

> <Gold.PLP.ligand.clash>
0.0000

> <Gold.PLP.ligand.torsion>
1.5809

> <Gold.PLP.Chemscore.Hbond>
6.9680

> <Gold.PLP.Chemscore.CHOScore>
0.0000

> <Gold.PLP.Chemscore.Metal>
0.0000

> <Gold.Chemscore.Hbonds>
donor molecule, donor type, donor heavy atom, donor atom, acceptor molecule, acceptor atom, score
      L1  H     5    52       P1  8028  2.00
      L1  H    10    33       P1  7949  0.98
      L1  H    12    51       P1  7948  2.00
      L1  H    17    42       P1 10175  0.02
      P1  H 10752 10765       L1    10  0.88

> <Gold.PLP.Chemscore.Internal.Correction>
0.0501

> <Gold.Rescore>
     Score         DG    S(hbond)    S(metal)    S(lipo)     H(rot)  DE(clash)    DE(int)     intcor
     23.02     -24.70       4.20        0.00     108.01       2.91       0.30       1.38       ----

> <Gold.Chemscore.Fitness>
23.0189

> <Gold.Chemscore.DG>
-24.6960

> <Gold.Chemscore.ZeroCoef>
-5.4800

> <Gold.Chemscore.Hbond>
4.2023

> <Gold.Chemscore.Metal>
0.0000

> <Gold.Chemscore.Lipo>
108.0058

> <Gold.Chemscore.Internal_Hbond>
0.0000

> <Gold.Chemscore.DEClash>
0.2952

> <Gold.Chemscore.DEInternal>
1.3819

> <Gold.Chemscore.Rot>
2.9127

> <Gold.Chemscore.Internal.Correction>
   9.000000E+99

> <Gold.Chemscore.Hbonds>
donor molecule, donor type, donor heavy atom, donor atom, acceptor molecule, acceptor atom, score
      L1  H     5    52       P1  8028  0.95
      L1  H    10    33       P1  7949  0.87
      L1  H    12    51       P1  7948  0.99
      L1  H    17    42       P1 10175  0.07
      P1  H 10752 10765       L1    10  0.19

> <Gold.Chemscore.Hbond.Weighted>
-14.0358

> <Gold.Chemscore.Metal.Weighted>
-0.0000

> <Gold.Chemscore.Lipo.Weighted>
-12.6367

> <Gold.Chemscore.Internal_Hbond.Weighted>
0.0000

> <Gold.Chemscore.DEClash.Weighted>
0.2952

> <Gold.Chemscore.DEInternal.Weighted>
1.3819

> <Gold.Chemscore.Rot.Weighted>
7.4565

> <Gold.Chemscore.Internal.Correction.Weighted>
   9.000000E+99

> <Gold.Protein.RotatedTorsions>
[ 6907 6896 6895 6894 ] final   90.51 input  -60.11 | X-H torsion
[ 7974 7965 7964 7962 ] final   39.61 input  175.53 | X-H torsion
[ 8008 7997 7996 7995 ] final  -38.92 input   59.86 | X-H torsion
[ 10167 10162 10161 10158 ] final   86.95 input  -65.29 | X-H torsion
[ 10718 10713 10712 10709 ] final   73.90 input   66.30 | X-H torsion
[ 10763 10752 10751 10750 ] final  155.59 input  -60.55 | X-H torsion
[ 11005 11000 10999 10996 ] final -142.12 input  -57.11 | X-H torsion

> <Gold.Protein.ActiveResidues>
 VAL166  LYS551  ARG553  GLY616  TRP617  ASP618  TYR619  PRO620  LYS621  CYS622 
 ASP623  PHE694  ASN695  SER759  ASP760  ASP761  ALA762  ILE779  LEU786  VAL792 
 PHE793  MET794  SER795  GLU796  ALA797  LYS798  CYS799  TRP800  GLU811  SER814 

> <Gold.Protein.RotatedAtoms>
  152.5445  134.1800  159.8631 H   0  0  0  0  0  0  0  0  0  0  0  0  # atno 6907 bound_to 6896
  151.1803  133.4722  159.2601 H   0  0  0  0  0  0  0  0  0  0  0  0  # atno 6908 bound_to 6896
  151.1185  135.0078  159.8582 H   0  0  0  0  0  0  0  0  0  0  0  0  # atno 6909 bound_to 6896
  146.0970  139.5631  142.9438 H   0  0  0  0  0  0  0  0  0  0  0  0  # atno 7974 bound_to 7965
  154.4030  140.1565  156.2779 H   0  0  0  0  0  0  0  0  0  0  0  0  # atno 8008 bound_to 7997
  155.8895  140.3439  155.5924 H   0  0  0  0  0  0  0  0  0  0  0  0  # atno 8009 bound_to 7997
  155.7574  140.0813  157.2162 H   0  0  0  0  0  0  0  0  0  0  0  0  # atno 8010 bound_to 7997
  139.8823  144.6433  150.8829 H   0  0  0  0  0  0  0  0  0  0  0  0  # atno 10167 bound_to 10162
  157.6568  130.9651  150.1135 H   0  0  0  0  0  0  0  0  0  0  0  0  # atno 10718 bound_to 10713
  154.1708  135.2804  155.3081 H   0  0  0  0  0  0  0  0  0  0  0  0  # atno 10763 bound_to 10752
  154.6076  135.5509  153.7443 H   0  0  0  0  0  0  0  0  0  0  0  0  # atno 10764 bound_to 10752
  153.0165  135.6407  154.1849 H   0  0  0  0  0  0  0  0  0  0  0  0  # atno 10765 bound_to 10752
  140.8257  134.2578  157.4880 H   0  0  0  0  0  0  0  0  0  0  0  0  # atno 11005 bound_to 11000
  145.5928  141.0367  143.2061 LP  0  0  0  0  0  0  0  0  0  0  0  0  # atno 17320 bound_to 7965
  144.7403  139.7467  143.7313 LP  0  0  0  0  0  0  0  0  0  0  0  0  # atno 17321 bound_to 7965
  140.7742  143.3575  151.1892 LP  0  0  0  0  0  0  0  0  0  0  0  0  # atno 17342 bound_to 10162
  139.7184  143.9263  152.2976 LP  0  0  0  0  0  0  0  0  0  0  0  0  # atno 17343 bound_to 10162
  156.2025  130.3661  149.8770 LP  0  0  0  0  0  0  0  0  0  0  0  0  # atno 17370 bound_to 10713
  156.6670  130.8805  151.3556 LP  0  0  0  0  0  0  0  0  0  0  0  0  # atno 17371 bound_to 10713
  139.8706  134.9559  156.4221 LP  0  0  0  0  0  0  0  0  0  0  0  0  # atno 17394 bound_to 11000
  140.9052  133.7751  155.9727 LP  0  0  0  0  0  0  0  0  0  0  0  0  # atno 17395 bound_to 11000

$$$$
