#       Name:                AV-unprocessed.smi:438
#       Creating user name   scv26
#       Creation time:       Thu Mar 26 22:55:28 2020


#       File generated by GOLD software.
#

@<TRIPOS>MOLECULE
AV-unprocessed.smi:438
    55    56     1
SMALL
NO_CHARGES


@<TRIPOS>ATOM
      1 ****        -4.4536  -0.2699   1.5711 C.3            1 S1                 0.0000
      2 ****        -3.6807  -1.5676   1.4168 C.2            1 S1                 0.0000
      3 ****        -2.2973  -1.4349   1.2106 N.2            1 S1                 0.0000
      4 ****        -1.5786  -2.4821   1.0626 C.2            1 S1                 0.0000
      5 ****         0.1942  -2.3164   0.7886 S.3            1 S1                 0.0000
      6 ****         0.4757  -0.5210   0.8472 C.3            1 S1                 0.0000
      7 ****         1.9335  -0.1370   0.5986 C.2            1 S1                 0.0000
      8 ****         2.8440  -0.7639   1.1413 O.2            1 S1                 0.0000
      9 ****         2.1422   0.9013  -0.2257 N.am           1 S1                 0.0000
     10 ****         3.4497   1.4292  -0.6098 C.3            1 S1                 0.0000
     11 ****         3.9687   0.6699  -1.8485 C.3            1 S1                 0.0000
     12 ****         5.3158   1.2261  -2.3313 C.3            1 S1                 0.0000
     13 ****         5.2189   2.7313  -2.6143 C.3            1 S1                 0.0000
     14 ****         4.7179   3.4938  -1.3786 C.3            1 S1                 0.0000
     15 ****         3.3628   2.9526  -0.8785 C.3            1 S1                 0.0000
     16 ****         2.8891   3.7425   0.3549 C.3            1 S1                 0.0000
     17 ****        -2.0754  -3.7643   1.0957 N.pl3          1 S1                -1.0000
     18 ****        -3.4076  -3.9771   1.2936 C.2            1 S1                 0.0000
     19 ****        -3.8919  -5.1078   1.3283 O.2            1 S1                 0.0000
     20 ****        -4.2717  -2.7955   1.4622 C.2            1 S1                 0.0000
     21 ****        -5.7667  -3.0035   1.6920 C.3            1 S1                 0.0000
     22 ****        -6.5266  -3.2296   0.3771 C.3            1 S1                 0.0000
     23 ****        -7.9028  -3.3988   0.6399 O.3            1 S1                 0.0000
     24 ****        -5.2983  -0.2417   0.8826 H              1 S1                 0.0000
     25 ****        -3.8217   0.5938   1.3601 H              1 S1                 0.0000
     26 ****        -4.8298  -0.1712   2.5895 H              1 S1                 0.0000
     27 ****         0.1782  -0.1445   1.8263 H              1 S1                 0.0000
     28 ****        -0.1645  -0.0403   0.1058 H              1 S1                 0.0000
     29 ****         1.3336   1.3568  -0.6236 H              1 S1                 0.0000
     30 ****         4.1537   1.2741   0.2103 H              1 S1                 0.0000
     31 ****         4.0751  -0.3916  -1.6211 H              1 S1                 0.0000
     32 ****         3.2393   0.7398  -2.6570 H              1 S1                 0.0000
     33 ****         6.0798   1.0427  -1.5748 H              1 S1                 0.0000
     34 ****         5.6361   0.6980  -3.2297 H              1 S1                 0.0000
     35 ****         6.1929   3.1155  -2.9184 H              1 S1                 0.0000
     36 ****         4.5420   2.9046  -3.4518 H              1 S1                 0.0000
     37 ****         5.4601   3.4200  -0.5825 H              1 S1                 0.0000
     38 ****         4.6304   4.5540  -1.6185 H              1 S1                 0.0000
     39 ****         2.6309   3.1151  -1.6716 H              1 S1                 0.0000
     40 ****         3.5600   3.5918   1.2013 H              1 S1                 0.0000
     41 ****         1.8882   3.4436   0.6663 H              1 S1                 0.0000
     42 ****         2.8557   4.8120   0.1457 H              1 S1                 0.0000
     43 ****        -6.1887  -2.1455   2.2147 H              1 S1                 0.0000
     44 ****        -5.9177  -3.8494   2.3644 H              1 S1                 0.0000
     45 ****        -6.3951  -2.3806  -0.2946 H              1 S1                 0.0000
     46 ****        -6.1540  -4.1150  -0.1391 H              1 S1                 0.0000
     47 ****        -8.3458  -3.5598  -0.1791 H              1 S1                 0.0000
     48 ****        -1.8776  -0.5277   1.1798 LP             1 S1                 0.0000
     49 ****         2.6312  -1.5292   1.7488 LP             1 S1                 0.0000
     50 ****         3.7961  -0.5076   0.9746 LP             1 S1                 0.0000
     51 ****        -1.4584  -4.5419   0.9744 LP             1 S1                 0.0000
     52 ****        -3.3036  -5.9076   1.2093 LP             1 S1                 0.0000
     53 ****        -4.8738  -5.2268   1.4755 LP             1 S1                 0.0000
     54 ****        -8.2695  -2.5713   1.0651 LP             1 S1                 0.0000
     55 ****        -8.0361  -4.1764   1.2544 LP             1 S1                 0.0000
@<TRIPOS>BOND
    1    1   24 1     
    2    1   25 1     
    3    1   26 1     
    4    1    2 1     
    5    2   20 2     
    6    2    3 1     
    7    3    4 2     
    8    4    5 1     
    9    4   17 1     
   10    5    6 1     
   11    6    7 1     
   12    6   27 1     
   13    6   28 1     
   14    7    8 2     
   15    7    9 am    
   16    9   10 1     
   17    9   29 1     
   18   10   15 1     
   19   10   11 1     
   20   10   30 1     
   21   11   12 1     
   22   11   31 1     
   23   11   32 1     
   24   12   13 1     
   25   12   33 1     
   26   12   34 1     
   27   13   14 1     
   28   13   35 1     
   29   13   36 1     
   30   14   15 1     
   31   14   37 1     
   32   14   38 1     
   33   15   16 1     
   34   15   39 1     
   35   16   40 1     
   36   16   41 1     
   37   16   42 1     
   38   17   18 1     
   39   18   19 2     
   40   18   20 1     
   41   20   21 1     
   42   21   22 1     
   43   21   43 1     
   44   21   44 1     
   45   22   23 1     
   46   22   45 1     
   47   22   46 1     
   48   23   47 1     
   49    3   48 1     
   50    8   49 1     
   51    8   50 1     
   52   17   51 1     
   53   19   52 1     
   54   19   53 1     
   55   23   54 1     
   56   23   55 1     
@<TRIPOS>SUBSTRUCTURE
      1 S1             1
@<TRIPOS>SET
LONE_PAIRS      STATIC     ATOMS    <user>   **** ""
8 48 49 50 51 52 53 54 55
DONOR_HYDROGENS      STATIC     ATOMS    <user>   **** ""
2 29 47
ATOM$BLUE        STATIC     ATOMS    COLORGROUP SYSTEM
8 48 49 50 51 52 53 54 55
ATOM$RED        STATIC     ATOMS    COLORGROUP SYSTEM
2 29 47
