AV-unprocessed.smi:739|AV-procd|sdf|3544|dock7
  -GOLD-   22720 0533D 1   1.00000     0.00000
 Structure written by MMmdl.
 33 35  0  0  0  0  0  0  0  0  2 V2000
  152.7234  138.0666  154.7722 O   0  0  0  0  0  0  0  0  0  0  0  0
  151.8453  139.1225  155.1006 C   0  0  2  0  0  0  0  0  0  0  0  0
  152.1509  139.5676  156.5447 C   0  0  0  0  0  0  0  0  0  0  0  0
  151.5675  140.8758  156.8677 N   0  0  0  0  0  0  0  0  0  0  0  0
  150.7119  141.6529  156.1494 C   0  0  0  0  0  0  0  0  0  0  0  0
  150.4728  142.7798  156.8760 N   0  3  0  0  0  0  0  0  0  0  0  0
  151.1838  142.7202  158.0771 C   0  0  0  0  0  0  0  0  0  0  0  0
  151.2633  143.6183  159.1365 C   0  0  0  0  0  0  0  0  0  0  0  0
  152.0881  143.2509  160.2205 C   0  0  0  0  0  0  0  0  0  0  0  0
  152.2008  144.0886  161.2783 F   0  0  0  0  0  0  0  0  0  0  0  0
  152.7965  142.0302  160.2231 C   0  0  0  0  0  0  0  0  0  0  0  0
  153.5783  141.7166  161.2832 F   0  0  0  0  0  0  0  0  0  0  0  0
  152.7081  141.1278  159.1427 C   0  0  0  0  0  0  0  0  0  0  0  0
  151.8895  141.4991  158.0775 C   0  0  0  0  0  0  0  0  0  0  0  0
  150.3846  138.7360  154.9131 C   0  0  0  0  0  0  0  0  0  0  0  0
  149.5159  139.5525  154.1553 C   0  0  0  0  0  0  0  0  0  0  0  0
  148.1696  139.1805  153.9745 C   0  0  0  0  0  0  0  0  0  0  0  0
  147.6839  137.9904  154.5488 C   0  0  0  0  0  0  0  0  0  0  0  0
  146.3899  137.6323  154.3739 F   0  0  0  0  0  0  0  0  0  0  0  0
  148.5458  137.1710  155.3028 C   0  0  0  0  0  0  0  0  0  0  0  0
  149.8924  137.5423  155.4838 C   0  0  0  0  0  0  0  0  0  0  0  0
  152.3778  137.6116  154.0192 H   0  0  0  0  0  0  0  0  0  0  0  0
  152.0795  139.9395  154.4170 H   0  0  0  0  0  0  0  0  0  0  0  0
  151.7612  138.8439  157.2621 H   0  0  0  0  0  0  0  0  0  0  0  0
  153.2267  139.6246  156.7173 H   0  0  0  0  0  0  0  0  0  0  0  0
  150.3027  141.4201  155.1765 H   0  0  0  0  0  0  0  0  0  0  0  0
  150.7239  144.5538  159.1383 H   0  0  0  0  0  0  0  0  0  0  0  0
  153.2544  140.1963  159.1542 H   0  0  0  0  0  0  0  0  0  0  0  0
  149.8798  140.4659  153.7077 H   0  0  0  0  0  0  0  0  0  0  0  0
  147.5098  139.8086  153.3940 H   0  0  0  0  0  0  0  0  0  0  0  0
  148.1742  136.2568  155.7419 H   0  0  0  0  0  0  0  0  0  0  0  0
  150.5468  136.9045  156.0598 H   0  0  0  0  0  0  0  0  0  0  0  0
  149.8680  143.5321  156.5716 H   0  0  0  0  0  0  0  0  0  0  0  0
  1  2  1  0  0  0  0
  1 22  1  0  0  0  0
  2  3  1  0  0  0  0
  2 15  1  0  0  0  0
  2 23  1  0  0  0  0
  3  4  1  0  0  0  0
  3 24  1  0  0  0  0
  3 25  1  0  0  0  0
  4 14  1  0  0  0  0
  4  5  1  0  0  0  0
  5  6  2  0  0  0  0
  5 26  1  0  0  0  0
  6  7  1  0  0  0  0
  6 33  1  0  0  0  0
  7 14  2  0  0  0  0
  7  8  1  0  0  0  0
  8  9  2  0  0  0  0
  8 27  1  0  0  0  0
  9 10  1  0  0  0  0
  9 11  1  0  0  0  0
 11 12  1  0  0  0  0
 11 13  2  0  0  0  0
 13 14  1  0  0  0  0
 13 28  1  0  0  0  0
 15 21  1  0  0  0  0
 15 16  2  0  0  0  0
 16 17  1  0  0  0  0
 16 29  1  0  0  0  0
 17 18  2  0  0  0  0
 17 30  1  0  0  0  0
 18 19  1  0  0  0  0
 18 20  1  0  0  0  0
 20 21  2  0  0  0  0
 20 31  1  0  0  0  0
 21 32  1  0  0  0  0
M  CHG  1   6   1
M  END
> <s_m_source_file>
AV-unprocessed.smi

> <i_m_source_file_index>
739

> <i_lp_mmshare_version>
43012

> <i_f3d_flags>
0

> <s_epik_input>
W2NIXTFbY0hdYyhGKVtjSF1bY0hdYzFbQ0BIXShbT0hdKVtDSDJdbihbY0hdbjIpYyhjMjMpW2NIXWMoRiljKEYpW2NIXTM=

> <s_epik_cmdline>
J2VwaWtfcHl0aG9uJywgJy1waCcsICc3LjAnLCAnLXRuJywgJzgnLCAnLW1hJywgJzIwMCcsICctbWV0YWxfYmluZGluZycsICctaW1hZScsICc8aW5maWxlLm1hZT4nLCAnLW9tYWUnLCAnPG91dGZpbGUubWFlPic=

> <r_epik_Ionization_Penalty>
2.16139

> <r_epik_Ionization_Penalty_Charging>
2.16138

> <r_epik_Ionization_Penalty_Neutral>
1.79538e-06

> <r_epik_State_Penalty>
2.30198

> <r_epik_Charging_Adjusted_Penalty>
4.46337

> <i_epik_Tot_Q>
1

> <i_epik_Tot_abs_Q>
1

> <r_epik_Metal_State_Penalty>
6.38245

> <b_epik_Metal_Only>
0

> <s_lp_Force_Field>
OPLS_2005

> <r_lp_Energy>
16.88

> <b_lp_Chiralities_Consistent>
1

> <s_lp_Variant>
AV-unprocessed.smi:739-3

> <Gold.Version>
5.8.1

> <Gold.Id.Protein>
6NUR|6NUR_protein|mol2

> <Gold.PLP.Fitness>
49.8212

> <Gold.PLP.PLP>
-44.4860

> <Gold.PLP.part.hbond>
-1.7351

> <Gold.PLP.part.metal>
0.0000

> <Gold.PLP.part.buried>
-3.9072

> <Gold.PLP.part.nonpolar>
-38.3686

> <Gold.PLP.part.repulsive>
0.0323

> <Gold.PLP.ligand.clash>
0.0000

> <Gold.PLP.ligand.torsion>
0.3399

> <Gold.PLP.Chemscore.Hbond>
2.0000

> <Gold.PLP.Chemscore.CHOScore>
0.0000

> <Gold.PLP.Chemscore.Metal>
0.0000

> <Gold.Chemscore.Hbonds>
donor molecule, donor type, donor heavy atom, donor atom, acceptor molecule, acceptor atom, score
      L1  H     6    33       P1  8028  2.00

> <Gold.PLP.Chemscore.Internal.Correction>
0.0150

> <Gold.Rescore>
     Score         DG    S(hbond)    S(metal)    S(lipo)     H(rot)  DE(clash)    DE(int)     intcor
     14.54     -15.06       1.00        0.00      99.69       2.12       0.31       0.21       ----

> <Gold.Chemscore.Fitness>
14.5448

> <Gold.Chemscore.DG>
-15.0626

> <Gold.Chemscore.ZeroCoef>
-5.4800

> <Gold.Chemscore.Hbond>
0.9998

> <Gold.Chemscore.Metal>
0.0000

> <Gold.Chemscore.Lipo>
99.6943

> <Gold.Chemscore.Internal_Hbond>
0.0000

> <Gold.Chemscore.DEClash>
0.3087

> <Gold.Chemscore.DEInternal>
0.2092

> <Gold.Chemscore.Rot>
2.1176

> <Gold.Chemscore.Internal.Correction>
   9.000000E+99

> <Gold.Chemscore.Hbonds>
donor molecule, donor type, donor heavy atom, donor atom, acceptor molecule, acceptor atom, score
      L1  H     6    33       P1  8028  1.00

> <Gold.Chemscore.Hbond.Weighted>
-3.3395

> <Gold.Chemscore.Metal.Weighted>
-0.0000

> <Gold.Chemscore.Lipo.Weighted>
-11.6642

> <Gold.Chemscore.Internal_Hbond.Weighted>
0.0000

> <Gold.Chemscore.DEClash.Weighted>
0.3087

> <Gold.Chemscore.DEInternal.Weighted>
0.2092

> <Gold.Chemscore.Rot.Weighted>
5.4211

> <Gold.Chemscore.Internal.Correction.Weighted>
   9.000000E+99

> <Gold.Protein.RotatedTorsions>
[ 6907 6896 6895 6894 ] final  146.35 input  -60.11 | X-H torsion
[ 7974 7965 7964 7962 ] final -146.46 input  175.53 | X-H torsion
[ 8008 7997 7996 7995 ] final -149.80 input   59.86 | X-H torsion
[ 10167 10162 10161 10158 ] final   -2.70 input  -65.29 | X-H torsion
[ 10718 10713 10712 10709 ] final   39.34 input   66.30 | X-H torsion
[ 10763 10752 10751 10750 ] final  113.06 input  -60.55 | X-H torsion
[ 11005 11000 10999 10996 ] final   77.43 input  -57.11 | X-H torsion

> <Gold.Protein.ActiveResidues>
 VAL166  LYS551  ARG553  GLY616  TRP617  ASP618  TYR619  PRO620  LYS621  CYS622 
 ASP623  PHE694  ASN695  SER759  ASP760  ASP761  ALA762  ILE779  LEU786  VAL792 
 PHE793  MET794  SER795  GLU796  ALA797  LYS798  CYS799  TRP800  GLU811  SER814 

> <Gold.Protein.RotatedAtoms>
  152.1691  133.4631  159.4899 H   0  0  0  0  0  0  0  0  0  0  0  0  # atno 6907 bound_to 6896
  150.6917  134.1976  159.4318 H   0  0  0  0  0  0  0  0  0  0  0  0  # atno 6908 bound_to 6896
  151.9882  134.9993  160.0611 H   0  0  0  0  0  0  0  0  0  0  0  0  # atno 6909 bound_to 6896
  144.8158  140.5453  143.5612 H   0  0  0  0  0  0  0  0  0  0  0  0  # atno 7974 bound_to 7965
  155.6133  140.0674  157.2699 H   0  0  0  0  0  0  0  0  0  0  0  0  # atno 8008 bound_to 7997
  154.4248  140.1797  156.1343 H   0  0  0  0  0  0  0  0  0  0  0  0  # atno 8009 bound_to 7997
  156.0067  140.3331  155.6903 H   0  0  0  0  0  0  0  0  0  0  0  0  # atno 8010 bound_to 7997
  140.6861  143.6626  150.8254 H   0  0  0  0  0  0  0  0  0  0  0  0  # atno 10167 bound_to 10162
  157.3694  130.7693  149.7108 H   0  0  0  0  0  0  0  0  0  0  0  0  # atno 10718 bound_to 10713
  153.4869  135.3667  155.2471 H   0  0  0  0  0  0  0  0  0  0  0  0  # atno 10763 bound_to 10752
  154.8753  135.3968  154.3634 H   0  0  0  0  0  0  0  0  0  0  0  0  # atno 10764 bound_to 10752
  153.4247  135.7081  153.6336 H   0  0  0  0  0  0  0  0  0  0  0  0  # atno 10765 bound_to 10752
  139.9255  134.7682  156.1521 H   0  0  0  0  0  0  0  0  0  0  0  0  # atno 11005 bound_to 11000
  145.5218  139.1476  143.3548 LP  0  0  0  0  0  0  0  0  0  0  0  0  # atno 17320 bound_to 7965
  146.2461  140.5359  142.8913 LP  0  0  0  0  0  0  0  0  0  0  0  0  # atno 17321 bound_to 7965
  140.0333  143.5421  152.2750 LP  0  0  0  0  0  0  0  0  0  0  0  0  # atno 17342 bound_to 10162
  139.6222  144.7631  151.2716 LP  0  0  0  0  0  0  0  0  0  0  0  0  # atno 17343 bound_to 10162
  155.9752  130.4091  150.3863 LP  0  0  0  0  0  0  0  0  0  0  0  0  # atno 17370 bound_to 10713
  157.1951  131.0425  151.2680 LP  0  0  0  0  0  0  0  0  0  0  0  0  # atno 17371 bound_to 10713
  141.0809  133.6755  156.2333 LP  0  0  0  0  0  0  0  0  0  0  0  0  # atno 17394 bound_to 11000
  140.6350  134.5225  157.5563 LP  0  0  0  0  0  0  0  0  0  0  0  0  # atno 17395 bound_to 11000

$$$$
