AV-unprocessed.smi:1346|AV-procd|sdf|5513|dock5
  -GOLD-   22720 5 93D 1   1.00000     0.00000
 Structure written by MMmdl.
 47 48  0  0  0  0  0  0  0  0  1 V2000
  146.2095  143.7882  153.7684 C   0  0  0  0  0  0  0  0  0  0  0  0
  146.2897  142.3860  154.2997 C   0  0  0  0  0  0  0  0  0  0  0  0
  145.2748  141.8994  154.9937 N   0  0  0  0  0  0  0  0  0  0  0  0
  145.6392  140.5958  155.3430 O   0  0  0  0  0  0  0  0  0  0  0  0
  146.8750  140.3460  154.8412 C   0  0  0  0  0  0  0  0  0  0  0  0
  147.4399  138.9918  155.1079 C   0  0  0  0  0  0  0  0  0  0  0  0
  147.3482  141.4405  154.1704 C   0  0  0  0  0  0  0  0  0  0  0  0
  148.6671  141.6095  153.4609 C   0  0  0  0  0  0  0  0  0  0  0  0
  149.8141  141.3226  154.4301 C   0  0  0  0  0  0  0  0  0  0  0  0
  150.4846  140.2979  154.3038 O   0  0  0  0  0  0  0  0  0  0  0  0
  150.0280  142.2328  155.3923 N   0  0  0  0  0  0  0  0  0  0  0  0
  151.0559  142.1430  156.4231 C   0  0  0  0  0  0  0  0  0  0  0  0
  150.4727  142.3410  157.8299 C   0  0  0  0  0  0  0  0  0  0  0  0
  151.4300  141.9296  158.7939 O   0  0  0  0  0  0  0  0  0  0  0  0
  152.5571  142.7925  158.9004 C   0  0  1  0  0  0  0  0  0  0  0  0
  152.0403  144.2330  159.0693 C   0  0  0  0  0  0  0  0  0  0  0  0
  151.3054  144.4270  160.4060 C   0  0  0  0  0  0  0  0  0  0  0  0
  152.1883  144.0113  161.5921 C   0  0  0  0  0  0  0  0  0  0  0  0
  152.6866  142.5657  161.4360 C   0  0  0  0  0  0  0  0  0  0  0  0
  153.4326  142.3654  160.1017 C   0  0  1  0  0  0  0  0  0  0  0  0
  153.9653  140.9314  159.9580 C   0  0  0  0  0  0  0  0  0  0  0  0
  146.9062  143.9420  152.9448 H   0  0  0  0  0  0  0  0  0  0  0  0
  146.4488  144.5136  154.5462 H   0  0  0  0  0  0  0  0  0  0  0  0
  145.2094  144.0142  153.3971 H   0  0  0  0  0  0  0  0  0  0  0  0
  148.2870  138.7845  154.4538 H   0  0  0  0  0  0  0  0  0  0  0  0
  146.6897  138.2191  154.9391 H   0  0  0  0  0  0  0  0  0  0  0  0
  147.7824  138.9133  156.1396 H   0  0  0  0  0  0  0  0  0  0  0  0
  148.7407  140.9526  152.5932 H   0  0  0  0  0  0  0  0  0  0  0  0
  148.7847  142.6236  153.0775 H   0  0  0  0  0  0  0  0  0  0  0  0
  149.4267  143.0434  155.4202 H   0  0  0  0  0  0  0  0  0  0  0  0
  151.5602  141.1778  156.3569 H   0  0  0  0  0  0  0  0  0  0  0  0
  151.8118  142.9030  156.2239 H   0  0  0  0  0  0  0  0  0  0  0  0
  150.1956  143.3848  157.9843 H   0  0  0  0  0  0  0  0  0  0  0  0
  149.5655  141.7457  157.9416 H   0  0  0  0  0  0  0  0  0  0  0  0
  153.1632  142.7575  157.9925 H   0  0  0  0  0  0  0  0  0  0  0  0
  152.8819  144.9250  159.0196 H   0  0  0  0  0  0  0  0  0  0  0  0
  151.3814  144.4921  158.2398 H   0  0  0  0  0  0  0  0  0  0  0  0
  151.0027  145.4686  160.5154 H   0  0  0  0  0  0  0  0  0  0  0  0
  150.3877  143.8377  160.4098 H   0  0  0  0  0  0  0  0  0  0  0  0
  153.0419  144.6861  161.6666 H   0  0  0  0  0  0  0  0  0  0  0  0
  151.6312  144.1138  162.5238 H   0  0  0  0  0  0  0  0  0  0  0  0
  153.3434  142.3167  162.2702 H   0  0  0  0  0  0  0  0  0  0  0  0
  151.8409  141.8793  161.4953 H   0  0  0  0  0  0  0  0  0  0  0  0
  154.3023  143.0242  160.1150 H   0  0  0  0  0  0  0  0  0  0  0  0
  153.1560  140.2013  159.9784 H   0  0  0  0  0  0  0  0  0  0  0  0
  154.6508  140.6854  160.7692 H   0  0  0  0  0  0  0  0  0  0  0  0
  154.5056  140.8046  159.0195 H   0  0  0  0  0  0  0  0  0  0  0  0
  1  2  1  0  0  0  0
  1 22  1  0  0  0  0
  1 23  1  0  0  0  0
  1 24  1  0  0  0  0
  2  7  1  0  0  0  0
  2  3  2  0  0  0  0
  3  4  1  0  0  0  0
  4  5  1  0  0  0  0
  5  6  1  0  0  0  0
  5  7  2  0  0  0  0
  6 25  1  0  0  0  0
  6 26  1  0  0  0  0
  6 27  1  0  0  0  0
  7  8  1  0  0  0  0
  8  9  1  0  0  0  0
  8 28  1  0  0  0  0
  8 29  1  0  0  0  0
  9 10  2  0  0  0  0
  9 11  1  0  0  0  0
 11 12  1  0  0  0  0
 11 30  1  0  0  0  0
 12 13  1  0  0  0  0
 12 31  1  0  0  0  0
 12 32  1  0  0  0  0
 13 14  1  0  0  0  0
 13 33  1  0  0  0  0
 13 34  1  0  0  0  0
 14 15  1  0  0  0  0
 15 20  1  0  0  0  0
 15 16  1  0  0  0  0
 15 35  1  0  0  0  0
 16 17  1  0  0  0  0
 16 36  1  0  0  0  0
 16 37  1  0  0  0  0
 17 18  1  0  0  0  0
 17 38  1  0  0  0  0
 17 39  1  0  0  0  0
 18 19  1  0  0  0  0
 18 40  1  0  0  0  0
 18 41  1  0  0  0  0
 19 20  1  0  0  0  0
 19 42  1  0  0  0  0
 19 43  1  0  0  0  0
 20 21  1  0  0  0  0
 20 44  1  0  0  0  0
 21 45  1  0  0  0  0
 21 46  1  0  0  0  0
 21 47  1  0  0  0  0
M  END
> <s_m_source_file>
AV-unprocessed.smi

> <i_m_source_file_index>
1346

> <i_lp_mmshare_version>
43012

> <i_f3d_flags>
0

> <s_epik_input>
W0NIM11jMW5vYyhbQ0gzXSljMVtDSDJdQyg9TylbTkhdW0NIMl1bQ0gyXU9bQ0BASF0yW0NIMl1bQ0gyXVtDSDJdW0NIMl1bQ0BIXTJbQ0gzXQ==

> <s_epik_cmdline>
J2VwaWtfcHl0aG9uJywgJy1waCcsICc3LjAnLCAnLXRuJywgJzgnLCAnLW1hJywgJzIwMCcsICctbWV0YWxfYmluZGluZycsICctaW1hZScsICc8aW5maWxlLm1hZT4nLCAnLW9tYWUnLCAnPG91dGZpbGUubWFlPic=

> <r_lp_tautomer_probability>
1

> <r_epik_Ionization_Penalty>
3.26154e-08

> <r_epik_Ionization_Penalty_Charging>
0

> <r_epik_Ionization_Penalty_Neutral>
3.26154e-08

> <r_epik_State_Penalty>
-0

> <r_epik_Charging_Adjusted_Penalty>
0

> <i_epik_Tot_Q>
0

> <i_epik_Tot_abs_Q>
0

> <r_epik_Metal_State_Penalty>
-0

> <b_epik_Metal_Only>
0

> <s_lp_Force_Field>
OPLS_2005

> <r_lp_Energy>
6.45158

> <b_lp_Chiralities_Consistent>
1

> <s_lp_Variant>
AV-unprocessed.smi:1346-2

> <Gold.Version>
5.8.1

> <Gold.Id.Protein>
6NUR|6NUR_protein|mol2

> <Gold.PLP.Fitness>
53.5659

> <Gold.PLP.PLP>
-48.0776

> <Gold.PLP.part.hbond>
-2.0000

> <Gold.PLP.part.metal>
0.0000

> <Gold.PLP.part.buried>
-5.4104

> <Gold.PLP.part.nonpolar>
-40.7295

> <Gold.PLP.part.repulsive>
0.4347

> <Gold.PLP.ligand.clash>
0.0000

> <Gold.PLP.ligand.torsion>
0.2747

> <Gold.PLP.Chemscore.Hbond>
1.9920

> <Gold.PLP.Chemscore.CHOScore>
0.0000

> <Gold.PLP.Chemscore.Metal>
0.0000

> <Gold.Chemscore.Hbonds>
donor molecule, donor type, donor heavy atom, donor atom, acceptor molecule, acceptor atom, score
      L1  H    11    30       P1  8028  1.00
      P1  H  7989  7998       L1    10  0.85

> <Gold.PLP.Chemscore.Internal.Correction>
0.0617

> <Gold.Rescore>
     Score         DG    S(hbond)    S(metal)    S(lipo)     H(rot)  DE(clash)    DE(int)     intcor
     18.52     -19.01       0.99        0.00     125.29       1.74       0.08       0.41       ----

> <Gold.Chemscore.Fitness>
18.5167

> <Gold.Chemscore.DG>
-19.0074

> <Gold.Chemscore.ZeroCoef>
-5.4800

> <Gold.Chemscore.Hbond>
0.9912

> <Gold.Chemscore.Metal>
0.0000

> <Gold.Chemscore.Lipo>
125.2894

> <Gold.Chemscore.Internal_Hbond>
0.0000

> <Gold.Chemscore.DEClash>
0.0775

> <Gold.Chemscore.DEInternal>
0.4132

> <Gold.Chemscore.Rot>
1.7352

> <Gold.Chemscore.Internal.Correction>
   9.000000E+99

> <Gold.Chemscore.Hbonds>
donor molecule, donor type, donor heavy atom, donor atom, acceptor molecule, acceptor atom, score
      L1  H    11    30       P1  8028  1.00
      P1  H  7989  7998       L1    10  0.16

> <Gold.Chemscore.Hbond.Weighted>
-3.3106

> <Gold.Chemscore.Metal.Weighted>
-0.0000

> <Gold.Chemscore.Lipo.Weighted>
-14.6589

> <Gold.Chemscore.Internal_Hbond.Weighted>
0.0000

> <Gold.Chemscore.DEClash.Weighted>
0.0775

> <Gold.Chemscore.DEInternal.Weighted>
0.4132

> <Gold.Chemscore.Rot.Weighted>
4.4420

> <Gold.Chemscore.Internal.Correction.Weighted>
   9.000000E+99

> <Gold.Protein.RotatedTorsions>
[ 6907 6896 6895 6894 ] final    0.59 input  -60.11 | X-H torsion
[ 7974 7965 7964 7962 ] final   95.08 input  175.53 | X-H torsion
[ 8008 7997 7996 7995 ] final  -21.59 input   59.86 | X-H torsion
[ 10167 10162 10161 10158 ] final  132.13 input  -65.29 | X-H torsion
[ 10718 10713 10712 10709 ] final  166.25 input   66.30 | X-H torsion
[ 10763 10752 10751 10750 ] final -147.74 input  -60.55 | X-H torsion
[ 11005 11000 10999 10996 ] final -173.70 input  -57.11 | X-H torsion

> <Gold.Protein.ActiveResidues>
 VAL166  LYS551  ARG553  GLY616  TRP617  ASP618  TYR619  PRO620  LYS621  CYS622 
 ASP623  PHE694  ASN695  SER759  ASP760  ASP761  ALA762  ILE779  LEU786  VAL792 
 PHE793  MET794  SER795  GLU796  ALA797  LYS798  CYS799  TRP800  GLU811  SER814 

> <Gold.Protein.RotatedAtoms>
  151.5789  135.1059  160.0012 H   0  0  0  0  0  0  0  0  0  0  0  0  # atno 6907 bound_to 6896
  152.4364  133.7364  159.6627 H   0  0  0  0  0  0  0  0  0  0  0  0  # atno 6908 bound_to 6896
  150.8262  133.8098  159.3141 H   0  0  0  0  0  0  0  0  0  0  0  0  # atno 6909 bound_to 6896
  145.4570  139.2289  143.3008 H   0  0  0  0  0  0  0  0  0  0  0  0  # atno 7974 bound_to 7965
  154.4696  140.2030  156.0029 H   0  0  0  0  0  0  0  0  0  0  0  0  # atno 8008 bound_to 7997
  156.0988  140.3247  155.7884 H   0  0  0  0  0  0  0  0  0  0  0  0  # atno 8009 bound_to 7997
  155.4833  140.0540  157.2955 H   0  0  0  0  0  0  0  0  0  0  0  0  # atno 8010 bound_to 7997
  139.5353  144.6676  151.4807 H   0  0  0  0  0  0  0  0  0  0  0  0  # atno 10167 bound_to 10162
  157.0685  131.0360  151.2620 H   0  0  0  0  0  0  0  0  0  0  0  0  # atno 10718 bound_to 10713
  154.8270  135.3352  154.6865 H   0  0  0  0  0  0  0  0  0  0  0  0  # atno 10763 bound_to 10752
  153.7490  135.6940  153.4954 H   0  0  0  0  0  0  0  0  0  0  0  0  # atno 10764 bound_to 10752
  153.2190  135.4455  155.0418 H   0  0  0  0  0  0  0  0  0  0  0  0  # atno 10765 bound_to 10752
  140.4828  134.6059  157.4926 H   0  0  0  0  0  0  0  0  0  0  0  0  # atno 11005 bound_to 11000
  146.2472  140.5335  142.8908 LP  0  0  0  0  0  0  0  0  0  0  0  0  # atno 17320 bound_to 7965
  144.8026  140.6241  143.6468 LP  0  0  0  0  0  0  0  0  0  0  0  0  # atno 17321 bound_to 7965
  140.6556  143.8607  150.6831 LP  0  0  0  0  0  0  0  0  0  0  0  0  # atno 17342 bound_to 10162
  140.1985  143.3978  152.1810 LP  0  0  0  0  0  0  0  0  0  0  0  0  # atno 17343 bound_to 10162
  157.4897  130.7814  149.7495 LP  0  0  0  0  0  0  0  0  0  0  0  0  # atno 17370 bound_to 10713
  155.9957  130.3910  150.2807 LP  0  0  0  0  0  0  0  0  0  0  0  0  # atno 17371 bound_to 10713
  139.9816  134.7128  155.9849 LP  0  0  0  0  0  0  0  0  0  0  0  0  # atno 17394 bound_to 11000
  141.1522  133.6547  156.4050 LP  0  0  0  0  0  0  0  0  0  0  0  0  # atno 17395 bound_to 11000

$$$$
