AV-unprocessed.smi:3203|AV-procd|sdf|12249|dock3
  -GOLD-   2272018 83D 1   1.00000     0.00000
 Structure written by MMmdl.
 32 33  0  0  0  0  0  0  0  0  1 V2000
  151.0812  144.2345  159.4230 C   0  0  0  0  0  0  0  0  0  0  0  0
  151.9975  143.2319  160.1063 C   0  0  0  0  0  0  0  0  0  0  0  0
  152.4799  143.5085  161.4030 C   0  0  0  0  0  0  0  0  0  0  0  0
  153.3259  142.5795  162.0325 C   0  0  0  0  0  0  0  0  0  0  0  0
  153.6553  141.4052  161.3339 C   0  0  0  0  0  0  0  0  0  0  0  0
  153.1989  141.1326  160.0946 N   0  0  0  0  0  0  0  0  0  0  0  0
  152.3812  142.0192  159.4731 C   0  0  0  0  0  0  0  0  0  0  0  0
  151.8624  141.8007  158.1670 N   0  0  0  0  0  0  0  0  0  0  0  0
  152.0223  140.7328  157.3621 C   0  0  0  0  0  0  0  0  0  0  0  0
  152.6898  139.7372  157.6411 O   0  0  0  0  0  0  0  0  0  0  0  0
  151.3278  140.8083  156.0017 C   0  0  0  0  0  0  0  0  0  0  0  0
  150.7705  139.5418  155.6818 O   0  0  0  0  0  0  0  0  0  0  0  0
  150.0759  139.5460  154.4472 C   0  0  0  0  0  0  0  0  0  0  0  0
  148.7112  140.1658  154.6563 C   0  0  0  0  0  0  0  0  0  0  0  0
  147.8713  140.5876  153.4721 C   0  0  0  0  0  0  0  0  0  0  0  0
  148.4806  141.6328  154.3718 C   0  0  0  0  0  0  0  0  0  0  0  0
  150.9048  145.1060  160.0543 H   0  0  0  0  0  0  0  0  0  0  0  0
  150.1154  143.7794  159.2015 H   0  0  0  0  0  0  0  0  0  0  0  0
  151.5230  144.5820  158.4886 H   0  0  0  0  0  0  0  0  0  0  0  0
  152.2066  144.4212  161.9124 H   0  0  0  0  0  0  0  0  0  0  0  0
  153.7114  142.7618  163.0245 H   0  0  0  0  0  0  0  0  0  0  0  0
  154.3024  140.6651  161.7806 H   0  0  0  0  0  0  0  0  0  0  0  0
  151.2846  142.5433  157.8010 H   0  0  0  0  0  0  0  0  0  0  0  0
  150.5477  141.5696  156.0450 H   0  0  0  0  0  0  0  0  0  0  0  0
  152.0476  141.1079  155.2381 H   0  0  0  0  0  0  0  0  0  0  0  0
  150.6295  140.1131  153.6967 H   0  0  0  0  0  0  0  0  0  0  0  0
  149.9511  138.5275  154.0767 H   0  0  0  0  0  0  0  0  0  0  0  0
  148.1636  139.7485  155.4994 H   0  0  0  0  0  0  0  0  0  0  0  0
  148.2989  140.4706  152.4781 H   0  0  0  0  0  0  0  0  0  0  0  0
  146.7964  140.4324  153.5384 H   0  0  0  0  0  0  0  0  0  0  0  0
  147.8132  142.1740  155.0392 H   0  0  0  0  0  0  0  0  0  0  0  0
  149.3145  142.2103  153.9778 H   0  0  0  0  0  0  0  0  0  0  0  0
  1  2  1  0  0  0  0
  1 17  1  0  0  0  0
  1 18  1  0  0  0  0
  1 19  1  0  0  0  0
  2  7  1  0  0  0  0
  2  3  2  0  0  0  0
  3  4  1  0  0  0  0
  3 20  1  0  0  0  0
  4  5  2  0  0  0  0
  4 21  1  0  0  0  0
  5  6  1  0  0  0  0
  5 22  1  0  0  0  0
  6  7  2  0  0  0  0
  7  8  1  0  0  0  0
  8  9  1  0  0  0  0
  8 23  1  0  0  0  0
  9 10  2  0  0  0  0
  9 11  1  0  0  0  0
 11 12  1  0  0  0  0
 11 24  1  0  0  0  0
 11 25  1  0  0  0  0
 12 13  1  0  0  0  0
 13 14  1  0  0  0  0
 13 26  1  0  0  0  0
 13 27  1  0  0  0  0
 14 16  1  0  0  0  0
 14 15  1  0  0  0  0
 14 28  1  0  0  0  0
 15 16  1  0  0  0  0
 15 29  1  0  0  0  0
 15 30  1  0  0  0  0
 16 31  1  0  0  0  0
 16 32  1  0  0  0  0
M  END
> <s_m_source_file>
AV-unprocessed.smi

> <i_m_source_file_index>
3203

> <i_lp_mmshare_version>
43012

> <i_f3d_flags>
0

> <s_epik_input>
W0NIM11jMVtjSF1bY0hdW2NIXW5jMVtOSF1DKD1PKVtDSDJdT1tDSDJdW0NIXTJbQ0gyXVtDSDJdMg==

> <s_epik_cmdline>
J2VwaWtfcHl0aG9uJywgJy1waCcsICc3LjAnLCAnLXRuJywgJzgnLCAnLW1hJywgJzIwMCcsICctbWV0YWxfYmluZGluZycsICctaW1hZScsICc8aW5maWxlLm1hZT4nLCAnLW9tYWUnLCAnPG91dGZpbGUubWFlPic=

> <r_epik_Ionization_Penalty>
0.00323497

> <r_epik_Ionization_Penalty_Charging>
0

> <r_epik_Ionization_Penalty_Neutral>
0.00323497

> <r_epik_State_Penalty>
0.00315819

> <r_epik_Charging_Adjusted_Penalty>
0.00315819

> <i_epik_Tot_Q>
0

> <i_epik_Tot_abs_Q>
0

> <r_epik_Metal_State_Penalty>
-0

> <b_epik_Metal_Only>
0

> <s_lp_Force_Field>
OPLS_2005

> <r_lp_Energy>
15.2792

> <b_lp_Chiralities_Consistent>
1

> <s_lp_Variant>
AV-unprocessed.smi:3203-1

> <Gold.Version>
5.8.1

> <Gold.Id.Protein>
6NUR|6NUR_protein|mol2

> <Gold.PLP.Fitness>
39.4283

> <Gold.PLP.PLP>
-37.1533

> <Gold.PLP.part.hbond>
-1.0000

> <Gold.PLP.part.metal>
0.0000

> <Gold.PLP.part.buried>
-2.8380

> <Gold.PLP.part.nonpolar>
-31.8430

> <Gold.PLP.part.repulsive>
0.0882

> <Gold.PLP.ligand.clash>
0.0000

> <Gold.PLP.ligand.torsion>
0.6482

> <Gold.PLP.Chemscore.Hbond>
1.0000

> <Gold.PLP.Chemscore.CHOScore>
0.0000

> <Gold.PLP.Chemscore.Metal>
0.0000

> <Gold.Chemscore.Hbonds>
donor molecule, donor type, donor heavy atom, donor atom, acceptor molecule, acceptor atom, score
      P1  H  7997  8010       L1    10  1.00

> <Gold.PLP.Chemscore.Internal.Correction>
0.5713

> <Gold.Rescore>
     Score         DG    S(hbond)    S(metal)    S(lipo)     H(rot)  DE(clash)    DE(int)     intcor
     13.33     -15.29       0.96        0.00      90.10       1.54       0.06       1.90       ----

> <Gold.Chemscore.Fitness>
13.3269

> <Gold.Chemscore.DG>
-15.2917

> <Gold.Chemscore.ZeroCoef>
-5.4800

> <Gold.Chemscore.Hbond>
0.9583

> <Gold.Chemscore.Metal>
0.0000

> <Gold.Chemscore.Lipo>
90.1003

> <Gold.Chemscore.Internal_Hbond>
0.0000

> <Gold.Chemscore.DEClash>
0.0614

> <Gold.Chemscore.DEInternal>
1.9034

> <Gold.Chemscore.Rot>
1.5355

> <Gold.Chemscore.Internal.Correction>
   9.000000E+99

> <Gold.Chemscore.Hbonds>
donor molecule, donor type, donor heavy atom, donor atom, acceptor molecule, acceptor atom, score
      P1  H  7997  8010       L1    10  0.49

> <Gold.Chemscore.Hbond.Weighted>
-3.2008

> <Gold.Chemscore.Metal.Weighted>
-0.0000

> <Gold.Chemscore.Lipo.Weighted>
-10.5417

> <Gold.Chemscore.Internal_Hbond.Weighted>
0.0000

> <Gold.Chemscore.DEClash.Weighted>
0.0614

> <Gold.Chemscore.DEInternal.Weighted>
1.9034

> <Gold.Chemscore.Rot.Weighted>
3.9308

> <Gold.Chemscore.Internal.Correction.Weighted>
   9.000000E+99

> <Gold.Protein.RotatedTorsions>
[ 6907 6896 6895 6894 ] final  -24.75 input  -60.11 | X-H torsion
[ 7974 7965 7964 7962 ] final  155.12 input  175.53 | X-H torsion
[ 8008 7997 7996 7995 ] final   48.74 input   59.86 | X-H torsion
[ 10167 10162 10161 10158 ] final -105.28 input  -65.29 | X-H torsion
[ 10718 10713 10712 10709 ] final  -95.24 input   66.30 | X-H torsion
[ 10763 10752 10751 10750 ] final  -53.22 input  -60.55 | X-H torsion
[ 11005 11000 10999 10996 ] final -161.42 input  -57.11 | X-H torsion

> <Gold.Protein.ActiveResidues>
 VAL166  LYS551  ARG553  GLY616  TRP617  ASP618  TYR619  PRO620  LYS621  CYS622 
 ASP623  PHE694  ASN695  SER759  ASP760  ASP761  ALA762  ILE779  LEU786  VAL792 
 PHE793  MET794  SER795  GLU796  ALA797  LYS798  CYS799  TRP800  GLU811  SER814 

> <Gold.Protein.RotatedAtoms>
  151.1850  135.0377  159.8808 H   0  0  0  0  0  0  0  0  0  0  0  0  # atno 6907 bound_to 6896
  152.5443  134.1020  159.8332 H   0  0  0  0  0  0  0  0  0  0  0  0  # atno 6908 bound_to 6896
  151.1142  133.5104  159.2636 H   0  0  0  0  0  0  0  0  0  0  0  0  # atno 6909 bound_to 6896
  144.8045  139.7025  143.6168 H   0  0  0  0  0  0  0  0  0  0  0  0  # atno 7974 bound_to 7965
  155.3907  140.3433  155.4251 H   0  0  0  0  0  0  0  0  0  0  0  0  # atno 8008 bound_to 7997
  156.1559  140.1585  156.8726 H   0  0  0  0  0  0  0  0  0  0  0  0  # atno 8009 bound_to 7997
  154.5094  140.0794  156.7942 H   0  0  0  0  0  0  0  0  0  0  0  0  # atno 8010 bound_to 7997
  140.2002  143.3824  152.1136 H   0  0  0  0  0  0  0  0  0  0  0  0  # atno 10167 bound_to 10162
  156.0040  130.5101  150.6046 H   0  0  0  0  0  0  0  0  0  0  0  0  # atno 10718 bound_to 10713
  154.1553  135.6483  153.4973 H   0  0  0  0  0  0  0  0  0  0  0  0  # atno 10763 bound_to 10752
  153.0126  135.5348  154.6766 H   0  0  0  0  0  0  0  0  0  0  0  0  # atno 10764 bound_to 10752
  154.6065  135.2949  155.0451 H   0  0  0  0  0  0  0  0  0  0  0  0  # atno 10765 bound_to 10752
  140.6206  134.4755  157.5223 H   0  0  0  0  0  0  0  0  0  0  0  0  # atno 11005 bound_to 11000
  146.2333  139.5857  142.9540 LP  0  0  0  0  0  0  0  0  0  0  0  0  # atno 17320 bound_to 7965
  145.5472  141.0416  143.2298 LP  0  0  0  0  0  0  0  0  0  0  0  0  # atno 17321 bound_to 7965
  139.5220  144.7054  151.5371 LP  0  0  0  0  0  0  0  0  0  0  0  0  # atno 17342 bound_to 10162
  140.6396  143.8916  150.6679 LP  0  0  0  0  0  0  0  0  0  0  0  0  # atno 17343 bound_to 10162
  157.3889  131.0792  151.1411 LP  0  0  0  0  0  0  0  0  0  0  0  0  # atno 17370 bound_to 10713
  157.2109  130.6437  149.5774 LP  0  0  0  0  0  0  0  0  0  0  0  0  # atno 17371 bound_to 10713
  139.9155  134.8255  156.1381 LP  0  0  0  0  0  0  0  0  0  0  0  0  # atno 17394 bound_to 11000
  141.0745  133.6781  156.2208 LP  0  0  0  0  0  0  0  0  0  0  0  0  # atno 17395 bound_to 11000

$$$$
