AV-unprocessed.smi:2692|AV-procd|sdf|10396|dock2
  -GOLD-   2272014433D 1   1.00000     0.00000
 Structure written by MMmdl.
 20 20  0  0  0  0  0  0  0  0  3 V2000
  147.7947  138.7596  152.4560 N   0  3  0  0  0  0  0  0  0  0  0  0
  148.0252  139.0117  153.8875 C   0  0  0  0  0  0  0  0  0  0  0  0
  149.1735  140.0067  154.0992 C   0  0  0  0  0  0  0  0  0  0  0  0
  150.4020  139.3367  154.6791 C   0  0  0  0  0  0  0  0  0  0  0  0
  150.9218  138.1540  154.1110 C   0  0  0  0  0  0  0  0  0  0  0  0
  152.0183  137.5225  154.5810 N   0  0  0  0  0  0  0  0  0  0  0  0
  152.6440  138.0566  155.6525 C   0  0  0  0  0  0  0  0  0  0  0  0
  152.2069  139.2343  156.2937 C   0  0  0  0  0  0  0  0  0  0  0  0
  152.8775  139.7353  157.3709 O   0  5  0  0  0  0  0  0  0  0  0  0
  151.0622  139.8859  155.7971 C   0  0  0  0  0  0  0  0  0  0  0  0
  148.0815  137.8179  152.2303 H   0  0  0  0  0  0  0  0  0  0  0  0
  148.3331  139.4160  151.9090 H   0  0  0  0  0  0  0  0  0  0  0  0
  147.1045  139.3948  154.3289 H   0  0  0  0  0  0  0  0  0  0  0  0
  148.2487  138.0635  154.3780 H   0  0  0  0  0  0  0  0  0  0  0  0
  149.4421  140.4782  153.1528 H   0  0  0  0  0  0  0  0  0  0  0  0
  148.8585  140.8103  154.7663 H   0  0  0  0  0  0  0  0  0  0  0  0
  150.4476  137.7040  153.2512 H   0  0  0  0  0  0  0  0  0  0  0  0
  153.5188  137.5293  156.0048 H   0  0  0  0  0  0  0  0  0  0  0  0
  150.6999  140.7914  156.2619 H   0  0  0  0  0  0  0  0  0  0  0  0
  146.8129  138.8720  152.2475 H   0  0  0  0  0  0  0  0  0  0  0  0
  1  2  1  0  0  0  0
  1 11  1  0  0  0  0
  1 12  1  0  0  0  0
  1 20  1  0  0  0  0
  2  3  1  0  0  0  0
  2 13  1  0  0  0  0
  2 14  1  0  0  0  0
  3  4  1  0  0  0  0
  3 15  1  0  0  0  0
  3 16  1  0  0  0  0
  4 10  1  0  0  0  0
  4  5  2  0  0  0  0
  5  6  1  0  0  0  0
  5 17  1  0  0  0  0
  6  7  2  0  0  0  0
  7  8  1  0  0  0  0
  7 18  1  0  0  0  0
  8  9  1  0  0  0  0
  8 10  2  0  0  0  0
 10 19  1  0  0  0  0
M  CHG  1   1   1
M  CHG  1   9  -1
M  END
> <s_m_source_file>
AV-unprocessed.smi

> <i_m_source_file_index>
2692

> <i_lp_mmshare_version>
43012

> <i_f3d_flags>
0

> <s_epik_input>
W05IMl1bQ0gyXVtDSDJdYzFbY0hdbltjSF1jKFtPSF0pW2NIXTE=

> <s_epik_cmdline>
J2VwaWtfcHl0aG9uJywgJy1waCcsICc3LjAnLCAnLXRuJywgJzgnLCAnLW1hJywgJzIwMCcsICctbWV0YWxfYmluZGluZycsICctaW1hZScsICc8aW5maWxlLm1hZT4nLCAnLW9tYWUnLCAnPG91dGZpbGUubWFlPic=

> <r_epik_Ionization_Penalty>
3.23431

> <r_epik_Ionization_Penalty_Charging>
1.61725

> <r_epik_Ionization_Penalty_Neutral>
1.61706

> <r_epik_State_Penalty>
2.11228

> <r_epik_Charging_Adjusted_Penalty>
3.72953

> <i_epik_Tot_Q>
0

> <i_epik_Tot_abs_Q>
2

> <r_epik_Metal_State_Penalty>
0.426281

> <b_epik_Metal_Only>
0

> <s_lp_Force_Field>
OPLS_2005

> <r_lp_Energy>
-2.16473

> <b_lp_Chiralities_Consistent>
1

> <s_lp_Variant>
AV-unprocessed.smi:2692-3

> <Gold.Version>
5.8.1

> <Gold.Id.Protein>
6NUR|6NUR_protein|mol2

> <Gold.PLP.Fitness>
40.1870

> <Gold.PLP.PLP>
-20.5038

> <Gold.PLP.part.hbond>
-4.0000

> <Gold.PLP.part.metal>
0.0000

> <Gold.PLP.part.buried>
-0.4816

> <Gold.PLP.part.nonpolar>
-16.5523

> <Gold.PLP.part.repulsive>
0.1981

> <Gold.PLP.ligand.clash>
0.0000

> <Gold.PLP.ligand.torsion>
0.4512

> <Gold.PLP.Chemscore.Hbond>
5.7441

> <Gold.PLP.Chemscore.CHOScore>
1.1177

> <Gold.PLP.Chemscore.Metal>
0.0000

> <Gold.Chemscore.Hbonds>
donor molecule, donor type, donor heavy atom, donor atom, acceptor molecule, acceptor atom, score
      L1  H     1    11       P1  7948  2.00
      L1  H     1    12       P1  7957  1.00
      P1  H  7997  8010       L1     9  2.00
      P1  H 10752 10763       L1     6  0.72
      L1  C     5    17       P1  7948  0.69
      L1  C     5    17       P1  7949  0.43

> <Gold.PLP.Chemscore.Internal.Correction>
0.0003

> <Gold.Rescore>
     Score         DG    S(hbond)    S(metal)    S(lipo)     H(rot)  DE(clash)    DE(int)     intcor
     18.09     -18.62       3.30        0.00      47.11       1.33       0.12       0.41       ----

> <Gold.Chemscore.Fitness>
18.0854

> <Gold.Chemscore.DG>
-18.6176

> <Gold.Chemscore.ZeroCoef>
-5.4800

> <Gold.Chemscore.Hbond>
3.3037

> <Gold.Chemscore.Metal>
0.0000

> <Gold.Chemscore.Lipo>
47.1066

> <Gold.Chemscore.Internal_Hbond>
0.0000

> <Gold.Chemscore.DEClash>
0.1214

> <Gold.Chemscore.DEInternal>
0.4108

> <Gold.Chemscore.Rot>
1.3313

> <Gold.Chemscore.Internal.Correction>
   9.000000E+99

> <Gold.Chemscore.Hbonds>
donor molecule, donor type, donor heavy atom, donor atom, acceptor molecule, acceptor atom, score
      L1  H     1    11       P1  7948  1.00
      L1  H     1    12       P1  7957  0.97
      P1  H  7997  8010       L1     9  0.50
      P1  H 10752 10763       L1     6  0.31

> <Gold.Chemscore.Hbond.Weighted>
-11.0343

> <Gold.Chemscore.Metal.Weighted>
-0.0000

> <Gold.Chemscore.Lipo.Weighted>
-5.5115

> <Gold.Chemscore.Internal_Hbond.Weighted>
0.0000

> <Gold.Chemscore.DEClash.Weighted>
0.1214

> <Gold.Chemscore.DEInternal.Weighted>
0.4108

> <Gold.Chemscore.Rot.Weighted>
3.4082

> <Gold.Chemscore.Internal.Correction.Weighted>
   9.000000E+99

> <Gold.Protein.RotatedTorsions>
[ 6907 6896 6895 6894 ] final  -77.98 input  -60.11 | X-H torsion
[ 7974 7965 7964 7962 ] final   59.98 input  175.53 | X-H torsion
[ 8008 7997 7996 7995 ] final   49.88 input   59.86 | X-H torsion
[ 10167 10162 10161 10158 ] final   54.60 input  -65.29 | X-H torsion
[ 10718 10713 10712 10709 ] final  130.85 input   66.30 | X-H torsion
[ 10763 10752 10751 10750 ] final   42.51 input  -60.55 | X-H torsion
[ 11005 11000 10999 10996 ] final -130.18 input  -57.11 | X-H torsion

> <Gold.Protein.ActiveResidues>
 VAL166  LYS551  ARG553  GLY616  TRP617  ASP618  TYR619  PRO620  LYS621  CYS622 
 ASP623  PHE694  ASN695  SER759  ASP760  ASP761  ALA762  ILE779  LEU786  VAL792 
 PHE793  MET794  SER795  GLU796  ALA797  LYS798  CYS799  TRP800  GLU811  SER814 

> <Gold.Protein.RotatedAtoms>
  150.6984  134.4340  159.5261 H   0  0  0  0  0  0  0  0  0  0  0  0  # atno 6907 bound_to 6896
  152.2062  134.8540  160.0511 H   0  0  0  0  0  0  0  0  0  0  0  0  # atno 6908 bound_to 6896
  151.9442  133.3612  159.4013 H   0  0  0  0  0  0  0  0  0  0  0  0  # atno 6909 bound_to 6896
  145.9011  139.3582  143.0592 H   0  0  0  0  0  0  0  0  0  0  0  0  # atno 7974 bound_to 7965
  155.4096  140.3441  155.4262 H   0  0  0  0  0  0  0  0  0  0  0  0  # atno 8008 bound_to 7997
  156.1457  140.1555  156.8883 H   0  0  0  0  0  0  0  0  0  0  0  0  # atno 8009 bound_to 7997
  154.5008  140.0815  156.7775 H   0  0  0  0  0  0  0  0  0  0  0  0  # atno 8010 bound_to 7997
  140.2284  144.3713  150.6424 H   0  0  0  0  0  0  0  0  0  0  0  0  # atno 10167 bound_to 10162
  157.5023  131.1094  150.9410 H   0  0  0  0  0  0  0  0  0  0  0  0  # atno 10718 bound_to 10713
  152.9881  135.6129  154.2960 H   0  0  0  0  0  0  0  0  0  0  0  0  # atno 10763 bound_to 10752
  154.2683  135.2780  155.2751 H   0  0  0  0  0  0  0  0  0  0  0  0  # atno 10764 bound_to 10752
  154.5145  135.5832  153.6688 H   0  0  0  0  0  0  0  0  0  0  0  0  # atno 10765 bound_to 10752
  140.9368  134.1246  157.4186 H   0  0  0  0  0  0  0  0  0  0  0  0  # atno 11005 bound_to 11000
  145.8789  140.9375  143.0611 LP  0  0  0  0  0  0  0  0  0  0  0  0  # atno 17320 bound_to 7965
  144.6736  140.0754  143.7471 LP  0  0  0  0  0  0  0  0  0  0  0  0  # atno 17321 bound_to 7965
  140.6203  143.2176  151.6707 LP  0  0  0  0  0  0  0  0  0  0  0  0  # atno 17342 bound_to 10162
  139.5119  144.3495  152.0666 LP  0  0  0  0  0  0  0  0  0  0  0  0  # atno 17343 bound_to 10162
  157.0077  130.5624  149.5317 LP  0  0  0  0  0  0  0  0  0  0  0  0  # atno 17370 bound_to 10713
  156.0236  130.5331  150.8346 LP  0  0  0  0  0  0  0  0  0  0  0  0  # atno 17371 bound_to 10713
  139.8810  135.0023  156.6121 LP  0  0  0  0  0  0  0  0  0  0  0  0  # atno 17394 bound_to 11000
  140.7788  133.8677  155.8551 LP  0  0  0  0  0  0  0  0  0  0  0  0  # atno 17395 bound_to 11000

$$$$
