AV-unprocessed.smi:1746|AV-procd|sdf|7034|dock10
  -GOLD-   22720 8253D 1   1.00000     0.00000
 Structure written by MMmdl.
 35 36  0  0  0  0  0  0  0  0  1 V2000
  150.1001  141.9347  157.5959 C   0  0  0  0  0  0  0  0  0  0  0  0
  150.8196  141.9408  156.2417 C   0  0  0  0  0  0  0  0  0  0  0  0
  150.4781  140.7776  155.4467 N   0  0  0  0  0  0  0  0  0  0  0  0
  149.2373  140.4065  154.9679 C   0  0  0  0  0  0  0  0  0  0  0  0
  149.4400  139.2448  154.2779 C   0  0  0  0  0  0  0  0  0  0  0  0
  148.5045  138.4364  153.5838 N   0  0  0  0  0  0  0  0  0  0  0  0
  147.1654  138.5362  153.6093 C   0  0  0  0  0  0  0  0  0  0  0  0
  146.5298  139.3713  154.2532 O   0  0  0  0  0  0  0  0  0  0  0  0
  146.5913  137.6026  152.8382 N   0  0  0  0  0  0  0  0  0  0  0  0
  145.1533  137.4351  152.6608 C   0  0  0  0  0  0  0  0  0  0  0  0
  144.8039  136.0224  152.1636 C   0  0  1  0  0  0  0  0  0  0  0  0
  145.3735  135.6976  150.7852 C   0  0  0  0  0  0  0  0  0  0  0  0
  145.3929  134.1865  150.8176 C   0  0  0  0  0  0  0  0  0  0  0  0
  145.7943  133.9051  152.2636 C   0  0  0  0  0  0  0  0  0  0  0  0
  145.3633  135.0327  153.0231 O   0  0  0  0  0  0  0  0  0  0  0  0
  150.8283  138.9701  154.3816 C   0  0  0  0  0  0  0  0  0  0  0  0
  151.4494  139.9012  155.0897 N   0  0  0  0  0  0  0  0  0  0  0  0
  150.3793  142.8067  158.1873 H   0  0  0  0  0  0  0  0  0  0  0  0
  150.3555  141.0453  158.1728 H   0  0  0  0  0  0  0  0  0  0  0  0
  149.0173  141.9525  157.4684 H   0  0  0  0  0  0  0  0  0  0  0  0
  150.5649  142.8396  155.6784 H   0  0  0  0  0  0  0  0  0  0  0  0
  151.8998  141.9559  156.3911 H   0  0  0  0  0  0  0  0  0  0  0  0
  148.3505  140.9926  155.1589 H   0  0  0  0  0  0  0  0  0  0  0  0
  148.8960  137.7043  153.0094 H   0  0  0  0  0  0  0  0  0  0  0  0
  147.1888  136.9536  152.3474 H   0  0  0  0  0  0  0  0  0  0  0  0
  144.6403  137.6424  153.6014 H   0  0  0  0  0  0  0  0  0  0  0  0
  144.8040  138.1815  151.9470 H   0  0  0  0  0  0  0  0  0  0  0  0
  143.7223  135.8780  152.1397 H   0  0  0  0  0  0  0  0  0  0  0  0
  144.7708  136.1005  149.9706 H   0  0  0  0  0  0  0  0  0  0  0  0
  146.3893  136.0826  150.6853 H   0  0  0  0  0  0  0  0  0  0  0  0
  144.3926  133.7972  150.6226 H   0  0  0  0  0  0  0  0  0  0  0  0
  146.0777  133.7485  150.0909 H   0  0  0  0  0  0  0  0  0  0  0  0
  145.3545  132.9814  152.6404 H   0  0  0  0  0  0  0  0  0  0  0  0
  146.8782  133.8241  152.3514 H   0  0  0  0  0  0  0  0  0  0  0  0
  151.3947  138.1449  153.9757 H   0  0  0  0  0  0  0  0  0  0  0  0
  1  2  1  0  0  0  0
  1 18  1  0  0  0  0
  1 19  1  0  0  0  0
  1 20  1  0  0  0  0
  2  3  1  0  0  0  0
  2 21  1  0  0  0  0
  2 22  1  0  0  0  0
  3 17  1  0  0  0  0
  3  4  1  0  0  0  0
  4  5  2  0  0  0  0
  4 23  1  0  0  0  0
  5  6  1  0  0  0  0
  5 16  1  0  0  0  0
  6  7  1  0  0  0  0
  6 24  1  0  0  0  0
  7  8  2  0  0  0  0
  7  9  1  0  0  0  0
  9 10  1  0  0  0  0
  9 25  1  0  0  0  0
 10 11  1  0  0  0  0
 10 26  1  0  0  0  0
 10 27  1  0  0  0  0
 11 15  1  0  0  0  0
 11 12  1  0  0  0  0
 11 28  1  0  0  0  0
 12 13  1  0  0  0  0
 12 29  1  0  0  0  0
 12 30  1  0  0  0  0
 13 14  1  0  0  0  0
 13 31  1  0  0  0  0
 13 32  1  0  0  0  0
 14 15  1  0  0  0  0
 14 33  1  0  0  0  0
 14 34  1  0  0  0  0
 16 17  2  0  0  0  0
 16 35  1  0  0  0  0
M  END
> <s_m_source_file>
AV-unprocessed.smi

> <i_m_source_file_index>
1746

> <i_lp_mmshare_version>
43012

> <i_f3d_flags>
0

> <s_epik_input>
W0NIM11bQ0gyXW4xW2NIXWMoW2NIXW4xKVtOSF1DKD1PKVtOSF1bQ0gyXVtDQEBIXTJbQ0gyXVtDSDJdW0NIMl1PMg==

> <s_epik_cmdline>
J2VwaWtfcHl0aG9uJywgJy1waCcsICc3LjAnLCAnLXRuJywgJzgnLCAnLW1hJywgJzIwMCcsICctbWV0YWxfYmluZGluZycsICctaW1hZScsICc8aW5maWxlLm1hZT4nLCAnLW9tYWUnLCAnPG91dGZpbGUubWFlPic=

> <r_lp_tautomer_probability>
1

> <r_epik_Ionization_Penalty>
0.000176839

> <r_epik_Ionization_Penalty_Charging>
0

> <r_epik_Ionization_Penalty_Neutral>
0.000176839

> <r_epik_State_Penalty>
-0

> <r_epik_Charging_Adjusted_Penalty>
0

> <i_epik_Tot_Q>
0

> <i_epik_Tot_abs_Q>
0

> <r_epik_Metal_State_Penalty>
-0

> <b_epik_Metal_Only>
0

> <s_lp_Force_Field>
OPLS_2005

> <r_lp_Energy>
20.4125

> <b_lp_Chiralities_Consistent>
1

> <s_lp_Variant>
AV-unprocessed.smi:1746-2

> <Gold.Version>
5.8.1

> <Gold.Id.Protein>
6NUR|6NUR_protein|mol2

> <Gold.PLP.Fitness>
36.5032

> <Gold.PLP.PLP>
-30.2705

> <Gold.PLP.part.hbond>
-3.8036

> <Gold.PLP.part.metal>
0.0000

> <Gold.PLP.part.buried>
-3.6182

> <Gold.PLP.part.nonpolar>
-23.8674

> <Gold.PLP.part.repulsive>
0.3020

> <Gold.PLP.ligand.clash>
0.0000

> <Gold.PLP.ligand.torsion>
0.1861

> <Gold.PLP.Chemscore.Hbond>
2.2000

> <Gold.PLP.Chemscore.CHOScore>
0.0000

> <Gold.PLP.Chemscore.Metal>
0.0000

> <Gold.Chemscore.Hbonds>
donor molecule, donor type, donor heavy atom, donor atom, acceptor molecule, acceptor atom, score
      L1  H     6    24       P1  7948  1.00
      L1  H     9    25       P1  7948  1.00
      P1  H  7989  7998       L1    17  0.16

> <Gold.PLP.Chemscore.Internal.Correction>
0.0048

> <Gold.Rescore>
     Score         DG    S(hbond)    S(metal)    S(lipo)     H(rot)  DE(clash)    DE(int)     intcor
     14.43     -15.81       1.97        0.00      62.83       1.41       0.16       1.22       ----

> <Gold.Chemscore.Fitness>
14.4258

> <Gold.Chemscore.DG>
-15.8079

> <Gold.Chemscore.ZeroCoef>
-5.4800

> <Gold.Chemscore.Hbond>
1.9691

> <Gold.Chemscore.Metal>
0.0000

> <Gold.Chemscore.Lipo>
62.8346

> <Gold.Chemscore.Internal_Hbond>
0.0000

> <Gold.Chemscore.DEClash>
0.1610

> <Gold.Chemscore.DEInternal>
1.2211

> <Gold.Chemscore.Rot>
1.4064

> <Gold.Chemscore.Internal.Correction>
   9.000000E+99

> <Gold.Chemscore.Hbonds>
donor molecule, donor type, donor heavy atom, donor atom, acceptor molecule, acceptor atom, score
      L1  H     6    24       P1  7948  1.00
      L1  H     9    25       P1  7948  0.96

> <Gold.Chemscore.Hbond.Weighted>
-6.5767

> <Gold.Chemscore.Metal.Weighted>
-0.0000

> <Gold.Chemscore.Lipo.Weighted>
-7.3516

> <Gold.Chemscore.Internal_Hbond.Weighted>
0.0000

> <Gold.Chemscore.DEClash.Weighted>
0.1610

> <Gold.Chemscore.DEInternal.Weighted>
1.2211

> <Gold.Chemscore.Rot.Weighted>
3.6004

> <Gold.Chemscore.Internal.Correction.Weighted>
   9.000000E+99

> <Gold.Protein.RotatedTorsions>
[ 6907 6896 6895 6894 ] final   48.19 input  -60.11 | X-H torsion
[ 7974 7965 7964 7962 ] final -146.48 input  175.53 | X-H torsion
[ 8008 7997 7996 7995 ] final  161.46 input   59.86 | X-H torsion
[ 10167 10162 10161 10158 ] final   31.67 input  -65.29 | X-H torsion
[ 10718 10713 10712 10709 ] final -102.36 input   66.30 | X-H torsion
[ 10763 10752 10751 10750 ] final   15.22 input  -60.55 | X-H torsion
[ 11005 11000 10999 10996 ] final -143.85 input  -57.11 | X-H torsion

> <Gold.Protein.ActiveResidues>
 VAL166  LYS551  ARG553  GLY616  TRP617  ASP618  TYR619  PRO620  LYS621  CYS622 
 ASP623  PHE694  ASN695  SER759  ASP760  ASP761  ALA762  ILE779  LEU786  VAL792 
 PHE793  MET794  SER795  GLU796  ALA797  LYS798  CYS799  TRP800  GLU811  SER814 

> <Gold.Protein.RotatedAtoms>
  152.2767  134.7874  160.0404 H   0  0  0  0  0  0  0  0  0  0  0  0  # atno 6907 bound_to 6896
  151.8467  133.3427  159.3668 H   0  0  0  0  0  0  0  0  0  0  0  0  # atno 6908 bound_to 6896
  150.7173  134.5267  159.5724 H   0  0  0  0  0  0  0  0  0  0  0  0  # atno 6909 bound_to 6896
  144.8156  140.5450  143.5613 H   0  0  0  0  0  0  0  0  0  0  0  0  # atno 7974 bound_to 7965
  156.2101  140.1776  156.7713 H   0  0  0  0  0  0  0  0  0  0  0  0  # atno 8008 bound_to 7997
  154.5711  140.0682  156.8995 H   0  0  0  0  0  0  0  0  0  0  0  0  # atno 8009 bound_to 7997
  155.2672  140.3340  155.4270 H   0  0  0  0  0  0  0  0  0  0  0  0  # atno 8010 bound_to 7997
  140.4568  144.0967  150.6203 H   0  0  0  0  0  0  0  0  0  0  0  0  # atno 10167 bound_to 10162
  156.0226  130.5417  150.7098 H   0  0  0  0  0  0  0  0  0  0  0  0  # atno 10718 bound_to 10713
  153.1546  135.6785  153.8832 H   0  0  0  0  0  0  0  0  0  0  0  0  # atno 10763 bound_to 10752
  153.8247  135.3125  155.3414 H   0  0  0  0  0  0  0  0  0  0  0  0  # atno 10764 bound_to 10752
  154.7888  135.4847  154.0092 H   0  0  0  0  0  0  0  0  0  0  0  0  # atno 10765 bound_to 10752
  140.8084  134.2774  157.4951 H   0  0  0  0  0  0  0  0  0  0  0  0  # atno 11005 bound_to 11000
  145.5221  139.1476  143.3546 LP  0  0  0  0  0  0  0  0  0  0  0  0  # atno 17320 bound_to 7965
  146.2459  140.5362  142.8914 LP  0  0  0  0  0  0  0  0  0  0  0  0  # atno 17321 bound_to 7965
  140.4142  143.2642  151.9796 LP  0  0  0  0  0  0  0  0  0  0  0  0  # atno 17342 bound_to 10162
  139.4802  144.5889  151.7806 LP  0  0  0  0  0  0  0  0  0  0  0  0  # atno 17343 bound_to 10162
  157.4739  131.0896  151.0612 LP  0  0  0  0  0  0  0  0  0  0  0  0  # atno 17370 bound_to 10713
  157.1065  130.6003  149.5472 LP  0  0  0  0  0  0  0  0  0  0  0  0  # atno 17371 bound_to 10713
  139.8716  134.9469  156.3952 LP  0  0  0  0  0  0  0  0  0  0  0  0  # atno 17394 bound_to 11000
  140.9223  133.7636  155.9922 LP  0  0  0  0  0  0  0  0  0  0  0  0  # atno 17395 bound_to 11000

$$$$
