#       Name:                AV-unprocessed.smi:244
#       Creating user name   scv26
#       Creation time:       Thu Mar 26 20:51:15 2020


#       File generated by GOLD software.
#

@<TRIPOS>MOLECULE
AV-unprocessed.smi:244
    67    71     1
SMALL
NO_CHARGES


@<TRIPOS>ATOM
      1 ****        -3.3593   2.2255  -3.1076 C.3            1 S1                 0.0000
      2 ****        -3.7212   2.1558  -1.6989 N.3            1 S1                 0.0000
      3 ****        -5.0992   1.6750  -1.5790 C.3            1 S1                 0.0000
      4 ****        -5.5213   1.6178  -0.1004 C.3            1 S1                 0.0000
      5 ****        -4.5663   0.7119   0.6824 C.3            1 S1                 0.0000
      6 ****        -4.9137   0.7016   2.0618 O.3            1 S1                 0.0000
      7 ****        -4.0876  -0.1964   2.7949 C.3            1 S1                 0.0000
      8 ****        -2.6202   0.2499   2.6887 C.3            1 S1                 0.0000
      9 ****        -2.2139   0.3816   1.2913 N.3            1 S1                 0.0000
     10 ****        -0.8839   0.6290   1.2096 C.ar           1 S1                 0.0000
     11 ****        -0.4238   1.9008   1.0677 N.ar           1 S1                 0.0000
     12 ****         0.8908   2.1363   1.0141 C.ar           1 S1                 0.0000
     13 ****         1.8991   1.2649   1.0924 N.ar           1 S1                 0.0000
     14 ****         1.4402  -0.0103   1.2476 C.ar           1 S1                 0.0000
     15 ****         0.0771  -0.4115   1.3171 C.ar           1 S1                 0.0000
     16 ****        -0.0081  -1.7881   1.4810 N.2            1 S1                 0.0000
     17 ****         1.2366  -2.1801   1.5077 C.2            1 S1                 0.0000
     18 ****         2.1718  -1.1788   1.3691 N.pl3          1 S1                 0.0000
     19 ****         3.6182  -1.3340   1.3655 C.3            1 S1                 0.0000
     20 ****         4.2062  -1.7064  -0.0177 C.3            1 S1                 0.0000
     21 ****         3.6943  -2.9795  -0.3741 O.3            1 S1                 0.0000
     22 ****         3.8183  -0.6966  -1.1201 C.3            1 S1                 0.0000
     23 ****         4.5709  -0.9600  -2.4364 C.3            1 S1                 0.0000
     24 ****         5.9745  -0.9653  -2.2053 O.3            1 S1                 0.0000
     25 ****         6.3832  -2.0052  -1.3250 C.3            1 S1                 0.0000
     26 ****         5.7431  -1.8049   0.0602 C.3            1 S1                 0.0000
     27 ****        -3.1231   1.2273   0.5103 C.3            1 S1                 0.0000
     28 ****        -2.7941   1.2600  -1.0029 C.3            1 S1                 0.0000
     29 ****        -4.0299   2.8984  -3.6430 H              1 S1                 0.0000
     30 ****        -3.4106   1.2436  -3.5807 H              1 S1                 0.0000
     31 ****        -2.3449   2.6081  -3.2241 H              1 S1                 0.0000
     32 ****        -5.7680   2.3436  -2.1225 H              1 S1                 0.0000
     33 ****        -5.1925   0.6878  -2.0345 H              1 S1                 0.0000
     34 ****        -5.5202   2.6216   0.3266 H              1 S1                 0.0000
     35 ****        -6.5421   1.2440  -0.0186 H              1 S1                 0.0000
     36 ****        -4.6499  -0.3033   0.2880 H              1 S1                 0.0000
     37 ****        -4.4044  -0.2000   3.8378 H              1 S1                 0.0000
     38 ****        -4.2122  -1.2142   2.4214 H              1 S1                 0.0000
     39 ****        -2.4898   1.2094   3.1914 H              1 S1                 0.0000
     40 ****        -1.9839  -0.4700   3.2052 H              1 S1                 0.0000
     41 ****         1.1748   3.1714   0.8944 H              1 S1                 0.0000
     42 ****         1.5099  -3.2185   1.6265 H              1 S1                 0.0000
     43 ****         4.0589  -0.4014   1.7200 H              1 S1                 0.0000
     44 ****         3.8804  -2.0919   2.1052 H              1 S1                 0.0000
     45 ****         4.0554  -3.2244  -1.2125 H              1 S1                 0.0000
     46 ****         2.7434  -0.7128  -1.3037 H              1 S1                 0.0000
     47 ****         4.0561   0.3127  -0.7817 H              1 S1                 0.0000
     48 ****         4.2610  -1.9055  -2.8844 H              1 S1                 0.0000
     49 ****         4.3382  -0.1786  -3.1600 H              1 S1                 0.0000
     50 ****         6.1205  -2.9777  -1.7442 H              1 S1                 0.0000
     51 ****         7.4696  -1.9830  -1.2387 H              1 S1                 0.0000
     52 ****         6.1414  -0.8861   0.4927 H              1 S1                 0.0000
     53 ****         6.0424  -2.6119   0.7306 H              1 S1                 0.0000
     54 ****        -3.0658   2.2425   0.9076 H              1 S1                 0.0000
     55 ****        -2.8479   0.2556  -1.4269 H              1 S1                 0.0000
     56 ****        -1.7789   1.6205  -1.1677 H              1 S1                 0.0000
     57 ****        -3.6605   3.0625  -1.2815 LP             1 S1                 0.0000
     58 ****        -5.8678   0.4173   2.1556 LP             1 S1                 0.0000
     59 ****        -4.8026   1.6235   2.4329 LP             1 S1                 0.0000
     60 ****        -2.3229  -0.4917   0.8166 LP             1 S1                 0.0000
     61 ****        -1.0701   2.6611   1.0034 LP             1 S1                 0.0000
     62 ****         2.8662   1.5148   1.0436 LP             1 S1                 0.0000
     63 ****        -0.8322  -2.3490   1.5602 LP             1 S1                 0.0000
     64 ****         2.6971  -2.9368  -0.4359 LP             1 S1                 0.0000
     65 ****         3.9569  -3.6538   0.3161 LP             1 S1                 0.0000
     66 ****         6.2360  -0.0868  -1.8055 LP             1 S1                 0.0000
     67 ****         6.4422  -1.0854  -3.0809 LP             1 S1                 0.0000
@<TRIPOS>BOND
    1    1    2 1     
    2    1   29 1     
    3    1   30 1     
    4    1   31 1     
    5    2   28 1     
    6    2    3 1     
    7    3    4 1     
    8    3   32 1     
    9    3   33 1     
   10    4    5 1     
   11    4   34 1     
   12    4   35 1     
   13    5   27 1     
   14    5    6 1     
   15    5   36 1     
   16    6    7 1     
   17    7    8 1     
   18    7   37 1     
   19    7   38 1     
   20    8    9 1     
   21    8   39 1     
   22    8   40 1     
   23    9   10 1     
   24    9   27 1     
   25   10   15 ar    
   26   10   11 ar    
   27   11   12 ar    
   28   12   13 ar    
   29   12   41 1     
   30   13   14 ar    
   31   14   18 1     
   32   14   15 ar    
   33   15   16 1     
   34   16   17 2     
   35   17   18 1     
   36   17   42 1     
   37   18   19 1     
   38   19   20 1     
   39   19   43 1     
   40   19   44 1     
   41   20   26 1     
   42   20   21 1     
   43   20   22 1     
   44   21   45 1     
   45   22   23 1     
   46   22   46 1     
   47   22   47 1     
   48   23   24 1     
   49   23   48 1     
   50   23   49 1     
   51   24   25 1     
   52   25   26 1     
   53   25   50 1     
   54   25   51 1     
   55   26   52 1     
   56   26   53 1     
   57   27   28 1     
   58   27   54 1     
   59   28   55 1     
   60   28   56 1     
   61    2   57 1     
   62    6   58 1     
   63    6   59 1     
   64    9   60 1     
   65   11   61 1     
   66   13   62 1     
   67   16   63 1     
   68   21   64 1     
   69   21   65 1     
   70   24   66 1     
   71   24   67 1     
@<TRIPOS>SUBSTRUCTURE
      1 S1             1
@<TRIPOS>SET
LONE_PAIRS      STATIC     ATOMS    <user>   **** ""
11 57 58 59 60 61 62 63 64 65 66 67
DONOR_HYDROGENS      STATIC     ATOMS    <user>   **** ""
1 45
ATOM$BLUE        STATIC     ATOMS    COLORGROUP SYSTEM
11 57 58 59 60 61 62 63 64 65 66 67
ATOM$RED        STATIC     ATOMS    COLORGROUP SYSTEM
1 45
