AV-unprocessed.smi:243|AV-procd|sdf|1850|dock8
  -GOLD-   2262020473D 1   1.00000     0.00000
 Structure written by MMmdl.
 58 61  0  0  0  0  0  0  0  0  2 V2000
  143.5279  132.7497  148.5362 C   0  0  0  0  0  0  0  0  0  0  0  0
  144.0640  133.0027  149.9523 C   0  0  0  0  0  0  0  0  0  0  0  0
  145.0322  134.1309  150.0053 N   0  3  2  0  0  0  0  0  0  0  0  0
  146.2776  133.8072  150.7438 C   0  0  0  0  0  0  0  0  0  0  0  0
  146.0365  133.7569  152.2603 C   0  0  0  0  0  0  0  0  0  0  0  0
  145.4391  135.0829  152.7849 C   0  0  2  0  0  0  0  0  0  0  0  0
  145.2392  135.0673  154.2424 N   0  0  0  0  0  0  0  0  0  0  0  0
  143.9631  134.5540  154.7275 C   0  0  0  0  0  0  0  0  0  0  0  0
  145.7178  136.1189  154.9537 C   0  0  0  0  0  0  0  0  0  0  0  0
  145.6400  136.0511  156.3063 N   0  0  0  0  0  0  0  0  0  0  0  0
  146.0904  137.0593  157.0586 C   0  0  0  0  0  0  0  0  0  0  0  0
  146.6415  138.2097  156.6677 N   0  0  0  0  0  0  0  0  0  0  0  0
  146.7133  138.2891  155.3083 C   0  0  0  0  0  0  0  0  0  0  0  0
  146.2804  137.2976  154.3828 C   0  0  0  0  0  0  0  0  0  0  0  0
  146.5314  137.7247  153.0839 N   0  0  0  0  0  0  0  0  0  0  0  0
  147.0739  138.9018  153.2330 C   0  0  0  0  0  0  0  0  0  0  0  0
  147.2108  139.3246  154.5359 N   0  0  0  0  0  0  0  0  0  0  0  0
  147.7738  140.5876  154.9895 C   0  0  0  0  0  0  0  0  0  0  0  0
  149.2916  140.7213  154.7194 C   0  0  1  0  0  0  0  0  0  0  0  0
  149.4864  141.1934  153.3974 O   0  0  0  0  0  0  0  0  0  0  0  0
  149.9829  141.6810  155.6787 C   0  0  0  0  0  0  0  0  0  0  0  0
  151.4074  141.1440  155.7209 C   0  0  0  0  0  0  0  0  0  0  0  0
  151.2210  139.7385  155.7155 O   0  0  0  0  0  0  0  0  0  0  0  0
  150.0992  139.4191  154.8966 C   0  0  0  0  0  0  0  0  0  0  0  0
  144.1713  135.4681  151.9741 C   0  0  1  0  0  0  0  0  0  0  0  0
  143.6465  136.8646  152.3547 C   0  0  0  0  0  0  0  0  0  0  0  0
  144.4631  135.4290  150.4555 C   0  0  0  0  0  0  0  0  0  0  0  0
  142.9139  131.8492  148.5164 H   0  0  0  0  0  0  0  0  0  0  0  0
  144.3419  132.6095  147.8244 H   0  0  0  0  0  0  0  0  0  0  0  0
  142.9047  133.5701  148.1814 H   0  0  0  0  0  0  0  0  0  0  0  0
  143.2391  133.1590  150.6472 H   0  0  0  0  0  0  0  0  0  0  0  0
  144.5682  132.0932  150.2810 H   0  0  0  0  0  0  0  0  0  0  0  0
  146.6919  132.8621  150.3908 H   0  0  0  0  0  0  0  0  0  0  0  0
  147.0247  134.5692  150.5182 H   0  0  0  0  0  0  0  0  0  0  0  0
  145.3734  132.9221  152.4874 H   0  0  0  0  0  0  0  0  0  0  0  0
  146.9798  133.5417  152.7627 H   0  0  0  0  0  0  0  0  0  0  0  0
  146.1806  135.8602  152.5936 H   0  0  0  0  0  0  0  0  0  0  0  0
  143.9086  134.5945  155.8165 H   0  0  0  0  0  0  0  0  0  0  0  0
  143.8451  133.5118  154.4302 H   0  0  0  0  0  0  0  0  0  0  0  0
  143.1233  135.1166  154.3204 H   0  0  0  0  0  0  0  0  0  0  0  0
  145.9931  136.9263  158.1261 H   0  0  0  0  0  0  0  0  0  0  0  0
  147.3893  139.4981  152.3893 H   0  0  0  0  0  0  0  0  0  0  0  0
  147.2320  141.4002  154.5035 H   0  0  0  0  0  0  0  0  0  0  0  0
  147.5728  140.6830  156.0574 H   0  0  0  0  0  0  0  0  0  0  0  0
  149.3950  140.4654  152.8019 H   0  0  0  0  0  0  0  0  0  0  0  0
  149.9261  142.7263  155.3722 H   0  0  0  0  0  0  0  0  0  0  0  0
  149.5435  141.6024  156.6743 H   0  0  0  0  0  0  0  0  0  0  0  0
  151.9653  141.4432  154.8320 H   0  0  0  0  0  0  0  0  0  0  0  0
  151.9584  141.4733  156.6021 H   0  0  0  0  0  0  0  0  0  0  0  0
  149.5264  138.6482  155.4108 H   0  0  0  0  0  0  0  0  0  0  0  0
  150.4282  139.0009  153.9440 H   0  0  0  0  0  0  0  0  0  0  0  0
  143.3791  134.7487  152.1788 H   0  0  0  0  0  0  0  0  0  0  0  0
  144.3945  137.6344  152.1624 H   0  0  0  0  0  0  0  0  0  0  0  0
  143.3774  136.9257  153.4086 H   0  0  0  0  0  0  0  0  0  0  0  0
  142.7552  137.1175  151.7799 H   0  0  0  0  0  0  0  0  0  0  0  0
  145.1830  136.2101  150.2067 H   0  0  0  0  0  0  0  0  0  0  0  0
  143.5645  135.6678  149.8879 H   0  0  0  0  0  0  0  0  0  0  0  0
  145.3189  134.2704  149.0468 H   0  0  0  0  0  0  0  0  0  0  0  0
  1  2  1  0  0  0  0
  1 28  1  0  0  0  0
  1 29  1  0  0  0  0
  1 30  1  0  0  0  0
  2  3  1  0  0  0  0
  2 31  1  0  0  0  0
  2 32  1  0  0  0  0
  3 27  1  0  0  0  0
  3  4  1  0  0  0  0
  3 58  1  0  0  0  0
  4  5  1  0  0  0  0
  4 33  1  0  0  0  0
  4 34  1  0  0  0  0
  5  6  1  0  0  0  0
  5 35  1  0  0  0  0
  5 36  1  0  0  0  0
  6  7  1  0  0  0  0
  6 25  1  0  0  0  0
  6 37  1  0  0  0  0
  7  8  1  0  0  0  0
  7  9  1  0  0  0  0
  8 38  1  0  0  0  0
  8 39  1  0  0  0  0
  8 40  1  0  0  0  0
  9 14  1  0  0  0  0
  9 10  2  0  0  0  0
 10 11  1  0  0  0  0
 11 12  2  0  0  0  0
 11 41  1  0  0  0  0
 12 13  1  0  0  0  0
 13 17  1  0  0  0  0
 13 14  2  0  0  0  0
 14 15  1  0  0  0  0
 15 16  2  0  0  0  0
 16 17  1  0  0  0  0
 16 42  1  0  0  0  0
 17 18  1  0  0  0  0
 18 19  1  0  0  0  0
 18 43  1  0  0  0  0
 18 44  1  0  0  0  0
 19 24  1  0  0  0  0
 19 20  1  0  0  0  0
 19 21  1  0  0  0  0
 20 45  1  0  0  0  0
 21 22  1  0  0  0  0
 21 46  1  0  0  0  0
 21 47  1  0  0  0  0
 22 23  1  0  0  0  0
 22 48  1  0  0  0  0
 22 49  1  0  0  0  0
 23 24  1  0  0  0  0
 24 50  1  0  0  0  0
 24 51  1  0  0  0  0
 25 26  1  0  0  0  0
 25 27  1  0  0  0  0
 25 52  1  0  0  0  0
 26 53  1  0  0  0  0
 26 54  1  0  0  0  0
 26 55  1  0  0  0  0
 27 56  1  0  0  0  0
 27 57  1  0  0  0  0
M  CHG  1   3   1
M  END
> <s_m_source_file>
AV-unprocessed.smi

> <i_m_source_file_index>
243

> <i_lp_mmshare_version>
43012

> <i_f3d_flags>
0

> <s_epik_input>
W0NIM11bQ0gyXU4xW0NIMl1bQ0gyXVtDQEhdKFtDQEBIXShbQ0gzXSlbQ0gyXTEpTihbQ0gzXSljKG5bY0hdbjIpYyhjMjMpbltjSF1uM1tDSDJdW0NAQF00KFtPSF0pW0NIMl1bQ0gyXU9bQ0gyXTQ=

> <s_epik_cmdline>
J2VwaWtfcHl0aG9uJywgJy1waCcsICc3LjAnLCAnLXRuJywgJzgnLCAnLW1hJywgJzIwMCcsICctbWV0YWxfYmluZGluZycsICctaW1hZScsICc8aW5maWxlLm1hZT4nLCAnLW9tYWUnLCAnPG91dGZpbGUubWFlPic=

> <r_lp_tautomer_probability>
1

> <r_epik_Ionization_Penalty>
0.00253099

> <r_epik_Ionization_Penalty_Charging>
0.00137877

> <r_epik_Ionization_Penalty_Neutral>
0.00115221

> <r_epik_State_Penalty>
-0

> <r_epik_Charging_Adjusted_Penalty>
0.00137877

> <i_epik_Tot_Q>
1

> <i_epik_Tot_abs_Q>
1

> <r_epik_Metal_State_Penalty>
-0

> <b_epik_Metal_Only>
0

> <s_lp_Force_Field>
OPLS_2005

> <r_lp_Energy>
49.0604

> <b_lp_Chiralities_Consistent>
1

> <s_lp_Variant>
AV-unprocessed.smi:243-3

> <Gold.Version>
5.8.1

> <Gold.Id.Protein>
6NUR|6NUR_protein|mol2

> <Gold.PLP.Fitness>
42.5254

> <Gold.PLP.PLP>
-34.6033

> <Gold.PLP.part.hbond>
-4.0000

> <Gold.PLP.part.metal>
0.0000

> <Gold.PLP.part.buried>
-2.1894

> <Gold.PLP.part.nonpolar>
-28.5841

> <Gold.PLP.part.repulsive>
0.8029

> <Gold.PLP.ligand.clash>
0.0000

> <Gold.PLP.ligand.torsion>
2.2455

> <Gold.PLP.Chemscore.Hbond>
2.8736

> <Gold.PLP.Chemscore.CHOScore>
0.9899

> <Gold.PLP.Chemscore.Metal>
0.0000

> <Gold.Chemscore.Hbonds>
donor molecule, donor type, donor heavy atom, donor atom, acceptor molecule, acceptor atom, score
      L1  H     3    58       P1  7921  1.00
      L1  H    20    45       P1  7957  0.82
      P1  H  7989  7998       L1    20  0.04
      P1  H  8011  8017       L1    20  1.00
      L1  C    16    42       P1  7957  0.90

> <Gold.PLP.Chemscore.Internal.Correction>
0.8226

> <Gold.Rescore>
     Score         DG    S(hbond)    S(metal)    S(lipo)     H(rot)  DE(clash)    DE(int)     intcor
     11.87     -15.78       2.02        0.00      85.59       2.53       0.47       3.43       ----

> <Gold.Chemscore.Fitness>
11.8720

> <Gold.Chemscore.DG>
-15.7762

> <Gold.Chemscore.ZeroCoef>
-5.4800

> <Gold.Chemscore.Hbond>
2.0241

> <Gold.Chemscore.Metal>
0.0000

> <Gold.Chemscore.Lipo>
85.5877

> <Gold.Chemscore.Internal_Hbond>
0.0000

> <Gold.Chemscore.DEClash>
0.4702

> <Gold.Chemscore.DEInternal>
3.4340

> <Gold.Chemscore.Rot>
2.5305

> <Gold.Chemscore.Internal.Correction>
   9.000000E+99

> <Gold.Chemscore.Hbonds>
donor molecule, donor type, donor heavy atom, donor atom, acceptor molecule, acceptor atom, score
      L1  H     3    58       P1  7921  0.98
      L1  H    20    45       P1  7957  0.81
      P1  H  8011  8017       L1    20  0.25

> <Gold.Chemscore.Hbond.Weighted>
-6.7604

> <Gold.Chemscore.Metal.Weighted>
-0.0000

> <Gold.Chemscore.Lipo.Weighted>
-10.0138

> <Gold.Chemscore.Internal_Hbond.Weighted>
0.0000

> <Gold.Chemscore.DEClash.Weighted>
0.4702

> <Gold.Chemscore.DEInternal.Weighted>
3.4340

> <Gold.Chemscore.Rot.Weighted>
6.4780

> <Gold.Chemscore.Internal.Correction.Weighted>
   9.000000E+99

> <Gold.Protein.RotatedTorsions>
[ 6907 6896 6895 6894 ] final -140.92 input  -60.11 | X-H torsion
[ 7974 7965 7964 7962 ] final -177.75 input  175.53 | X-H torsion
[ 8008 7997 7996 7995 ] final  -74.73 input   59.86 | X-H torsion
[ 10167 10162 10161 10158 ] final  -97.82 input  -65.29 | X-H torsion
[ 10718 10713 10712 10709 ] final   53.46 input   66.30 | X-H torsion
[ 10763 10752 10751 10750 ] final  -23.85 input  -60.55 | X-H torsion
[ 11005 11000 10999 10996 ] final   16.07 input  -57.11 | X-H torsion

> <Gold.Protein.ActiveResidues>
 VAL166  LYS551  ARG553  GLY616  TRP617  ASP618  TYR619  PRO620  LYS621  CYS622 
 ASP623  PHE694  ASN695  SER759  ASP760  ASP761  ALA762  ILE779  LEU786  VAL792 
 PHE793  MET794  SER795  GLU796  ALA797  LYS798  CYS799  TRP800  GLU811  SER814 

> <Gold.Protein.RotatedAtoms>
  151.0670  133.5497  159.2629 H   0  0  0  0  0  0  0  0  0  0  0  0  # atno 6907 bound_to 6896
  151.2451  135.0602  159.9050 H   0  0  0  0  0  0  0  0  0  0  0  0  # atno 6908 bound_to 6896
  152.5406  134.0439  159.8133 H   0  0  0  0  0  0  0  0  0  0  0  0  # atno 6909 bound_to 6896
  144.7128  140.0972  143.6418 H   0  0  0  0  0  0  0  0  0  0  0  0  # atno 7974 bound_to 7965
  154.5356  140.0756  156.8421 H   0  0  0  0  0  0  0  0  0  0  0  0  # atno 8008 bound_to 7997
  155.3285  140.3400  155.4222 H   0  0  0  0  0  0  0  0  0  0  0  0  # atno 8009 bound_to 7997
  156.1824  140.1657  156.8235 H   0  0  0  0  0  0  0  0  0  0  0  0  # atno 8010 bound_to 7997
  140.2794  143.3292  152.0456 H   0  0  0  0  0  0  0  0  0  0  0  0  # atno 10167 bound_to 10162
  157.5168  130.8538  149.8506 H   0  0  0  0  0  0  0  0  0  0  0  0  # atno 10718 bound_to 10713
  153.6744  135.6970  153.5137 H   0  0  0  0  0  0  0  0  0  0  0  0  # atno 10763 bound_to 10752
  153.2533  135.4268  155.0819 H   0  0  0  0  0  0  0  0  0  0  0  0  # atno 10764 bound_to 10752
  154.8418  135.3537  154.6288 H   0  0  0  0  0  0  0  0  0  0  0  0  # atno 10765 bound_to 10752
  140.4512  134.1222  155.7703 H   0  0  0  0  0  0  0  0  0  0  0  0  # atno 11005 bound_to 11000
  145.9569  139.2773  143.1179 LP  0  0  0  0  0  0  0  0  0  0  0  0  # atno 17320 bound_to 7965
  145.9263  140.9080  143.0379 LP  0  0  0  0  0  0  0  0  0  0  0  0  # atno 17321 bound_to 7965
  139.4967  144.6602  151.6482 LP  0  0  0  0  0  0  0  0  0  0  0  0  # atno 17342 bound_to 10162
  140.5824  143.9922  150.6276 LP  0  0  0  0  0  0  0  0  0  0  0  0  # atno 17343 bound_to 10162
  156.0326  130.3760  150.1646 LP  0  0  0  0  0  0  0  0  0  0  0  0  # atno 17370 bound_to 10713
  156.9835  130.9871  151.3432 LP  0  0  0  0  0  0  0  0  0  0  0  0  # atno 17371 bound_to 10713
  141.1663  133.8696  157.1704 LP  0  0  0  0  0  0  0  0  0  0  0  0  # atno 17394 bound_to 11000
  140.0005  135.0029  157.0180 LP  0  0  0  0  0  0  0  0  0  0  0  0  # atno 17395 bound_to 11000

$$$$
