#       Name:                AV-unprocessed.smi:910
#       Creating user name   scv26
#       Creation time:       Fri Mar 27 02:03:44 2020


#       File generated by GOLD software.
#

@<TRIPOS>MOLECULE
AV-unprocessed.smi:910
    53    54     1
SMALL
NO_CHARGES


@<TRIPOS>ATOM
      1 ****        -4.9926   4.0582   3.5523 C.3            1 S1                 0.0000
      2 ****        -4.1144   3.1286   2.7758 C.2            1 S1                 0.0000
      3 ****        -3.0252   2.4874   3.3460 N.2            1 S1                 0.0000
      4 ****        -2.4839   1.7533   2.3720 C.2            1 S1                 0.0000
      5 ****        -1.4072   0.9586   2.4815 N.pl3          1 S1                -1.0000
      6 ****        -0.2085   1.3795   2.0191 C.2            1 S1                 0.0000
      7 ****         0.0251   2.4573   1.4670 O.2            1 S1                 0.0000
      8 ****         0.7823   0.4962   2.2081 N.am           1 S1                 0.0000
      9 ****         2.1751   0.6732   1.8107 C.3            1 S1                 0.0000
     10 ****         2.3809   0.3728   0.3197 C.3            1 S1                 0.0000
     11 ****         2.1197  -1.0036   0.0845 O.3            1 S1                 0.0000
     12 ****         2.2328  -1.3998  -1.2764 C.3            1 S1                 0.0000
     13 ****         0.9122  -1.0922  -2.0146 C.3            1 S1                 0.0000
     14 ****         0.9360  -1.6201  -3.4568 C.3            1 S1                 0.0000
     15 ****         1.2415  -3.1240  -3.4895 C.3            1 S1                 0.0000
     16 ****         2.5557  -3.4363  -2.7580 C.3            1 S1                 0.0000
     17 ****         2.5430  -2.9136  -1.3073 C.3            1 S1                 0.0000
     18 ****         3.8706  -3.2392  -0.6037 C.3            1 S1                 0.0000
     19 ****        -3.1681   1.8741   1.1987 O.3            1 S1                 0.0000
     20 ****        -4.1902   2.7439   1.4643 C.2            1 S1                 0.0000
     21 ****        -5.1272   3.0819   0.3553 C.3            1 S1                 0.0000
     22 ****        -5.9782   3.6218   3.7140 H              1 S1                 0.0000
     23 ****        -5.1298   5.0014   3.0234 H              1 S1                 0.0000
     24 ****        -4.5675   4.2874   4.5300 H              1 S1                 0.0000
     25 ****         0.5454  -0.3752   2.6591 H              1 S1                 0.0000
     26 ****         2.4997   1.6897   2.0383 H              1 S1                 0.0000
     27 ****         2.7951   0.0095   2.4135 H              1 S1                 0.0000
     28 ****         1.7379   1.0100  -0.2878 H              1 S1                 0.0000
     29 ****         3.4118   0.5974   0.0433 H              1 S1                 0.0000
     30 ****         3.0561  -0.8677  -1.7575 H              1 S1                 0.0000
     31 ****         0.0793  -1.5454  -1.4753 H              1 S1                 0.0000
     32 ****         0.7190  -0.0199  -2.0302 H              1 S1                 0.0000
     33 ****        -0.0215  -1.4245  -3.9401 H              1 S1                 0.0000
     34 ****         1.6898  -1.0802  -4.0313 H              1 S1                 0.0000
     35 ****         0.4228  -3.6750  -3.0249 H              1 S1                 0.0000
     36 ****         1.3002  -3.4691  -4.5222 H              1 S1                 0.0000
     37 ****         2.7281  -4.5131  -2.7651 H              1 S1                 0.0000
     38 ****         3.3882  -2.9880  -3.3024 H              1 S1                 0.0000
     39 ****         1.7474  -3.4334  -0.7711 H              1 S1                 0.0000
     40 ****         4.7086  -2.7344  -1.0851 H              1 S1                 0.0000
     41 ****         4.0710  -4.3106  -0.6222 H              1 S1                 0.0000
     42 ****         3.8529  -2.9298   0.4415 H              1 S1                 0.0000
     43 ****        -5.1067   4.1514   0.1462 H              1 S1                 0.0000
     44 ****        -6.1488   2.8071   0.6177 H              1 S1                 0.0000
     45 ****        -4.8590   2.5529  -0.5595 H              1 S1                 0.0000
     46 ****        -2.7102   2.5602   4.2923 LP             1 S1                 0.0000
     47 ****        -1.4918   0.0565   2.9046 LP             1 S1                 0.0000
     48 ****        -0.7130   3.1170   1.3254 LP             1 S1                 0.0000
     49 ****         0.9527   2.6716   1.1609 LP             1 S1                 0.0000
     50 ****         1.1889  -1.2020   0.3915 LP             1 S1                 0.0000
     51 ****         2.7696  -1.5413   0.6216 LP             1 S1                 0.0000
     52 ****        -3.5290   0.9871   0.9108 LP             1 S1                 0.0000
     53 ****        -2.5737   2.2404   0.4828 LP             1 S1                 0.0000
@<TRIPOS>BOND
    1    1   22 1     
    2    1   23 1     
    3    1   24 1     
    4    1    2 1     
    5    2    3 1     
    6    2   20 2     
    7    3    4 2     
    8    4   19 1     
    9    4    5 1     
   10    5    6 1     
   11    6    8 am    
   12    6    7 2     
   13    8    9 1     
   14    8   25 1     
   15    9   10 1     
   16    9   26 1     
   17    9   27 1     
   18   10   11 1     
   19   10   28 1     
   20   10   29 1     
   21   11   12 1     
   22   12   17 1     
   23   12   13 1     
   24   12   30 1     
   25   13   14 1     
   26   13   31 1     
   27   13   32 1     
   28   14   15 1     
   29   14   33 1     
   30   14   34 1     
   31   15   16 1     
   32   15   35 1     
   33   15   36 1     
   34   16   17 1     
   35   16   37 1     
   36   16   38 1     
   37   17   18 1     
   38   17   39 1     
   39   18   40 1     
   40   18   41 1     
   41   18   42 1     
   42   19   20 1     
   43   20   21 1     
   44   21   43 1     
   45   21   44 1     
   46   21   45 1     
   47    3   46 1     
   48    5   47 1     
   49    7   48 1     
   50    7   49 1     
   51   11   50 1     
   52   11   51 1     
   53   19   52 1     
   54   19   53 1     
@<TRIPOS>SUBSTRUCTURE
      1 S1             1
@<TRIPOS>SET
LONE_PAIRS      STATIC     ATOMS    <user>   **** ""
8 46 47 48 49 50 51 52 53
DONOR_HYDROGENS      STATIC     ATOMS    <user>   **** ""
1 25
ATOM$BLUE        STATIC     ATOMS    COLORGROUP SYSTEM
8 46 47 48 49 50 51 52 53
ATOM$RED        STATIC     ATOMS    COLORGROUP SYSTEM
1 25
