AV-unprocessed.smi:2032|AV-procd|sdf|8258|dock10
  -GOLD-   2272010533D 1   1.00000     0.00000
 Structure written by MMmdl.
 42 43  0  0  0  0  0  0  0  0  3 V2000
  151.8568  139.2110  156.4412 C   0  0  0  0  0  0  0  0  0  0  0  0
  151.4401  138.9167  154.9889 C   0  0  1  0  0  0  0  0  0  0  0  0
  150.6108  137.6252  154.8364 C   0  0  0  0  0  0  0  0  0  0  0  0
  149.2187  137.8051  155.3315 N   0  3  2  0  0  0  0  0  0  0  0  0
  148.3393  136.5928  155.2769 C   0  0  1  0  0  0  0  0  0  0  0  0
  149.0137  135.3061  155.8116 C   0  0  0  0  0  0  0  0  0  0  0  0
  147.0199  136.8645  156.0455 C   0  0  0  0  0  0  0  0  0  0  0  0
  147.2432  137.3698  157.3964 N   0  0  0  0  0  0  0  0  0  0  0  0
  146.5514  137.0107  158.4869 C   0  0  0  0  0  0  0  0  0  0  0  0
  145.6256  136.2017  158.3878 O   0  0  0  0  0  0  0  0  0  0  0  0
  146.9803  137.6054  159.6223 N   0  5  0  0  0  0  0  0  0  0  0  0
  146.9531  136.9327  160.7843 C   0  0  0  0  0  0  0  0  0  0  0  0
  147.1619  137.5163  161.9699 N   0  0  0  0  0  0  0  0  0  0  0  0
  147.0937  136.6288  163.0452 C   0  0  0  0  0  0  0  0  0  0  0  0
  146.8353  135.3375  162.6688 C   0  0  0  0  0  0  0  0  0  0  0  0
  146.6690  135.1969  160.9419 S   0  0  0  0  0  0  0  0  0  0  0  0
  148.6045  138.9780  154.6555 C   0  0  0  0  0  0  0  0  0  0  0  0
  149.4482  140.2449  154.8758 C   0  0  2  0  0  0  0  0  0  0  0  0
  148.8726  141.4550  154.1316 C   0  0  0  0  0  0  0  0  0  0  0  0
  150.7664  140.0204  154.3883 O   0  0  0  0  0  0  0  0  0  0  0  0
  152.4946  138.4160  156.8285 H   0  0  0  0  0  0  0  0  0  0  0  0
  151.0004  139.2918  157.1102 H   0  0  0  0  0  0  0  0  0  0  0  0
  152.4197  140.1424  156.5031 H   0  0  0  0  0  0  0  0  0  0  0  0
  152.3617  138.7853  154.4210 H   0  0  0  0  0  0  0  0  0  0  0  0
  150.5788  137.3292  153.7866 H   0  0  0  0  0  0  0  0  0  0  0  0
  151.1253  136.8330  155.3794 H   0  0  0  0  0  0  0  0  0  0  0  0
  148.1065  136.4061  154.2274 H   0  0  0  0  0  0  0  0  0  0  0  0
  148.3372  134.4523  155.7730 H   0  0  0  0  0  0  0  0  0  0  0  0
  149.3314  135.4220  156.8483 H   0  0  0  0  0  0  0  0  0  0  0  0
  149.8805  135.0207  155.2154 H   0  0  0  0  0  0  0  0  0  0  0  0
  146.4279  137.6055  155.5074 H   0  0  0  0  0  0  0  0  0  0  0  0
  146.3939  135.9754  156.1143 H   0  0  0  0  0  0  0  0  0  0  0  0
  147.9896  138.0385  157.5202 H   0  0  0  0  0  0  0  0  0  0  0  0
  147.2427  137.0034  164.0469 H   0  0  0  0  0  0  0  0  0  0  0  0
  146.7344  134.4655  163.2970 H   0  0  0  0  0  0  0  0  0  0  0  0
  148.5104  138.7716  153.5877 H   0  0  0  0  0  0  0  0  0  0  0  0
  147.5970  139.1590  155.0264 H   0  0  0  0  0  0  0  0  0  0  0  0
  149.4795  140.4862  155.9384 H   0  0  0  0  0  0  0  0  0  0  0  0
  147.8596  141.6775  154.4678 H   0  0  0  0  0  0  0  0  0  0  0  0
  148.8370  141.2776  153.0563 H   0  0  0  0  0  0  0  0  0  0  0  0
  149.4812  142.3434  154.3024 H   0  0  0  0  0  0  0  0  0  0  0  0
  149.3045  138.0402  156.3099 H   0  0  0  0  0  0  0  0  0  0  0  0
  1  2  1  0  0  0  0
  1 21  1  0  0  0  0
  1 22  1  0  0  0  0
  1 23  1  0  0  0  0
  2 20  1  0  0  0  0
  2  3  1  0  0  0  0
  2 24  1  0  0  0  0
  3  4  1  0  0  0  0
  3 25  1  0  0  0  0
  3 26  1  0  0  0  0
  4  5  1  0  0  0  0
  4 17  1  0  0  0  0
  4 42  1  0  0  0  0
  5  6  1  0  0  0  0
  5  7  1  0  0  0  0
  5 27  1  0  0  0  0
  6 28  1  0  0  0  0
  6 29  1  0  0  0  0
  6 30  1  0  0  0  0
  7  8  1  0  0  0  0
  7 31  1  0  0  0  0
  7 32  1  0  0  0  0
  8  9  1  0  0  0  0
  8 33  1  0  0  0  0
  9 10  2  0  0  0  0
  9 11  1  0  0  0  0
 11 12  1  0  0  0  0
 12 16  1  0  0  0  0
 12 13  2  0  0  0  0
 13 14  1  0  0  0  0
 14 15  2  0  0  0  0
 14 34  1  0  0  0  0
 15 16  1  0  0  0  0
 15 35  1  0  0  0  0
 17 18  1  0  0  0  0
 17 36  1  0  0  0  0
 17 37  1  0  0  0  0
 18 19  1  0  0  0  0
 18 20  1  0  0  0  0
 18 38  1  0  0  0  0
 19 39  1  0  0  0  0
 19 40  1  0  0  0  0
 19 41  1  0  0  0  0
M  CHG  1   4   1
M  CHG  1  11  -1
M  END
> <s_m_source_file>
AV-unprocessed.smi

> <i_m_source_file_index>
2032

> <i_lp_mmshare_version>
43012

> <i_f3d_flags>
0

> <s_epik_input>
W0NIM11bQ0BASF0xW0NIMl1OKFtDSDJdW0NASF0oTzEpW0NIM10pW0NASF0oW0NIM10pW0NIMl1bTkhdQyg9TylbTkhdYzJuW2NIXVtjSF1zMg==

> <s_epik_cmdline>
J2VwaWtfcHl0aG9uJywgJy1waCcsICc3LjAnLCAnLXRuJywgJzgnLCAnLW1hJywgJzIwMCcsICctbWV0YWxfYmluZGluZycsICctaW1hZScsICc8aW5maWxlLm1hZT4nLCAnLW9tYWUnLCAnPG91dGZpbGUubWFlPic=

> <r_lp_tautomer_probability>
0.999

> <r_epik_Ionization_Penalty>
6.71699

> <r_epik_Ionization_Penalty_Charging>
5.88592

> <r_epik_Ionization_Penalty_Neutral>
0.831074

> <r_epik_State_Penalty>
6.08365

> <r_epik_Charging_Adjusted_Penalty>
11.9696

> <i_epik_Tot_Q>
0

> <i_epik_Tot_abs_Q>
2

> <r_epik_Metal_State_Penalty>
2.0947

> <b_epik_Metal_Only>
1

> <s_lp_Force_Field>
OPLS_2005

> <r_lp_Energy>
13.797

> <b_lp_Chiralities_Consistent>
1

> <s_lp_Variant>
AV-unprocessed.smi:2032-28

> <Gold.Version>
5.8.1

> <Gold.Id.Protein>
6NUR|6NUR_protein|mol2

> <Gold.PLP.Fitness>
40.5773

> <Gold.PLP.PLP>
-32.8793

> <Gold.PLP.part.hbond>
-3.9484

> <Gold.PLP.part.metal>
0.0000

> <Gold.PLP.part.buried>
-4.8614

> <Gold.PLP.part.nonpolar>
-25.4422

> <Gold.PLP.part.repulsive>
0.1339

> <Gold.PLP.ligand.clash>
0.0000

> <Gold.PLP.ligand.torsion>
0.5641

> <Gold.PLP.Chemscore.Hbond>
2.9193

> <Gold.PLP.Chemscore.CHOScore>
0.0000

> <Gold.PLP.Chemscore.Metal>
0.0000

> <Gold.Chemscore.Hbonds>
donor molecule, donor type, donor heavy atom, donor atom, acceptor molecule, acceptor atom, score
      P1  H  6931  6943       L1    13  0.69
      P1  H  6934  6947       L1    13  0.11
      P1  H  7989  7998       L1    20  0.93

> <Gold.PLP.Chemscore.Internal.Correction>
0.0684

> <Gold.Rescore>
     Score         DG    S(hbond)    S(metal)    S(lipo)     H(rot)  DE(clash)    DE(int)     intcor
     14.25     -16.11       1.92        0.00      70.46       1.58       0.01       1.85       ----

> <Gold.Chemscore.Fitness>
14.2529

> <Gold.Chemscore.DG>
-16.1068

> <Gold.Chemscore.ZeroCoef>
-5.4800

> <Gold.Chemscore.Hbond>
1.9236

> <Gold.Chemscore.Metal>
0.0000

> <Gold.Chemscore.Lipo>
70.4648

> <Gold.Chemscore.Internal_Hbond>
0.0000

> <Gold.Chemscore.DEClash>
0.0088

> <Gold.Chemscore.DEInternal>
1.8451

> <Gold.Chemscore.Rot>
1.5791

> <Gold.Chemscore.Internal.Correction>
   9.000000E+99

> <Gold.Chemscore.Hbonds>
donor molecule, donor type, donor heavy atom, donor atom, acceptor molecule, acceptor atom, score
      P1  H  6931  6943       L1    13  0.26
      P1  H  7989  7998       L1    20  0.80

> <Gold.Chemscore.Hbond.Weighted>
-6.4249

> <Gold.Chemscore.Metal.Weighted>
-0.0000

> <Gold.Chemscore.Lipo.Weighted>
-8.2444

> <Gold.Chemscore.Internal_Hbond.Weighted>
0.0000

> <Gold.Chemscore.DEClash.Weighted>
0.0088

> <Gold.Chemscore.DEInternal.Weighted>
1.8451

> <Gold.Chemscore.Rot.Weighted>
4.0425

> <Gold.Chemscore.Internal.Correction.Weighted>
   9.000000E+99

> <Gold.Protein.RotatedTorsions>
[ 6907 6896 6895 6894 ] final   38.94 input  -60.11 | X-H torsion
[ 7974 7965 7964 7962 ] final    6.14 input  175.53 | X-H torsion
[ 8008 7997 7996 7995 ] final   35.92 input   59.86 | X-H torsion
[ 10167 10162 10161 10158 ] final  123.37 input  -65.29 | X-H torsion
[ 10718 10713 10712 10709 ] final  169.32 input   66.30 | X-H torsion
[ 10763 10752 10751 10750 ] final -178.25 input  -60.55 | X-H torsion
[ 11005 11000 10999 10996 ] final  -47.77 input  -57.11 | X-H torsion

> <Gold.Protein.ActiveResidues>
 VAL166  LYS551  ARG553  GLY616  TRP617  ASP618  TYR619  PRO620  LYS621  CYS622 
 ASP623  PHE694  ASN695  SER759  ASP760  ASP761  ALA762  ILE779  LEU786  VAL792 
 PHE793  MET794  SER795  GLU796  ALA797  LYS798  CYS799  TRP800  GLU811  SER814 

> <Gold.Protein.RotatedAtoms>
  152.1631  134.8896  160.0539 H   0  0  0  0  0  0  0  0  0  0  0  0  # atno 6907 bound_to 6896
  151.9884  133.3777  159.4143 H   0  0  0  0  0  0  0  0  0  0  0  0  # atno 6908 bound_to 6896
  150.6890  134.3885  159.5110 H   0  0  0  0  0  0  0  0  0  0  0  0  # atno 6909 bound_to 6896
  146.2436  140.0278  142.8392 H   0  0  0  0  0  0  0  0  0  0  0  0  # atno 7974 bound_to 7965
  155.1790  140.3298  155.4378 H   0  0  0  0  0  0  0  0  0  0  0  0  # atno 8008 bound_to 7997
  156.2483  140.1930  156.6839 H   0  0  0  0  0  0  0  0  0  0  0  0  # atno 8009 bound_to 7997
  154.6284  140.0586  156.9688 H   0  0  0  0  0  0  0  0  0  0  0  0  # atno 8010 bound_to 7997
  139.5803  144.6983  151.3546 H   0  0  0  0  0  0  0  0  0  0  0  0  # atno 10167 bound_to 10162
  157.0243  131.0241  151.2764 H   0  0  0  0  0  0  0  0  0  0  0  0  # atno 10718 bound_to 10713
  154.5500  135.2812  155.1017 H   0  0  0  0  0  0  0  0  0  0  0  0  # atno 10763 bound_to 10752
  154.2467  135.6347  153.5229 H   0  0  0  0  0  0  0  0  0  0  0  0  # atno 10764 bound_to 10752
  153.0000  135.5573  154.6063 H   0  0  0  0  0  0  0  0  0  0  0  0  # atno 10765 bound_to 10752
  141.0661  133.6693  156.3346 H   0  0  0  0  0  0  0  0  0  0  0  0  # atno 11005 bound_to 11000
  145.1183  140.9447  143.4616 LP  0  0  0  0  0  0  0  0  0  0  0  0  # atno 17320 bound_to 7965
  145.0507  139.3184  143.5930 LP  0  0  0  0  0  0  0  0  0  0  0  0  # atno 17321 bound_to 7965
  140.7082  143.7459  150.7519 LP  0  0  0  0  0  0  0  0  0  0  0  0  # atno 17342 bound_to 10162
  140.0990  143.4806  152.2436 LP  0  0  0  0  0  0  0  0  0  0  0  0  # atno 17343 bound_to 10162
  157.5226  130.8007  149.7826 LP  0  0  0  0  0  0  0  0  0  0  0  0  # atno 17370 bound_to 10713
  156.0091  130.3841  150.2326 LP  0  0  0  0  0  0  0  0  0  0  0  0  # atno 17371 bound_to 10713
  140.5770  134.5783  157.5471 LP  0  0  0  0  0  0  0  0  0  0  0  0  # atno 17394 bound_to 11000
  139.9478  134.7671  156.0521 LP  0  0  0  0  0  0  0  0  0  0  0  0  # atno 17395 bound_to 11000

$$$$
