AV-unprocessed.smi:1158|AV-procd|sdf|4911|dock6
  -GOLD-   22720 3493D 1   1.00000     0.00000
 Structure written by MMmdl.
 42 43  0  0  0  0  0  0  0  0  1 V2000
  148.9190  132.2696  158.8838 C   0  0  0  0  0  0  0  0  0  0  0  0
  149.5074  133.3862  158.2256 O   0  0  0  0  0  0  0  0  0  0  0  0
  149.6060  133.3633  156.8473 C   0  0  0  0  0  0  0  0  0  0  0  0
  149.4038  132.1844  156.2068 N   0  0  0  0  0  0  0  0  0  0  0  0
  149.4945  132.1597  154.8615 C   0  0  0  0  0  0  0  0  0  0  0  0
  149.7811  133.2991  154.0882 C   0  0  0  0  0  0  0  0  0  0  0  0
  149.9901  134.5234  154.7495 C   0  0  0  0  0  0  0  0  0  0  0  0
  149.9142  134.5631  156.1635 C   0  0  0  0  0  0  0  0  0  0  0  0
  150.0947  135.7445  156.9362 N   0  0  0  0  0  0  0  0  0  0  0  0
  150.9623  136.7541  156.7503 C   0  0  0  0  0  0  0  0  0  0  0  0
  151.7854  136.8317  155.8387 O   0  0  0  0  0  0  0  0  0  0  0  0
  150.8309  137.6832  157.7077 N   0  0  0  0  0  0  0  0  0  0  0  0
  151.6196  138.9077  157.8076 C   0  0  0  0  0  0  0  0  0  0  0  0
  152.3302  138.9636  159.1672 C   0  0  0  0  0  0  0  0  0  0  0  0
  153.0602  140.3050  159.3531 C   0  0  0  0  0  0  0  0  0  0  0  0
  152.1176  141.4222  159.2550 N   0  0  0  0  0  0  0  0  0  0  0  0
  152.8359  142.6678  159.5236 C   0  0  0  0  0  0  0  0  0  0  0  0
  151.9886  143.9146  159.2166 C   0  0  0  0  0  0  0  0  0  0  0  0
  152.1445  144.8359  160.1673 F   0  0  0  0  0  0  0  0  0  0  0  0
  152.3676  144.4309  158.0484 F   0  0  0  0  0  0  0  0  0  0  0  0
  151.5197  141.4417  157.9159 C   0  0  0  0  0  0  0  0  0  0  0  0
  150.7241  140.1491  157.6606 C   0  0  0  0  0  0  0  0  0  0  0  0
  148.9128  132.4471  159.9591 H   0  0  0  0  0  0  0  0  0  0  0  0
  149.4858  131.3551  158.7034 H   0  0  0  0  0  0  0  0  0  0  0  0
  147.8856  132.1198  158.5678 H   0  0  0  0  0  0  0  0  0  0  0  0
  149.3280  131.2040  154.3870 H   0  0  0  0  0  0  0  0  0  0  0  0
  149.8354  133.2365  153.0114 H   0  0  0  0  0  0  0  0  0  0  0  0
  150.1897  135.4022  154.1572 H   0  0  0  0  0  0  0  0  0  0  0  0
  149.5302  135.7976  157.7716 H   0  0  0  0  0  0  0  0  0  0  0  0
  150.1310  137.5354  158.4199 H   0  0  0  0  0  0  0  0  0  0  0  0
  152.3789  138.9188  157.0231 H   0  0  0  0  0  0  0  0  0  0  0  0
  151.6077  138.8304  159.9741 H   0  0  0  0  0  0  0  0  0  0  0  0
  153.0426  138.1421  159.2502 H   0  0  0  0  0  0  0  0  0  0  0  0
  153.5396  140.3145  160.3328 H   0  0  0  0  0  0  0  0  0  0  0  0
  153.8512  140.4130  158.6090 H   0  0  0  0  0  0  0  0  0  0  0  0
  153.1070  142.7007  160.5799 H   0  0  0  0  0  0  0  0  0  0  0  0
  153.7708  142.6920  158.9613 H   0  0  0  0  0  0  0  0  0  0  0  0
  150.9242  143.7011  159.1299 H   0  0  0  0  0  0  0  0  0  0  0  0
  150.8412  142.2875  157.8158 H   0  0  0  0  0  0  0  0  0  0  0  0
  152.2956  141.5635  157.1582 H   0  0  0  0  0  0  0  0  0  0  0  0
  150.2855  140.1804  156.6626 H   0  0  0  0  0  0  0  0  0  0  0  0
  149.8907  140.0940  158.3629 H   0  0  0  0  0  0  0  0  0  0  0  0
  1  2  1  0  0  0  0
  1 23  1  0  0  0  0
  1 24  1  0  0  0  0
  1 25  1  0  0  0  0
  2  3  1  0  0  0  0
  3  8  1  0  0  0  0
  3  4  2  0  0  0  0
  4  5  1  0  0  0  0
  5  6  2  0  0  0  0
  5 26  1  0  0  0  0
  6  7  1  0  0  0  0
  6 27  1  0  0  0  0
  7  8  2  0  0  0  0
  7 28  1  0  0  0  0
  8  9  1  0  0  0  0
  9 10  1  0  0  0  0
  9 29  1  0  0  0  0
 10 11  2  0  0  0  0
 10 12  1  0  0  0  0
 12 13  1  0  0  0  0
 12 30  1  0  0  0  0
 13 22  1  0  0  0  0
 13 14  1  0  0  0  0
 13 31  1  0  0  0  0
 14 15  1  0  0  0  0
 14 32  1  0  0  0  0
 14 33  1  0  0  0  0
 15 16  1  0  0  0  0
 15 34  1  0  0  0  0
 15 35  1  0  0  0  0
 16 17  1  0  0  0  0
 16 21  1  0  0  0  0
 17 18  1  0  0  0  0
 17 36  1  0  0  0  0
 17 37  1  0  0  0  0
 18 19  1  0  0  0  0
 18 20  1  0  0  0  0
 18 38  1  0  0  0  0
 21 22  1  0  0  0  0
 21 39  1  0  0  0  0
 21 40  1  0  0  0  0
 22 41  1  0  0  0  0
 22 42  1  0  0  0  0
M  END
> <s_m_source_file>
AV-unprocessed.smi

> <i_m_source_file_index>
1158

> <i_lp_mmshare_version>
43012

> <i_f3d_flags>
0

> <s_epik_input>
W0NIM11PYzFuW2NIXVtjSF1bY0hdYzFbTkhdQyg9TylbTkhdW0NIXTJbQ0gyXVtDSDJdTihbQ0gyXVtDSF0oRilGKVtDSDJdW0NIMl0y

> <s_epik_cmdline>
J2VwaWtfcHl0aG9uJywgJy1waCcsICc3LjAnLCAnLXRuJywgJzgnLCAnLW1hJywgJzIwMCcsICctbWV0YWxfYmluZGluZycsICctaW1hZScsICc8aW5maWxlLm1hZT4nLCAnLW9tYWUnLCAnPG91dGZpbGUubWFlPic=

> <r_lp_tautomer_probability>
1

> <r_epik_Ionization_Penalty>
0.177131

> <r_epik_Ionization_Penalty_Charging>
0

> <r_epik_Ionization_Penalty_Neutral>
0.177131

> <r_epik_State_Penalty>
0.166485

> <r_epik_Charging_Adjusted_Penalty>
0.166485

> <i_epik_Tot_Q>
0

> <i_epik_Tot_abs_Q>
0

> <r_epik_Metal_State_Penalty>
0.166483

> <b_epik_Metal_Only>
0

> <s_lp_Force_Field>
OPLS_2005

> <r_lp_Energy>
18.3974

> <b_lp_Chiralities_Consistent>
1

> <s_lp_Variant>
AV-unprocessed.smi:1158-1

> <Gold.Version>
5.8.1

> <Gold.Id.Protein>
6NUR|6NUR_protein|mol2

> <Gold.PLP.Fitness>
41.6345

> <Gold.PLP.PLP>
-37.8272

> <Gold.PLP.part.hbond>
-2.0000

> <Gold.PLP.part.metal>
0.0000

> <Gold.PLP.part.buried>
-5.6552

> <Gold.PLP.part.nonpolar>
-30.3479

> <Gold.PLP.part.repulsive>
0.1681

> <Gold.PLP.ligand.clash>
0.0000

> <Gold.PLP.ligand.torsion>
1.0932

> <Gold.PLP.Chemscore.Hbond>
1.9913

> <Gold.PLP.Chemscore.CHOScore>
0.0000

> <Gold.PLP.Chemscore.Metal>
0.0000

> <Gold.Chemscore.Hbonds>
donor molecule, donor type, donor heavy atom, donor atom, acceptor molecule, acceptor atom, score
      P1  H  6896  6907       L1     2  1.00
      P1  H 10752 10764       L1    11  0.98

> <Gold.PLP.Chemscore.Internal.Correction>
0.0200

> <Gold.Rescore>
     Score         DG    S(hbond)    S(metal)    S(lipo)     H(rot)  DE(clash)    DE(int)     intcor
     15.29     -16.50       1.87        0.00      74.79       1.55       0.00       1.21       ----

> <Gold.Chemscore.Fitness>
15.2917

> <Gold.Chemscore.DG>
-16.5033

> <Gold.Chemscore.ZeroCoef>
-5.4800

> <Gold.Chemscore.Hbond>
1.8698

> <Gold.Chemscore.Metal>
0.0000

> <Gold.Chemscore.Lipo>
74.7919

> <Gold.Chemscore.Internal_Hbond>
0.0000

> <Gold.Chemscore.DEClash>
0.0000

> <Gold.Chemscore.DEInternal>
1.2116

> <Gold.Chemscore.Rot>
1.5517

> <Gold.Chemscore.Internal.Correction>
   9.000000E+99

> <Gold.Chemscore.Hbonds>
donor molecule, donor type, donor heavy atom, donor atom, acceptor molecule, acceptor atom, score
      P1  H  6896  6907       L1     2  0.35
      P1  H 10752 10764       L1    11  0.91

> <Gold.Chemscore.Hbond.Weighted>
-6.2450

> <Gold.Chemscore.Metal.Weighted>
-0.0000

> <Gold.Chemscore.Lipo.Weighted>
-8.7507

> <Gold.Chemscore.Internal_Hbond.Weighted>
0.0000

> <Gold.Chemscore.DEClash.Weighted>
0.0000

> <Gold.Chemscore.DEInternal.Weighted>
1.2116

> <Gold.Chemscore.Rot.Weighted>
3.9723

> <Gold.Chemscore.Internal.Correction.Weighted>
   9.000000E+99

> <Gold.Protein.RotatedTorsions>
[ 6907 6896 6895 6894 ] final -119.38 input  -60.11 | X-H torsion
[ 7974 7965 7964 7962 ] final  171.23 input  175.53 | X-H torsion
[ 8008 7997 7996 7995 ] final  -92.39 input   59.86 | X-H torsion
[ 10167 10162 10161 10158 ] final  118.98 input  -65.29 | X-H torsion
[ 10718 10713 10712 10709 ] final    7.23 input   66.30 | X-H torsion
[ 10763 10752 10751 10750 ] final  -41.17 input  -60.55 | X-H torsion
[ 11005 11000 10999 10996 ] final  -46.11 input  -57.11 | X-H torsion

> <Gold.Protein.ActiveResidues>
 VAL166  LYS551  ARG553  GLY616  TRP617  ASP618  TYR619  PRO620  LYS621  CYS622 
 ASP623  PHE694  ASN695  SER759  ASP760  ASP761  ALA762  ILE779  LEU786  VAL792 
 PHE793  MET794  SER795  GLU796  ALA797  LYS798  CYS799  TRP800  GLU811  SER814 

> <Gold.Protein.RotatedAtoms>
  150.8300  133.8107  159.3102 H   0  0  0  0  0  0  0  0  0  0  0  0  # atno 6907 bound_to 6896
  151.5840  135.1055  160.0033 H   0  0  0  0  0  0  0  0  0  0  0  0  # atno 6908 bound_to 6896
  152.4381  133.7355  159.6668 H   0  0  0  0  0  0  0  0  0  0  0  0  # atno 6909 bound_to 6896
  144.7300  139.9320  143.6425 H   0  0  0  0  0  0  0  0  0  0  0  0  # atno 7974 bound_to 7965
  154.7226  140.0509  157.0653 H   0  0  0  0  0  0  0  0  0  0  0  0  # atno 8008 bound_to 7997
  155.0407  140.3168  155.4706 H   0  0  0  0  0  0  0  0  0  0  0  0  # atno 8009 bound_to 7997
  156.2820  140.2133  156.5531 H   0  0  0  0  0  0  0  0  0  0  0  0  # atno 8010 bound_to 7997
  139.6076  144.7074  151.2918 H   0  0  0  0  0  0  0  0  0  0  0  0  # atno 10167 bound_to 10162
  156.9338  130.5836  149.5650 H   0  0  0  0  0  0  0  0  0  0  0  0  # atno 10718 bound_to 10713
  153.9581  135.6743  153.4745 H   0  0  0  0  0  0  0  0  0  0  0  0  # atno 10763 bound_to 10752
  153.0852  135.4903  154.8578 H   0  0  0  0  0  0  0  0  0  0  0  0  # atno 10764 bound_to 10752
  154.7288  135.3133  154.8886 H   0  0  0  0  0  0  0  0  0  0  0  0  # atno 10765 bound_to 10752
  141.0558  133.6726  156.3108 H   0  0  0  0  0  0  0  0  0  0  0  0  # atno 11005 bound_to 11000
  146.0850  139.3839  143.0441 LP  0  0  0  0  0  0  0  0  0  0  0  0  # atno 17320 bound_to 7965
  145.7788  140.9865  143.1110 LP  0  0  0  0  0  0  0  0  0  0  0  0  # atno 17321 bound_to 7965
  140.7296  143.6903  150.7927 LP  0  0  0  0  0  0  0  0  0  0  0  0  # atno 17342 bound_to 10162
  140.0492  143.5267  152.2682 LP  0  0  0  0  0  0  0  0  0  0  0  0  # atno 17343 bound_to 10162
  156.0435  130.5515  150.8827 LP  0  0  0  0  0  0  0  0  0  0  0  0  # atno 17370 bound_to 10713
  157.5830  131.0946  150.9242 LP  0  0  0  0  0  0  0  0  0  0  0  0  # atno 17371 bound_to 10713
  140.5966  134.5596  157.5510 LP  0  0  0  0  0  0  0  0  0  0  0  0  # atno 17394 bound_to 11000
  139.9389  134.7824  156.0730 LP  0  0  0  0  0  0  0  0  0  0  0  0  # atno 17395 bound_to 11000

$$$$
