AV-unprocessed.smi:34|AV-procd|sdf|215|dock9
  -GOLD-   2262015523D 1   1.00000     0.00000
 Structure written by MMmdl.
 55 59  0  0  0  0  0  0  0  0  1 V2000
  149.0954  141.5526  157.8132 O   0  0  0  0  0  0  0  0  0  0  0  0
  150.2512  141.9234  157.6062 C   0  0  0  0  0  0  0  0  0  0  0  0
  151.1698  141.1645  156.7762 N   0  0  0  0  0  0  0  0  0  0  0  0
  150.9339  140.0150  156.1018 C   0  0  0  0  0  0  0  0  0  0  0  0
  150.9662  139.9443  154.7452 N   0  0  0  0  0  0  0  0  0  0  0  0
  150.7081  138.7891  154.1264 C   0  0  0  0  0  0  0  0  0  0  0  0
  150.3976  137.6078  154.6637 N   0  0  0  0  0  0  0  0  0  0  0  0
  150.3705  137.6659  156.0262 C   0  0  0  0  0  0  0  0  0  0  0  0
  150.6305  138.8243  156.8113 C   0  0  0  0  0  0  0  0  0  0  0  0
  150.5178  138.5149  158.1598 N   0  0  0  0  0  0  0  0  0  0  0  0
  150.2032  137.2479  158.1664 C   0  0  0  0  0  0  0  0  0  0  0  0
  150.0816  136.6591  156.9270 N   0  0  0  0  0  0  0  0  0  0  0  0
  149.7158  135.2366  156.6402 C   0  0  2  0  0  0  0  0  0  0  0  0
  150.6201  134.3985  157.3035 O   0  0  0  0  0  0  0  0  0  0  0  0
  151.3368  133.6063  156.3574 C   0  0  1  0  0  0  0  0  0  0  0  0
  151.7438  132.2567  156.9626 C   0  0  0  0  0  0  0  0  0  0  0  0
  152.6751  131.6234  156.1002 O   0  0  0  0  0  0  0  0  0  0  0  0
  152.4761  130.3511  155.7060 C   0  0  0  0  0  0  0  0  0  0  0  0
  151.3790  129.7901  155.7399 O   0  0  0  0  0  0  0  0  0  0  0  0
  153.7236  129.6934  155.2198 C   0  0  0  0  0  0  0  0  0  0  0  0
  154.8884  130.4724  155.0267 C   0  0  0  0  0  0  0  0  0  0  0  0
  156.0815  129.8788  154.5703 C   0  0  0  0  0  0  0  0  0  0  0  0
  156.1245  128.4985  154.3011 C   0  0  0  0  0  0  0  0  0  0  0  0
  154.9729  127.7121  154.4897 C   0  0  0  0  0  0  0  0  0  0  0  0
  153.7790  128.3039  154.9464 C   0  0  0  0  0  0  0  0  0  0  0  0
  150.3852  133.5216  155.1648 C   0  0  1  0  0  0  0  0  0  0  0  0
  149.4268  132.6289  155.4328 F   0  0  0  0  0  0  0  0  0  0  0  0
  149.8169  134.9297  155.1393 C   0  0  1  0  0  0  0  0  0  0  0  0
  148.5734  134.9505  154.4678 O   0  0  0  0  0  0  0  0  0  0  0  0
  150.8182  143.1465  158.2666 C   0  0  0  0  0  0  0  0  0  0  0  0
  150.0848  143.8073  159.2777 C   0  0  0  0  0  0  0  0  0  0  0  0
  150.6040  144.9605  159.8980 C   0  0  0  0  0  0  0  0  0  0  0  0
  151.8574  145.4676  159.5067 C   0  0  0  0  0  0  0  0  0  0  0  0
  152.5893  144.8232  158.4916 C   0  0  0  0  0  0  0  0  0  0  0  0
  152.0713  143.6697  157.8706 C   0  0  0  0  0  0  0  0  0  0  0  0
  152.1052  141.5365  156.6996 H   0  0  0  0  0  0  0  0  0  0  0  0
  150.7543  138.8164  153.0477 H   0  0  0  0  0  0  0  0  0  0  0  0
  150.0391  136.7053  159.0861 H   0  0  0  0  0  0  0  0  0  0  0  0
  148.7157  135.1021  157.0543 H   0  0  0  0  0  0  0  0  0  0  0  0
  152.2352  134.1459  156.0600 H   0  0  0  0  0  0  0  0  0  0  0  0
  152.2019  132.4087  157.9406 H   0  0  0  0  0  0  0  0  0  0  0  0
  150.8675  131.6232  157.1076 H   0  0  0  0  0  0  0  0  0  0  0  0
  154.8798  131.5343  155.2273 H   0  0  0  0  0  0  0  0  0  0  0  0
  156.9645  130.4838  154.4273 H   0  0  0  0  0  0  0  0  0  0  0  0
  157.0395  128.0437  153.9508 H   0  0  0  0  0  0  0  0  0  0  0  0
  155.0046  126.6521  154.2847 H   0  0  0  0  0  0  0  0  0  0  0  0
  152.9141  127.6710  155.0811 H   0  0  0  0  0  0  0  0  0  0  0  0
  150.8737  133.2281  154.2351 H   0  0  0  0  0  0  0  0  0  0  0  0
  150.5207  135.6105  154.6587 H   0  0  0  0  0  0  0  0  0  0  0  0
  148.6332  135.5595  153.7476 H   0  0  0  0  0  0  0  0  0  0  0  0
  149.1214  143.4300  159.5901 H   0  0  0  0  0  0  0  0  0  0  0  0
  150.0400  145.4556  160.6749 H   0  0  0  0  0  0  0  0  0  0  0  0
  152.2558  146.3514  159.9827 H   0  0  0  0  0  0  0  0  0  0  0  0
  153.5490  145.2150  158.1880 H   0  0  0  0  0  0  0  0  0  0  0  0
  152.6467  143.1950  157.0890 H   0  0  0  0  0  0  0  0  0  0  0  0
  1  2  2  0  0  0  0
  2  3  1  0  0  0  0
  2 30  1  0  0  0  0
  3  4  1  0  0  0  0
  3 36  1  0  0  0  0
  4  9  1  0  0  0  0
  4  5  2  0  0  0  0
  5  6  1  0  0  0  0
  6  7  2  0  0  0  0
  6 37  1  0  0  0  0
  7  8  1  0  0  0  0
  8 12  1  0  0  0  0
  8  9  2  0  0  0  0
  9 10  1  0  0  0  0
 10 11  2  0  0  0  0
 11 12  1  0  0  0  0
 11 38  1  0  0  0  0
 12 13  1  0  0  0  0
 13 28  1  0  0  0  0
 13 14  1  0  0  0  0
 13 39  1  0  0  0  0
 14 15  1  0  0  0  0
 15 16  1  0  0  0  0
 15 26  1  0  0  0  0
 15 40  1  0  0  0  0
 16 17  1  0  0  0  0
 16 41  1  0  0  0  0
 16 42  1  0  0  0  0
 17 18  1  0  0  0  0
 18 19  2  0  0  0  0
 18 20  1  0  0  0  0
 20 25  1  0  0  0  0
 20 21  2  0  0  0  0
 21 22  1  0  0  0  0
 21 43  1  0  0  0  0
 22 23  2  0  0  0  0
 22 44  1  0  0  0  0
 23 24  1  0  0  0  0
 23 45  1  0  0  0  0
 24 25  2  0  0  0  0
 24 46  1  0  0  0  0
 25 47  1  0  0  0  0
 26 27  1  0  0  0  0
 26 28  1  0  0  0  0
 26 48  1  0  0  0  0
 28 29  1  0  0  0  0
 28 49  1  0  0  0  0
 29 50  1  0  0  0  0
 30 35  1  0  0  0  0
 30 31  2  0  0  0  0
 31 32  1  0  0  0  0
 31 51  1  0  0  0  0
 32 33  2  0  0  0  0
 32 52  1  0  0  0  0
 33 34  1  0  0  0  0
 33 53  1  0  0  0  0
 34 35  2  0  0  0  0
 34 54  1  0  0  0  0
 35 55  1  0  0  0  0
M  END
> <s_m_source_file>
AV-unprocessed.smi

> <i_m_source_file_index>
34

> <i_lp_mmshare_version>
43012

> <i_f3d_flags>
0

> <s_epik_input>
W2NIXTFbY0hdW2NIXVtjSF1bY0hdYzFDKD1PKVtOSF1jKG5bY0hdbjIpYyhjMjMpbltjSF1uM1tDQEBIXTRPW0NASF0oW0NAQEhdKEYpW0NASF00W09IXSlbQ0gyXU9DKD1PKWM1W2NIXVtjSF1bY0hdW2NIXVtjSF01

> <s_epik_cmdline>
J2VwaWtfcHl0aG9uJywgJy1waCcsICc3LjAnLCAnLXRuJywgJzgnLCAnLW1hJywgJzIwMCcsICctbWV0YWxfYmluZGluZycsICctaW1hZScsICc8aW5maWxlLm1hZT4nLCAnLW9tYWUnLCAnPG91dGZpbGUubWFlPic=

> <r_lp_tautomer_probability>
1

> <r_epik_Ionization_Penalty>
0.00257489

> <r_epik_Ionization_Penalty_Charging>
0

> <r_epik_Ionization_Penalty_Neutral>
0.00257489

> <r_epik_State_Penalty>
0.00519398

> <r_epik_Charging_Adjusted_Penalty>
0.00519398

> <i_epik_Tot_Q>
0

> <i_epik_Tot_abs_Q>
0

> <r_epik_Metal_State_Penalty>
0.335891

> <b_epik_Metal_Only>
0

> <s_epik_Chemistry_Notes>
This compound has an ester and may undergo hydrolysis at high or low pH. This compound contains an acetal/aminal-like group ( X-CH(R)-Y where X, Y are N, S, or O) that may be acid/base labile, releasing an aldehyde.

> <s_lp_Force_Field>
OPLS_2005

> <r_lp_Energy>
46.7099

> <b_lp_Chiralities_Consistent>
1

> <s_lp_Variant>
AV-unprocessed.smi:34-1

> <Gold.Version>
5.8.1

> <Gold.Id.Protein>
6NUR|6NUR_protein|mol2

> <Gold.PLP.Fitness>
61.4039

> <Gold.PLP.PLP>
-53.1778

> <Gold.PLP.part.hbond>
-3.0000

> <Gold.PLP.part.metal>
0.0000

> <Gold.PLP.part.buried>
-10.0408

> <Gold.PLP.part.nonpolar>
-42.2812

> <Gold.PLP.part.repulsive>
0.4645

> <Gold.PLP.ligand.clash>
0.0000

> <Gold.PLP.ligand.torsion>
1.4720

> <Gold.PLP.Chemscore.Hbond>
2.6178

> <Gold.PLP.Chemscore.CHOScore>
1.0000

> <Gold.PLP.Chemscore.Metal>
0.0000

> <Gold.Chemscore.Hbonds>
donor molecule, donor type, donor heavy atom, donor atom, acceptor molecule, acceptor atom, score
      L1  H    29    50       P1  7948  1.00
      P1  H  6896  6907       L1    14  0.56
      P1  H  7989  7998       L1     5  1.00
      L1  C     6    37       P1  7957  1.00

> <Gold.PLP.Chemscore.Internal.Correction>
0.3168

> <Gold.Rescore>
     Score         DG    S(hbond)    S(metal)    S(lipo)     H(rot)  DE(clash)    DE(int)     intcor
     16.76     -19.53       2.31        0.00     113.61       2.72       0.03       2.74       ----

> <Gold.Chemscore.Fitness>
16.7600

> <Gold.Chemscore.DG>
-19.5280

> <Gold.Chemscore.ZeroCoef>
-5.4800

> <Gold.Chemscore.Hbond>
2.3122

> <Gold.Chemscore.Metal>
0.0000

> <Gold.Chemscore.Lipo>
113.6097

> <Gold.Chemscore.Internal_Hbond>
0.0000

> <Gold.Chemscore.DEClash>
0.0290

> <Gold.Chemscore.DEInternal>
2.7389

> <Gold.Chemscore.Rot>
2.7215

> <Gold.Chemscore.Internal.Correction>
   9.000000E+99

> <Gold.Chemscore.Hbonds>
donor molecule, donor type, donor heavy atom, donor atom, acceptor molecule, acceptor atom, score
      L1  H    29    50       P1  7948  0.92
      P1  H  6896  6907       L1    14  0.49
      P1  H  7989  7998       L1     5  0.35

> <Gold.Chemscore.Hbond.Weighted>
-7.7227

> <Gold.Chemscore.Metal.Weighted>
-0.0000

> <Gold.Chemscore.Lipo.Weighted>
-13.2923

> <Gold.Chemscore.Internal_Hbond.Weighted>
0.0000

> <Gold.Chemscore.DEClash.Weighted>
0.0290

> <Gold.Chemscore.DEInternal.Weighted>
2.7389

> <Gold.Chemscore.Rot.Weighted>
6.9670

> <Gold.Chemscore.Internal.Correction.Weighted>
   9.000000E+99

> <Gold.Protein.RotatedTorsions>
[ 6907 6896 6895 6894 ] final -115.16 input  -60.11 | X-H torsion
[ 7974 7965 7964 7962 ] final  -79.48 input  175.53 | X-H torsion
[ 8008 7997 7996 7995 ] final  174.29 input   59.86 | X-H torsion
[ 10167 10162 10161 10158 ] final   58.76 input  -65.29 | X-H torsion
[ 10718 10713 10712 10709 ] final  -56.61 input   66.30 | X-H torsion
[ 10763 10752 10751 10750 ] final  -33.34 input  -60.55 | X-H torsion
[ 11005 11000 10999 10996 ] final  -92.93 input  -57.11 | X-H torsion

> <Gold.Protein.ActiveResidues>
 VAL166  LYS551  ARG553  GLY616  TRP617  ASP618  TYR619  PRO620  LYS621  CYS622 
 ASP623  PHE694  ASN695  SER759  ASP760  ASP761  ALA762  ILE779  LEU786  VAL792 
 PHE793  MET794  SER795  GLU796  ALA797  LYS798  CYS799  TRP800  GLU811  SER814 

> <Gold.Protein.RotatedAtoms>
  150.7957  133.8698  159.3255 H   0  0  0  0  0  0  0  0  0  0  0  0  # atno 6907 bound_to 6896
  151.6524  135.0998  160.0172 H   0  0  0  0  0  0  0  0  0  0  0  0  # atno 6908 bound_to 6896
  152.4038  133.6818  159.6374 H   0  0  0  0  0  0  0  0  0  0  0  0  # atno 6909 bound_to 6896
  145.5726  140.9463  143.1387 H   0  0  0  0  0  0  0  0  0  0  0  0  # atno 7974 bound_to 7965
  156.0989  140.1438  156.9494 H   0  0  0  0  0  0  0  0  0  0  0  0  # atno 8008 bound_to 7997
  154.4689  140.0916  156.7139 H   0  0  0  0  0  0  0  0  0  0  0  0  # atno 8009 bound_to 7997
  155.4794  140.3444  155.4339 H   0  0  0  0  0  0  0  0  0  0  0  0  # atno 8010 bound_to 7997
  140.1837  144.4156  150.6603 H   0  0  0  0  0  0  0  0  0  0  0  0  # atno 10167 bound_to 10162
  156.1275  130.4161  150.0329 H   0  0  0  0  0  0  0  0  0  0  0  0  # atno 10718 bound_to 10713
  153.8286  135.6868  153.4817 H   0  0  0  0  0  0  0  0  0  0  0  0  # atno 10763 bound_to 10752
  153.1525  135.4612  154.9655 H   0  0  0  0  0  0  0  0  0  0  0  0  # atno 10764 bound_to 10752
  154.7897  135.3297  154.7751 H   0  0  0  0  0  0  0  0  0  0  0  0  # atno 10765 bound_to 10752
  141.1510  133.7854  157.0089 H   0  0  0  0  0  0  0  0  0  0  0  0  # atno 11005 bound_to 11000
  144.7431  139.7395  143.7303 LP  0  0  0  0  0  0  0  0  0  0  0  0  # atno 17320 bound_to 7965
  146.1773  139.4950  142.9889 LP  0  0  0  0  0  0  0  0  0  0  0  0  # atno 17321 bound_to 7965
  140.6502  143.2223  151.6094 LP  0  0  0  0  0  0  0  0  0  0  0  0  # atno 17342 bound_to 10162
  139.5285  144.2987  152.1092 LP  0  0  0  0  0  0  0  0  0  0  0  0  # atno 17343 bound_to 10162
  156.8251  130.9372  151.3639 LP  0  0  0  0  0  0  0  0  0  0  0  0  # atno 17370 bound_to 10713
  157.6455  130.8841  149.9530 LP  0  0  0  0  0  0  0  0  0  0  0  0  # atno 17371 bound_to 10713
  140.0891  134.9603  157.1747 LP  0  0  0  0  0  0  0  0  0  0  0  0  # atno 17394 bound_to 11000
  140.3471  134.2640  155.7203 LP  0  0  0  0  0  0  0  0  0  0  0  0  # atno 17395 bound_to 11000

$$$$
