AV-unprocessed.smi:2538|AV-procd|sdf|9983|dock3
  -GOLD-   2272014 33D 1   1.00000     0.00000
 Structure written by MMmdl.
 49 50  0  0  0  0  0  0  0  0  2 V2000
  150.8146  145.3563  159.3114 C   0  0  0  0  0  0  0  0  0  0  0  0
  151.6404  144.2467  159.9399 C   0  0  0  0  0  0  0  0  0  0  0  0
  151.9496  144.3334  161.3164 C   0  0  0  0  0  0  0  0  0  0  0  0
  152.7065  143.3038  161.8627 C   0  0  0  0  0  0  0  0  0  0  0  0
  153.1694  143.0975  163.1643 N   0  3  0  0  0  0  0  0  0  0  0  0
  153.8754  141.9338  163.2168 C   0  0  0  0  0  0  0  0  0  0  0  0
  153.8684  141.3944  161.9676 N   0  0  0  0  0  0  0  0  0  0  0  0
  154.4673  140.1492  161.4693 C   0  0  0  0  0  0  0  0  0  0  0  0
  155.5129  139.5633  162.4394 C   0  0  2  0  0  0  0  0  0  0  0  0
  156.5733  140.4919  162.5529 O   0  0  0  0  0  0  0  0  0  0  0  0
  156.0778  138.2180  161.9339 C   0  0  0  0  0  0  0  0  0  0  0  0
  155.0326  137.2129  161.6612 N   0  0  0  0  0  0  0  0  0  0  0  0
  153.7735  137.3730  162.4010 C   0  0  0  0  0  0  0  0  0  0  0  0
  155.4636  135.6312  161.0852 S   0  0  0  0  0  0  0  0  0  0  0  0
  154.3256  135.1421  160.2913 O   0  0  0  0  0  0  0  0  0  0  0  0
  156.7940  135.7332  160.4653 O   0  0  0  0  0  0  0  0  0  0  0  0
  155.5850  134.6137  162.6371 C   0  0  0  0  0  0  0  0  0  0  0  0
  156.1162  133.2083  162.3216 C   0  0  0  0  0  0  0  0  0  0  0  0
  154.2299  134.5536  163.3564 C   0  0  0  0  0  0  0  0  0  0  0  0
  153.1531  142.2149  161.0897 C   0  0  0  0  0  0  0  0  0  0  0  0
  152.8579  142.1131  159.7326 C   0  0  0  0  0  0  0  0  0  0  0  0
  152.0879  143.1497  159.1585 C   0  0  0  0  0  0  0  0  0  0  0  0
  151.7483  143.0654  157.6804 C   0  0  0  0  0  0  0  0  0  0  0  0
  150.5868  146.1417  160.0328 H   0  0  0  0  0  0  0  0  0  0  0  0
  149.8692  144.9635  158.9364 H   0  0  0  0  0  0  0  0  0  0  0  0
  151.3535  145.8143  158.4816 H   0  0  0  0  0  0  0  0  0  0  0  0
  151.6111  145.1646  161.9178 H   0  0  0  0  0  0  0  0  0  0  0  0
  154.3490  141.5125  164.0918 H   0  0  0  0  0  0  0  0  0  0  0  0
  153.6626  139.4362  161.2842 H   0  0  0  0  0  0  0  0  0  0  0  0
  154.9206  140.3641  160.5003 H   0  0  0  0  0  0  0  0  0  0  0  0
  155.0467  139.4473  163.4167 H   0  0  0  0  0  0  0  0  0  0  0  0
  157.2491  140.2537  161.9366 H   0  0  0  0  0  0  0  0  0  0  0  0
  156.6178  138.3805  161.0004 H   0  0  0  0  0  0  0  0  0  0  0  0
  156.8229  137.8139  162.6200 H   0  0  0  0  0  0  0  0  0  0  0  0
  153.8459  136.9110  163.3854 H   0  0  0  0  0  0  0  0  0  0  0  0
  152.9552  136.8971  161.8607 H   0  0  0  0  0  0  0  0  0  0  0  0
  153.5253  138.4274  162.5257 H   0  0  0  0  0  0  0  0  0  0  0  0
  156.2982  135.1011  163.2971 H   0  0  0  0  0  0  0  0  0  0  0  0
  156.1957  132.6071  163.2275 H   0  0  0  0  0  0  0  0  0  0  0  0
  157.1072  133.2501  161.8697 H   0  0  0  0  0  0  0  0  0  0  0  0
  155.4557  132.6842  161.6304 H   0  0  0  0  0  0  0  0  0  0  0  0
  154.3081  134.0000  164.2923 H   0  0  0  0  0  0  0  0  0  0  0  0
  153.4749  134.0621  162.7421 H   0  0  0  0  0  0  0  0  0  0  0  0
  153.8687  135.5541  163.5959 H   0  0  0  0  0  0  0  0  0  0  0  0
  153.1996  141.2777  159.1392 H   0  0  0  0  0  0  0  0  0  0  0  0
  152.1291  142.1457  157.2354 H   0  0  0  0  0  0  0  0  0  0  0  0
  152.1866  143.9042  157.1392 H   0  0  0  0  0  0  0  0  0  0  0  0
  150.6683  143.0834  157.5324 H   0  0  0  0  0  0  0  0  0  0  0  0
  153.0148  143.7034  163.9601 H   0  0  0  0  0  0  0  0  0  0  0  0
  1  2  1  0  0  0  0
  1 24  1  0  0  0  0
  1 25  1  0  0  0  0
  1 26  1  0  0  0  0
  2 22  1  0  0  0  0
  2  3  2  0  0  0  0
  3  4  1  0  0  0  0
  3 27  1  0  0  0  0
  4 20  2  0  0  0  0
  4  5  1  0  0  0  0
  5  6  2  0  0  0  0
  5 49  1  0  0  0  0
  6  7  1  0  0  0  0
  6 28  1  0  0  0  0
  7  8  1  0  0  0  0
  7 20  1  0  0  0  0
  8  9  1  0  0  0  0
  8 29  1  0  0  0  0
  8 30  1  0  0  0  0
  9 10  1  0  0  0  0
  9 11  1  0  0  0  0
  9 31  1  0  0  0  0
 10 32  1  0  0  0  0
 11 12  1  0  0  0  0
 11 33  1  0  0  0  0
 11 34  1  0  0  0  0
 12 13  1  0  0  0  0
 12 14  1  0  0  0  0
 13 35  1  0  0  0  0
 13 36  1  0  0  0  0
 13 37  1  0  0  0  0
 14 15  2  0  0  0  0
 14 16  2  0  0  0  0
 14 17  1  0  0  0  0
 17 18  1  0  0  0  0
 17 19  1  0  0  0  0
 17 38  1  0  0  0  0
 18 39  1  0  0  0  0
 18 40  1  0  0  0  0
 18 41  1  0  0  0  0
 19 42  1  0  0  0  0
 19 43  1  0  0  0  0
 19 44  1  0  0  0  0
 20 21  1  0  0  0  0
 21 22  2  0  0  0  0
 21 45  1  0  0  0  0
 22 23  1  0  0  0  0
 23 46  1  0  0  0  0
 23 47  1  0  0  0  0
 23 48  1  0  0  0  0
M  CHG  1   5   1
M  END
> <s_m_source_file>
AV-unprocessed.smi

> <i_m_source_file_index>
2538

> <i_lp_mmshare_version>
43012

> <i_f3d_flags>
0

> <s_epik_input>
W0NIM11jKFtjSF0xKWMoW0NIM10pW2NIXWMoYzEyKW4oW2NIXW4yKVtDSDJdW0NASF0oW09IXSlbQ0gyXU4oW0NIM10pUyg9TykoPU8pW0NIXShbQ0gzXSlbQ0gzXQ==

> <s_epik_cmdline>
J2VwaWtfcHl0aG9uJywgJy1waCcsICc3LjAnLCAnLXRuJywgJzgnLCAnLW1hJywgJzIwMCcsICctbWV0YWxfYmluZGluZycsICctaW1hZScsICc8aW5maWxlLm1hZT4nLCAnLW9tYWUnLCAnPG91dGZpbGUubWFlPic=

> <r_epik_Ionization_Penalty>
1.07686

> <r_epik_Ionization_Penalty_Charging>
1.07685

> <r_epik_Ionization_Penalty_Neutral>
1.40866e-06

> <r_epik_State_Penalty>
1.13193

> <r_epik_Charging_Adjusted_Penalty>
2.20879

> <i_epik_Tot_Q>
1

> <i_epik_Tot_abs_Q>
1

> <r_epik_Metal_State_Penalty>
5.12988

> <b_epik_Metal_Only>
0

> <s_lp_Force_Field>
OPLS_2005

> <r_lp_Energy>
10.0565

> <b_lp_Chiralities_Consistent>
1

> <s_lp_Variant>
AV-unprocessed.smi:2538-3

> <Gold.Version>
5.8.1

> <Gold.Id.Protein>
6NUR|6NUR_protein|mol2

> <Gold.PLP.Fitness>
49.9660

> <Gold.PLP.PLP>
-47.4823

> <Gold.PLP.part.hbond>
-2.0000

> <Gold.PLP.part.metal>
0.0000

> <Gold.PLP.part.buried>
-4.6053

> <Gold.PLP.part.nonpolar>
-40.5573

> <Gold.PLP.part.repulsive>
0.0885

> <Gold.PLP.ligand.clash>
0.0000

> <Gold.PLP.ligand.torsion>
1.5679

> <Gold.PLP.Chemscore.Hbond>
1.0000

> <Gold.PLP.Chemscore.CHOScore>
0.0000

> <Gold.PLP.Chemscore.Metal>
0.0000

> <Gold.Chemscore.Hbonds>
donor molecule, donor type, donor heavy atom, donor atom, acceptor molecule, acceptor atom, score
      P1  H  6896  6909       L1    15  1.00

> <Gold.PLP.Chemscore.Internal.Correction>
2.6195

> <Gold.Rescore>
     Score         DG    S(hbond)    S(metal)    S(lipo)     H(rot)  DE(clash)    DE(int)     intcor
     14.12     -17.63       1.00        0.00     127.05       2.36       1.55       1.96       ----

> <Gold.Chemscore.Fitness>
14.1167

> <Gold.Chemscore.DG>
-17.6282

> <Gold.Chemscore.ZeroCoef>
-5.4800

> <Gold.Chemscore.Hbond>
0.9952

> <Gold.Chemscore.Metal>
0.0000

> <Gold.Chemscore.Lipo>
127.0466

> <Gold.Chemscore.Internal_Hbond>
0.0000

> <Gold.Chemscore.DEClash>
1.5542

> <Gold.Chemscore.DEInternal>
1.9573

> <Gold.Chemscore.Rot>
2.3595

> <Gold.Chemscore.Internal.Correction>
   9.000000E+99

> <Gold.Chemscore.Hbonds>
donor molecule, donor type, donor heavy atom, donor atom, acceptor molecule, acceptor atom, score
      P1  H  6896  6909       L1    15  0.99

> <Gold.Chemscore.Hbond.Weighted>
-3.3240

> <Gold.Chemscore.Metal.Weighted>
-0.0000

> <Gold.Chemscore.Lipo.Weighted>
-14.8645

> <Gold.Chemscore.Internal_Hbond.Weighted>
0.0000

> <Gold.Chemscore.DEClash.Weighted>
1.5542

> <Gold.Chemscore.DEInternal.Weighted>
1.9573

> <Gold.Chemscore.Rot.Weighted>
6.0403

> <Gold.Chemscore.Internal.Correction.Weighted>
   9.000000E+99

> <Gold.Protein.RotatedTorsions>
[ 6907 6896 6895 6894 ] final -161.41 input  -60.11 | X-H torsion
[ 7974 7965 7964 7962 ] final  103.92 input  175.53 | X-H torsion
[ 8008 7997 7996 7995 ] final  -32.55 input   59.86 | X-H torsion
[ 10167 10162 10161 10158 ] final   47.75 input  -65.29 | X-H torsion
[ 10718 10713 10712 10709 ] final  119.03 input   66.30 | X-H torsion
[ 10763 10752 10751 10750 ] final -172.28 input  -60.55 | X-H torsion
[ 11005 11000 10999 10996 ] final  -43.07 input  -57.11 | X-H torsion

> <Gold.Protein.ActiveResidues>
 VAL166  LYS551  ARG553  GLY616  TRP617  ASP618  TYR619  PRO620  LYS621  CYS622 
 ASP623  PHE694  ASN695  SER759  ASP760  ASP761  ALA762  ILE779  LEU786  VAL792 
 PHE793  MET794  SER795  GLU796  ALA797  LYS798  CYS799  TRP800  GLU811  SER814 

> <Gold.Protein.RotatedAtoms>
  151.3642  133.3878  159.2692 H   0  0  0  0  0  0  0  0  0  0  0  0  # atno 6907 bound_to 6896
  150.9702  134.9077  159.7793 H   0  0  0  0  0  0  0  0  0  0  0  0  # atno 6908 bound_to 6896
  152.5181  134.3604  159.9335 H   0  0  0  0  0  0  0  0  0  0  0  0  # atno 6909 bound_to 6896
  145.3396  139.2465  143.3616 H   0  0  0  0  0  0  0  0  0  0  0  0  # atno 7974 bound_to 7965
  154.4176  140.1734  156.1745 H   0  0  0  0  0  0  0  0  0  0  0  0  # atno 8008 bound_to 7997
  155.9733  140.3384  155.6572 H   0  0  0  0  0  0  0  0  0  0  0  0  # atno 8009 bound_to 7997
  155.6596  140.0699  157.2549 H   0  0  0  0  0  0  0  0  0  0  0  0  # atno 8010 bound_to 7997
  140.3004  144.2940  150.6220 H   0  0  0  0  0  0  0  0  0  0  0  0  # atno 10167 bound_to 10162
  157.5990  131.1054  150.7839 H   0  0  0  0  0  0  0  0  0  0  0  0  # atno 10718 bound_to 10713
  154.6211  135.2875  155.0325 H   0  0  0  0  0  0  0  0  0  0  0  0  # atno 10763 bound_to 10752
  154.1519  135.6502  153.4969 H   0  0  0  0  0  0  0  0  0  0  0  0  # atno 10764 bound_to 10752
  153.0236  135.5358  154.7001 H   0  0  0  0  0  0  0  0  0  0  0  0  # atno 10765 bound_to 10752
  141.0359  133.6800  156.2682 H   0  0  0  0  0  0  0  0  0  0  0  0  # atno 11005 bound_to 11000
  146.3013  140.3991  142.8703 LP  0  0  0  0  0  0  0  0  0  0  0  0  # atno 17320 bound_to 7965
  144.8800  140.7388  143.5992 LP  0  0  0  0  0  0  0  0  0  0  0  0  # atno 17321 bound_to 7965
  140.5655  143.2186  151.7690 LP  0  0  0  0  0  0  0  0  0  0  0  0  # atno 17342 bound_to 10162
  139.4916  144.4289  151.9894 LP  0  0  0  0  0  0  0  0  0  0  0  0  # atno 17343 bound_to 10162
  156.8243  130.4994  149.5339 LP  0  0  0  0  0  0  0  0  0  0  0  0  # atno 17370 bound_to 10713
  156.1058  130.6003  150.9969 LP  0  0  0  0  0  0  0  0  0  0  0  0  # atno 17371 bound_to 10713
  140.6323  134.5251  157.5561 LP  0  0  0  0  0  0  0  0  0  0  0  0  # atno 17394 bound_to 11000
  139.9240  134.8092  156.1124 LP  0  0  0  0  0  0  0  0  0  0  0  0  # atno 17395 bound_to 11000

$$$$
