AV-unprocessed.smi:1854|AV-procd|sdf|7530|dock1
  -GOLD-   22720 9243D 1   1.00000     0.00000
 Structure written by MMmdl.
 40 42  0  0  0  0  0  0  0  0  2 V2000
  150.1437  135.0322  156.0995 O   0  0  0  0  0  0  0  0  0  0  0  0
  150.4144  135.0025  154.9002 C   0  0  0  0  0  0  0  0  0  0  0  0
  150.9268  136.0355  154.2160 N   0  0  0  0  0  0  0  0  0  0  0  0
  151.2891  137.3248  154.7973 C   0  0  0  0  0  0  0  0  0  0  0  0
  150.2757  138.4095  154.5812 C   0  0  0  0  0  0  0  0  0  0  0  0
  149.2557  138.4148  153.6738 N   0  3  0  0  0  0  0  0  0  0  0  0
  148.5335  139.6042  153.7763 C   0  0  0  0  0  0  0  0  0  0  0  0
  147.4248  140.0627  153.0714 C   0  0  0  0  0  0  0  0  0  0  0  0
  146.9323  141.3361  153.4255 C   0  0  0  0  0  0  0  0  0  0  0  0
  147.5382  142.1007  154.4439 C   0  0  0  0  0  0  0  0  0  0  0  0
  148.6604  141.6239  155.1532 C   0  0  0  0  0  0  0  0  0  0  0  0
  149.1394  140.3636  154.7971 C   0  0  0  0  0  0  0  0  0  0  0  0
  150.2026  139.5857  155.2678 N   0  0  0  0  0  0  0  0  0  0  0  0
  151.0404  140.1019  156.3574 C   0  0  0  0  0  0  0  0  0  0  0  0
  150.3590  139.9562  157.7231 C   0  0  0  0  0  0  0  0  0  0  0  0
  151.2622  140.4069  158.7213 O   0  0  0  0  0  0  0  0  0  0  0  0
  151.3427  141.7610  158.9714 C   0  0  0  0  0  0  0  0  0  0  0  0
  150.8542  142.7583  158.0888 C   0  0  0  0  0  0  0  0  0  0  0  0
  150.9735  144.1230  158.4158 C   0  0  0  0  0  0  0  0  0  0  0  0
  151.5806  144.5095  159.6242 C   0  0  0  0  0  0  0  0  0  0  0  0
  152.0686  143.5288  160.5067 C   0  0  0  0  0  0  0  0  0  0  0  0
  151.9499  142.1630  160.1825 C   0  0  0  0  0  0  0  0  0  0  0  0
  152.5567  140.9796  161.2848 Cl  0  0  0  0  0  0  0  0  0  0  0  0
  150.2667  134.1301  154.2451 H   0  0  0  0  0  0  0  0  0  0  0  0
  151.1102  135.9096  153.2309 H   0  0  0  0  0  0  0  0  0  0  0  0
  151.4736  137.2181  155.8676 H   0  0  0  0  0  0  0  0  0  0  0  0
  152.2335  137.6381  154.3513 H   0  0  0  0  0  0  0  0  0  0  0  0
  146.9598  139.4788  152.2906 H   0  0  0  0  0  0  0  0  0  0  0  0
  146.0734  141.7349  152.9051 H   0  0  0  0  0  0  0  0  0  0  0  0
  147.1344  143.0730  154.6867 H   0  0  0  0  0  0  0  0  0  0  0  0
  149.1183  142.2170  155.9310 H   0  0  0  0  0  0  0  0  0  0  0  0
  152.0013  139.5866  156.3391 H   0  0  0  0  0  0  0  0  0  0  0  0
  151.2486  141.1522  156.1511 H   0  0  0  0  0  0  0  0  0  0  0  0
  149.4444  140.5511  157.7440 H   0  0  0  0  0  0  0  0  0  0  0  0
  150.0934  138.9124  157.8977 H   0  0  0  0  0  0  0  0  0  0  0  0
  150.3826  142.5034  157.1522 H   0  0  0  0  0  0  0  0  0  0  0  0
  150.5982  144.8747  157.7369 H   0  0  0  0  0  0  0  0  0  0  0  0
  151.6724  145.5563  159.8737 H   0  0  0  0  0  0  0  0  0  0  0  0
  152.5351  143.8252  161.4347 H   0  0  0  0  0  0  0  0  0  0  0  0
  149.0685  137.6529  153.0346 H   0  0  0  0  0  0  0  0  0  0  0  0
  1  2  2  0  0  0  0
  2  3  1  0  0  0  0
  2 24  1  0  0  0  0
  3  4  1  0  0  0  0
  3 25  1  0  0  0  0
  4  5  1  0  0  0  0
  4 26  1  0  0  0  0
  4 27  1  0  0  0  0
  5 13  1  0  0  0  0
  5  6  2  0  0  0  0
  6  7  1  0  0  0  0
  6 40  1  0  0  0  0
  7 12  2  0  0  0  0
  7  8  1  0  0  0  0
  8  9  2  0  0  0  0
  8 28  1  0  0  0  0
  9 10  1  0  0  0  0
  9 29  1  0  0  0  0
 10 11  2  0  0  0  0
 10 30  1  0  0  0  0
 11 12  1  0  0  0  0
 11 31  1  0  0  0  0
 12 13  1  0  0  0  0
 13 14  1  0  0  0  0
 14 15  1  0  0  0  0
 14 32  1  0  0  0  0
 14 33  1  0  0  0  0
 15 16  1  0  0  0  0
 15 34  1  0  0  0  0
 15 35  1  0  0  0  0
 16 17  1  0  0  0  0
 17 22  1  0  0  0  0
 17 18  2  0  0  0  0
 18 19  1  0  0  0  0
 18 36  1  0  0  0  0
 19 20  2  0  0  0  0
 19 37  1  0  0  0  0
 20 21  1  0  0  0  0
 20 38  1  0  0  0  0
 21 22  2  0  0  0  0
 21 39  1  0  0  0  0
 22 23  1  0  0  0  0
M  CHG  1   6   1
M  END
> <s_m_source_file>
AV-unprocessed.smi

> <i_m_source_file_index>
1854

> <i_lp_mmshare_version>
43012

> <i_f3d_flags>
0

> <s_epik_input>
Tz1bQ0hdW05IXVtDSDJdYyhuMSluKGMoYzEyKVtjSF1bY0hdW2NIXVtjSF0yKVtDSDJdW0NIMl1PYzNbY0hdW2NIXVtjSF1bY0hdYzNDbA==

> <s_epik_cmdline>
J2VwaWtfcHl0aG9uJywgJy1waCcsICc3LjAnLCAnLXRuJywgJzgnLCAnLW1hJywgJzIwMCcsICctbWV0YWxfYmluZGluZycsICctaW1hZScsICc8aW5maWxlLm1hZT4nLCAnLW9tYWUnLCAnPG91dGZpbGUubWFlPic=

> <r_lp_tautomer_probability>
1

> <r_epik_Ionization_Penalty>
1.43948

> <r_epik_Ionization_Penalty_Charging>
1.43948

> <r_epik_Ionization_Penalty_Neutral>
7.38905e-08

> <r_epik_State_Penalty>
1.52475

> <r_epik_Charging_Adjusted_Penalty>
2.96423

> <i_epik_Tot_Q>
1

> <i_epik_Tot_abs_Q>
1

> <r_epik_Metal_State_Penalty>
1.5754

> <b_epik_Metal_Only>
0

> <s_lp_Force_Field>
OPLS_2005

> <r_lp_Energy>
16.1695

> <b_lp_Chiralities_Consistent>
1

> <s_lp_Variant>
AV-unprocessed.smi:1854-2

> <Gold.Version>
5.8.1

> <Gold.Id.Protein>
6NUR|6NUR_protein|mol2

> <Gold.PLP.Fitness>
60.1965

> <Gold.PLP.PLP>
-53.8689

> <Gold.PLP.part.hbond>
-3.7658

> <Gold.PLP.part.metal>
0.0000

> <Gold.PLP.part.buried>
-1.5012

> <Gold.PLP.part.nonpolar>
-51.1777

> <Gold.PLP.part.repulsive>
0.3738

> <Gold.PLP.ligand.clash>
0.0000

> <Gold.PLP.ligand.torsion>
0.9416

> <Gold.PLP.Chemscore.Hbond>
2.7000

> <Gold.PLP.Chemscore.CHOScore>
0.0000

> <Gold.PLP.Chemscore.Metal>
0.0000

> <Gold.Chemscore.Hbonds>
donor molecule, donor type, donor heavy atom, donor atom, acceptor molecule, acceptor atom, score
      L1  H     3    25       P1  7949  1.00
      L1  H     6    40       P1  7948  2.00

> <Gold.PLP.Chemscore.Internal.Correction>
0.1109

> <Gold.Rescore>
     Score         DG    S(hbond)    S(metal)    S(lipo)     H(rot)  DE(clash)    DE(int)     intcor
     17.65     -18.67       1.04        0.00     137.52       2.49       0.14       0.89       ----

> <Gold.Chemscore.Fitness>
17.6451

> <Gold.Chemscore.DG>
-18.6723

> <Gold.Chemscore.ZeroCoef>
-5.4800

> <Gold.Chemscore.Hbond>
1.0376

> <Gold.Chemscore.Metal>
0.0000

> <Gold.Chemscore.Lipo>
137.5154

> <Gold.Chemscore.Internal_Hbond>
0.0000

> <Gold.Chemscore.DEClash>
0.1410

> <Gold.Chemscore.DEInternal>
0.8861

> <Gold.Chemscore.Rot>
2.4854

> <Gold.Chemscore.Internal.Correction>
   9.000000E+99

> <Gold.Chemscore.Hbonds>
donor molecule, donor type, donor heavy atom, donor atom, acceptor molecule, acceptor atom, score
      L1  H     3    25       P1  7949  0.26
      L1  H     6    40       P1  7948  1.00

> <Gold.Chemscore.Hbond.Weighted>
-3.4656

> <Gold.Chemscore.Metal.Weighted>
-0.0000

> <Gold.Chemscore.Lipo.Weighted>
-16.0893

> <Gold.Chemscore.Internal_Hbond.Weighted>
0.0000

> <Gold.Chemscore.DEClash.Weighted>
0.1410

> <Gold.Chemscore.DEInternal.Weighted>
0.8861

> <Gold.Chemscore.Rot.Weighted>
6.3627

> <Gold.Chemscore.Internal.Correction.Weighted>
   9.000000E+99

> <Gold.Protein.RotatedTorsions>
[ 6907 6896 6895 6894 ] final -147.21 input  -60.11 | X-H torsion
[ 7974 7965 7964 7962 ] final   85.64 input  175.53 | X-H torsion
[ 8008 7997 7996 7995 ] final  -39.60 input   59.86 | X-H torsion
[ 10167 10162 10161 10158 ] final   76.82 input  -65.29 | X-H torsion
[ 10718 10713 10712 10709 ] final -129.69 input   66.30 | X-H torsion
[ 10763 10752 10751 10750 ] final  167.31 input  -60.55 | X-H torsion
[ 11005 11000 10999 10996 ] final  -95.03 input  -57.11 | X-H torsion

> <Gold.Protein.ActiveResidues>
 VAL166  LYS551  ARG553  GLY616  TRP617  ASP618  TYR619  PRO620  LYS621  CYS622 
 ASP623  PHE694  ASN695  SER759  ASP760  ASP761  ALA762  ILE779  LEU786  VAL792 
 PHE793  MET794  SER795  GLU796  ALA797  LYS798  CYS799  TRP800  GLU811  SER814 

> <Gold.Protein.RotatedAtoms>
  151.1525  133.4898  159.2594 H   0  0  0  0  0  0  0  0  0  0  0  0  # atno 6907 bound_to 6896
  151.1539  135.0240  159.8690 H   0  0  0  0  0  0  0  0  0  0  0  0  # atno 6908 bound_to 6896
  152.5463  134.1406  159.8530 H   0  0  0  0  0  0  0  0  0  0  0  0  # atno 6909 bound_to 6896
  145.5828  139.2327  143.2343 H   0  0  0  0  0  0  0  0  0  0  0  0  # atno 7974 bound_to 7965
  154.4021  140.1547  156.2890 H   0  0  0  0  0  0  0  0  0  0  0  0  # atno 8008 bound_to 7997
  155.8802  140.3444  155.5861 H   0  0  0  0  0  0  0  0  0  0  0  0  # atno 8009 bound_to 7997
  155.7675  140.0826  157.2115 H   0  0  0  0  0  0  0  0  0  0  0  0  # atno 8010 bound_to 7997
  139.9881  144.5777  150.7841 H   0  0  0  0  0  0  0  0  0  0  0  0  # atno 10167 bound_to 10162
  156.2071  130.6894  151.0606 H   0  0  0  0  0  0  0  0  0  0  0  0  # atno 10718 bound_to 10713
  154.3519  135.2753  155.2367 H   0  0  0  0  0  0  0  0  0  0  0  0  # atno 10763 bound_to 10752
  154.4592  135.5911  153.6248 H   0  0  0  0  0  0  0  0  0  0  0  0  # atno 10764 bound_to 10752
  152.9849  135.6061  154.3731 H   0  0  0  0  0  0  0  0  0  0  0  0  # atno 10765 bound_to 10752
  141.1453  133.7998  157.0380 H   0  0  0  0  0  0  0  0  0  0  0  0  # atno 11005 bound_to 11000
  146.1703  140.6655  142.9236 LP  0  0  0  0  0  0  0  0  0  0  0  0  # atno 17320 bound_to 7965
  144.7386  140.4879  143.6886 LP  0  0  0  0  0  0  0  0  0  0  0  0  # atno 17321 bound_to 7965
  140.7465  143.2891  151.3380 LP  0  0  0  0  0  0  0  0  0  0  0  0  # atno 17342 bound_to 10162
  139.6360  144.0630  152.2516 LP  0  0  0  0  0  0  0  0  0  0  0  0  # atno 17343 bound_to 10162
  157.7018  131.0773  150.6796 LP  0  0  0  0  0  0  0  0  0  0  0  0  # atno 17370 bound_to 10713
  156.6854  130.4579  149.5615 LP  0  0  0  0  0  0  0  0  0  0  0  0  # atno 17371 bound_to 10713
  140.0711  134.9702  157.1469 LP  0  0  0  0  0  0  0  0  0  0  0  0  # atno 17394 bound_to 11000
  140.3709  134.2391  155.7178 LP  0  0  0  0  0  0  0  0  0  0  0  0  # atno 17395 bound_to 11000

$$$$
