AV-unprocessed.smi:3115|AV-procd|sdf|11858|dock6
  -GOLD-   2272017243D 1   1.00000     0.00000
 Structure written by MMmdl.
 33 34  0  0  0  0  0  0  0  0  2 V2000
  152.3282  143.9575  161.2471 C   0  0  0  0  0  0  0  0  0  0  0  0
  152.7979  142.8851  160.2587 C   0  0  2  0  0  0  0  0  0  0  0  0
  151.7240  142.5582  159.2027 C   0  0  0  0  0  0  0  0  0  0  0  0
  152.1810  141.4742  158.3417 N   0  0  0  0  0  0  0  0  0  0  0  0
  151.3085  141.1958  157.2800 C   0  0  0  0  0  0  0  0  0  0  0  0
  151.5993  140.1145  156.4212 C   0  0  0  0  0  0  0  0  0  0  0  0
  150.7161  139.8356  155.3582 C   0  0  0  0  0  0  0  0  0  0  0  0
  150.9887  138.6893  154.4066 C   0  0  0  0  0  0  0  0  0  0  0  0
  149.9138  138.5761  153.4080 N   0  3  0  0  0  0  0  0  0  0  0  0
  149.5782  140.6506  155.1927 C   0  0  0  0  0  0  0  0  0  0  0  0
  149.3734  141.7073  156.1013 C   0  0  0  0  0  0  0  0  0  0  0  0
  150.2148  141.9793  157.1212 N   0  0  0  0  0  0  0  0  0  0  0  0
  152.5684  140.2902  159.0987 C   0  0  0  0  0  0  0  0  0  0  0  0
  153.6164  140.6644  160.1604 C   0  0  0  0  0  0  0  0  0  0  0  0
  153.1039  141.7015  160.9927 O   0  0  0  0  0  0  0  0  0  0  0  0
  152.0922  144.8892  160.7326 H   0  0  0  0  0  0  0  0  0  0  0  0
  153.1012  144.1723  161.9853 H   0  0  0  0  0  0  0  0  0  0  0  0
  151.4352  143.6356  161.7838 H   0  0  0  0  0  0  0  0  0  0  0  0
  153.7032  143.2418  159.7639 H   0  0  0  0  0  0  0  0  0  0  0  0
  150.7937  142.2703  159.6950 H   0  0  0  0  0  0  0  0  0  0  0  0
  151.5102  143.4404  158.5982 H   0  0  0  0  0  0  0  0  0  0  0  0
  152.4820  139.5114  156.5789 H   0  0  0  0  0  0  0  0  0  0  0  0
  151.9408  138.8431  153.8979 H   0  0  0  0  0  0  0  0  0  0  0  0
  151.0661  137.7540  154.9624 H   0  0  0  0  0  0  0  0  0  0  0  0
  149.8625  137.6253  153.0712 H   0  0  0  0  0  0  0  0  0  0  0  0
  150.1068  139.1985  152.6362 H   0  0  0  0  0  0  0  0  0  0  0  0
  148.8755  140.4738  154.3916 H   0  0  0  0  0  0  0  0  0  0  0  0
  148.5115  142.3510  156.0061 H   0  0  0  0  0  0  0  0  0  0  0  0
  151.6918  139.8568  159.5824 H   0  0  0  0  0  0  0  0  0  0  0  0
  152.9721  139.5347  158.4235 H   0  0  0  0  0  0  0  0  0  0  0  0
  153.8523  139.7974  160.7775 H   0  0  0  0  0  0  0  0  0  0  0  0
  154.5483  140.9861  159.6925 H   0  0  0  0  0  0  0  0  0  0  0  0
  149.0341  138.8320  153.8330 H   0  0  0  0  0  0  0  0  0  0  0  0
  1  2  1  0  0  0  0
  1 16  1  0  0  0  0
  1 17  1  0  0  0  0
  1 18  1  0  0  0  0
  2 15  1  0  0  0  0
  2  3  1  0  0  0  0
  2 19  1  0  0  0  0
  3  4  1  0  0  0  0
  3 20  1  0  0  0  0
  3 21  1  0  0  0  0
  4  5  1  0  0  0  0
  4 13  1  0  0  0  0
  5 12  1  0  0  0  0
  5  6  2  0  0  0  0
  6  7  1  0  0  0  0
  6 22  1  0  0  0  0
  7  8  1  0  0  0  0
  7 10  2  0  0  0  0
  8  9  1  0  0  0  0
  8 23  1  0  0  0  0
  8 24  1  0  0  0  0
  9 25  1  0  0  0  0
  9 26  1  0  0  0  0
  9 33  1  0  0  0  0
 10 11  1  0  0  0  0
 10 27  1  0  0  0  0
 11 12  2  0  0  0  0
 11 28  1  0  0  0  0
 13 14  1  0  0  0  0
 13 29  1  0  0  0  0
 13 30  1  0  0  0  0
 14 15  1  0  0  0  0
 14 31  1  0  0  0  0
 14 32  1  0  0  0  0
M  CHG  1   9   1
M  END
> <s_m_source_file>
AV-unprocessed.smi

> <i_m_source_file_index>
3115

> <i_lp_mmshare_version>
43012

> <i_f3d_flags>
0

> <s_epik_input>
W0NIM11bQ0BASF0xW0NIMl1OKFtDSDJdW0NIMl1PMSljMltjSF1jKFtDSDJdW05IMl0pW2NIXVtjSF1uMg==

> <s_epik_cmdline>
J2VwaWtfcHl0aG9uJywgJy1waCcsICc3LjAnLCAnLXRuJywgJzgnLCAnLW1hJywgJzIwMCcsICctbWV0YWxfYmluZGluZycsICctaW1hZScsICc8aW5maWxlLm1hZT4nLCAnLW9tYWUnLCAnPG91dGZpbGUubWFlPic=

> <r_lp_tautomer_probability>
1

> <r_epik_Ionization_Penalty>
0.0768907

> <r_epik_Ionization_Penalty_Charging>
0.0768864

> <r_epik_Ionization_Penalty_Neutral>
4.339e-06

> <r_epik_State_Penalty>
0.0093217

> <r_epik_Charging_Adjusted_Penalty>
0.0862081

> <i_epik_Tot_Q>
1

> <i_epik_Tot_abs_Q>
1

> <r_epik_Metal_State_Penalty>
0.0096683

> <b_epik_Metal_Only>
0

> <s_lp_Force_Field>
OPLS_2005

> <r_lp_Energy>
14.5686

> <b_lp_Chiralities_Consistent>
1

> <s_lp_Variant>
AV-unprocessed.smi:3115-1

> <Gold.Version>
5.8.1

> <Gold.Id.Protein>
6NUR|6NUR_protein|mol2

> <Gold.PLP.Fitness>
42.5239

> <Gold.PLP.PLP>
-31.5074

> <Gold.PLP.part.hbond>
-2.0000

> <Gold.PLP.part.metal>
0.0000

> <Gold.PLP.part.buried>
-3.8386

> <Gold.PLP.part.nonpolar>
-25.7698

> <Gold.PLP.part.repulsive>
0.2067

> <Gold.PLP.ligand.clash>
0.0000

> <Gold.PLP.ligand.torsion>
0.1743

> <Gold.PLP.Chemscore.Hbond>
2.9840

> <Gold.PLP.Chemscore.CHOScore>
0.7714

> <Gold.PLP.Chemscore.Metal>
0.0000

> <Gold.Chemscore.Hbonds>
donor molecule, donor type, donor heavy atom, donor atom, acceptor molecule, acceptor atom, score
      L1  H     9    25       P1  7948  1.98
      L1  H     9    26       P1  7957  1.00
      L1  C    11    28       P1  8028  0.78

> <Gold.PLP.Chemscore.Internal.Correction>
0.0986

> <Gold.Rescore>
     Score         DG    S(hbond)    S(metal)    S(lipo)     H(rot)  DE(clash)    DE(int)     intcor
     17.84     -18.11       1.97        0.00      80.18       1.30       0.01       0.25       ----

> <Gold.Chemscore.Fitness>
17.8420

> <Gold.Chemscore.DG>
-18.1078

> <Gold.Chemscore.ZeroCoef>
-5.4800

> <Gold.Chemscore.Hbond>
1.9719

> <Gold.Chemscore.Metal>
0.0000

> <Gold.Chemscore.Lipo>
80.1803

> <Gold.Chemscore.Internal_Hbond>
0.0000

> <Gold.Chemscore.DEClash>
0.0149

> <Gold.Chemscore.DEInternal>
0.2509

> <Gold.Chemscore.Rot>
1.3045

> <Gold.Chemscore.Internal.Correction>
   9.000000E+99

> <Gold.Chemscore.Hbonds>
donor molecule, donor type, donor heavy atom, donor atom, acceptor molecule, acceptor atom, score
      L1  H     9    25       P1  7948  0.40
      L1  H     9    26       P1  7957  0.72

> <Gold.Chemscore.Hbond.Weighted>
-6.5861

> <Gold.Chemscore.Metal.Weighted>
-0.0000

> <Gold.Chemscore.Lipo.Weighted>
-9.3811

> <Gold.Chemscore.Internal_Hbond.Weighted>
0.0000

> <Gold.Chemscore.DEClash.Weighted>
0.0149

> <Gold.Chemscore.DEInternal.Weighted>
0.2509

> <Gold.Chemscore.Rot.Weighted>
3.3395

> <Gold.Chemscore.Internal.Correction.Weighted>
   9.000000E+99

> <Gold.Protein.RotatedTorsions>
[ 6907 6896 6895 6894 ] final -174.89 input  -60.11 | X-H torsion
[ 7974 7965 7964 7962 ] final   37.79 input  175.53 | X-H torsion
[ 8008 7997 7996 7995 ] final   26.07 input   59.86 | X-H torsion
[ 10167 10162 10161 10158 ] final  130.67 input  -65.29 | X-H torsion
[ 10718 10713 10712 10709 ] final  126.18 input   66.30 | X-H torsion
[ 10763 10752 10751 10750 ] final  -72.12 input  -60.55 | X-H torsion
[ 11005 11000 10999 10996 ] final -140.70 input  -57.11 | X-H torsion

> <Gold.Protein.ActiveResidues>
 VAL166  LYS551  ARG553  GLY616  TRP617  ASP618  TYR619  PRO620  LYS621  CYS622 
 ASP623  PHE694  ASN695  SER759  ASP760  ASP761  ALA762  ILE779  LEU786  VAL792 
 PHE793  MET794  SER795  GLU796  ALA797  LYS798  CYS799  TRP800  GLU811  SER814 

> <Gold.Protein.RotatedAtoms>
  151.5796  133.3379  159.3005 H   0  0  0  0  0  0  0  0  0  0  0  0  # atno 6907 bound_to 6896
  150.8321  134.7581  159.6873 H   0  0  0  0  0  0  0  0  0  0  0  0  # atno 6908 bound_to 6896
  152.4403  134.5611  159.9946 H   0  0  0  0  0  0  0  0  0  0  0  0  # atno 6909 bound_to 6896
  146.1111  139.5850  142.9352 H   0  0  0  0  0  0  0  0  0  0  0  0  # atno 7974 bound_to 7965
  155.0215  140.3148  155.4791 H   0  0  0  0  0  0  0  0  0  0  0  0  # atno 8008 bound_to 7997
  156.2891  140.2196  156.5276 H   0  0  0  0  0  0  0  0  0  0  0  0  # atno 8009 bound_to 7997
  154.7447  140.0471  157.0830 H   0  0  0  0  0  0  0  0  0  0  0  0  # atno 8010 bound_to 7997
  139.5419  144.6738  151.4598 H   0  0  0  0  0  0  0  0  0  0  0  0  # atno 10167 bound_to 10162
  157.5441  131.1096  150.8811 H   0  0  0  0  0  0  0  0  0  0  0  0  # atno 10718 bound_to 10713
  154.4413  135.5940  153.6131 H   0  0  0  0  0  0  0  0  0  0  0  0  # atno 10763 bound_to 10752
  152.9806  135.5999  154.3718 H   0  0  0  0  0  0  0  0  0  0  0  0  # atno 10764 bound_to 10752
  154.3569  135.2841  155.2320 H   0  0  0  0  0  0  0  0  0  0  0  0  # atno 10765 bound_to 10752
  140.8396  134.2417  157.4816 H   0  0  0  0  0  0  0  0  0  0  0  0  # atno 11005 bound_to 11000
  145.5662  141.0399  143.2199 LP  0  0  0  0  0  0  0  0  0  0  0  0  # atno 17320 bound_to 7965
  144.7512  139.7189  143.7272 LP  0  0  0  0  0  0  0  0  0  0  0  0  # atno 17321 bound_to 7965
  140.6652  143.8413  150.6933 LP  0  0  0  0  0  0  0  0  0  0  0  0  # atno 17342 bound_to 10162
  140.1820  143.4107  152.1926 LP  0  0  0  0  0  0  0  0  0  0  0  0  # atno 17343 bound_to 10162
  156.9355  130.5365  149.5279 LP  0  0  0  0  0  0  0  0  0  0  0  0  # atno 17370 bound_to 10713
  156.0521  130.5588  150.9011 LP  0  0  0  0  0  0  0  0  0  0  0  0  # atno 17371 bound_to 10713
  139.8703  134.9629  156.4443 LP  0  0  0  0  0  0  0  0  0  0  0  0  # atno 17394 bound_to 11000
  140.8909  133.7849  155.9571 LP  0  0  0  0  0  0  0  0  0  0  0  0  # atno 17395 bound_to 11000

$$$$
