AV-unprocessed.smi:224|AV-procd|sdf|1715|dock4
  -GOLD-   2262020183D 1   1.00000     0.00000
 Structure written by MMmdl.
 56 59  0  0  0  0  0  0  0  0  2 V2000
  145.0301  135.2389  151.6573 C   0  0  0  0  0  0  0  0  0  0  0  0
  146.0516  134.4156  150.8622 C   0  0  2  0  0  0  0  0  0  0  0  0
  145.3613  133.7652  149.8137 O   0  0  0  0  0  0  0  0  0  0  0  0
  146.7513  133.3665  151.7515 C   0  0  0  0  0  0  0  0  0  0  0  0
  147.6067  133.9490  152.8225 N   0  3  2  0  0  0  0  0  0  0  0  0
  148.6465  132.9914  153.2834 C   0  0  0  0  0  0  0  0  0  0  0  0
  149.6181  133.6528  154.2767 C   0  0  0  0  0  0  0  0  0  0  0  0
  148.8974  134.2836  155.3798 N   0  0  0  0  0  0  0  0  0  0  0  0
  148.6371  133.5661  156.5064 C   0  0  0  0  0  0  0  0  0  0  0  0
  149.3003  132.3996  156.7284 N   0  0  0  0  0  0  0  0  0  0  0  0
  149.0386  131.6648  157.8126 C   0  0  0  0  0  0  0  0  0  0  0  0
  148.1683  131.9078  158.7929 N   0  0  0  0  0  0  0  0  0  0  0  0
  147.5137  133.0866  158.5922 C   0  0  0  0  0  0  0  0  0  0  0  0
  147.6852  133.9692  157.4874 C   0  0  0  0  0  0  0  0  0  0  0  0
  146.8518  135.0724  157.6355 N   0  0  0  0  0  0  0  0  0  0  0  0
  146.2158  134.8480  158.7523 C   0  0  0  0  0  0  0  0  0  0  0  0
  146.5561  133.6801  159.3959 N   0  0  0  0  0  0  0  0  0  0  0  0
  146.0095  133.1858  160.6501 C   0  0  0  0  0  0  0  0  0  0  0  0
  146.2518  134.1367  161.8453 C   0  0  1  0  0  0  0  0  0  0  0  0
  145.6462  133.5875  163.0027 O   0  0  0  0  0  0  0  0  0  0  0  0
  147.7246  134.3972  162.1483 C   0  0  0  0  0  0  0  0  0  0  0  0
  147.7143  135.8224  162.6827 C   0  0  0  0  0  0  0  0  0  0  0  0
  146.7619  136.4568  161.8469 O   0  0  0  0  0  0  0  0  0  0  0  0
  145.6847  135.5529  161.6221 C   0  0  0  0  0  0  0  0  0  0  0  0
  147.8816  135.2425  154.9506 C   0  0  0  0  0  0  0  0  0  0  0  0
  146.8824  134.6197  153.9487 C   0  0  2  0  0  0  0  0  0  0  0  0
  145.8486  133.7106  154.6473 C   0  0  0  0  0  0  0  0  0  0  0  0
  145.5126  135.7793  152.4726 H   0  0  0  0  0  0  0  0  0  0  0  0
  144.2561  134.6046  152.0915 H   0  0  0  0  0  0  0  0  0  0  0  0
  144.5383  135.9757  151.0211 H   0  0  0  0  0  0  0  0  0  0  0  0
  146.7732  135.1083  150.4309 H   0  0  0  0  0  0  0  0  0  0  0  0
  145.8861  133.8027  149.0292 H   0  0  0  0  0  0  0  0  0  0  0  0
  146.0154  132.6947  152.1944 H   0  0  0  0  0  0  0  0  0  0  0  0
  147.3739  132.7378  151.1127 H   0  0  0  0  0  0  0  0  0  0  0  0
  148.1691  132.1219  153.7359 H   0  0  0  0  0  0  0  0  0  0  0  0
  149.2125  132.6228  152.4273 H   0  0  0  0  0  0  0  0  0  0  0  0
  150.3500  132.9316  154.6426 H   0  0  0  0  0  0  0  0  0  0  0  0
  150.1920  134.4260  153.7645 H   0  0  0  0  0  0  0  0  0  0  0  0
  149.6057  130.7503  157.9070 H   0  0  0  0  0  0  0  0  0  0  0  0
  145.4792  135.5356  159.1419 H   0  0  0  0  0  0  0  0  0  0  0  0
  144.9394  133.0270  160.5105 H   0  0  0  0  0  0  0  0  0  0  0  0
  146.4396  132.2041  160.8530 H   0  0  0  0  0  0  0  0  0  0  0  0
  145.1255  134.2587  163.4165 H   0  0  0  0  0  0  0  0  0  0  0  0
  148.1676  133.6795  162.8403 H   0  0  0  0  0  0  0  0  0  0  0  0
  148.3088  134.3750  161.2274 H   0  0  0  0  0  0  0  0  0  0  0  0
  147.3759  135.8527  163.7196 H   0  0  0  0  0  0  0  0  0  0  0  0
  148.6901  136.3045  162.6208 H   0  0  0  0  0  0  0  0  0  0  0  0
  145.3089  135.6946  160.6081 H   0  0  0  0  0  0  0  0  0  0  0  0
  144.8662  135.7813  162.3069 H   0  0  0  0  0  0  0  0  0  0  0  0
  147.3387  135.6778  155.7876 H   0  0  0  0  0  0  0  0  0  0  0  0
  148.4003  136.0735  154.4714 H   0  0  0  0  0  0  0  0  0  0  0  0
  146.3296  135.4611  153.5333 H   0  0  0  0  0  0  0  0  0  0  0  0
  145.3964  134.2227  155.4969 H   0  0  0  0  0  0  0  0  0  0  0  0
  146.2941  132.7903  155.0229 H   0  0  0  0  0  0  0  0  0  0  0  0
  145.0342  133.4355  153.9777 H   0  0  0  0  0  0  0  0  0  0  0  0
  148.1260  134.6873  152.3700 H   0  0  0  0  0  0  0  0  0  0  0  0
  1  2  1  0  0  0  0
  1 28  1  0  0  0  0
  1 29  1  0  0  0  0
  1 30  1  0  0  0  0
  2  3  1  0  0  0  0
  2  4  1  0  0  0  0
  2 31  1  0  0  0  0
  3 32  1  0  0  0  0
  4  5  1  0  0  0  0
  4 33  1  0  0  0  0
  4 34  1  0  0  0  0
  5 26  1  0  0  0  0
  5  6  1  0  0  0  0
  5 56  1  0  0  0  0
  6  7  1  0  0  0  0
  6 35  1  0  0  0  0
  6 36  1  0  0  0  0
  7  8  1  0  0  0  0
  7 37  1  0  0  0  0
  7 38  1  0  0  0  0
  8  9  1  0  0  0  0
  8 25  1  0  0  0  0
  9 14  1  0  0  0  0
  9 10  2  0  0  0  0
 10 11  1  0  0  0  0
 11 12  2  0  0  0  0
 11 39  1  0  0  0  0
 12 13  1  0  0  0  0
 13 17  1  0  0  0  0
 13 14  2  0  0  0  0
 14 15  1  0  0  0  0
 15 16  2  0  0  0  0
 16 17  1  0  0  0  0
 16 40  1  0  0  0  0
 17 18  1  0  0  0  0
 18 19  1  0  0  0  0
 18 41  1  0  0  0  0
 18 42  1  0  0  0  0
 19 24  1  0  0  0  0
 19 20  1  0  0  0  0
 19 21  1  0  0  0  0
 20 43  1  0  0  0  0
 21 22  1  0  0  0  0
 21 44  1  0  0  0  0
 21 45  1  0  0  0  0
 22 23  1  0  0  0  0
 22 46  1  0  0  0  0
 22 47  1  0  0  0  0
 23 24  1  0  0  0  0
 24 48  1  0  0  0  0
 24 49  1  0  0  0  0
 25 26  1  0  0  0  0
 25 50  1  0  0  0  0
 25 51  1  0  0  0  0
 26 27  1  0  0  0  0
 26 52  1  0  0  0  0
 27 53  1  0  0  0  0
 27 54  1  0  0  0  0
 27 55  1  0  0  0  0
M  CHG  1   5   1
M  END
> <s_m_source_file>
AV-unprocessed.smi

> <i_m_source_file_index>
224

> <i_lp_mmshare_version>
43012

> <i_f3d_flags>
0

> <s_epik_input>
W0NIM11bQ0BIXShbT0hdKVtDSDJdTjFbQ0gyXVtDSDJdTihbQ0gyXVtDQEhdMVtDSDNdKWMobltjSF1uMiljKGMyMyluW2NIXW4zW0NIMl1bQ0BAXTQoW09IXSlbQ0gyXVtDSDJdT1tDSDJdNA==

> <s_epik_cmdline>
J2VwaWtfcHl0aG9uJywgJy1waCcsICc3LjAnLCAnLXRuJywgJzgnLCAnLW1hJywgJzIwMCcsICctbWV0YWxfYmluZGluZycsICctaW1hZScsICc8aW5maWxlLm1hZT4nLCAnLW9tYWUnLCAnPG91dGZpbGUubWFlPic=

> <r_lp_tautomer_probability>
1

> <r_epik_Ionization_Penalty>
0.00516958

> <r_epik_Ionization_Penalty_Charging>
0.00509693

> <r_epik_Ionization_Penalty_Neutral>
7.26542e-05

> <r_epik_State_Penalty>
-0

> <r_epik_Charging_Adjusted_Penalty>
0.00509693

> <i_epik_Tot_Q>
1

> <i_epik_Tot_abs_Q>
1

> <r_epik_Metal_State_Penalty>
-0

> <b_epik_Metal_Only>
0

> <s_lp_Force_Field>
OPLS_2005

> <r_lp_Energy>
50.3788

> <b_lp_Chiralities_Consistent>
1

> <s_lp_Variant>
AV-unprocessed.smi:224-9

> <Gold.Version>
5.8.1

> <Gold.Id.Protein>
6NUR|6NUR_protein|mol2

> <Gold.PLP.Fitness>
45.2719

> <Gold.PLP.PLP>
-33.6871

> <Gold.PLP.part.hbond>
-4.0629

> <Gold.PLP.part.metal>
0.0000

> <Gold.PLP.part.buried>
-5.1279

> <Gold.PLP.part.nonpolar>
-23.9201

> <Gold.PLP.part.repulsive>
0.0000

> <Gold.PLP.ligand.clash>
0.0000

> <Gold.PLP.ligand.torsion>
0.3079

> <Gold.PLP.Chemscore.Hbond>
3.9440

> <Gold.PLP.Chemscore.CHOScore>
0.0000

> <Gold.PLP.Chemscore.Metal>
0.0000

> <Gold.Chemscore.Hbonds>
donor molecule, donor type, donor heavy atom, donor atom, acceptor molecule, acceptor atom, score
      L1  H     3    32       P1  7921  0.67
      L1  H     5    56       P1  7948  2.00

> <Gold.PLP.Chemscore.Internal.Correction>
0.3686

> <Gold.Rescore>
     Score         DG    S(hbond)    S(metal)    S(lipo)     H(rot)  DE(clash)    DE(int)     intcor
     12.27     -15.09       2.83        0.00      67.61       3.02       0.11       2.71       ----

> <Gold.Chemscore.Fitness>
12.2726

> <Gold.Chemscore.DG>
-15.0880

> <Gold.Chemscore.ZeroCoef>
-5.4800

> <Gold.Chemscore.Hbond>
2.8253

> <Gold.Chemscore.Metal>
0.0000

> <Gold.Chemscore.Lipo>
67.6118

> <Gold.Chemscore.Internal_Hbond>
0.0000

> <Gold.Chemscore.DEClash>
0.1061

> <Gold.Chemscore.DEInternal>
2.7094

> <Gold.Chemscore.Rot>
3.0231

> <Gold.Chemscore.Internal.Correction>
   9.000000E+99

> <Gold.Chemscore.Hbonds>
donor molecule, donor type, donor heavy atom, donor atom, acceptor molecule, acceptor atom, score
      L1  H     3    32       P1  7921  0.10
      L1  H     5    56       P1  7948  0.40

> <Gold.Chemscore.Hbond.Weighted>
-9.4366

> <Gold.Chemscore.Metal.Weighted>
-0.0000

> <Gold.Chemscore.Lipo.Weighted>
-7.9106

> <Gold.Chemscore.Internal_Hbond.Weighted>
0.0000

> <Gold.Chemscore.DEClash.Weighted>
0.1061

> <Gold.Chemscore.DEInternal.Weighted>
2.7094

> <Gold.Chemscore.Rot.Weighted>
7.7391

> <Gold.Chemscore.Internal.Correction.Weighted>
   9.000000E+99

> <Gold.Protein.RotatedTorsions>
[ 6907 6896 6895 6894 ] final -129.70 input  -60.11 | X-H torsion
[ 7974 7965 7964 7962 ] final   -1.13 input  175.53 | X-H torsion
[ 8008 7997 7996 7995 ] final  161.32 input   59.86 | X-H torsion
[ 10167 10162 10161 10158 ] final   18.53 input  -65.29 | X-H torsion
[ 10718 10713 10712 10709 ] final   88.71 input   66.30 | X-H torsion
[ 10763 10752 10751 10750 ] final  152.98 input  -60.55 | X-H torsion
[ 11005 11000 10999 10996 ] final -163.06 input  -57.11 | X-H torsion

> <Gold.Protein.ActiveResidues>
 VAL166  LYS551  ARG553  GLY616  TRP617  ASP618  TYR619  PRO620  LYS621  CYS622 
 ASP623  PHE694  ASN695  SER759  ASP760  ASP761  ALA762  ILE779  LEU786  VAL792 
 PHE793  MET794  SER795  GLU796  ALA797  LYS798  CYS799  TRP800  GLU811  SER814 

> <Gold.Protein.RotatedAtoms>
  150.9316  133.6760  159.2809 H   0  0  0  0  0  0  0  0  0  0  0  0  # atno 6907 bound_to 6896
  151.4180  135.0993  159.9615 H   0  0  0  0  0  0  0  0  0  0  0  0  # atno 6908 bound_to 6896
  152.5028  133.8774  159.7384 H   0  0  0  0  0  0  0  0  0  0  0  0  # atno 6909 bound_to 6896
  146.2420  140.1375  142.8336 H   0  0  0  0  0  0  0  0  0  0  0  0  # atno 7974 bound_to 7965
  156.2111  140.1780  156.7693 H   0  0  0  0  0  0  0  0  0  0  0  0  # atno 8008 bound_to 7997
  154.5724  140.0680  156.9013 H   0  0  0  0  0  0  0  0  0  0  0  0  # atno 8009 bound_to 7997
  155.2649  140.3338  155.4272 H   0  0  0  0  0  0  0  0  0  0  0  0  # atno 8010 bound_to 7997
  140.5646  143.9274  150.6667 H   0  0  0  0  0  0  0  0  0  0  0  0  # atno 10167 bound_to 10162
  157.6951  131.0305  150.3316 H   0  0  0  0  0  0  0  0  0  0  0  0  # atno 10718 bound_to 10713
  154.1288  135.2828  155.3190 H   0  0  0  0  0  0  0  0  0  0  0  0  # atno 10763 bound_to 10752
  154.6370  135.5415  153.7749 H   0  0  0  0  0  0  0  0  0  0  0  0  # atno 10764 bound_to 10752
  153.0288  135.6477  154.1439 H   0  0  0  0  0  0  0  0  0  0  0  0  # atno 10765 bound_to 10752
  140.6023  134.4935  157.5206 H   0  0  0  0  0  0  0  0  0  0  0  0  # atno 11005 bound_to 11000
  145.0275  140.8844  143.5130 LP  0  0  0  0  0  0  0  0  0  0  0  0  # atno 17320 bound_to 7965
  145.1433  139.2559  143.5479 LP  0  0  0  0  0  0  0  0  0  0  0  0  # atno 17321 bound_to 7965
  140.2734  143.3440  152.1217 LP  0  0  0  0  0  0  0  0  0  0  0  0  # atno 17342 bound_to 10162
  139.5086  144.6854  151.5902 LP  0  0  0  0  0  0  0  0  0  0  0  0  # atno 17343 bound_to 10162
  156.3789  130.3877  149.7117 LP  0  0  0  0  0  0  0  0  0  0  0  0  # atno 17370 bound_to 10713
  156.4506  130.7905  151.2926 LP  0  0  0  0  0  0  0  0  0  0  0  0  # atno 17371 bound_to 10713
  139.9227  134.8116  156.1162 LP  0  0  0  0  0  0  0  0  0  0  0  0  # atno 17394 bound_to 11000
  141.0864  133.6732  156.2445 LP  0  0  0  0  0  0  0  0  0  0  0  0  # atno 17395 bound_to 11000

$$$$
