AV-unprocessed.smi:212|AV-procd|sdf|1624|dock2
  -GOLD-   2262019563D 1   1.00000     0.00000
 Structure written by MMmdl.
 65 68  0  0  0  0  0  0  0  0  2 V2000
  146.7271  136.4410  156.4796 C   0  0  0  0  0  0  0  0  0  0  0  0
  147.7537  135.3824  156.0330 C   0  0  1  0  0  0  0  0  0  0  0  0
  147.5609  134.9165  154.5729 C   0  0  0  0  0  0  0  0  0  0  0  0
  148.5404  133.8571  154.2162 N   0  3  1  0  0  0  0  0  0  0  0  0
  148.3519  133.3229  152.8416 C   0  0  0  0  0  0  0  0  0  0  0  0
  146.9139  132.8084  152.6045 C   0  0  0  0  0  0  0  0  0  0  0  0
  146.4130  132.0438  153.8413 C   0  0  0  0  0  0  0  0  0  0  0  0
  145.9318  133.9386  152.2451 C   0  0  0  0  0  0  0  0  0  0  0  0
  146.9389  131.8827  151.5355 O   0  0  0  0  0  0  0  0  0  0  0  0
  149.9431  134.2515  154.5072 C   0  0  0  0  0  0  0  0  0  0  0  0
  150.1022  134.6937  155.9742 C   0  0  0  0  0  0  0  0  0  0  0  0
  149.1500  135.7499  156.3041 N   0  0  0  0  0  0  0  0  0  0  0  0
  149.6193  136.9893  156.0083 C   0  0  0  0  0  0  0  0  0  0  0  0
  149.5957  137.4552  154.7319 N   0  0  0  0  0  0  0  0  0  0  0  0
  150.0851  138.6661  154.4478 C   0  0  0  0  0  0  0  0  0  0  0  0
  150.6415  139.5558  155.2721 N   0  0  0  0  0  0  0  0  0  0  0  0
  150.6761  139.0880  156.5524 C   0  0  0  0  0  0  0  0  0  0  0  0
  150.1943  137.8270  157.0018 C   0  0  0  0  0  0  0  0  0  0  0  0
  150.4024  137.6976  158.3694 N   0  0  0  0  0  0  0  0  0  0  0  0
  150.9739  138.8208  158.7104 C   0  0  0  0  0  0  0  0  0  0  0  0
  151.1703  139.7148  157.6818 N   0  0  0  0  0  0  0  0  0  0  0  0
  151.7775  141.0309  157.7758 C   0  0  0  0  0  0  0  0  0  0  0  0
  152.3044  141.3647  159.1940 C   0  0  1  0  0  0  0  0  0  0  0  0
  153.7565  140.8800  159.4243 C   0  0  0  0  0  0  0  0  0  0  0  0
  153.9992  139.6480  158.7761 O   0  0  0  0  0  0  0  0  0  0  0  0
  152.1246  142.8674  159.5266 C   0  0  2  0  0  0  0  0  0  0  0  0
  150.7423  143.4276  159.2399 C   0  0  0  0  0  0  0  0  0  0  0  0
  151.0035  144.9293  159.2068 C   0  0  0  0  0  0  0  0  0  0  0  0
  152.3287  145.0789  158.7095 O   0  0  0  0  0  0  0  0  0  0  0  0
  152.9847  143.8153  158.6843 C   0  0  0  0  0  0  0  0  0  0  0  0
  145.7132  136.0463  156.4093 H   0  0  0  0  0  0  0  0  0  0  0  0
  146.7616  137.3422  155.8684 H   0  0  0  0  0  0  0  0  0  0  0  0
  146.8916  136.7330  157.5172 H   0  0  0  0  0  0  0  0  0  0  0  0
  147.5672  134.5118  156.6637 H   0  0  0  0  0  0  0  0  0  0  0  0
  146.5511  134.5241  154.4463 H   0  0  0  0  0  0  0  0  0  0  0  0
  147.6594  135.7518  153.8792 H   0  0  0  0  0  0  0  0  0  0  0  0
  148.5905  134.0919  152.1043 H   0  0  0  0  0  0  0  0  0  0  0  0
  149.0623  132.5163  152.6529 H   0  0  0  0  0  0  0  0  0  0  0  0
  146.3663  132.6958  154.7142 H   0  0  0  0  0  0  0  0  0  0  0  0
  147.0708  131.2098  154.0898 H   0  0  0  0  0  0  0  0  0  0  0  0
  145.4133  131.6372  153.6824 H   0  0  0  0  0  0  0  0  0  0  0  0
  145.8908  134.6893  153.0350 H   0  0  0  0  0  0  0  0  0  0  0  0
  144.9204  133.5548  152.1056 H   0  0  0  0  0  0  0  0  0  0  0  0
  146.2142  134.4451  151.3217 H   0  0  0  0  0  0  0  0  0  0  0  0
  147.8327  131.7841  151.2429 H   0  0  0  0  0  0  0  0  0  0  0  0
  150.6106  133.4134  154.3053 H   0  0  0  0  0  0  0  0  0  0  0  0
  150.2383  135.0608  153.8376 H   0  0  0  0  0  0  0  0  0  0  0  0
  149.9231  133.8472  156.6381 H   0  0  0  0  0  0  0  0  0  0  0  0
  151.1281  135.0145  156.1599 H   0  0  0  0  0  0  0  0  0  0  0  0
  150.0237  138.9642  153.4115 H   0  0  0  0  0  0  0  0  0  0  0  0
  151.2638  139.0328  159.7295 H   0  0  0  0  0  0  0  0  0  0  0  0
  152.5894  141.0879  157.0498 H   0  0  0  0  0  0  0  0  0  0  0  0
  151.0319  141.7614  157.4612 H   0  0  0  0  0  0  0  0  0  0  0  0
  151.6852  140.8072  159.8980 H   0  0  0  0  0  0  0  0  0  0  0  0
  154.4738  141.6146  159.0591 H   0  0  0  0  0  0  0  0  0  0  0  0
  153.9668  140.7641  160.4874 H   0  0  0  0  0  0  0  0  0  0  0  0
  153.1679  139.2452  158.5762 H   0  0  0  0  0  0  0  0  0  0  0  0
  152.3543  143.0389  160.5796 H   0  0  0  0  0  0  0  0  0  0  0  0
  150.3878  143.0888  158.2651 H   0  0  0  0  0  0  0  0  0  0  0  0
  150.0002  143.1522  159.9896 H   0  0  0  0  0  0  0  0  0  0  0  0
  150.2815  145.4648  158.5900 H   0  0  0  0  0  0  0  0  0  0  0  0
  150.9627  145.3444  160.2147 H   0  0  0  0  0  0  0  0  0  0  0  0
  154.0052  143.8976  159.0587 H   0  0  0  0  0  0  0  0  0  0  0  0
  153.0324  143.4770  157.6484 H   0  0  0  0  0  0  0  0  0  0  0  0
  148.3376  133.0846  154.8349 H   0  0  0  0  0  0  0  0  0  0  0  0
  1  2  1  0  0  0  0
  1 31  1  0  0  0  0
  1 32  1  0  0  0  0
  1 33  1  0  0  0  0
  2 12  1  0  0  0  0
  2  3  1  0  0  0  0
  2 34  1  0  0  0  0
  3  4  1  0  0  0  0
  3 35  1  0  0  0  0
  3 36  1  0  0  0  0
  4  5  1  0  0  0  0
  4 10  1  0  0  0  0
  4 65  1  0  0  0  0
  5  6  1  0  0  0  0
  5 37  1  0  0  0  0
  5 38  1  0  0  0  0
  6  7  1  0  0  0  0
  6  8  1  0  0  0  0
  6  9  1  0  0  0  0
  7 39  1  0  0  0  0
  7 40  1  0  0  0  0
  7 41  1  0  0  0  0
  8 42  1  0  0  0  0
  8 43  1  0  0  0  0
  8 44  1  0  0  0  0
  9 45  1  0  0  0  0
 10 11  1  0  0  0  0
 10 46  1  0  0  0  0
 10 47  1  0  0  0  0
 11 12  1  0  0  0  0
 11 48  1  0  0  0  0
 11 49  1  0  0  0  0
 12 13  1  0  0  0  0
 13 18  1  0  0  0  0
 13 14  2  0  0  0  0
 14 15  1  0  0  0  0
 15 16  2  0  0  0  0
 15 50  1  0  0  0  0
 16 17  1  0  0  0  0
 17 21  1  0  0  0  0
 17 18  2  0  0  0  0
 18 19  1  0  0  0  0
 19 20  2  0  0  0  0
 20 21  1  0  0  0  0
 20 51  1  0  0  0  0
 21 22  1  0  0  0  0
 22 23  1  0  0  0  0
 22 52  1  0  0  0  0
 22 53  1  0  0  0  0
 23 24  1  0  0  0  0
 23 26  1  0  0  0  0
 23 54  1  0  0  0  0
 24 25  1  0  0  0  0
 24 55  1  0  0  0  0
 24 56  1  0  0  0  0
 25 57  1  0  0  0  0
 26 30  1  0  0  0  0
 26 27  1  0  0  0  0
 26 58  1  0  0  0  0
 27 28  1  0  0  0  0
 27 59  1  0  0  0  0
 27 60  1  0  0  0  0
 28 29  1  0  0  0  0
 28 61  1  0  0  0  0
 28 62  1  0  0  0  0
 29 30  1  0  0  0  0
 30 63  1  0  0  0  0
 30 64  1  0  0  0  0
M  CHG  1   4   1
M  END
> <s_m_source_file>
AV-unprocessed.smi

> <i_m_source_file_index>
212

> <i_lp_mmshare_version>
43012

> <i_f3d_flags>
0

> <s_epik_input>
W0NIM11bQ0BASF0xW0NIMl1OKFtDSDJdQyhbQ0gzXSkoW0NIM10pW09IXSlbQ0gyXVtDSDJdTjFjKG5bY0hdbjIpYyhjMjMpbltjSF1uM1tDSDJdW0NASF0oW0NIMl1bT0hdKVtDQEBIXTRbQ0gyXVtDSDJdT1tDSDJdNA==

> <s_epik_cmdline>
J2VwaWtfcHl0aG9uJywgJy1waCcsICc3LjAnLCAnLXRuJywgJzgnLCAnLW1hJywgJzIwMCcsICctbWV0YWxfYmluZGluZycsICctaW1hZScsICc8aW5maWxlLm1hZT4nLCAnLW9tYWUnLCAnPG91dGZpbGUubWFlPic=

> <r_lp_tautomer_probability>
1

> <r_epik_Ionization_Penalty>
0.00182193

> <r_epik_Ionization_Penalty_Charging>
0.00173996

> <r_epik_Ionization_Penalty_Neutral>
8.19718e-05

> <r_epik_State_Penalty>
-0

> <r_epik_Charging_Adjusted_Penalty>
0.00173996

> <i_epik_Tot_Q>
1

> <i_epik_Tot_abs_Q>
1

> <r_epik_Metal_State_Penalty>
-0

> <b_epik_Metal_Only>
0

> <s_lp_Force_Field>
OPLS_2005

> <r_lp_Energy>
58.8905

> <b_lp_Chiralities_Consistent>
1

> <s_lp_Variant>
AV-unprocessed.smi:212-8

> <Gold.Version>
5.8.1

> <Gold.Id.Protein>
6NUR|6NUR_protein|mol2

> <Gold.PLP.Fitness>
49.3419

> <Gold.PLP.PLP>
-41.3511

> <Gold.PLP.part.hbond>
-2.0000

> <Gold.PLP.part.metal>
0.0000

> <Gold.PLP.part.buried>
-6.7887

> <Gold.PLP.part.nonpolar>
-31.7487

> <Gold.PLP.part.repulsive>
0.2819

> <Gold.PLP.ligand.clash>
0.0000

> <Gold.PLP.ligand.torsion>
1.2674

> <Gold.PLP.Chemscore.Hbond>
2.0819

> <Gold.PLP.Chemscore.CHOScore>
0.9904

> <Gold.PLP.Chemscore.Metal>
0.0000

> <Gold.Chemscore.Hbonds>
donor molecule, donor type, donor heavy atom, donor atom, acceptor molecule, acceptor atom, score
      L1  H     9    45       P1 10747  0.94
      P1  H  7989  7998       L1    16  0.02
      P1  H  7997  8010       L1    25  1.00
      L1  C    15    50       P1  7957  1.00

> <Gold.PLP.Chemscore.Internal.Correction>
1.3087

> <Gold.Rescore>
     Score         DG    S(hbond)    S(metal)    S(lipo)     H(rot)  DE(clash)    DE(int)     intcor
     12.25     -13.75       1.77        0.00     100.64       3.68       0.04       1.46       ----

> <Gold.Chemscore.Fitness>
12.2500

> <Gold.Chemscore.DG>
-13.7457

> <Gold.Chemscore.ZeroCoef>
-5.4800

> <Gold.Chemscore.Hbond>
1.7709

> <Gold.Chemscore.Metal>
0.0000

> <Gold.Chemscore.Lipo>
100.6390

> <Gold.Chemscore.Internal_Hbond>
0.0000

> <Gold.Chemscore.DEClash>
0.0382

> <Gold.Chemscore.DEInternal>
1.4575

> <Gold.Chemscore.Rot>
3.6812

> <Gold.Chemscore.Internal.Correction>
   9.000000E+99

> <Gold.Chemscore.Hbonds>
donor molecule, donor type, donor heavy atom, donor atom, acceptor molecule, acceptor atom, score
      L1  H     9    45       P1 10747  0.91
      P1  H  7989  7998       L1    16  0.01
      P1  H  7997  8010       L1    25  0.39

> <Gold.Chemscore.Hbond.Weighted>
-5.9149

> <Gold.Chemscore.Metal.Weighted>
-0.0000

> <Gold.Chemscore.Lipo.Weighted>
-11.7748

> <Gold.Chemscore.Internal_Hbond.Weighted>
0.0000

> <Gold.Chemscore.DEClash.Weighted>
0.0382

> <Gold.Chemscore.DEInternal.Weighted>
1.4575

> <Gold.Chemscore.Rot.Weighted>
9.4239

> <Gold.Chemscore.Internal.Correction.Weighted>
   9.000000E+99

> <Gold.Protein.RotatedTorsions>
[ 6907 6896 6895 6894 ] final -116.33 input  -60.11 | X-H torsion
[ 7974 7965 7964 7962 ] final   67.31 input  175.53 | X-H torsion
[ 8008 7997 7996 7995 ] final   17.59 input   59.86 | X-H torsion
[ 10167 10162 10161 10158 ] final -156.39 input  -65.29 | X-H torsion
[ 10718 10713 10712 10709 ] final  155.42 input   66.30 | X-H torsion
[ 10763 10752 10751 10750 ] final   52.71 input  -60.55 | X-H torsion
[ 11005 11000 10999 10996 ] final -136.97 input  -57.11 | X-H torsion

> <Gold.Protein.ActiveResidues>
 VAL166  LYS551  ARG553  GLY616  TRP617  ASP618  TYR619  PRO620  LYS621  CYS622 
 ASP623  PHE694  ASN695  SER759  ASP760  ASP761  ALA762  ILE779  LEU786  VAL792 
 PHE793  MET794  SER795  GLU796  ALA797  LYS798  CYS799  TRP800  GLU811  SER814 

> <Gold.Protein.RotatedAtoms>
  150.8048  133.8531  159.3210 H   0  0  0  0  0  0  0  0  0  0  0  0  # atno 6907 bound_to 6896
  151.6334  135.1019  160.0136 H   0  0  0  0  0  0  0  0  0  0  0  0  # atno 6908 bound_to 6896
  152.4137  133.6965  159.6455 H   0  0  0  0  0  0  0  0  0  0  0  0  # atno 6909 bound_to 6896
  145.8162  139.3059  143.1070 H   0  0  0  0  0  0  0  0  0  0  0  0  # atno 7974 bound_to 7965
  154.8936  140.2990  155.5357 H   0  0  0  0  0  0  0  0  0  0  0  0  # atno 8008 bound_to 7997
  156.3020  140.2420  156.3889 H   0  0  0  0  0  0  0  0  0  0  0  0  # atno 8009 bound_to 7997
  154.8593  140.0406  157.1644 H   0  0  0  0  0  0  0  0  0  0  0  0  # atno 8010 bound_to 7997
  139.6854  143.9510  152.2358 H   0  0  0  0  0  0  0  0  0  0  0  0  # atno 10167 bound_to 10162
  157.2185  131.0713  151.1926 H   0  0  0  0  0  0  0  0  0  0  0  0  # atno 10718 bound_to 10713
  152.9790  135.5803  154.4623 H   0  0  0  0  0  0  0  0  0  0  0  0  # atno 10763 bound_to 10752
  154.4198  135.2771  155.1985 H   0  0  0  0  0  0  0  0  0  0  0  0  # atno 10764 bound_to 10752
  154.3739  135.6162  153.5808 H   0  0  0  0  0  0  0  0  0  0  0  0  # atno 10765 bound_to 10752
  140.8755  134.1997  157.4624 H   0  0  0  0  0  0  0  0  0  0  0  0  # atno 11005 bound_to 11000
  145.9724  140.8749  143.0156 LP  0  0  0  0  0  0  0  0  0  0  0  0  # atno 17320 bound_to 7965
  144.6752  140.1964  143.7391 LP  0  0  0  0  0  0  0  0  0  0  0  0  # atno 17321 bound_to 7965
  139.9312  144.6740  150.8361 LP  0  0  0  0  0  0  0  0  0  0  0  0  # atno 17342 bound_to 10162
  140.7666  143.3307  151.2415 LP  0  0  0  0  0  0  0  0  0  0  0  0  # atno 17343 bound_to 10162
  157.3600  130.7126  149.6495 LP  0  0  0  0  0  0  0  0  0  0  0  0  # atno 17370 bound_to 10713
  155.9684  130.4228  150.4534 LP  0  0  0  0  0  0  0  0  0  0  0  0  # atno 17371 bound_to 10713
  139.8715  134.9793  156.5033 LP  0  0  0  0  0  0  0  0  0  0  0  0  # atno 17394 bound_to 11000
  140.8523  133.8122  155.9181 LP  0  0  0  0  0  0  0  0  0  0  0  0  # atno 17395 bound_to 11000

$$$$
