AV-unprocessed.smi:3101|AV-procd|sdf|11810|dock7
  -GOLD-   2272017183D 1   1.00000     0.00000
 Structure written by MMmdl.
 28 29  0  0  0  0  0  0  0  0  1 V2000
  152.7838  141.7673  160.0057 C   0  0  0  0  0  0  0  0  0  0  0  0
  152.6958  143.2609  159.6427 C   0  0  2  0  0  0  0  0  0  0  0  0
  151.7772  144.0724  160.5333 C   0  0  0  0  0  0  0  0  0  0  0  0
  151.6185  145.3451  159.7097 C   0  0  0  0  0  0  0  0  0  0  0  0
  151.6360  144.9250  158.3478 O   0  0  0  0  0  0  0  0  0  0  0  0
  152.1998  143.6179  158.2240 C   0  0  2  0  0  0  0  0  0  0  0  0
  151.1106  142.6965  157.6492 C   0  0  0  0  0  0  0  0  0  0  0  0
  150.0352  142.5738  158.2370 O   0  0  0  0  0  0  0  0  0  0  0  0
  151.4190  142.0824  156.4922 N   0  0  0  0  0  0  0  0  0  0  0  0
  150.6248  141.1764  155.7413 C   0  0  0  0  0  0  0  0  0  0  0  0
  149.2357  141.4447  155.7256 C   0  0  0  0  0  0  0  0  0  0  0  0
  148.3513  140.6742  155.0543 N   0  0  0  0  0  0  0  0  0  0  0  0
  148.8579  139.6165  154.3856 C   0  0  0  0  0  0  0  0  0  0  0  0
  150.2384  139.3339  154.3893 C   0  0  0  0  0  0  0  0  0  0  0  0
  151.1168  140.1086  155.0621 N   0  0  0  0  0  0  0  0  0  0  0  0
  151.8039  141.2895  160.0197 H   0  0  0  0  0  0  0  0  0  0  0  0
  153.2211  141.6371  160.9958 H   0  0  0  0  0  0  0  0  0  0  0  0
  153.4109  141.2288  159.2947 H   0  0  0  0  0  0  0  0  0  0  0  0
  153.7008  143.6749  159.7422 H   0  0  0  0  0  0  0  0  0  0  0  0
  150.8138  143.5761  160.6566 H   0  0  0  0  0  0  0  0  0  0  0  0
  152.1943  144.2587  161.5233 H   0  0  0  0  0  0  0  0  0  0  0  0
  150.7037  145.8880  159.9483 H   0  0  0  0  0  0  0  0  0  0  0  0
  152.4636  146.0135  159.8789 H   0  0  0  0  0  0  0  0  0  0  0  0
  153.0448  143.6583  157.5346 H   0  0  0  0  0  0  0  0  0  0  0  0
  152.3306  142.2846  156.1086 H   0  0  0  0  0  0  0  0  0  0  0  0
  148.8250  142.2899  156.2589 H   0  0  0  0  0  0  0  0  0  0  0  0
  148.1602  138.9939  153.8453 H   0  0  0  0  0  0  0  0  0  0  0  0
  150.6380  138.4865  153.8523 H   0  0  0  0  0  0  0  0  0  0  0  0
  1  2  1  0  0  0  0
  1 16  1  0  0  0  0
  1 17  1  0  0  0  0
  1 18  1  0  0  0  0
  2  6  1  0  0  0  0
  2  3  1  0  0  0  0
  2 19  1  0  0  0  0
  3  4  1  0  0  0  0
  3 20  1  0  0  0  0
  3 21  1  0  0  0  0
  4  5  1  0  0  0  0
  4 22  1  0  0  0  0
  4 23  1  0  0  0  0
  5  6  1  0  0  0  0
  6  7  1  0  0  0  0
  6 24  1  0  0  0  0
  7  8  2  0  0  0  0
  7  9  1  0  0  0  0
  9 10  1  0  0  0  0
  9 25  1  0  0  0  0
 10 15  1  0  0  0  0
 10 11  2  0  0  0  0
 11 12  1  0  0  0  0
 11 26  1  0  0  0  0
 12 13  2  0  0  0  0
 13 14  1  0  0  0  0
 13 27  1  0  0  0  0
 14 15  2  0  0  0  0
 14 28  1  0  0  0  0
M  END
> <s_m_source_file>
AV-unprocessed.smi

> <i_m_source_file_index>
3101

> <i_lp_mmshare_version>
43012

> <i_f3d_flags>
0

> <s_epik_input>
W0NIM11bQ0BASF0xW0NIMl1bQ0gyXU9bQ0BIXTFDKD1PKVtOSF1jMltjSF1uW2NIXVtjSF1uMg==

> <s_epik_cmdline>
J2VwaWtfcHl0aG9uJywgJy1waCcsICc3LjAnLCAnLXRuJywgJzgnLCAnLW1hJywgJzIwMCcsICctbWV0YWxfYmluZGluZycsICctaW1hZScsICc8aW5maWxlLm1hZT4nLCAnLW9tYWUnLCAnPG91dGZpbGUubWFlPic=

> <r_lp_tautomer_probability>
1

> <r_epik_Ionization_Penalty>
2.83174e-06

> <r_epik_Ionization_Penalty_Charging>
0

> <r_epik_Ionization_Penalty_Neutral>
2.83174e-06

> <r_epik_State_Penalty>
-0

> <r_epik_Charging_Adjusted_Penalty>
0

> <i_epik_Tot_Q>
0

> <i_epik_Tot_abs_Q>
0

> <r_epik_Metal_State_Penalty>
-0

> <b_epik_Metal_Only>
0

> <s_lp_Force_Field>
OPLS_2005

> <r_lp_Energy>
27.4183

> <b_lp_Chiralities_Consistent>
1

> <s_lp_Variant>
AV-unprocessed.smi:3101-3

> <Gold.Version>
5.8.1

> <Gold.Id.Protein>
6NUR|6NUR_protein|mol2

> <Gold.PLP.Fitness>
35.9626

> <Gold.PLP.PLP>
-31.8639

> <Gold.PLP.part.hbond>
-1.0000

> <Gold.PLP.part.metal>
0.0000

> <Gold.PLP.part.buried>
-2.3143

> <Gold.PLP.part.nonpolar>
-28.8705

> <Gold.PLP.part.repulsive>
0.4830

> <Gold.PLP.ligand.clash>
0.0000

> <Gold.PLP.ligand.torsion>
0.2686

> <Gold.PLP.Chemscore.Hbond>
0.5500

> <Gold.PLP.Chemscore.CHOScore>
0.9917

> <Gold.PLP.Chemscore.Metal>
0.0000

> <Gold.Chemscore.Hbonds>
donor molecule, donor type, donor heavy atom, donor atom, acceptor molecule, acceptor atom, score
      P1  H  7989  7998       L1    15  0.50
      L1  C    11    26       P1  8028  0.99

> <Gold.PLP.Chemscore.Internal.Correction>
0.0109

> <Gold.Rescore>
     Score         DG    S(hbond)    S(metal)    S(lipo)     H(rot)  DE(clash)    DE(int)     intcor
     12.43     -14.05       0.65        0.00      76.49       1.00       0.06       1.57       ----

> <Gold.Chemscore.Fitness>
12.4298

> <Gold.Chemscore.DG>
-14.0548

> <Gold.Chemscore.ZeroCoef>
-5.4800

> <Gold.Chemscore.Hbond>
0.6542

> <Gold.Chemscore.Metal>
0.0000

> <Gold.Chemscore.Lipo>
76.4926

> <Gold.Chemscore.Internal_Hbond>
0.0000

> <Gold.Chemscore.DEClash>
0.0566

> <Gold.Chemscore.DEInternal>
1.5685

> <Gold.Chemscore.Rot>
1.0000

> <Gold.Chemscore.Internal.Correction>
   9.000000E+99

> <Gold.Chemscore.Hbonds>
donor molecule, donor type, donor heavy atom, donor atom, acceptor molecule, acceptor atom, score
      P1  H  7989  7998       L1    15  0.01

> <Gold.Chemscore.Hbond.Weighted>
-2.1852

> <Gold.Chemscore.Metal.Weighted>
-0.0000

> <Gold.Chemscore.Lipo.Weighted>
-8.9496

> <Gold.Chemscore.Internal_Hbond.Weighted>
0.0000

> <Gold.Chemscore.DEClash.Weighted>
0.0566

> <Gold.Chemscore.DEInternal.Weighted>
1.5685

> <Gold.Chemscore.Rot.Weighted>
2.5600

> <Gold.Chemscore.Internal.Correction.Weighted>
   9.000000E+99

> <Gold.Protein.RotatedTorsions>
[ 6907 6896 6895 6894 ] final -160.59 input  -60.11 | X-H torsion
[ 7974 7965 7964 7962 ] final  -92.25 input  175.53 | X-H torsion
[ 8008 7997 7996 7995 ] final   93.94 input   59.86 | X-H torsion
[ 10167 10162 10161 10158 ] final  -56.42 input  -65.29 | X-H torsion
[ 10718 10713 10712 10709 ] final   45.37 input   66.30 | X-H torsion
[ 10763 10752 10751 10750 ] final   60.57 input  -60.55 | X-H torsion
[ 11005 11000 10999 10996 ] final  100.37 input  -57.11 | X-H torsion

> <Gold.Protein.ActiveResidues>
 VAL166  LYS551  ARG553  GLY616  TRP617  ASP618  TYR619  PRO620  LYS621  CYS622 
 ASP623  PHE694  ASN695  SER759  ASP760  ASP761  ALA762  ILE779  LEU786  VAL792 
 PHE793  MET794  SER795  GLU796  ALA797  LYS798  CYS799  TRP800  GLU811  SER814 

> <Gold.Protein.RotatedAtoms>
  151.3514  133.3924  159.2680 H   0  0  0  0  0  0  0  0  0  0  0  0  # atno 6907 bound_to 6896
  150.9798  134.9156  159.7848 H   0  0  0  0  0  0  0  0  0  0  0  0  # atno 6908 bound_to 6896
  152.5213  134.3478  159.9292 H   0  0  0  0  0  0  0  0  0  0  0  0  # atno 6909 bound_to 6896
  145.4023  140.9538  143.2280 H   0  0  0  0  0  0  0  0  0  0  0  0  # atno 7974 bound_to 7965
  156.0523  140.3306  155.7366 H   0  0  0  0  0  0  0  0  0  0  0  0  # atno 8008 bound_to 7997
  155.5581  140.0616  157.2852 H   0  0  0  0  0  0  0  0  0  0  0  0  # atno 8009 bound_to 7997
  154.4442  140.1882  156.0743 H   0  0  0  0  0  0  0  0  0  0  0  0  # atno 8010 bound_to 7997
  140.6318  143.2463  151.5220 H   0  0  0  0  0  0  0  0  0  0  0  0  # atno 10167 bound_to 10162
  157.4368  130.8057  149.7655 H   0  0  0  0  0  0  0  0  0  0  0  0  # atno 10718 bound_to 10713
  152.9925  135.5531  154.5895 H   0  0  0  0  0  0  0  0  0  0  0  0  # atno 10763 bound_to 10752
  154.5260  135.2810  155.1224 H   0  0  0  0  0  0  0  0  0  0  0  0  # atno 10764 bound_to 10752
  154.2558  135.6390  153.5309 H   0  0  0  0  0  0  0  0  0  0  0  0  # atno 10765 bound_to 10752
  139.8771  134.9137  156.4746 H   0  0  0  0  0  0  0  0  0  0  0  0  # atno 11005 bound_to 11000
  144.8365  139.5541  143.6920 LP  0  0  0  0  0  0  0  0  0  0  0  0  # atno 17320 bound_to 7965
  146.2745  139.6719  142.9272 LP  0  0  0  0  0  0  0  0  0  0  0  0  # atno 17321 bound_to 7965
  139.5532  144.2343  152.1566 LP  0  0  0  0  0  0  0  0  0  0  0  0  # atno 17342 bound_to 10162
  140.1588  144.5045  150.6644 LP  0  0  0  0  0  0  0  0  0  0  0  0  # atno 17343 bound_to 10162
  155.9933  130.3925  150.2904 LP  0  0  0  0  0  0  0  0  0  0  0  0  # atno 17370 bound_to 10713
  157.1066  131.0210  151.3065 LP  0  0  0  0  0  0  0  0  0  0  0  0  # atno 17371 bound_to 10713
  140.8771  133.7945  155.9426 LP  0  0  0  0  0  0  0  0  0  0  0  0  # atno 17394 bound_to 11000
  140.8893  134.2516  157.5103 LP  0  0  0  0  0  0  0  0  0  0  0  0  # atno 17395 bound_to 11000

$$$$
