AV-unprocessed.smi:2751|AV-procd|sdf|10604|dock5
  -GOLD-   2272015 53D 1   1.00000     0.00000
 Structure written by MMmdl.
 33 34  0  0  0  0  0  0  0  0  2 V2000
  151.8626  139.9322  154.8467 O   0  0  0  0  0  0  0  0  0  0  0  0
  150.8106  139.8860  155.4889 C   0  0  0  0  0  0  0  0  0  0  0  0
  150.7925  140.2784  156.7713 N   0  0  0  0  0  0  0  0  0  0  0  0
  151.9350  140.7801  157.5280 C   0  0  0  0  0  0  0  0  0  0  0  0
  151.5200  141.2571  158.9306 C   0  0  0  0  0  0  0  0  0  0  0  0
  152.1203  142.6230  159.2993 C   0  0  1  0  0  0  0  0  0  0  0  0
  151.9652  143.6472  158.1580 C   0  0  0  0  0  0  0  0  0  0  0  0
  152.5069  145.0165  158.5841 C   0  0  0  0  0  0  0  0  0  0  0  0
  151.8536  145.4428  159.9031 C   0  0  0  0  0  0  0  0  0  0  0  0
  152.0029  144.3329  160.9559 C   0  0  0  0  0  0  0  0  0  0  0  0
  151.4528  143.1163  160.4598 O   0  0  0  0  0  0  0  0  0  0  0  0
  149.6095  139.4670  155.0298 N   0  5  0  0  0  0  0  0  0  0  0  0
  148.7282  140.3602  154.5518 C   0  0  0  0  0  0  0  0  0  0  0  0
  148.7355  141.6756  154.7744 N   0  0  0  0  0  0  0  0  0  0  0  0
  147.6489  142.1839  154.0796 C   0  0  0  0  0  0  0  0  0  0  0  0
  147.0276  141.1400  153.4504 C   0  0  0  0  0  0  0  0  0  0  0  0
  147.7008  139.9849  153.7380 O   0  0  0  0  0  0  0  0  0  0  0  0
  149.9110  140.2234  157.2599 H   0  0  0  0  0  0  0  0  0  0  0  0
  152.6629  139.9726  157.6086 H   0  0  0  0  0  0  0  0  0  0  0  0
  152.4255  141.5846  156.9776 H   0  0  0  0  0  0  0  0  0  0  0  0
  150.4324  141.3251  158.9769 H   0  0  0  0  0  0  0  0  0  0  0  0
  151.8122  140.5145  159.6744 H   0  0  0  0  0  0  0  0  0  0  0  0
  153.1805  142.4906  159.5229 H   0  0  0  0  0  0  0  0  0  0  0  0
  152.4878  143.3018  157.2653 H   0  0  0  0  0  0  0  0  0  0  0  0
  150.9124  143.7400  157.8875 H   0  0  0  0  0  0  0  0  0  0  0  0
  153.5887  144.9600  158.7110 H   0  0  0  0  0  0  0  0  0  0  0  0
  152.3194  145.7588  157.8080 H   0  0  0  0  0  0  0  0  0  0  0  0
  152.3003  146.3695  160.2640 H   0  0  0  0  0  0  0  0  0  0  0  0
  150.7951  145.6478  159.7383 H   0  0  0  0  0  0  0  0  0  0  0  0
  153.0505  144.1880  161.2237 H   0  0  0  0  0  0  0  0  0  0  0  0
  151.4768  144.6097  161.8695 H   0  0  0  0  0  0  0  0  0  0  0  0
  147.4078  143.2365  154.0863 H   0  0  0  0  0  0  0  0  0  0  0  0
  146.1628  141.0536  152.8100 H   0  0  0  0  0  0  0  0  0  0  0  0
  1  2  2  0  0  0  0
  2 12  1  0  0  0  0
  2  3  1  0  0  0  0
  3  4  1  0  0  0  0
  3 18  1  0  0  0  0
  4  5  1  0  0  0  0
  4 19  1  0  0  0  0
  4 20  1  0  0  0  0
  5  6  1  0  0  0  0
  5 21  1  0  0  0  0
  5 22  1  0  0  0  0
  6 11  1  0  0  0  0
  6  7  1  0  0  0  0
  6 23  1  0  0  0  0
  7  8  1  0  0  0  0
  7 24  1  0  0  0  0
  7 25  1  0  0  0  0
  8  9  1  0  0  0  0
  8 26  1  0  0  0  0
  8 27  1  0  0  0  0
  9 10  1  0  0  0  0
  9 28  1  0  0  0  0
  9 29  1  0  0  0  0
 10 11  1  0  0  0  0
 10 30  1  0  0  0  0
 10 31  1  0  0  0  0
 12 13  1  0  0  0  0
 13 17  1  0  0  0  0
 13 14  2  0  0  0  0
 14 15  1  0  0  0  0
 15 32  1  0  0  0  0
 15 16  2  0  0  0  0
 16 33  1  0  0  0  0
 16 17  1  0  0  0  0
M  CHG  1  12  -1
M  END
> <s_m_source_file>
AV-unprocessed.smi

> <i_m_source_file_index>
2751

> <i_lp_mmshare_version>
43012

> <i_f3d_flags>
0

> <s_epik_input>
bzFbY0hdW2NIXW5jMVtOSF1DKD1PKVtOSF1bQ0gyXVtDSDJdW0NAQEhdMltDSDJdW0NIMl1bQ0gyXVtDSDJdTzI=

> <s_epik_cmdline>
J2VwaWtfcHl0aG9uJywgJy1waCcsICc3LjAnLCAnLXRuJywgJzgnLCAnLW1hJywgJzIwMCcsICctbWV0YWxfYmluZGluZycsICctaW1hZScsICc8aW5maWxlLm1hZT4nLCAnLW9tYWUnLCAnPG91dGZpbGUubWFlPic=

> <r_lp_tautomer_probability>
0.107061

> <r_epik_Ionization_Penalty>
11.077

> <r_epik_Ionization_Penalty_Charging>
7.79122

> <r_epik_Ionization_Penalty_Neutral>
3.28583

> <r_epik_State_Penalty>
5.8984

> <r_epik_Charging_Adjusted_Penalty>
13.6896

> <i_epik_Tot_Q>
-1

> <i_epik_Tot_abs_Q>
1

> <r_epik_Metal_State_Penalty>
1.82322

> <b_epik_Metal_Only>
1

> <s_lp_Force_Field>
OPLS_2005

> <r_lp_Energy>
3.95886

> <b_lp_Chiralities_Consistent>
1

> <s_lp_Variant>
AV-unprocessed.smi:2751-10

> <Gold.Version>
5.8.1

> <Gold.Id.Protein>
6NUR|6NUR_protein|mol2

> <Gold.PLP.Fitness>
43.3582

> <Gold.PLP.PLP>
-37.9763

> <Gold.PLP.part.hbond>
-1.9683

> <Gold.PLP.part.metal>
0.0000

> <Gold.PLP.part.buried>
-6.9510

> <Gold.PLP.part.nonpolar>
-30.4921

> <Gold.PLP.part.repulsive>
0.5553

> <Gold.PLP.ligand.clash>
0.0000

> <Gold.PLP.ligand.torsion>
1.2540

> <Gold.PLP.Chemscore.Hbond>
0.9760

> <Gold.PLP.Chemscore.CHOScore>
1.6450

> <Gold.PLP.Chemscore.Metal>
0.0000

> <Gold.Chemscore.Hbonds>
donor molecule, donor type, donor heavy atom, donor atom, acceptor molecule, acceptor atom, score
      P1  H  7989  7998       L1     1  0.94
      L1  C    15    32       P1  8028  0.68
      L1  C    16    33       P1 10175  0.88

> <Gold.PLP.Chemscore.Internal.Correction>
0.0269

> <Gold.Rescore>
     Score         DG    S(hbond)    S(metal)    S(lipo)     H(rot)  DE(clash)    DE(int)     intcor
     14.10     -15.35       0.97        0.00      91.71       1.60       0.00       1.24       ----

> <Gold.Chemscore.Fitness>
14.1031

> <Gold.Chemscore.DG>
-15.3456

> <Gold.Chemscore.ZeroCoef>
-5.4800

> <Gold.Chemscore.Hbond>
0.9712

> <Gold.Chemscore.Metal>
0.0000

> <Gold.Chemscore.Lipo>
91.7085

> <Gold.Chemscore.Internal_Hbond>
0.0000

> <Gold.Chemscore.DEClash>
0.0000

> <Gold.Chemscore.DEInternal>
1.2424

> <Gold.Chemscore.Rot>
1.6048

> <Gold.Chemscore.Internal.Correction>
   9.000000E+99

> <Gold.Chemscore.Hbonds>
donor molecule, donor type, donor heavy atom, donor atom, acceptor molecule, acceptor atom, score
      P1  H  7989  7998       L1     1  0.67

> <Gold.Chemscore.Hbond.Weighted>
-3.2439

> <Gold.Chemscore.Metal.Weighted>
-0.0000

> <Gold.Chemscore.Lipo.Weighted>
-10.7299

> <Gold.Chemscore.Internal_Hbond.Weighted>
0.0000

> <Gold.Chemscore.DEClash.Weighted>
0.0000

> <Gold.Chemscore.DEInternal.Weighted>
1.2424

> <Gold.Chemscore.Rot.Weighted>
4.1082

> <Gold.Chemscore.Internal.Correction.Weighted>
   9.000000E+99

> <Gold.Protein.RotatedTorsions>
[ 6907 6896 6895 6894 ] final   40.99 input  -60.11 | X-H torsion
[ 7974 7965 7964 7962 ] final -111.33 input  175.53 | X-H torsion
[ 8008 7997 7996 7995 ] final  133.52 input   59.86 | X-H torsion
[ 10167 10162 10161 10158 ] final   96.97 input  -65.29 | X-H torsion
[ 10718 10713 10712 10709 ] final   83.97 input   66.30 | X-H torsion
[ 10763 10752 10751 10750 ] final   60.23 input  -60.55 | X-H torsion
[ 11005 11000 10999 10996 ] final -110.77 input  -57.11 | X-H torsion

> <Gold.Protein.ActiveResidues>
 VAL166  LYS551  ARG553  GLY616  TRP617  ASP618  TYR619  PRO620  LYS621  CYS622 
 ASP623  PHE694  ASN695  SER759  ASP760  ASP761  ALA762  ILE779  LEU786  VAL792 
 PHE793  MET794  SER795  GLU796  ALA797  LYS798  CYS799  TRP800  GLU811  SER814 

> <Gold.Protein.RotatedAtoms>
  152.1896  134.8683  160.0518 H   0  0  0  0  0  0  0  0  0  0  0  0  # atno 6907 bound_to 6896
  151.9577  133.3680  159.4032 H   0  0  0  0  0  0  0  0  0  0  0  0  # atno 6908 bound_to 6896
  150.6932  134.4197  159.5243 H   0  0  0  0  0  0  0  0  0  0  0  0  # atno 6909 bound_to 6896
  145.1574  140.8860  143.3611 H   0  0  0  0  0  0  0  0  0  0  0  0  # atno 7974 bound_to 7965
  156.2993  140.2519  156.3267 H   0  0  0  0  0  0  0  0  0  0  0  0  # atno 8008 bound_to 7997
  154.9184  140.0401  157.2003 H   0  0  0  0  0  0  0  0  0  0  0  0  # atno 8009 bound_to 7997
  154.8336  140.2879  155.5710 H   0  0  0  0  0  0  0  0  0  0  0  0  # atno 8010 bound_to 7997
  139.7845  144.6876  150.9977 H   0  0  0  0  0  0  0  0  0  0  0  0  # atno 10167 bound_to 10162
  157.6889  131.0113  150.2603 H   0  0  0  0  0  0  0  0  0  0  0  0  # atno 10718 bound_to 10713
  152.9915  135.5543  154.5841 H   0  0  0  0  0  0  0  0  0  0  0  0  # atno 10763 bound_to 10752
  154.5216  135.2808  155.1260 H   0  0  0  0  0  0  0  0  0  0  0  0  # atno 10764 bound_to 10752
  154.2611  135.6381  153.5327 H   0  0  0  0  0  0  0  0  0  0  0  0  # atno 10765 bound_to 10752
  141.0773  133.9280  157.2363 H   0  0  0  0  0  0  0  0  0  0  0  0  # atno 11005 bound_to 11000
  145.0367  139.3294  143.5997 LP  0  0  0  0  0  0  0  0  0  0  0  0  # atno 17320 bound_to 7965
  146.3487  139.9725  142.8704 LP  0  0  0  0  0  0  0  0  0  0  0  0  # atno 17321 bound_to 7965
  140.7819  143.4447  151.0500 LP  0  0  0  0  0  0  0  0  0  0  0  0  # atno 17342 bound_to 10162
  139.8126  143.7929  152.3172 LP  0  0  0  0  0  0  0  0  0  0  0  0  # atno 17343 bound_to 10162
  156.3183  130.3782  149.7598 LP  0  0  0  0  0  0  0  0  0  0  0  0  # atno 17370 bound_to 10713
  156.5176  130.8200  151.3192 LP  0  0  0  0  0  0  0  0  0  0  0  0  # atno 17371 bound_to 10713
  139.9585  135.0160  156.9196 LP  0  0  0  0  0  0  0  0  0  0  0  0  # atno 17394 bound_to 11000
  140.5546  134.0594  155.7379 LP  0  0  0  0  0  0  0  0  0  0  0  0  # atno 17395 bound_to 11000

$$$$
