AV-unprocessed.smi:2191|AV-procd|sdf|8893|dock10
  -GOLD-   2272012103D 1   1.00000     0.00000
 Structure written by MMmdl.
 36 38  0  0  0  0  0  0  0  0  1 V2000
  150.1430  140.5760  153.9291 O   0  0  0  0  0  0  0  0  0  0  0  0
  149.0395  140.8623  154.7663 C   0  0  1  0  0  0  0  0  0  0  0  0
  149.5047  141.8322  155.8636 C   0  0  0  0  0  0  0  0  0  0  0  0
  150.5117  141.1973  156.6404 O   0  0  0  0  0  0  0  0  0  0  0  0
  151.0979  141.9131  157.6624 C   0  0  0  0  0  0  0  0  0  0  0  0
  151.1064  143.3177  157.5354 C   0  0  0  0  0  0  0  0  0  0  0  0
  151.6855  144.1286  158.5304 C   0  0  0  0  0  0  0  0  0  0  0  0
  152.2648  143.5389  159.6689 C   0  0  0  0  0  0  0  0  0  0  0  0
  152.2623  142.1386  159.8099 C   0  0  0  0  0  0  0  0  0  0  0  0
  151.6837  141.3276  158.8139 C   0  0  0  0  0  0  0  0  0  0  0  0
  147.9028  141.4615  153.9153 C   0  0  0  0  0  0  0  0  0  0  0  0
  146.7966  141.9483  154.7210 N   0  0  0  0  0  0  0  0  0  0  0  0
  146.4233  141.5036  155.9363 C   0  0  0  0  0  0  0  0  0  0  0  0
  145.3764  142.0932  156.5065 N   0  0  0  0  0  0  0  0  0  0  0  0
  145.0296  143.0318  155.5497 C   0  0  0  0  0  0  0  0  0  0  0  0
  143.9920  143.9916  155.5409 C   0  0  0  0  0  0  0  0  0  0  0  0
  143.8301  144.8585  154.4400 C   0  0  0  0  0  0  0  0  0  0  0  0
  144.6991  144.7781  153.3324 C   0  0  0  0  0  0  0  0  0  0  0  0
  145.7389  143.8286  153.3176 C   0  0  0  0  0  0  0  0  0  0  0  0
  145.8993  142.9674  154.4193 C   0  0  0  0  0  0  0  0  0  0  0  0
  149.8146  140.2997  153.0869 H   0  0  0  0  0  0  0  0  0  0  0  0
  148.6895  139.9343  155.2206 H   0  0  0  0  0  0  0  0  0  0  0  0
  149.8601  142.7672  155.4263 H   0  0  0  0  0  0  0  0  0  0  0  0
  148.6640  142.0679  156.5184 H   0  0  0  0  0  0  0  0  0  0  0  0
  150.6637  143.7786  156.6644 H   0  0  0  0  0  0  0  0  0  0  0  0
  151.6849  145.2027  158.4195 H   0  0  0  0  0  0  0  0  0  0  0  0
  152.7100  144.1591  160.4329 H   0  0  0  0  0  0  0  0  0  0  0  0
  152.7057  141.6848  160.6838 H   0  0  0  0  0  0  0  0  0  0  0  0
  151.7024  140.2580  158.9576 H   0  0  0  0  0  0  0  0  0  0  0  0
  148.2781  142.2939  153.3184 H   0  0  0  0  0  0  0  0  0  0  0  0
  147.5236  140.7208  153.2103 H   0  0  0  0  0  0  0  0  0  0  0  0
  146.9506  140.7003  156.4300 H   0  0  0  0  0  0  0  0  0  0  0  0
  143.3202  144.0618  156.3835 H   0  0  0  0  0  0  0  0  0  0  0  0
  143.0344  145.5890  154.4456 H   0  0  0  0  0  0  0  0  0  0  0  0
  144.5666  145.4452  152.4931 H   0  0  0  0  0  0  0  0  0  0  0  0
  146.4041  143.7620  152.4697 H   0  0  0  0  0  0  0  0  0  0  0  0
  1  2  1  0  0  0  0
  1 21  1  0  0  0  0
  2  3  1  0  0  0  0
  2 11  1  0  0  0  0
  2 22  1  0  0  0  0
  3  4  1  0  0  0  0
  3 23  1  0  0  0  0
  3 24  1  0  0  0  0
  4  5  1  0  0  0  0
  5 10  1  0  0  0  0
  5  6  2  0  0  0  0
  6  7  1  0  0  0  0
  6 25  1  0  0  0  0
  7  8  2  0  0  0  0
  7 26  1  0  0  0  0
  8  9  1  0  0  0  0
  8 27  1  0  0  0  0
  9 10  2  0  0  0  0
  9 28  1  0  0  0  0
 10 29  1  0  0  0  0
 11 12  1  0  0  0  0
 11 30  1  0  0  0  0
 11 31  1  0  0  0  0
 12 20  1  0  0  0  0
 12 13  1  0  0  0  0
 13 14  2  0  0  0  0
 13 32  1  0  0  0  0
 14 15  1  0  0  0  0
 15 20  2  0  0  0  0
 15 16  1  0  0  0  0
 16 17  2  0  0  0  0
 16 33  1  0  0  0  0
 17 18  1  0  0  0  0
 17 34  1  0  0  0  0
 18 19  2  0  0  0  0
 18 35  1  0  0  0  0
 19 20  1  0  0  0  0
 19 36  1  0  0  0  0
M  END
> <s_m_source_file>
AV-unprocessed.smi

> <i_m_source_file_index>
2191

> <i_lp_mmshare_version>
43012

> <i_f3d_flags>
0

> <s_epik_input>
W2NIXTFbY0hdW2NIXVtjSF1jKGMxMiluKFtjSF1uMilbQ0gyXVtDQEhdKFtPSF0pW0NIMl1PYzNbY0hdW2NIXVtjSF1bY0hdW2NIXTM=

> <s_epik_cmdline>
J2VwaWtfcHl0aG9uJywgJy1waCcsICc3LjAnLCAnLXRuJywgJzgnLCAnLW1hJywgJzIwMCcsICctbWV0YWxfYmluZGluZycsICctaW1hZScsICc8aW5maWxlLm1hZT4nLCAnLW9tYWUnLCAnPG91dGZpbGUubWFlPic=

> <r_lp_tautomer_probability>
1

> <r_epik_Ionization_Penalty>
0.0640132

> <r_epik_Ionization_Penalty_Charging>
0

> <r_epik_Ionization_Penalty_Neutral>
0.0640132

> <r_epik_State_Penalty>
0.0557325

> <r_epik_Charging_Adjusted_Penalty>
0.0557325

> <i_epik_Tot_Q>
0

> <i_epik_Tot_abs_Q>
0

> <r_epik_Metal_State_Penalty>
5.8435e-05

> <b_epik_Metal_Only>
0

> <s_lp_Force_Field>
OPLS_2005

> <r_lp_Energy>
16.2786

> <b_lp_Chiralities_Consistent>
1

> <s_lp_Variant>
AV-unprocessed.smi:2191-2

> <Gold.Version>
5.8.1

> <Gold.Id.Protein>
6NUR|6NUR_protein|mol2

> <Gold.PLP.Fitness>
50.9933

> <Gold.PLP.PLP>
-47.3151

> <Gold.PLP.part.hbond>
-1.7218

> <Gold.PLP.part.metal>
0.0000

> <Gold.PLP.part.buried>
-3.5731

> <Gold.PLP.part.nonpolar>
-42.3119

> <Gold.PLP.part.repulsive>
0.1360

> <Gold.PLP.ligand.clash>
0.0000

> <Gold.PLP.ligand.torsion>
0.7620

> <Gold.PLP.Chemscore.Hbond>
1.7200

> <Gold.PLP.Chemscore.CHOScore>
0.0000

> <Gold.PLP.Chemscore.Metal>
0.0000

> <Gold.Chemscore.Hbonds>
donor molecule, donor type, donor heavy atom, donor atom, acceptor molecule, acceptor atom, score
      L1  H     1    21       P1  7957  1.00
      P1  H  7989  7998       L1     1  0.58

> <Gold.PLP.Chemscore.Internal.Correction>
0.0422

> <Gold.Rescore>
     Score         DG    S(hbond)    S(metal)    S(lipo)     H(rot)  DE(clash)    DE(int)     intcor
     18.06     -19.11       1.37        0.00     125.92       2.22       0.45       0.59       ----

> <Gold.Chemscore.Fitness>
18.0647

> <Gold.Chemscore.DG>
-19.1077

> <Gold.Chemscore.ZeroCoef>
-5.4800

> <Gold.Chemscore.Hbond>
1.3709

> <Gold.Chemscore.Metal>
0.0000

> <Gold.Chemscore.Lipo>
125.9158

> <Gold.Chemscore.Internal_Hbond>
0.0000

> <Gold.Chemscore.DEClash>
0.4534

> <Gold.Chemscore.DEInternal>
0.5895

> <Gold.Chemscore.Rot>
2.2200

> <Gold.Chemscore.Internal.Correction>
   9.000000E+99

> <Gold.Chemscore.Hbonds>
donor molecule, donor type, donor heavy atom, donor atom, acceptor molecule, acceptor atom, score
      L1  H     1    21       P1  7957  0.99
      P1  H  7989  7998       L1     1  0.10

> <Gold.Chemscore.Hbond.Weighted>
-4.5788

> <Gold.Chemscore.Metal.Weighted>
-0.0000

> <Gold.Chemscore.Lipo.Weighted>
-14.7322

> <Gold.Chemscore.Internal_Hbond.Weighted>
0.0000

> <Gold.Chemscore.DEClash.Weighted>
0.4534

> <Gold.Chemscore.DEInternal.Weighted>
0.5895

> <Gold.Chemscore.Rot.Weighted>
5.6832

> <Gold.Chemscore.Internal.Correction.Weighted>
   9.000000E+99

> <Gold.Protein.RotatedTorsions>
[ 6907 6896 6895 6894 ] final  132.99 input  -60.11 | X-H torsion
[ 7974 7965 7964 7962 ] final  -32.88 input  175.53 | X-H torsion
[ 8008 7997 7996 7995 ] final   42.51 input   59.86 | X-H torsion
[ 10167 10162 10161 10158 ] final -146.64 input  -65.29 | X-H torsion
[ 10718 10713 10712 10709 ] final   22.01 input   66.30 | X-H torsion
[ 10763 10752 10751 10750 ] final  -17.00 input  -60.55 | X-H torsion
[ 11005 11000 10999 10996 ] final -174.23 input  -57.11 | X-H torsion

> <Gold.Protein.ActiveResidues>
 VAL166  LYS551  ARG553  GLY616  TRP617  ASP618  TYR619  PRO620  LYS621  CYS622 
 ASP623  PHE694  ASN695  SER759  ASP760  ASP761  ALA762  ILE779  LEU786  VAL792 
 PHE793  MET794  SER795  GLU796  ALA797  LYS798  CYS799  TRP800  GLU811  SER814 

> <Gold.Protein.RotatedAtoms>
  152.3266  133.5912  159.5780 H   0  0  0  0  0  0  0  0  0  0  0  0  # atno 6907 bound_to 6896
  150.7400  133.9931  159.3622 H   0  0  0  0  0  0  0  0  0  0  0  0  # atno 6908 bound_to 6896
  151.7810  135.0762  160.0425 H   0  0  0  0  0  0  0  0  0  0  0  0  # atno 6909 bound_to 6896
  146.0955  140.5847  142.8845 H   0  0  0  0  0  0  0  0  0  0  0  0  # atno 7974 bound_to 7965
  155.2874  140.3376  155.4254 H   0  0  0  0  0  0  0  0  0  0  0  0  # atno 8008 bound_to 7997
  156.2062  140.1752  156.7836 H   0  0  0  0  0  0  0  0  0  0  0  0  # atno 8009 bound_to 7997
  154.5623  140.0685  156.8823 H   0  0  0  0  0  0  0  0  0  0  0  0  # atno 8010 bound_to 7997
  139.7695  143.8259  152.2622 H   0  0  0  0  0  0  0  0  0  0  0  0  # atno 10167 bound_to 10162
  157.1463  130.6655  149.5997 H   0  0  0  0  0  0  0  0  0  0  0  0  # atno 10718 bound_to 10713
  153.5671  135.7008  153.5521 H   0  0  0  0  0  0  0  0  0  0  0  0  # atno 10763 bound_to 10752
  153.3377  135.4029  155.1547 H   0  0  0  0  0  0  0  0  0  0  0  0  # atno 10764 bound_to 10752
  154.8639  135.3734  154.5192 H   0  0  0  0  0  0  0  0  0  0  0  0  # atno 10765 bound_to 10752
  140.4769  134.6113  157.4904 H   0  0  0  0  0  0  0  0  0  0  0  0  # atno 11005 bound_to 11000
  144.7392  140.4894  143.6881 LP  0  0  0  0  0  0  0  0  0  0  0  0  # atno 17320 bound_to 7965
  145.5957  139.1499  143.3157 LP  0  0  0  0  0  0  0  0  0  0  0  0  # atno 17321 bound_to 7965
  139.8289  144.7263  150.9476 LP  0  0  0  0  0  0  0  0  0  0  0  0  # atno 17342 bound_to 10162
  140.7813  143.4089  151.1026 LP  0  0  0  0  0  0  0  0  0  0  0  0  # atno 17343 bound_to 10162
  155.9779  130.4760  150.6621 LP  0  0  0  0  0  0  0  0  0  0  0  0  # atno 17370 bound_to 10713
  157.4261  131.0843  151.1084 LP  0  0  0  0  0  0  0  0  0  0  0  0  # atno 17371 bound_to 10713
  139.9851  134.7075  155.9789 LP  0  0  0  0  0  0  0  0  0  0  0  0  # atno 17394 bound_to 11000
  141.1550  133.6544  156.4133 LP  0  0  0  0  0  0  0  0  0  0  0  0  # atno 17395 bound_to 11000

$$$$
