AV-unprocessed.smi:1703|AV-procd|sdf|6875|dock1
  -GOLD-   22720 8 73D 1   1.00000     0.00000
 Structure written by MMmdl.
 50 52  0  0  0  0  0  0  0  0  3 V2000
  148.0130  136.2750  162.0993 C   0  0  0  0  0  0  0  0  0  0  0  0
  147.6448  136.4645  160.6237 C   0  0  2  0  0  0  0  0  0  0  0  0
  148.8786  136.7694  159.7549 C   0  0  0  0  0  0  0  0  0  0  0  0
  148.4720  137.0373  158.3542 N   0  3  2  0  0  0  0  0  0  0  0  0
  149.6173  137.2529  157.4340 C   0  0  0  0  0  0  0  0  0  0  0  0
  150.6442  138.2677  157.9842 C   0  0  1  0  0  0  0  0  0  0  0  0
  151.6001  137.5817  158.7667 O   0  0  0  0  0  0  0  0  0  0  0  0
  151.4127  139.0286  156.8853 C   0  0  0  0  0  0  0  0  0  0  0  0
  151.0276  140.4468  156.7870 N   0  0  0  0  0  0  0  0  0  0  0  0
  150.1112  141.0512  155.9752 C   0  0  0  0  0  0  0  0  0  0  0  0
  149.2563  140.3996  154.9386 C   0  0  0  0  0  0  0  0  0  0  0  0
  149.6513  140.7413  153.6282 O   0  0  0  0  0  0  0  0  0  0  0  0
  150.1252  142.3814  156.2691 N   0  3  0  0  0  0  0  0  0  0  0  0
  151.0543  142.6333  157.2784 C   0  0  0  0  0  0  0  0  0  0  0  0
  151.4183  143.8231  157.9013 C   0  0  0  0  0  0  0  0  0  0  0  0
  152.4120  143.7375  158.8979 C   0  0  0  0  0  0  0  0  0  0  0  0
  153.0034  142.5045  159.2398 C   0  0  0  0  0  0  0  0  0  0  0  0
  152.6262  141.3046  158.6011 C   0  0  0  0  0  0  0  0  0  0  0  0
  151.6399  141.3957  157.6176 C   0  0  0  0  0  0  0  0  0  0  0  0
  147.4920  138.1481  158.3076 C   0  0  0  0  0  0  0  0  0  0  0  0
  146.2820  137.8604  159.2179 C   0  0  1  0  0  0  0  0  0  0  0  0
  145.3298  136.7909  158.6535 C   0  0  0  0  0  0  0  0  0  0  0  0
  146.7238  137.5489  160.5389 O   0  0  0  0  0  0  0  0  0  0  0  0
  148.7129  135.4488  162.2270 H   0  0  0  0  0  0  0  0  0  0  0  0
  147.1276  136.0551  162.6964 H   0  0  0  0  0  0  0  0  0  0  0  0
  148.4761  137.1725  162.5099 H   0  0  0  0  0  0  0  0  0  0  0  0
  147.1685  135.5484  160.2744 H   0  0  0  0  0  0  0  0  0  0  0  0
  149.4147  137.6337  160.1506 H   0  0  0  0  0  0  0  0  0  0  0  0
  149.5654  135.9248  159.7982 H   0  0  0  0  0  0  0  0  0  0  0  0
  150.1306  136.3073  157.2524 H   0  0  0  0  0  0  0  0  0  0  0  0
  149.2248  137.5735  156.4686 H   0  0  0  0  0  0  0  0  0  0  0  0
  150.1536  138.9984  158.6251 H   0  0  0  0  0  0  0  0  0  0  0  0
  151.9960  138.1895  159.3721 H   0  0  0  0  0  0  0  0  0  0  0  0
  152.4835  138.9992  157.0910 H   0  0  0  0  0  0  0  0  0  0  0  0
  151.2852  138.5476  155.9163 H   0  0  0  0  0  0  0  0  0  0  0  0
  149.2940  139.3166  155.0552 H   0  0  0  0  0  0  0  0  0  0  0  0
  148.2185  140.7005  155.0849 H   0  0  0  0  0  0  0  0  0  0  0  0
  149.3941  140.0421  153.0460 H   0  0  0  0  0  0  0  0  0  0  0  0
  150.9675  144.7695  157.6401 H   0  0  0  0  0  0  0  0  0  0  0  0
  152.7270  144.6353  159.4101 H   0  0  0  0  0  0  0  0  0  0  0  0
  153.7625  142.4780  160.0082 H   0  0  0  0  0  0  0  0  0  0  0  0
  153.0926  140.3702  158.8748 H   0  0  0  0  0  0  0  0  0  0  0  0
  147.9829  139.0687  158.6279 H   0  0  0  0  0  0  0  0  0  0  0  0
  147.1539  138.3105  157.2833 H   0  0  0  0  0  0  0  0  0  0  0  0
  145.7045  138.7815  159.3034 H   0  0  0  0  0  0  0  0  0  0  0  0
  144.8967  137.1199  157.7085 H   0  0  0  0  0  0  0  0  0  0  0  0
  144.5075  136.6000  159.3431 H   0  0  0  0  0  0  0  0  0  0  0  0
  145.8345  135.8437  158.4647 H   0  0  0  0  0  0  0  0  0  0  0  0
  147.9836  136.2181  158.0216 H   0  0  0  0  0  0  0  0  0  0  0  0
  149.5399  143.0663  155.8080 H   0  0  0  0  0  0  0  0  0  0  0  0
  1  2  1  0  0  0  0
  1 24  1  0  0  0  0
  1 25  1  0  0  0  0
  1 26  1  0  0  0  0
  2 23  1  0  0  0  0
  2  3  1  0  0  0  0
  2 27  1  0  0  0  0
  3  4  1  0  0  0  0
  3 28  1  0  0  0  0
  3 29  1  0  0  0  0
  4  5  1  0  0  0  0
  4 20  1  0  0  0  0
  4 49  1  0  0  0  0
  5  6  1  0  0  0  0
  5 30  1  0  0  0  0
  5 31  1  0  0  0  0
  6  7  1  0  0  0  0
  6  8  1  0  0  0  0
  6 32  1  0  0  0  0
  7 33  1  0  0  0  0
  8  9  1  0  0  0  0
  8 34  1  0  0  0  0
  8 35  1  0  0  0  0
  9 19  1  0  0  0  0
  9 10  1  0  0  0  0
 10 11  1  0  0  0  0
 10 13  2  0  0  0  0
 11 12  1  0  0  0  0
 11 36  1  0  0  0  0
 11 37  1  0  0  0  0
 12 38  1  0  0  0  0
 13 14  1  0  0  0  0
 13 50  1  0  0  0  0
 14 19  2  0  0  0  0
 14 15  1  0  0  0  0
 15 16  2  0  0  0  0
 15 39  1  0  0  0  0
 16 17  1  0  0  0  0
 16 40  1  0  0  0  0
 17 18  2  0  0  0  0
 17 41  1  0  0  0  0
 18 19  1  0  0  0  0
 18 42  1  0  0  0  0
 20 21  1  0  0  0  0
 20 43  1  0  0  0  0
 20 44  1  0  0  0  0
 21 22  1  0  0  0  0
 21 23  1  0  0  0  0
 21 45  1  0  0  0  0
 22 46  1  0  0  0  0
 22 47  1  0  0  0  0
 22 48  1  0  0  0  0
M  CHG  1   4   1
M  CHG  1  13   1
M  END
> <s_m_source_file>
AV-unprocessed.smi

> <i_m_source_file_index>
1703

> <i_lp_mmshare_version>
43012

> <i_f3d_flags>
0

> <s_epik_input>
W0NIM11bQ0BASF0xW0NIMl1OKFtDSDJdW0NASF0oTzEpW0NIM10pW0NIMl1bQ0BIXShbT0hdKVtDSDJdbihjKG4yKVtDSDJdW09IXSljKGMyMylbY0hdW2NIXVtjSF1bY0hdMw==

> <s_epik_cmdline>
J2VwaWtfcHl0aG9uJywgJy1waCcsICc3LjAnLCAnLXRuJywgJzgnLCAnLW1hJywgJzIwMCcsICctbWV0YWxfYmluZGluZycsICctaW1hZScsICc8aW5maWxlLm1hZT4nLCAnLW9tYWUnLCAnPG91dGZpbGUubWFlPic=

> <r_epik_Ionization_Penalty>
2.22579

> <r_epik_Ionization_Penalty_Charging>
2.22492

> <r_epik_Ionization_Penalty_Neutral>
0.000870007

> <r_epik_State_Penalty>
2.3141

> <r_epik_Charging_Adjusted_Penalty>
4.53902

> <i_epik_Tot_Q>
2

> <i_epik_Tot_abs_Q>
2

> <r_epik_Metal_State_Penalty>
6.36517

> <b_epik_Metal_Only>
0

> <s_lp_Force_Field>
OPLS_2005

> <r_lp_Energy>
32.2753

> <b_lp_Chiralities_Consistent>
1

> <s_lp_Variant>
AV-unprocessed.smi:1703-23

> <Gold.Version>
5.8.1

> <Gold.Id.Protein>
6NUR|6NUR_protein|mol2

> <Gold.PLP.Fitness>
51.8422

> <Gold.PLP.PLP>
-39.8220

> <Gold.PLP.part.hbond>
-4.6321

> <Gold.PLP.part.metal>
0.0000

> <Gold.PLP.part.buried>
-5.0408

> <Gold.PLP.part.nonpolar>
-30.6066

> <Gold.PLP.part.repulsive>
0.1770

> <Gold.PLP.ligand.clash>
0.0000

> <Gold.PLP.ligand.torsion>
1.5963

> <Gold.PLP.Chemscore.Hbond>
5.0080

> <Gold.PLP.Chemscore.CHOScore>
0.0000

> <Gold.PLP.Chemscore.Metal>
0.0000

> <Gold.Chemscore.Hbonds>
donor molecule, donor type, donor heavy atom, donor atom, acceptor molecule, acceptor atom, score
      L1  H    12    38       P1  7957  0.51
      L1  H    13    50       P1  8028  2.00
      P1  H  6934  6947       L1    23  0.80
      P1  H  7989  7998       L1    12  0.42
      P1  H  8011  8017       L1    12  0.78

> <Gold.PLP.Chemscore.Internal.Correction>
0.1888

> <Gold.Rescore>
     Score         DG    S(hbond)    S(metal)    S(lipo)     H(rot)  DE(clash)    DE(int)     intcor
     15.57     -18.27       2.84        0.00      94.74       3.04       0.01       2.69       ----

> <Gold.Chemscore.Fitness>
15.5709

> <Gold.Chemscore.DG>
-18.2687

> <Gold.Chemscore.ZeroCoef>
-5.4800

> <Gold.Chemscore.Hbond>
2.8387

> <Gold.Chemscore.Metal>
0.0000

> <Gold.Chemscore.Lipo>
94.7358

> <Gold.Chemscore.Internal_Hbond>
0.0000

> <Gold.Chemscore.DEClash>
0.0115

> <Gold.Chemscore.DEInternal>
2.6863

> <Gold.Chemscore.Rot>
3.0378

> <Gold.Chemscore.Internal.Correction>
   9.000000E+99

> <Gold.Chemscore.Hbonds>
donor molecule, donor type, donor heavy atom, donor atom, acceptor molecule, acceptor atom, score
      L1  H    12    38       P1  7957  0.50
      L1  H    13    50       P1  8028  0.96
      P1  H  6934  6947       L1    23  0.11
      P1  H  7989  7998       L1    12  0.19
      P1  H  8011  8017       L1    12  0.30

> <Gold.Chemscore.Hbond.Weighted>
-9.4813

> <Gold.Chemscore.Metal.Weighted>
-0.0000

> <Gold.Chemscore.Lipo.Weighted>
-11.0841

> <Gold.Chemscore.Internal_Hbond.Weighted>
0.0000

> <Gold.Chemscore.DEClash.Weighted>
0.0115

> <Gold.Chemscore.DEInternal.Weighted>
2.6863

> <Gold.Chemscore.Rot.Weighted>
7.7767

> <Gold.Chemscore.Internal.Correction.Weighted>
   9.000000E+99

> <Gold.Protein.RotatedTorsions>
[ 6907 6896 6895 6894 ] final  131.07 input  -60.11 | X-H torsion
[ 7974 7965 7964 7962 ] final  -86.52 input  175.53 | X-H torsion
[ 8008 7997 7996 7995 ] final  125.89 input   59.86 | X-H torsion
[ 10167 10162 10161 10158 ] final -152.36 input  -65.29 | X-H torsion
[ 10718 10713 10712 10709 ] final   91.00 input   66.30 | X-H torsion
[ 10763 10752 10751 10750 ] final   43.01 input  -60.55 | X-H torsion
[ 11005 11000 10999 10996 ] final   55.62 input  -57.11 | X-H torsion

> <Gold.Protein.ActiveResidues>
 VAL166  LYS551  ARG553  GLY616  TRP617  ASP618  TYR619  PRO620  LYS621  CYS622 
 ASP623  PHE694  ASN695  SER759  ASP760  ASP761  ALA762  ILE779  LEU786  VAL792 
 PHE793  MET794  SER795  GLU796  ALA797  LYS798  CYS799  TRP800  GLU811  SER814 

> <Gold.Protein.RotatedAtoms>
  152.3463  133.6126  159.5912 H   0  0  0  0  0  0  0  0  0  0  0  0  # atno 6907 bound_to 6896
  150.7509  133.9644  159.3534 H   0  0  0  0  0  0  0  0  0  0  0  0  # atno 6908 bound_to 6896
  151.7501  135.0835  160.0380 H   0  0  0  0  0  0  0  0  0  0  0  0  # atno 6909 bound_to 6896
  145.4788  140.9557  143.1876 H   0  0  0  0  0  0  0  0  0  0  0  0  # atno 7974 bound_to 7965
  156.2848  140.2705  156.2023 H   0  0  0  0  0  0  0  0  0  0  0  0  # atno 8008 bound_to 7997
  155.0348  140.0386  157.2506 H   0  0  0  0  0  0  0  0  0  0  0  0  # atno 8009 bound_to 7997
  154.7323  140.2709  155.6450 H   0  0  0  0  0  0  0  0  0  0  0  0  # atno 8010 bound_to 7997
  139.7188  143.8990  152.2496 H   0  0  0  0  0  0  0  0  0  0  0  0  # atno 10167 bound_to 10162
  157.6960  131.0391  150.3663 H   0  0  0  0  0  0  0  0  0  0  0  0  # atno 10718 bound_to 10713
  152.9870  135.6114  154.3042 H   0  0  0  0  0  0  0  0  0  0  0  0  # atno 10763 bound_to 10752
  154.2761  135.2778  155.2719 H   0  0  0  0  0  0  0  0  0  0  0  0  # atno 10764 bound_to 10752
  154.5079  135.5849  153.6639 H   0  0  0  0  0  0  0  0  0  0  0  0  # atno 10765 bound_to 10752
  140.0593  134.5626  155.9171 H   0  0  0  0  0  0  0  0  0  0  0  0  # atno 11005 bound_to 11000
  144.7901  139.6346  143.7117 LP  0  0  0  0  0  0  0  0  0  0  0  0  # atno 17320 bound_to 7965
  146.2353  139.5893  142.9528 LP  0  0  0  0  0  0  0  0  0  0  0  0  # atno 17321 bound_to 7965
  139.8880  144.6981  150.8802 LP  0  0  0  0  0  0  0  0  0  0  0  0  # atno 17342 bound_to 10162
  140.7749  143.3608  151.1831 LP  0  0  0  0  0  0  0  0  0  0  0  0  # atno 17343 bound_to 10162
  156.4093  130.3931  149.6903 LP  0  0  0  0  0  0  0  0  0  0  0  0  # atno 17370 bound_to 10713
  156.4193  130.7760  151.2777 LP  0  0  0  0  0  0  0  0  0  0  0  0  # atno 17371 bound_to 10713
  141.1966  133.6592  156.5699 LP  0  0  0  0  0  0  0  0  0  0  0  0  # atno 17394 bound_to 11000
  140.3796  134.7535  157.4652 LP  0  0  0  0  0  0  0  0  0  0  0  0  # atno 17395 bound_to 11000

$$$$
