#       Name:                AV-unprocessed.smi:901
#       Creating user name   scv26
#       Creation time:       Fri Mar 27 01:58:06 2020


#       File generated by GOLD software.
#

@<TRIPOS>MOLECULE
AV-unprocessed.smi:901
    48    49     1
SMALL
NO_CHARGES


@<TRIPOS>ATOM
      1 ****        -1.0661  -2.5197   4.1378 C.3            1 S1                 0.0000
      2 ****        -1.7883  -1.4184   3.3878 C.2            1 S1                 0.0000
      3 ****        -2.1201  -0.1939   4.2225 C.3            1 S1                 0.0000
      4 ****        -2.0987  -1.5378   2.0826 C.2            1 S1                 0.0000
      5 ****        -2.8091  -0.5299   1.2417 C.3            1 S1                 0.0000
      6 ****        -2.1204   0.6178   0.5088 C.3            1 S1                 0.0000
      7 ****        -0.6348   0.7727   0.5979 C.2            1 S1                 0.0000
      8 ****        -0.0362   0.7208   1.6715 O.2            1 S1                 0.0000
      9 ****        -0.0577   1.0599  -0.5829 N.am           1 S1                 0.0000
     10 ****         1.3183   1.2422  -0.8763 C.2            1 S1                 0.0000
     11 ****         2.3979   1.1447   0.0523 C.2            1 S1                 0.0000
     12 ****         3.4964   1.3988  -0.7181 C.2            1 S1                 0.0000
     13 ****         3.0585   1.6186  -2.0091 N.pl3          1 S1                 0.0000
     14 ****         3.8485   1.9289  -3.1901 C.3            1 S1                 0.0000
     15 ****         4.6318   0.7176  -3.7112 C.2            1 S1                 0.0000
     16 ****         5.7121   0.9787  -4.4511 N.am           1 S1                 0.0000
     17 ****         4.2753  -0.4330  -3.4617 O.2            1 S1                 0.0000
     18 ****         1.7138   1.5256  -2.1055 N.2            1 S1                 0.0000
     19 ****        -2.7246  -0.5426  -0.2749 C.3            1 S1                 0.0000
     20 ****        -1.8652  -1.5734  -1.0038 C.3            1 S1                 0.0000
     21 ****        -3.9833  -0.2788  -1.0820 C.3            1 S1                 0.0000
     22 ****        -1.6730  -2.8693   4.9734 H              1 S1                 0.0000
     23 ****        -0.1196  -2.1492   4.5321 H              1 S1                 0.0000
     24 ****        -0.8529  -3.3725   3.4925 H              1 S1                 0.0000
     25 ****        -1.2068   0.2345   4.6360 H              1 S1                 0.0000
     26 ****        -2.7725  -0.4702   5.0509 H              1 S1                 0.0000
     27 ****        -2.6200   0.5833   3.6451 H              1 S1                 0.0000
     28 ****        -1.8202  -2.4520   1.5800 H              1 S1                 0.0000
     29 ****        -3.7826  -0.2950   1.6681 H              1 S1                 0.0000
     30 ****        -2.6672   1.5587   0.5252 H              1 S1                 0.0000
     31 ****        -0.6791   1.1261  -1.3758 H              1 S1                 0.0000
     32 ****         2.3882   0.9254   1.1092 H              1 S1                 0.0000
     33 ****         4.5443   1.4370  -0.4595 H              1 S1                 0.0000
     34 ****         3.1932   2.2992  -3.9800 H              1 S1                 0.0000
     35 ****         4.5366   2.7367  -2.9371 H              1 S1                 0.0000
     36 ****         6.2687   0.2206  -4.8182 H              1 S1                 0.0000
     37 ****         5.9711   1.9367  -4.6383 H              1 S1                 0.0000
     38 ****        -1.5965  -1.2075  -1.9951 H              1 S1                 0.0000
     39 ****        -2.4143  -2.5084  -1.1193 H              1 S1                 0.0000
     40 ****        -0.9426  -1.7905  -0.4660 H              1 S1                 0.0000
     41 ****        -3.7281   0.1170  -2.0653 H              1 S1                 0.0000
     42 ****        -4.6222   0.4466  -0.5772 H              1 S1                 0.0000
     43 ****        -4.5516  -1.2003  -1.2124 H              1 S1                 0.0000
     44 ****        -0.5435   0.5711   2.5202 LP             1 S1                 0.0000
     45 ****         0.9578   0.8284   1.6956 LP             1 S1                 0.0000
     46 ****         3.4585  -0.5944  -2.9079 LP             1 S1                 0.0000
     47 ****         4.8024  -1.2070  -3.8126 LP             1 S1                 0.0000
     48 ****         1.1471   1.6441  -2.9208 LP             1 S1                 0.0000
@<TRIPOS>BOND
    1    1    2 1     
    2    1   22 1     
    3    1   23 1     
    4    1   24 1     
    5    2    3 1     
    6    2    4 2     
    7    3   25 1     
    8    3   26 1     
    9    3   27 1     
   10    4    5 1     
   11    4   28 1     
   12    5   19 1     
   13    5    6 1     
   14    5   29 1     
   15    6    7 1     
   16    6   19 1     
   17    6   30 1     
   18    7    8 2     
   19    7    9 am    
   20    9   10 1     
   21    9   31 1     
   22   10   18 2     
   23   10   11 1     
   24   11   12 2     
   25   11   32 1     
   26   12   13 1     
   27   12   33 1     
   28   13   14 1     
   29   13   18 1     
   30   14   15 1     
   31   14   34 1     
   32   14   35 1     
   33   15   16 am    
   34   15   17 2     
   35   16   36 1     
   36   16   37 1     
   37   19   20 1     
   38   19   21 1     
   39   20   38 1     
   40   20   39 1     
   41   20   40 1     
   42   21   41 1     
   43   21   42 1     
   44   21   43 1     
   45    8   44 1     
   46    8   45 1     
   47   17   46 1     
   48   17   47 1     
   49   18   48 1     
@<TRIPOS>SUBSTRUCTURE
      1 S1             1
@<TRIPOS>SET
LONE_PAIRS      STATIC     ATOMS    <user>   **** ""
5 44 45 46 47 48
DONOR_HYDROGENS      STATIC     ATOMS    <user>   **** ""
3 31 36 37
ATOM$BLUE        STATIC     ATOMS    COLORGROUP SYSTEM
5 44 45 46 47 48
ATOM$RED        STATIC     ATOMS    COLORGROUP SYSTEM
3 31 36 37
