AV-unprocessed.smi:505|AV-procd|sdf|2749|dock9
  -GOLD-   2262023213D 1   1.00000     0.00000
 Structure written by MMmdl.
 36 37  0  0  0  0  0  0  0  0  2 V2000
  145.6206  128.7014  151.6647 C   0  0  0  0  0  0  0  0  0  0  0  0
  146.9978  128.5118  151.9371 O   0  0  0  0  0  0  0  0  0  0  0  0
  147.4081  129.1582  153.1302 C   0  0  0  0  0  0  0  0  0  0  0  0
  148.8680  129.6017  152.9786 C   0  0  0  0  0  0  0  0  0  0  0  0
  149.1280  130.8464  153.6941 N   0  0  0  0  0  0  0  0  0  0  0  0
  148.5174  132.0432  153.5124 C   0  0  0  0  0  0  0  0  0  0  0  0
  147.5086  132.1833  152.5668 N   0  0  0  0  0  0  0  0  0  0  0  0
  146.6995  133.3203  152.1684 C   0  0  0  0  0  0  0  0  0  0  0  0
  145.6880  132.9542  151.0730 C   0  0  0  0  0  0  0  0  0  0  0  0
  146.3575  132.3835  149.9687 O   0  0  0  0  0  0  0  0  0  0  0  0
  148.9527  133.0248  154.3040 N   0  0  0  0  0  0  0  0  0  0  0  0
  149.9225  132.3900  155.0685 C   0  0  0  0  0  0  0  0  0  0  0  0
  150.0385  131.0776  154.7281 C   0  0  0  0  0  0  0  0  0  0  0  0
  150.9694  130.1341  155.3827 C   0  0  0  0  0  0  0  0  0  0  0  0
  151.0169  128.9533  155.0440 O   0  0  0  0  0  0  0  0  0  0  0  0
  151.7124  130.7395  156.3629 N   0  5  0  0  0  0  0  0  0  0  0  0
  151.6330  132.0637  156.7384 C   0  0  0  0  0  0  0  0  0  0  0  0
  152.3372  132.5282  157.6359 O   0  0  0  0  0  0  0  0  0  0  0  0
  150.7502  132.9000  156.1058 N   0  0  0  0  0  0  0  0  0  0  0  0
  150.6457  134.3124  156.4829 C   0  0  0  0  0  0  0  0  0  0  0  0
  145.3568  128.1909  150.7386 H   0  0  0  0  0  0  0  0  0  0  0  0
  145.3833  129.7593  151.5452 H   0  0  0  0  0  0  0  0  0  0  0  0
  145.0010  128.2914  152.4632 H   0  0  0  0  0  0  0  0  0  0  0  0
  146.7714  130.0237  153.3210 H   0  0  0  0  0  0  0  0  0  0  0  0
  147.3060  128.4806  153.9793 H   0  0  0  0  0  0  0  0  0  0  0  0
  149.5476  128.8297  153.3372 H   0  0  0  0  0  0  0  0  0  0  0  0
  149.1103  129.7346  151.9241 H   0  0  0  0  0  0  0  0  0  0  0  0
  147.2612  131.3277  152.0913 H   0  0  0  0  0  0  0  0  0  0  0  0
  146.1633  133.6634  153.0537 H   0  0  0  0  0  0  0  0  0  0  0  0
  147.3415  134.1432  151.8526 H   0  0  0  0  0  0  0  0  0  0  0  0
  144.9130  132.2811  151.4414 H   0  0  0  0  0  0  0  0  0  0  0  0
  145.1869  133.8566  150.7224 H   0  0  0  0  0  0  0  0  0  0  0  0
  147.2689  132.2761  150.1936 H   0  0  0  0  0  0  0  0  0  0  0  0
  151.6127  134.8080  156.3846 H   0  0  0  0  0  0  0  0  0  0  0  0
  150.3173  134.4067  157.5185 H   0  0  0  0  0  0  0  0  0  0  0  0
  149.9371  134.8618  155.8632 H   0  0  0  0  0  0  0  0  0  0  0  0
  1  2  1  0  0  0  0
  1 21  1  0  0  0  0
  1 22  1  0  0  0  0
  1 23  1  0  0  0  0
  2  3  1  0  0  0  0
  3  4  1  0  0  0  0
  3 24  1  0  0  0  0
  3 25  1  0  0  0  0
  4  5  1  0  0  0  0
  4 26  1  0  0  0  0
  4 27  1  0  0  0  0
  5 13  1  0  0  0  0
  5  6  1  0  0  0  0
  6  7  1  0  0  0  0
  6 11  2  0  0  0  0
  7  8  1  0  0  0  0
  7 28  1  0  0  0  0
  8  9  1  0  0  0  0
  8 29  1  0  0  0  0
  8 30  1  0  0  0  0
  9 10  1  0  0  0  0
  9 31  1  0  0  0  0
  9 32  1  0  0  0  0
 10 33  1  0  0  0  0
 11 12  1  0  0  0  0
 12 19  1  0  0  0  0
 12 13  2  0  0  0  0
 13 14  1  0  0  0  0
 14 15  2  0  0  0  0
 14 16  1  0  0  0  0
 16 17  1  0  0  0  0
 17 18  2  0  0  0  0
 17 19  1  0  0  0  0
 19 20  1  0  0  0  0
 20 34  1  0  0  0  0
 20 35  1  0  0  0  0
 20 36  1  0  0  0  0
M  CHG  1  16  -1
M  END
> <s_m_source_file>
AV-unprocessed.smi

> <i_m_source_file_index>
505

> <i_lp_mmshare_version>
43012

> <i_f3d_flags>
0

> <s_epik_input>
W09IXVtDSDJdW0NIMl1bTkhdYyhuMSluKFtDSDJdW0NIMl1PW0NIM10pYyhjMTIpYyg9TylbbkhdYyg9TyluMltDSDNd

> <s_epik_cmdline>
J2VwaWtfcHl0aG9uJywgJy1waCcsICc3LjAnLCAnLXRuJywgJzgnLCAnLW1hJywgJzIwMCcsICctbWV0YWxfYmluZGluZycsICctaW1hZScsICc8aW5maWxlLm1hZT4nLCAnLW9tYWUnLCAnPG91dGZpbGUubWFlPic=

> <r_lp_tautomer_probability>
1

> <r_epik_Ionization_Penalty>
5.9232

> <r_epik_Ionization_Penalty_Charging>
1.43987e-08

> <r_epik_Ionization_Penalty_Neutral>
5.9232

> <r_epik_State_Penalty>
5.92302

> <r_epik_Charging_Adjusted_Penalty>
5.92302

> <i_epik_Tot_Q>
-1

> <i_epik_Tot_abs_Q>
1

> <r_epik_Metal_State_Penalty>
1.88194

> <b_epik_Metal_Only>
1

> <s_lp_Force_Field>
OPLS_2005

> <r_lp_Energy>
27.5321

> <b_lp_Chiralities_Consistent>
1

> <s_lp_Variant>
AV-unprocessed.smi:505-2

> <Gold.Version>
5.8.1

> <Gold.Id.Protein>
6NUR|6NUR_protein|mol2

> <Gold.PLP.Fitness>
38.7312

> <Gold.PLP.PLP>
-33.8464

> <Gold.PLP.part.hbond>
-3.0000

> <Gold.PLP.part.metal>
0.0000

> <Gold.PLP.part.buried>
-6.8351

> <Gold.PLP.part.nonpolar>
-24.2072

> <Gold.PLP.part.repulsive>
0.2557

> <Gold.PLP.ligand.clash>
0.0000

> <Gold.PLP.ligand.torsion>
0.4319

> <Gold.PLP.Chemscore.Hbond>
1.9120

> <Gold.PLP.Chemscore.CHOScore>
0.0000

> <Gold.PLP.Chemscore.Metal>
0.0000

> <Gold.Chemscore.Hbonds>
donor molecule, donor type, donor heavy atom, donor atom, acceptor molecule, acceptor atom, score
      L1  H    10    33       P1 10747  0.50
      P1  H  6896  6909       L1    18  0.88

> <Gold.PLP.Chemscore.Internal.Correction>
0.0126

> <Gold.Rescore>
     Score         DG    S(hbond)    S(metal)    S(lipo)     H(rot)  DE(clash)    DE(int)     intcor
      9.36      -9.77       2.02        0.00      45.01       3.02       0.03       0.38       ----

> <Gold.Chemscore.Fitness>
9.3625

> <Gold.Chemscore.DG>
-9.7652

> <Gold.Chemscore.ZeroCoef>
-5.4800

> <Gold.Chemscore.Hbond>
2.0198

> <Gold.Chemscore.Metal>
0.0000

> <Gold.Chemscore.Lipo>
45.0052

> <Gold.Chemscore.Internal_Hbond>
0.0000

> <Gold.Chemscore.DEClash>
0.0263

> <Gold.Chemscore.DEInternal>
0.3764

> <Gold.Chemscore.Rot>
3.0181

> <Gold.Chemscore.Internal.Correction>
   9.000000E+99

> <Gold.Chemscore.Hbonds>
donor molecule, donor type, donor heavy atom, donor atom, acceptor molecule, acceptor atom, score
      L1  H    10    33       P1 10747  0.48
      P1  H  6896  6909       L1    18  0.85

> <Gold.Chemscore.Hbond.Weighted>
-6.7460

> <Gold.Chemscore.Metal.Weighted>
-0.0000

> <Gold.Chemscore.Lipo.Weighted>
-5.2656

> <Gold.Chemscore.Internal_Hbond.Weighted>
0.0000

> <Gold.Chemscore.DEClash.Weighted>
0.0263

> <Gold.Chemscore.DEInternal.Weighted>
0.3764

> <Gold.Chemscore.Rot.Weighted>
7.7264

> <Gold.Chemscore.Internal.Correction.Weighted>
   9.000000E+99

> <Gold.Protein.RotatedTorsions>
[ 6907 6896 6895 6894 ] final  -87.87 input  -60.11 | X-H torsion
[ 7974 7965 7964 7962 ] final  115.35 input  175.53 | X-H torsion
[ 8008 7997 7996 7995 ] final   -3.00 input   59.86 | X-H torsion
[ 10167 10162 10161 10158 ] final  -40.60 input  -65.29 | X-H torsion
[ 10718 10713 10712 10709 ] final   94.47 input   66.30 | X-H torsion
[ 10763 10752 10751 10750 ] final   -9.70 input  -60.55 | X-H torsion
[ 11005 11000 10999 10996 ] final   26.35 input  -57.11 | X-H torsion

> <Gold.Protein.ActiveResidues>
 VAL166  LYS551  ARG553  GLY616  TRP617  ASP618  TYR619  PRO620  LYS621  CYS622 
 ASP623  PHE694  ASN695  SER759  ASP760  ASP761  ALA762  ILE779  LEU786  VAL792 
 PHE793  MET794  SER795  GLU796  ALA797  LYS798  CYS799  TRP800  GLU811  SER814 

> <Gold.Protein.RotatedAtoms>
  150.6867  134.2829  159.4634 H   0  0  0  0  0  0  0  0  0  0  0  0  # atno 6907 bound_to 6896
  152.0741  134.9511  160.0583 H   0  0  0  0  0  0  0  0  0  0  0  0  # atno 6908 bound_to 6896
  152.0890  133.4156  159.4572 H   0  0  0  0  0  0  0  0  0  0  0  0  # atno 6909 bound_to 6896
  145.1930  139.2990  143.4358 H   0  0  0  0  0  0  0  0  0  0  0  0  # atno 7974 bound_to 7965
  154.6296  140.2520  155.7450 H   0  0  0  0  0  0  0  0  0  0  0  0  # atno 8008 bound_to 7997
  156.2472  140.2910  156.0561 H   0  0  0  0  0  0  0  0  0  0  0  0  # atno 8009 bound_to 7997
  155.1766  140.0388  157.2864 H   0  0  0  0  0  0  0  0  0  0  0  0  # atno 8010 bound_to 7997
  140.7029  143.3144  151.2947 H   0  0  0  0  0  0  0  0  0  0  0  0  # atno 10167 bound_to 10162
  157.6947  131.0513  150.4191 H   0  0  0  0  0  0  0  0  0  0  0  0  # atno 10718 bound_to 10713
  153.4585  135.7016  153.6065 H   0  0  0  0  0  0  0  0  0  0  0  0  # atno 10763 bound_to 10752
  153.4369  135.3789  155.2205 H   0  0  0  0  0  0  0  0  0  0  0  0  # atno 10764 bound_to 10752
  154.8727  135.3964  154.4008 H   0  0  0  0  0  0  0  0  0  0  0  0  # atno 10765 bound_to 10752
  140.3380  134.2364  155.7693 H   0  0  0  0  0  0  0  0  0  0  0  0  # atno 11005 bound_to 11000
  146.3432  140.2149  142.8590 LP  0  0  0  0  0  0  0  0  0  0  0  0  # atno 17320 bound_to 7965
  145.0022  140.8642  143.5275 LP  0  0  0  0  0  0  0  0  0  0  0  0  # atno 17321 bound_to 7965
  139.6578  144.0245  152.2671 LP  0  0  0  0  0  0  0  0  0  0  0  0  # atno 17342 bound_to 10162
  139.9802  144.6433  150.7907 LP  0  0  0  0  0  0  0  0  0  0  0  0  # atno 17343 bound_to 10162
  156.4568  130.4023  149.6601 LP  0  0  0  0  0  0  0  0  0  0  0  0  # atno 17370 bound_to 10713
  156.3730  130.7540  151.2526 LP  0  0  0  0  0  0  0  0  0  0  0  0  # atno 17371 bound_to 10713
  141.2046  133.7882  157.0278 LP  0  0  0  0  0  0  0  0  0  0  0  0  # atno 17394 bound_to 11000
  140.0805  134.9651  157.1616 LP  0  0  0  0  0  0  0  0  0  0  0  0  # atno 17395 bound_to 11000

$$$$
