AV-unprocessed.smi:1053|AV-procd|sdf|4617|dock4
  -GOLD-   22720 3123D 1   1.00000     0.00000
 Structure written by MMmdl.
 38 39  0  0  0  0  0  0  0  0  2 V2000
  147.6190  128.3353  151.9290 C   0  0  0  0  0  0  0  0  0  0  0  0
  146.5001  129.3703  152.1119 C   0  0  0  0  0  0  0  0  0  0  0  0
  146.9882  130.7665  151.9873 N   0  3  1  0  0  0  0  0  0  0  0  0
  145.9156  131.7020  151.5737 C   0  0  0  0  0  0  0  0  0  0  0  0
  146.4741  133.1248  151.4156 C   0  0  0  0  0  0  0  0  0  0  0  0
  147.0834  133.5286  152.6342 O   0  0  0  0  0  0  0  0  0  0  0  0
  148.1889  132.7040  152.9886 C   0  0  1  0  0  0  0  0  0  0  0  0
  148.8428  133.2678  154.2615 C   0  0  0  0  0  0  0  0  0  0  0  0
  149.2374  134.6622  154.1092 N   0  0  0  0  0  0  0  0  0  0  0  0
  149.7344  135.4605  155.1237 C   0  0  0  0  0  0  0  0  0  0  0  0
  149.6016  135.0438  156.3881 N   0  0  0  0  0  0  0  0  0  0  0  0
  150.0980  135.8453  157.3548 C   0  0  0  0  0  0  0  0  0  0  0  0
  150.7287  137.0681  157.0528 C   0  0  0  0  0  0  0  0  0  0  0  0
  150.8140  137.4076  155.6840 C   0  0  0  0  0  0  0  0  0  0  0  0
  151.4678  138.6966  155.2093 C   0  0  0  0  0  0  0  0  0  0  0  0
  150.5843  139.4224  154.5239 F   0  0  0  0  0  0  0  0  0  0  0  0
  151.9111  139.4266  156.2334 F   0  0  0  0  0  0  0  0  0  0  0  0
  152.5001  138.4118  154.4151 F   0  0  0  0  0  0  0  0  0  0  0  0
  150.3124  136.5949  154.7246 N   0  0  0  0  0  0  0  0  0  0  0  0
  147.6701  131.2687  153.2064 C   0  0  0  0  0  0  0  0  0  0  0  0
  147.2084  127.3252  151.9303 H   0  0  0  0  0  0  0  0  0  0  0  0
  148.3568  128.3834  152.7294 H   0  0  0  0  0  0  0  0  0  0  0  0
  148.1382  128.4789  150.9810 H   0  0  0  0  0  0  0  0  0  0  0  0
  145.7481  129.1877  151.3430 H   0  0  0  0  0  0  0  0  0  0  0  0
  146.0007  129.2314  153.0717 H   0  0  0  0  0  0  0  0  0  0  0  0
  145.4780  131.3739  150.6301 H   0  0  0  0  0  0  0  0  0  0  0  0
  145.1176  131.6957  152.3178 H   0  0  0  0  0  0  0  0  0  0  0  0
  147.1943  133.1759  150.5973 H   0  0  0  0  0  0  0  0  0  0  0  0
  145.6698  133.8202  151.1758 H   0  0  0  0  0  0  0  0  0  0  0  0
  148.9234  132.7036  152.1806 H   0  0  0  0  0  0  0  0  0  0  0  0
  148.1881  133.1410  155.1246 H   0  0  0  0  0  0  0  0  0  0  0  0
  149.7496  132.7043  154.4821 H   0  0  0  0  0  0  0  0  0  0  0  0
  149.0281  135.1189  153.2333 H   0  0  0  0  0  0  0  0  0  0  0  0
  149.9903  135.5092  158.3755 H   0  0  0  0  0  0  0  0  0  0  0  0
  151.1230  137.7031  157.8322 H   0  0  0  0  0  0  0  0  0  0  0  0
  146.9765  131.2432  154.0486 H   0  0  0  0  0  0  0  0  0  0  0  0
  148.5076  130.6204  153.4625 H   0  0  0  0  0  0  0  0  0  0  0  0
  147.6705  130.7702  151.2424 H   0  0  0  0  0  0  0  0  0  0  0  0
  1  2  1  0  0  0  0
  1 21  1  0  0  0  0
  1 22  1  0  0  0  0
  1 23  1  0  0  0  0
  2  3  1  0  0  0  0
  2 24  1  0  0  0  0
  2 25  1  0  0  0  0
  3 20  1  0  0  0  0
  3  4  1  0  0  0  0
  3 38  1  0  0  0  0
  4  5  1  0  0  0  0
  4 26  1  0  0  0  0
  4 27  1  0  0  0  0
  5  6  1  0  0  0  0
  5 28  1  0  0  0  0
  5 29  1  0  0  0  0
  6  7  1  0  0  0  0
  7  8  1  0  0  0  0
  7 20  1  0  0  0  0
  7 30  1  0  0  0  0
  8  9  1  0  0  0  0
  8 31  1  0  0  0  0
  8 32  1  0  0  0  0
  9 10  1  0  0  0  0
  9 33  1  0  0  0  0
 10 19  1  0  0  0  0
 10 11  2  0  0  0  0
 11 12  1  0  0  0  0
 12 13  2  0  0  0  0
 12 34  1  0  0  0  0
 13 14  1  0  0  0  0
 13 35  1  0  0  0  0
 14 15  1  0  0  0  0
 14 19  2  0  0  0  0
 15 16  1  0  0  0  0
 15 17  1  0  0  0  0
 15 18  1  0  0  0  0
 20 36  1  0  0  0  0
 20 37  1  0  0  0  0
M  CHG  1   3   1
M  END
> <s_m_source_file>
AV-unprocessed.smi

> <i_m_source_file_index>
1053

> <i_lp_mmshare_version>
43012

> <i_f3d_flags>
0

> <s_epik_input>
W0NIM11bQ0gyXU4xW0NIMl1bQ0gyXU9bQ0BIXShbQ0gyXTEpW0NIMl1bTkhdYzJuW2NIXVtjSF1jKG4yKUMoRikoRilG

> <s_epik_cmdline>
J2VwaWtfcHl0aG9uJywgJy1waCcsICc3LjAnLCAnLXRuJywgJzgnLCAnLW1hJywgJzIwMCcsICctbWV0YWxfYmluZGluZycsICctaW1hZScsICc8aW5maWxlLm1hZT4nLCAnLW9tYWUnLCAnPG91dGZpbGUubWFlPic=

> <r_lp_tautomer_probability>
1

> <r_epik_Ionization_Penalty>
0.178506

> <r_epik_Ionization_Penalty_Charging>
0.178504

> <r_epik_Ionization_Penalty_Neutral>
2.47619e-06

> <r_epik_State_Penalty>
0.167974

> <r_epik_Charging_Adjusted_Penalty>
0.346478

> <i_epik_Tot_Q>
1

> <i_epik_Tot_abs_Q>
1

> <r_epik_Metal_State_Penalty>
0.167974

> <b_epik_Metal_Only>
0

> <s_lp_Force_Field>
OPLS_2005

> <r_lp_Energy>
10.9386

> <b_lp_Chiralities_Consistent>
1

> <s_lp_Variant>
AV-unprocessed.smi:1053-1

> <Gold.Version>
5.8.1

> <Gold.Id.Protein>
6NUR|6NUR_protein|mol2

> <Gold.PLP.Fitness>
40.3285

> <Gold.PLP.PLP>
-34.9116

> <Gold.PLP.part.hbond>
-2.0000

> <Gold.PLP.part.metal>
0.0000

> <Gold.PLP.part.buried>
-2.9172

> <Gold.PLP.part.nonpolar>
-29.5703

> <Gold.PLP.part.repulsive>
0.3726

> <Gold.PLP.ligand.clash>
0.0000

> <Gold.PLP.ligand.torsion>
0.3018

> <Gold.PLP.Chemscore.Hbond>
2.0000

> <Gold.PLP.Chemscore.CHOScore>
0.0000

> <Gold.PLP.Chemscore.Metal>
0.0000

> <Gold.Chemscore.Hbonds>
donor molecule, donor type, donor heavy atom, donor atom, acceptor molecule, acceptor atom, score
      L1  H     3    38       P1 10747  1.00
      L1  H     9    33       P1  7948  1.00

> <Gold.PLP.Chemscore.Internal.Correction>
0.0205

> <Gold.Rescore>
     Score         DG    S(hbond)    S(metal)    S(lipo)     H(rot)  DE(clash)    DE(int)     intcor
     14.37     -14.92       1.72        0.00      65.73       1.55       0.19       0.37       ----

> <Gold.Chemscore.Fitness>
14.3667

> <Gold.Chemscore.DG>
-14.9202

> <Gold.Chemscore.ZeroCoef>
-5.4800

> <Gold.Chemscore.Hbond>
1.7157

> <Gold.Chemscore.Metal>
0.0000

> <Gold.Chemscore.Lipo>
65.7289

> <Gold.Chemscore.Internal_Hbond>
0.0000

> <Gold.Chemscore.DEClash>
0.1853

> <Gold.Chemscore.DEInternal>
0.3682

> <Gold.Chemscore.Rot>
1.5549

> <Gold.Chemscore.Internal.Correction>
   9.000000E+99

> <Gold.Chemscore.Hbonds>
donor molecule, donor type, donor heavy atom, donor atom, acceptor molecule, acceptor atom, score
      L1  H     3    38       P1 10747  0.99
      L1  H     9    33       P1  7948  0.26

> <Gold.Chemscore.Hbond.Weighted>
-5.7305

> <Gold.Chemscore.Metal.Weighted>
-0.0000

> <Gold.Chemscore.Lipo.Weighted>
-7.6903

> <Gold.Chemscore.Internal_Hbond.Weighted>
0.0000

> <Gold.Chemscore.DEClash.Weighted>
0.1853

> <Gold.Chemscore.DEInternal.Weighted>
0.3682

> <Gold.Chemscore.Rot.Weighted>
3.9806

> <Gold.Chemscore.Internal.Correction.Weighted>
   9.000000E+99

> <Gold.Protein.RotatedTorsions>
[ 6907 6896 6895 6894 ] final   31.27 input  -60.11 | X-H torsion
[ 7974 7965 7964 7962 ] final    2.90 input  175.53 | X-H torsion
[ 8008 7997 7996 7995 ] final  139.57 input   59.86 | X-H torsion
[ 10167 10162 10161 10158 ] final  -44.09 input  -65.29 | X-H torsion
[ 10718 10713 10712 10709 ] final   -1.18 input   66.30 | X-H torsion
[ 10763 10752 10751 10750 ] final   74.65 input  -60.55 | X-H torsion
[ 11005 11000 10999 10996 ] final  145.38 input  -57.11 | X-H torsion

> <Gold.Protein.ActiveResidues>
 VAL166  LYS551  ARG553  GLY616  TRP617  ASP618  TYR619  PRO620  LYS621  CYS622 
 ASP623  PHE694  ASN695  SER759  ASP760  ASP761  ALA762  ILE779  LEU786  VAL792 
 PHE793  MET794  SER795  GLU796  ALA797  LYS798  CYS799  TRP800  GLU811  SER814 

> <Gold.Protein.RotatedAtoms>
  152.0579  134.9613  160.0574 H   0  0  0  0  0  0  0  0  0  0  0  0  # atno 6907 bound_to 6896
  152.0988  133.4234  159.4585 H   0  0  0  0  0  0  0  0  0  0  0  0  # atno 6908 bound_to 6896
  150.6839  134.2705  159.4629 H   0  0  0  0  0  0  0  0  0  0  0  0  # atno 6909 bound_to 6896
  146.2444  140.0766  142.8359 H   0  0  0  0  0  0  0  0  0  0  0  0  # atno 7974 bound_to 7965
  156.2988  140.2364  156.4259 H   0  0  0  0  0  0  0  0  0  0  0  0  # atno 8008 bound_to 7997
  154.8313  140.0433  157.1499 H   0  0  0  0  0  0  0  0  0  0  0  0  # atno 8009 bound_to 7997
  154.9204  140.3003  155.5223 H   0  0  0  0  0  0  0  0  0  0  0  0  # atno 8010 bound_to 7997
  140.6910  143.2948  151.3445 H   0  0  0  0  0  0  0  0  0  0  0  0  # atno 10167 bound_to 10162
  156.8094  130.5419  149.5711 H   0  0  0  0  0  0  0  0  0  0  0  0  # atno 10718 bound_to 10713
  153.0601  135.5018  154.8073 H   0  0  0  0  0  0  0  0  0  0  0  0  # atno 10763 bound_to 10752
  154.6869  135.2977  154.9537 H   0  0  0  0  0  0  0  0  0  0  0  0  # atno 10764 bound_to 10752
  154.0305  135.6730  153.4833 H   0  0  0  0  0  0  0  0  0  0  0  0  # atno 10765 bound_to 10752
  140.0707  134.9153  157.1340 H   0  0  0  0  0  0  0  0  0  0  0  0  # atno 11005 bound_to 11000
  145.0770  140.9195  143.4848 LP  0  0  0  0  0  0  0  0  0  0  0  0  # atno 17320 bound_to 7965
  145.0911  139.2889  143.5734 LP  0  0  0  0  0  0  0  0  0  0  0  0  # atno 17321 bound_to 7965
  139.6313  144.0716  152.2478 LP  0  0  0  0  0  0  0  0  0  0  0  0  # atno 17342 bound_to 10162
  140.0191  144.6166  150.7581 LP  0  0  0  0  0  0  0  0  0  0  0  0  # atno 17343 bound_to 10162
  156.1053  130.6000  150.9961 LP  0  0  0  0  0  0  0  0  0  0  0  0  # atno 17370 bound_to 10713
  157.6513  131.0896  150.8043 LP  0  0  0  0  0  0  0  0  0  0  0  0  # atno 17371 bound_to 10713
  140.3631  134.2472  155.7185 LP  0  0  0  0  0  0  0  0  0  0  0  0  # atno 17394 bound_to 11000
  141.2011  133.7972  157.0459 LP  0  0  0  0  0  0  0  0  0  0  0  0  # atno 17395 bound_to 11000

$$$$
