AV-unprocessed.smi:3097|AV-procd|sdf|11799|dock2
  -GOLD-   2272017173D 1   1.00000     0.00000
 Structure written by MMmdl.
 35 35  0  0  0  0  0  0  0  0  2 V2000
  152.0589  138.1491  154.7591 C   0  0  0  0  0  0  0  0  0  0  0  0
  150.6762  137.8886  154.1534 C   0  0  0  0  0  0  0  0  0  0  0  0
  149.9088  139.1852  153.8686 C   0  0  0  0  0  0  0  0  0  0  0  0
  148.6074  138.9056  153.2501 N   0  0  0  0  0  0  0  0  0  0  0  0
  147.5442  139.7328  153.2383 C   0  0  0  0  0  0  0  0  0  0  0  0
  147.6214  140.9328  153.8459 N   0  3  0  0  0  0  0  0  0  0  0  0
  146.5466  141.9302  153.9093 C   0  0  0  0  0  0  0  0  0  0  0  0
  146.4041  139.3664  152.6187 N   0  0  0  0  0  0  0  0  0  0  0  0
  146.1746  138.1089  151.8902 C   0  0  0  0  0  0  0  0  0  0  0  0
  145.2520  137.1578  152.6700 C   0  0  0  0  0  0  0  0  0  0  0  0
  144.9669  135.9392  151.9353 N   0  0  0  0  0  0  0  0  0  0  0  0
  145.8520  135.0948  151.2982 C   0  0  0  0  0  0  0  0  0  0  0  0
  145.1212  134.0806  150.7488 C   0  0  0  0  0  0  0  0  0  0  0  0
  143.7804  134.4002  151.1016 C   0  0  0  0  0  0  0  0  0  0  0  0
  143.6917  135.5110  151.8157 N   0  0  0  0  0  0  0  0  0  0  0  0
  152.5820  137.2121  154.9510 H   0  0  0  0  0  0  0  0  0  0  0  0
  151.9799  138.6854  155.7051 H   0  0  0  0  0  0  0  0  0  0  0  0
  152.6776  138.7438  154.0864 H   0  0  0  0  0  0  0  0  0  0  0  0
  150.7914  137.3200  153.2304 H   0  0  0  0  0  0  0  0  0  0  0  0
  150.0976  137.2605  154.8321 H   0  0  0  0  0  0  0  0  0  0  0  0
  149.7496  139.7392  154.7944 H   0  0  0  0  0  0  0  0  0  0  0  0
  150.4861  139.8259  153.2010 H   0  0  0  0  0  0  0  0  0  0  0  0
  148.5228  138.0195  152.7716 H   0  0  0  0  0  0  0  0  0  0  0  0
  146.8818  142.8095  154.4595 H   0  0  0  0  0  0  0  0  0  0  0  0
  145.6735  141.5179  154.4156 H   0  0  0  0  0  0  0  0  0  0  0  0
  146.2549  142.2411  152.9059 H   0  0  0  0  0  0  0  0  0  0  0  0
  145.6374  140.0240  152.6181 H   0  0  0  0  0  0  0  0  0  0  0  0
  145.7899  138.3047  150.8891 H   0  0  0  0  0  0  0  0  0  0  0  0
  147.1448  137.6302  151.7572 H   0  0  0  0  0  0  0  0  0  0  0  0
  145.7103  136.8885  153.6224 H   0  0  0  0  0  0  0  0  0  0  0  0
  144.3086  137.6512  152.9073 H   0  0  0  0  0  0  0  0  0  0  0  0
  146.9158  135.2820  151.2912 H   0  0  0  0  0  0  0  0  0  0  0  0
  145.4881  133.2404  150.1779 H   0  0  0  0  0  0  0  0  0  0  0  0
  142.8757  133.8595  150.8658 H   0  0  0  0  0  0  0  0  0  0  0  0
  148.4883  141.1795  154.3017 H   0  0  0  0  0  0  0  0  0  0  0  0
  1  2  1  0  0  0  0
  1 16  1  0  0  0  0
  1 17  1  0  0  0  0
  1 18  1  0  0  0  0
  2  3  1  0  0  0  0
  2 19  1  0  0  0  0
  2 20  1  0  0  0  0
  3  4  1  0  0  0  0
  3 21  1  0  0  0  0
  3 22  1  0  0  0  0
  4  5  1  0  0  0  0
  4 23  1  0  0  0  0
  5  6  2  0  0  0  0
  5  8  1  0  0  0  0
  6  7  1  0  0  0  0
  6 35  1  0  0  0  0
  7 24  1  0  0  0  0
  7 25  1  0  0  0  0
  7 26  1  0  0  0  0
  8  9  1  0  0  0  0
  8 27  1  0  0  0  0
  9 10  1  0  0  0  0
  9 28  1  0  0  0  0
  9 29  1  0  0  0  0
 10 11  1  0  0  0  0
 10 30  1  0  0  0  0
 10 31  1  0  0  0  0
 11 15  1  0  0  0  0
 11 12  1  0  0  0  0
 12 13  2  0  0  0  0
 12 32  1  0  0  0  0
 13 14  1  0  0  0  0
 13 33  1  0  0  0  0
 14 15  2  0  0  0  0
 14 34  1  0  0  0  0
M  CHG  1   6   1
M  END
> <s_m_source_file>
AV-unprocessed.smi

> <i_m_source_file_index>
3097

> <i_lp_mmshare_version>
43012

> <i_f3d_flags>
0

> <s_epik_input>
W0NIM11bQ0gyXVtDSDJdW05IXS9DKD1OXFtDSDNdKVtOSF1bQ0gyXVtDSDJdbjFbY0hdW2NIXVtjSF1uMQ==

> <s_epik_cmdline>
J2VwaWtfcHl0aG9uJywgJy1waCcsICc3LjAnLCAnLXRuJywgJzgnLCAnLW1hJywgJzIwMCcsICctbWV0YWxfYmluZGluZycsICctaW1hZScsICc8aW5maWxlLm1hZT4nLCAnLW9tYWUnLCAnPG91dGZpbGUubWFlPic=

> <r_lp_tautomer_probability>
1

> <r_epik_Ionization_Penalty>
4.40305e-05

> <r_epik_Ionization_Penalty_Charging>
1.64417e-07

> <r_epik_Ionization_Penalty_Neutral>
4.38661e-05

> <r_epik_State_Penalty>
-0

> <r_epik_Charging_Adjusted_Penalty>
1.64417e-07

> <i_epik_Tot_Q>
1

> <i_epik_Tot_abs_Q>
1

> <r_epik_Metal_State_Penalty>
-0

> <b_epik_Metal_Only>
0

> <s_epik_Chemistry_Notes>
This compound has an imine and may undergo hydrolysis.

> <s_lp_Force_Field>
OPLS_2005

> <r_lp_Energy>
5.03608

> <b_lp_Chiralities_Consistent>
1

> <s_lp_Variant>
AV-unprocessed.smi:3097-2

> <Gold.Version>
5.8.1

> <Gold.Id.Protein>
6NUR|6NUR_protein|mol2

> <Gold.PLP.Fitness>
45.1311

> <Gold.PLP.PLP>
-27.8547

> <Gold.PLP.part.hbond>
-3.0000

> <Gold.PLP.part.metal>
0.0000

> <Gold.PLP.part.buried>
1.1738

> <Gold.PLP.part.nonpolar>
-26.8054

> <Gold.PLP.part.repulsive>
0.3640

> <Gold.PLP.ligand.clash>
0.0000

> <Gold.PLP.ligand.torsion>
0.3415

> <Gold.PLP.Chemscore.Hbond>
3.9825

> <Gold.PLP.Chemscore.CHOScore>
2.0000

> <Gold.PLP.Chemscore.Metal>
0.0000

> <Gold.Chemscore.Hbonds>
donor molecule, donor type, donor heavy atom, donor atom, acceptor molecule, acceptor atom, score
      L1  H     4    23       P1  7948  2.00
      L1  H     8    27       P1 10175  2.00
      L1  C    12    32       P1  7948  1.00
      L1  C    14    34       P1 10186  1.00

> <Gold.PLP.Chemscore.Internal.Correction>
0.0120

> <Gold.Rescore>
     Score         DG    S(hbond)    S(metal)    S(lipo)     H(rot)  DE(clash)    DE(int)     intcor
     13.15     -14.61       1.98        0.00      62.20       1.86       1.20       0.26       ----

> <Gold.Chemscore.Fitness>
13.1546

> <Gold.Chemscore.DG>
-14.6115

> <Gold.Chemscore.ZeroCoef>
-5.4800

> <Gold.Chemscore.Hbond>
1.9778

> <Gold.Chemscore.Metal>
0.0000

> <Gold.Chemscore.Lipo>
62.2002

> <Gold.Chemscore.Internal_Hbond>
0.0000

> <Gold.Chemscore.DEClash>
1.1968

> <Gold.Chemscore.DEInternal>
0.2601

> <Gold.Chemscore.Rot>
1.8561

> <Gold.Chemscore.Internal.Correction>
   9.000000E+99

> <Gold.Chemscore.Hbonds>
donor molecule, donor type, donor heavy atom, donor atom, acceptor molecule, acceptor atom, score
      L1  H     4    23       P1  7948  0.93
      L1  H     8    27       P1 10175  0.87

> <Gold.Chemscore.Hbond.Weighted>
-6.6058

> <Gold.Chemscore.Metal.Weighted>
-0.0000

> <Gold.Chemscore.Lipo.Weighted>
-7.2774

> <Gold.Chemscore.Internal_Hbond.Weighted>
0.0000

> <Gold.Chemscore.DEClash.Weighted>
1.1968

> <Gold.Chemscore.DEInternal.Weighted>
0.2601

> <Gold.Chemscore.Rot.Weighted>
4.7517

> <Gold.Chemscore.Internal.Correction.Weighted>
   9.000000E+99

> <Gold.Protein.RotatedTorsions>
[ 6907 6896 6895 6894 ] final   99.00 input  -60.11 | X-H torsion
[ 7974 7965 7964 7962 ] final -163.18 input  175.53 | X-H torsion
[ 8008 7997 7996 7995 ] final    3.24 input   59.86 | X-H torsion
[ 10167 10162 10161 10158 ] final  117.67 input  -65.29 | X-H torsion
[ 10718 10713 10712 10709 ] final   52.78 input   66.30 | X-H torsion
[ 10763 10752 10751 10750 ] final -130.11 input  -60.55 | X-H torsion
[ 11005 11000 10999 10996 ] final   96.58 input  -57.11 | X-H torsion

> <Gold.Protein.ActiveResidues>
 VAL166  LYS551  ARG553  GLY616  TRP617  ASP618  TYR619  PRO620  LYS621  CYS622 
 ASP623  PHE694  ASN695  SER759  ASP760  ASP761  ALA762  ILE779  LEU786  VAL792 
 PHE793  MET794  SER795  GLU796  ALA797  LYS798  CYS799  TRP800  GLU811  SER814 

> <Gold.Protein.RotatedAtoms>
  152.5399  134.0494  159.8102 H   0  0  0  0  0  0  0  0  0  0  0  0  # atno 6907 bound_to 6896
  151.0638  133.5514  159.2639 H   0  0  0  0  0  0  0  0  0  0  0  0  # atno 6908 bound_to 6896
  151.2403  135.0594  159.9076 H   0  0  0  0  0  0  0  0  0  0  0  0  # atno 6909 bound_to 6896
  144.7334  140.3145  143.6182 H   0  0  0  0  0  0  0  0  0  0  0  0  # atno 7974 bound_to 7965
  154.7013  140.2673  155.6717 H   0  0  0  0  0  0  0  0  0  0  0  0  # atno 8008 bound_to 7997
  156.2766  140.2771  156.1548 H   0  0  0  0  0  0  0  0  0  0  0  0  # atno 8009 bound_to 7997
  155.0761  140.0372  157.2614 H   0  0  0  0  0  0  0  0  0  0  0  0  # atno 8010 bound_to 7997
  139.6163  144.7092  151.2732 H   0  0  0  0  0  0  0  0  0  0  0  0  # atno 10167 bound_to 10162
  157.5106  130.8498  149.8430 H   0  0  0  0  0  0  0  0  0  0  0  0  # atno 10718 bound_to 10713
  154.8756  135.3873  154.4030 H   0  0  0  0  0  0  0  0  0  0  0  0  # atno 10763 bound_to 10752
  153.4752  135.7030  153.5975 H   0  0  0  0  0  0  0  0  0  0  0  0  # atno 10764 bound_to 10752
  153.4414  135.3855  155.2198 H   0  0  0  0  0  0  0  0  0  0  0  0  # atno 10765 bound_to 10752
  139.8781  134.8958  156.4180 H   0  0  0  0  0  0  0  0  0  0  0  0  # atno 11005 bound_to 11000
  145.7631  139.1831  143.2255 LP  0  0  0  0  0  0  0  0  0  0  0  0  # atno 17320 bound_to 7965
  146.0970  140.7588  142.9567 LP  0  0  0  0  0  0  0  0  0  0  0  0  # atno 17321 bound_to 7965
  140.7353  143.6741  150.8056 LP  0  0  0  0  0  0  0  0  0  0  0  0  # atno 17342 bound_to 10162
  140.0344  143.5410  152.2746 LP  0  0  0  0  0  0  0  0  0  0  0  0  # atno 17343 bound_to 10162
  156.0287  130.3771  150.1750 LP  0  0  0  0  0  0  0  0  0  0  0  0  # atno 17370 bound_to 10713
  156.9940  130.9902  151.3408 LP  0  0  0  0  0  0  0  0  0  0  0  0  # atno 17371 bound_to 10713
  140.9154  133.7682  155.9841 LP  0  0  0  0  0  0  0  0  0  0  0  0  # atno 17394 bound_to 11000
  140.8500  134.2965  157.5279 LP  0  0  0  0  0  0  0  0  0  0  0  0  # atno 17395 bound_to 11000

$$$$
