#       Name:                AV-unprocessed.smi:699
#       Creating user name   scv26
#       Creation time:       Fri Mar 27 00:38:17 2020


#       File generated by GOLD software.
#

@<TRIPOS>MOLECULE
AV-unprocessed.smi:699
    39    40     1
SMALL
NO_CHARGES


@<TRIPOS>ATOM
      1 ****        -1.1252  -0.6474   2.8485 N.am           1 S1                 0.0000
      2 ****        -1.3763  -1.3938   1.7701 C.2            1 S1                 0.0000
      3 ****        -0.8864  -2.5129   1.6265 O.2            1 S1                 0.0000
      4 ****        -2.3063  -0.7833   0.6990 C.3            1 S1                 0.0000
      5 ****        -3.5379  -1.6721   0.4690 C.3            1 S1                 0.0000
      6 ****        -3.1326  -2.6749  -0.6147 C.3            1 S1                 0.0000
      7 ****        -2.0681  -1.9687  -1.4638 C.3            1 S1                 0.0000
      8 ****        -1.6919  -0.6715  -0.7224 C.3            1 S1                 0.0000
      9 ****        -0.2456  -0.4453  -0.7518 N.am           1 S1                 0.0000
     10 ****         0.3528   0.7347  -0.5350 C.2            1 S1                 0.0000
     11 ****        -0.2661   1.7709  -0.2942 O.2            1 S1                 0.0000
     12 ****         1.6897   0.6222  -0.6231 N.am           1 S1                 0.0000
     13 ****         2.6886   1.6202  -0.4532 C.ar           1 S1                 0.0000
     14 ****         3.9897   1.3229  -0.9092 C.ar           1 S1                 0.0000
     15 ****         5.0056   2.2855  -0.7442 C.ar           1 S1                 0.0000
     16 ****         4.8021   3.4857  -0.1620 N.ar           1 S1                 0.0000
     17 ****         3.5596   3.7649   0.2848 C.ar           1 S1                 0.0000
     18 ****         2.4737   2.8736   0.1700 C.ar           1 S1                 0.0000
     19 ****        -0.5210  -1.0034   3.5750 H              1 S1                 0.0000
     20 ****        -1.5376   0.2704   2.9339 H              1 S1                 0.0000
     21 ****        -2.6208   0.2038   1.0425 H              1 S1                 0.0000
     22 ****        -3.8882  -2.1694   1.3749 H              1 S1                 0.0000
     23 ****        -4.3611  -1.0556   0.1055 H              1 S1                 0.0000
     24 ****        -2.7031  -3.5650  -0.1538 H              1 S1                 0.0000
     25 ****        -3.9868  -2.9991  -1.2096 H              1 S1                 0.0000
     26 ****        -1.2075  -2.6265  -1.5947 H              1 S1                 0.0000
     27 ****        -2.4491  -1.7397  -2.4596 H              1 S1                 0.0000
     28 ****        -2.1838   0.1562  -1.2374 H              1 S1                 0.0000
     29 ****         0.3358  -1.2490  -0.9400 H              1 S1                 0.0000
     30 ****         2.0361  -0.2890  -0.8848 H              1 S1                 0.0000
     31 ****         4.2101   0.3764  -1.3810 H              1 S1                 0.0000
     32 ****         6.0093   2.0843  -1.0881 H              1 S1                 0.0000
     33 ****         3.4264   4.7280   0.7548 H              1 S1                 0.0000
     34 ****         1.5156   3.1672   0.5685 H              1 S1                 0.0000
     35 ****        -0.2811  -2.8876   2.3288 LP             1 S1                 0.0000
     36 ****        -1.0934  -3.0480   0.8075 LP             1 S1                 0.0000
     37 ****        -1.2652   1.7584  -0.2528 LP             1 S1                 0.0000
     38 ****         0.2301   2.6253  -0.1400 LP             1 S1                 0.0000
     39 ****         5.5468   4.1460  -0.0649 LP             1 S1                 0.0000
@<TRIPOS>BOND
    1    1    2 am    
    2    1   19 1     
    3    1   20 1     
    4    2    3 2     
    5    2    4 1     
    6    4    8 1     
    7    4    5 1     
    8    4   21 1     
    9    5    6 1     
   10    5   22 1     
   11    5   23 1     
   12    6    7 1     
   13    6   24 1     
   14    6   25 1     
   15    7    8 1     
   16    7   26 1     
   17    7   27 1     
   18    8    9 1     
   19    8   28 1     
   20    9   10 am    
   21    9   29 1     
   22   10   11 2     
   23   10   12 am    
   24   12   13 1     
   25   12   30 1     
   26   13   18 ar    
   27   13   14 ar    
   28   14   15 ar    
   29   14   31 1     
   30   15   16 ar    
   31   15   32 1     
   32   16   17 ar    
   33   17   18 ar    
   34   17   33 1     
   35   18   34 1     
   36    3   35 1     
   37    3   36 1     
   38   11   37 1     
   39   11   38 1     
   40   16   39 1     
@<TRIPOS>SUBSTRUCTURE
      1 S1             1
@<TRIPOS>SET
LONE_PAIRS      STATIC     ATOMS    <user>   **** ""
5 35 36 37 38 39
DONOR_HYDROGENS      STATIC     ATOMS    <user>   **** ""
4 19 20 29 30
ATOM$BLUE        STATIC     ATOMS    COLORGROUP SYSTEM
5 35 36 37 38 39
ATOM$RED        STATIC     ATOMS    COLORGROUP SYSTEM
4 19 20 29 30
