#       Name:                AV-unprocessed.smi:2775
#       Creating user name   scv26
#       Creation time:       Fri Mar 27 15:13:28 2020


#       File generated by GOLD software.
#

@<TRIPOS>MOLECULE
AV-unprocessed.smi:2775
    47    50     1
SMALL
NO_CHARGES


@<TRIPOS>ATOM
      1 ****        -5.6036   2.1146  -0.2842 C.3            1 S1                 0.0000
      2 ****        -4.8851   0.7950  -0.0732 C.ar           1 S1                 0.0000
      3 ****        -5.6758  -0.2636   0.2091 N.ar           1 S1                 0.0000
      4 ****        -5.0883  -1.4632   0.3975 C.ar           1 S1                 0.0000
      5 ****        -3.6971  -1.6650   0.3199 C.ar           1 S1                 0.0000
      6 ****        -2.8658  -0.5545   0.0412 C.ar           1 S1                 0.0000
      7 ****        -1.4533  -0.6479  -0.0800 N.am           1 S1                 0.0000
      8 ****        -0.6122  -1.5190   0.5093 C.2            1 S1                 0.0000
      9 ****        -0.9575  -2.4482   1.2360 O.2            1 S1                 0.0000
     10 ****         0.6859  -1.2634   0.2708 N.am           1 S1                 0.0000
     11 ****         1.8440  -2.0152   0.7611 C.3            1 S1                 0.0000
     12 ****         2.1845  -3.2777  -0.0668 C.3            1 S1                 0.0000
     13 ****         1.5728  -3.5714  -1.4131 C.3            1 S1                 0.0000
     14 ****         2.4040  -2.7121  -2.3599 C.3            1 S1                 0.0000
     15 ****         3.6929  -2.6446  -1.7502 O.3            1 S1                 0.0000
     16 ****         3.5745  -2.7012  -0.3261 C.3            1 S1                 0.0000
     17 ****         3.1866  -1.3800   0.3635 C.3            1 S1                 0.0000
     18 ****         3.3124  -0.0222  -0.3593 C.3            1 S1                 0.0000
     19 ****         4.6193   0.2041   0.4039 C.3            1 S1                 0.0000
     20 ****         4.1149  -0.8004   1.4426 C.3            1 S1                 0.0000
     21 ****        -3.4770   0.7028  -0.1721 C.ar           1 S1                 0.0000
     22 ****        -2.5206   2.1008  -0.5361 Cl             1 S1                 0.0000
     23 ****        -5.2687   2.8497   0.4480 H              1 S1                 0.0000
     24 ****        -6.6842   2.0050  -0.1813 H              1 S1                 0.0000
     25 ****        -5.3985   2.5023  -1.2822 H              1 S1                 0.0000
     26 ****        -5.7483  -2.2909   0.6108 H              1 S1                 0.0000
     27 ****        -3.2997  -2.6582   0.4626 H              1 S1                 0.0000
     28 ****        -1.0155   0.1100  -0.5829 H              1 S1                 0.0000
     29 ****         0.8944  -0.4311  -0.2618 H              1 S1                 0.0000
     30 ****         1.8125  -2.2268   1.8316 H              1 S1                 0.0000
     31 ****         2.2225  -4.1543   0.5813 H              1 S1                 0.0000
     32 ****         1.7034  -4.6256  -1.6592 H              1 S1                 0.0000
     33 ****         0.5073  -3.3526  -1.4751 H              1 S1                 0.0000
     34 ****         2.4578  -3.1262  -3.3666 H              1 S1                 0.0000
     35 ****         1.9827  -1.7088  -2.4301 H              1 S1                 0.0000
     36 ****         4.3826  -3.2450   0.1647 H              1 S1                 0.0000
     37 ****         3.4285  -0.0676  -1.4417 H              1 S1                 0.0000
     38 ****         2.5428   0.6955  -0.0707 H              1 S1                 0.0000
     39 ****         5.4937  -0.1547  -0.1416 H              1 S1                 0.0000
     40 ****         4.7615   1.2180   0.7788 H              1 S1                 0.0000
     41 ****         3.5679  -0.3216   2.2566 H              1 S1                 0.0000
     42 ****         4.8735  -1.4871   1.8189 H              1 S1                 0.0000
     43 ****        -6.6682  -0.1608   0.2765 LP             1 S1                 0.0000
     44 ****        -1.9273  -2.6000   1.4268 LP             1 S1                 0.0000
     45 ****        -0.2686  -3.0524   1.6364 LP             1 S1                 0.0000
     46 ****         4.1358  -1.7865  -2.0101 LP             1 S1                 0.0000
     47 ****         4.2474  -3.4147  -2.0656 LP             1 S1                 0.0000
@<TRIPOS>BOND
    1    1    2 1     
    2    1   23 1     
    3    1   24 1     
    4    1   25 1     
    5    2   21 ar    
    6    2    3 ar    
    7    3    4 ar    
    8    4    5 ar    
    9    4   26 1     
   10    5    6 ar    
   11    5   27 1     
   12    6    7 1     
   13    6   21 ar    
   14    7    8 am    
   15    7   28 1     
   16    8    9 2     
   17    8   10 am    
   18   10   11 1     
   19   10   29 1     
   20   11   17 1     
   21   11   12 1     
   22   11   30 1     
   23   12   16 1     
   24   12   13 1     
   25   12   31 1     
   26   13   14 1     
   27   13   32 1     
   28   13   33 1     
   29   14   15 1     
   30   14   34 1     
   31   14   35 1     
   32   15   16 1     
   33   16   17 1     
   34   16   36 1     
   35   17   20 1     
   36   17   18 1     
   37   18   19 1     
   38   18   37 1     
   39   18   38 1     
   40   19   20 1     
   41   19   39 1     
   42   19   40 1     
   43   20   41 1     
   44   20   42 1     
   45   21   22 1     
   46    3   43 1     
   47    9   44 1     
   48    9   45 1     
   49   15   46 1     
   50   15   47 1     
@<TRIPOS>SUBSTRUCTURE
      1 S1             1
@<TRIPOS>SET
LONE_PAIRS      STATIC     ATOMS    <user>   **** ""
5 43 44 45 46 47
DONOR_HYDROGENS      STATIC     ATOMS    <user>   **** ""
2 28 29
ATOM$BLUE        STATIC     ATOMS    COLORGROUP SYSTEM
5 43 44 45 46 47
ATOM$RED        STATIC     ATOMS    COLORGROUP SYSTEM
2 28 29
