AV-unprocessed.smi:2270|AV-procd|sdf|9159|dock2
  -GOLD-   2272012363D 1   1.00000     0.00000
 Structure written by MMmdl.
 52 53  0  0  0  0  0  0  0  0  1 V2000
  153.2704  143.5372  159.3876 C   0  0  0  0  0  0  0  0  0  0  0  0
  152.7371  142.1387  159.1596 C   0  0  0  0  0  0  0  0  0  0  0  0
  151.5268  141.9282  158.4703 C   0  0  0  0  0  0  0  0  0  0  0  0
  151.0907  140.6039  158.2860 C   0  0  0  0  0  0  0  0  0  0  0  0
  151.8780  139.5521  158.7930 C   0  0  0  0  0  0  0  0  0  0  0  0
  153.0797  139.8497  159.4747 C   0  0  0  0  0  0  0  0  0  0  0  0
  153.8050  138.7210  159.9397 N   0  0  0  0  0  0  0  0  0  0  0  0
  153.3399  137.4877  160.2063 C   0  0  0  0  0  0  0  0  0  0  0  0
  152.1840  137.1078  160.0179 O   0  0  0  0  0  0  0  0  0  0  0  0
  154.3061  136.7061  160.7103 N   0  0  0  0  0  0  0  0  0  0  0  0
  154.1515  135.3152  161.1287 C   0  0  0  0  0  0  0  0  0  0  0  0
  155.2754  134.8625  162.1022 C   0  0  1  0  0  0  0  0  0  0  0  0
  156.0332  136.0392  162.7918 C   0  0  0  0  0  0  0  0  0  0  0  0
  157.2498  135.5432  163.5917 C   0  0  0  0  0  0  0  0  0  0  0  0
  155.1804  137.0018  163.6388 C   0  0  0  0  0  0  0  0  0  0  0  0
  154.8952  133.7675  163.0154 N   0  0  0  0  0  0  0  0  0  0  0  0
  154.3636  134.1891  164.3177 C   0  0  0  0  0  0  0  0  0  0  0  0
  154.1184  132.9791  165.2380 C   0  0  0  0  0  0  0  0  0  0  0  0
  153.1840  132.0300  164.6353 N   0  0  0  0  0  0  0  0  0  0  0  0
  152.9470  130.8879  165.5048 C   0  0  0  0  0  0  0  0  0  0  0  0
  153.7015  131.6151  163.3331 C   0  0  0  0  0  0  0  0  0  0  0  0
  153.9471  132.8256  162.4135 C   0  0  0  0  0  0  0  0  0  0  0  0
  153.4915  141.1305  159.6472 N   0  0  0  0  0  0  0  0  0  0  0  0
  152.5095  144.2889  159.1761 H   0  0  0  0  0  0  0  0  0  0  0  0
  154.1255  143.7234  158.7376 H   0  0  0  0  0  0  0  0  0  0  0  0
  153.5913  143.6612  160.4224 H   0  0  0  0  0  0  0  0  0  0  0  0
  150.9473  142.7572  158.0914 H   0  0  0  0  0  0  0  0  0  0  0  0
  150.1686  140.3971  157.7633 H   0  0  0  0  0  0  0  0  0  0  0  0
  151.5585  138.5289  158.6580 H   0  0  0  0  0  0  0  0  0  0  0  0
  154.7873  138.8773  160.1105 H   0  0  0  0  0  0  0  0  0  0  0  0
  155.2246  137.1084  160.8254 H   0  0  0  0  0  0  0  0  0  0  0  0
  153.1643  135.1445  161.5591 H   0  0  0  0  0  0  0  0  0  0  0  0
  154.1797  134.7196  160.2170 H   0  0  0  0  0  0  0  0  0  0  0  0
  156.0381  134.4400  161.4461 H   0  0  0  0  0  0  0  0  0  0  0  0
  156.4509  136.6474  161.9898 H   0  0  0  0  0  0  0  0  0  0  0  0
  156.9461  134.9523  164.4562 H   0  0  0  0  0  0  0  0  0  0  0  0
  157.8456  136.3799  163.9576 H   0  0  0  0  0  0  0  0  0  0  0  0
  157.9009  134.9221  162.9760 H   0  0  0  0  0  0  0  0  0  0  0  0
  154.9358  136.5786  164.6120 H   0  0  0  0  0  0  0  0  0  0  0  0
  154.2521  137.2806  163.1431 H   0  0  0  0  0  0  0  0  0  0  0  0
  155.7293  137.9239  163.8312 H   0  0  0  0  0  0  0  0  0  0  0  0
  155.0430  134.8719  164.8177 H   0  0  0  0  0  0  0  0  0  0  0  0
  153.4256  134.7296  164.1859 H   0  0  0  0  0  0  0  0  0  0  0  0
  155.0676  132.4855  165.4531 H   0  0  0  0  0  0  0  0  0  0  0  0
  153.7242  133.3268  166.1935 H   0  0  0  0  0  0  0  0  0  0  0  0
  152.2349  130.1984  165.0506 H   0  0  0  0  0  0  0  0  0  0  0  0
  152.5334  131.2101  166.4609 H   0  0  0  0  0  0  0  0  0  0  0  0
  153.8712  130.3423  165.7003 H   0  0  0  0  0  0  0  0  0  0  0  0
  154.6320  131.0593  163.4598 H   0  0  0  0  0  0  0  0  0  0  0  0
  152.9951  130.9359  162.8553 H   0  0  0  0  0  0  0  0  0  0  0  0
  152.9980  133.3192  162.2033 H   0  0  0  0  0  0  0  0  0  0  0  0
  154.3330  132.4695  161.4580 H   0  0  0  0  0  0  0  0  0  0  0  0
  1  2  1  0  0  0  0
  1 24  1  0  0  0  0
  1 25  1  0  0  0  0
  1 26  1  0  0  0  0
  2 23  1  0  0  0  0
  2  3  2  0  0  0  0
  3  4  1  0  0  0  0
  3 27  1  0  0  0  0
  4  5  2  0  0  0  0
  4 28  1  0  0  0  0
  5  6  1  0  0  0  0
  5 29  1  0  0  0  0
  6  7  1  0  0  0  0
  6 23  2  0  0  0  0
  7  8  1  0  0  0  0
  7 30  1  0  0  0  0
  8  9  2  0  0  0  0
  8 10  1  0  0  0  0
 10 11  1  0  0  0  0
 10 31  1  0  0  0  0
 11 12  1  0  0  0  0
 11 32  1  0  0  0  0
 11 33  1  0  0  0  0
 12 13  1  0  0  0  0
 12 16  1  0  0  0  0
 12 34  1  0  0  0  0
 13 14  1  0  0  0  0
 13 15  1  0  0  0  0
 13 35  1  0  0  0  0
 14 36  1  0  0  0  0
 14 37  1  0  0  0  0
 14 38  1  0  0  0  0
 15 39  1  0  0  0  0
 15 40  1  0  0  0  0
 15 41  1  0  0  0  0
 16 22  1  0  0  0  0
 16 17  1  0  0  0  0
 17 18  1  0  0  0  0
 17 42  1  0  0  0  0
 17 43  1  0  0  0  0
 18 19  1  0  0  0  0
 18 44  1  0  0  0  0
 18 45  1  0  0  0  0
 19 20  1  0  0  0  0
 19 21  1  0  0  0  0
 20 46  1  0  0  0  0
 20 47  1  0  0  0  0
 20 48  1  0  0  0  0
 21 22  1  0  0  0  0
 21 49  1  0  0  0  0
 21 50  1  0  0  0  0
 22 51  1  0  0  0  0
 22 52  1  0  0  0  0
M  END
> <s_m_source_file>
AV-unprocessed.smi

> <i_m_source_file_index>
2270

> <i_lp_mmshare_version>
43012

> <i_f3d_flags>
0

> <s_epik_input>
W0NIM11jMVtjSF1bY0hdW2NIXWMobjEpW05IXUMoPU8pW05IXVtDSDJdW0NASF0oW0NIXShbQ0gzXSlbQ0gzXSlOMltDSDJdW0NIMl1OKFtDSDNdKVtDSDJdW0NIMl0y

> <s_epik_cmdline>
J2VwaWtfcHl0aG9uJywgJy1waCcsICc3LjAnLCAnLXRuJywgJzgnLCAnLW1hJywgJzIwMCcsICctbWV0YWxfYmluZGluZycsICctaW1hZScsICc8aW5maWxlLm1hZT4nLCAnLW9tYWUnLCAnPG91dGZpbGUubWFlPic=

> <r_epik_Ionization_Penalty>
2.57754

> <r_epik_Ionization_Penalty_Charging>
0

> <r_epik_Ionization_Penalty_Neutral>
2.57754

> <r_epik_State_Penalty>
2.00874

> <r_epik_Charging_Adjusted_Penalty>
2.00874

> <i_epik_Tot_Q>
0

> <i_epik_Tot_abs_Q>
0

> <r_epik_Metal_State_Penalty>
2.00874

> <b_epik_Metal_Only>
0

> <s_lp_Force_Field>
OPLS_2005

> <r_lp_Energy>
49.2336

> <b_lp_Chiralities_Consistent>
1

> <s_lp_Variant>
AV-unprocessed.smi:2270-6

> <Gold.Version>
5.8.1

> <Gold.Id.Protein>
6NUR|6NUR_protein|mol2

> <Gold.PLP.Fitness>
38.6905

> <Gold.PLP.PLP>
-37.7871

> <Gold.PLP.part.hbond>
-0.9936

> <Gold.PLP.part.metal>
0.0000

> <Gold.PLP.part.buried>
-6.2496

> <Gold.PLP.part.nonpolar>
-30.8620

> <Gold.PLP.part.repulsive>
0.1305

> <Gold.PLP.ligand.clash>
0.0000

> <Gold.PLP.ligand.torsion>
1.2660

> <Gold.PLP.Chemscore.Hbond>
1.0000

> <Gold.PLP.Chemscore.CHOScore>
0.0000

> <Gold.PLP.Chemscore.Metal>
0.0000

> <Gold.Chemscore.Hbonds>
donor molecule, donor type, donor heavy atom, donor atom, acceptor molecule, acceptor atom, score
      P1  H  6896  6908       L1     9  1.00

> <Gold.PLP.Chemscore.Internal.Correction>
0.4355

> <Gold.Rescore>
     Score         DG    S(hbond)    S(metal)    S(lipo)     H(rot)  DE(clash)    DE(int)     intcor
     13.98     -17.48       1.00        0.00     108.20       1.56       0.04       3.45       ----

> <Gold.Chemscore.Fitness>
13.9843

> <Gold.Chemscore.DG>
-17.4771

> <Gold.Chemscore.ZeroCoef>
-5.4800

> <Gold.Chemscore.Hbond>
0.9983

> <Gold.Chemscore.Metal>
0.0000

> <Gold.Chemscore.Lipo>
108.2010

> <Gold.Chemscore.Internal_Hbond>
0.0000

> <Gold.Chemscore.DEClash>
0.0445

> <Gold.Chemscore.DEInternal>
3.4483

> <Gold.Chemscore.Rot>
1.5612

> <Gold.Chemscore.Internal.Correction>
   9.000000E+99

> <Gold.Chemscore.Hbonds>
donor molecule, donor type, donor heavy atom, donor atom, acceptor molecule, acceptor atom, score
      P1  H  6896  6908       L1     9  0.85

> <Gold.Chemscore.Hbond.Weighted>
-3.3342

> <Gold.Chemscore.Metal.Weighted>
-0.0000

> <Gold.Chemscore.Lipo.Weighted>
-12.6595

> <Gold.Chemscore.Internal_Hbond.Weighted>
0.0000

> <Gold.Chemscore.DEClash.Weighted>
0.0445

> <Gold.Chemscore.DEInternal.Weighted>
3.4483

> <Gold.Chemscore.Rot.Weighted>
3.9966

> <Gold.Chemscore.Internal.Correction.Weighted>
   9.000000E+99

> <Gold.Protein.RotatedTorsions>
[ 6907 6896 6895 6894 ] final  -97.98 input  -60.11 | X-H torsion
[ 7974 7965 7964 7962 ] final  -16.21 input  175.53 | X-H torsion
[ 8008 7997 7996 7995 ] final -143.94 input   59.86 | X-H torsion
[ 10167 10162 10161 10158 ] final  -34.75 input  -65.29 | X-H torsion
[ 10718 10713 10712 10709 ] final  -60.43 input   66.30 | X-H torsion
[ 10763 10752 10751 10750 ] final  -35.59 input  -60.55 | X-H torsion
[ 11005 11000 10999 10996 ] final  -24.26 input  -57.11 | X-H torsion

> <Gold.Protein.ActiveResidues>
 VAL166  LYS551  ARG553  GLY616  TRP617  ASP618  TYR619  PRO620  LYS621  CYS622 
 ASP623  PHE694  ASN695  SER759  ASP760  ASP761  ALA762  ILE779  LEU786  VAL792 
 PHE793  MET794  SER795  GLU796  ALA797  LYS798  CYS799  TRP800  GLU811  SER814 

> <Gold.Protein.RotatedAtoms>
  150.7032  134.1266  159.4053 H   0  0  0  0  0  0  0  0  0  0  0  0  # atno 6907 bound_to 6896
  151.9252  135.0278  160.0534 H   0  0  0  0  0  0  0  0  0  0  0  0  # atno 6908 bound_to 6896
  152.2223  133.4957  159.5206 H   0  0  0  0  0  0  0  0  0  0  0  0  # atno 6909 bound_to 6896
  146.1998  140.3604  142.8427 H   0  0  0  0  0  0  0  0  0  0  0  0  # atno 7974 bound_to 7965
  155.5188  140.0589  157.2910 H   0  0  0  0  0  0  0  0  0  0  0  0  # atno 8008 bound_to 7997
  154.4525  140.1956  156.0423 H   0  0  0  0  0  0  0  0  0  0  0  0  # atno 8009 bound_to 7997
  156.0733  140.3257  155.7607 H   0  0  0  0  0  0  0  0  0  0  0  0  # atno 8010 bound_to 7997
  140.7179  143.3525  151.2125 H   0  0  0  0  0  0  0  0  0  0  0  0  # atno 10167 bound_to 10162
  156.0991  130.4189  150.0854 H   0  0  0  0  0  0  0  0  0  0  0  0  # atno 10718 bound_to 10713
  153.8657  135.6836  153.4779 H   0  0  0  0  0  0  0  0  0  0  0  0  # atno 10763 bound_to 10752
  153.1316  135.4695  154.9355 H   0  0  0  0  0  0  0  0  0  0  0  0  # atno 10764 bound_to 10752
  154.7738  135.3247  154.8085 H   0  0  0  0  0  0  0  0  0  0  0  0  # atno 10765 bound_to 10752
  140.8829  133.7641  156.0324 H   0  0  0  0  0  0  0  0  0  0  0  0  # atno 11005 bound_to 11000
  144.8657  140.7203  143.6078 LP  0  0  0  0  0  0  0  0  0  0  0  0  # atno 17320 bound_to 7965
  145.3524  139.1703  143.4427 LP  0  0  0  0  0  0  0  0  0  0  0  0  # atno 17321 bound_to 7965
  139.7060  143.9455  152.2927 LP  0  0  0  0  0  0  0  0  0  0  0  0  # atno 17342 bound_to 10162
  139.9164  144.6826  150.8508 LP  0  0  0  0  0  0  0  0  0  0  0  0  # atno 17343 bound_to 10162
  156.8845  130.9568  151.3595 LP  0  0  0  0  0  0  0  0  0  0  0  0  # atno 17370 bound_to 10713
  157.6158  130.8617  149.9025 LP  0  0  0  0  0  0  0  0  0  0  0  0  # atno 17371 bound_to 10713
  140.8440  134.3033  157.5302 LP  0  0  0  0  0  0  0  0  0  0  0  0  # atno 17394 bound_to 11000
  139.8721  134.9431  156.3845 LP  0  0  0  0  0  0  0  0  0  0  0  0  # atno 17395 bound_to 11000

$$$$
