AV-unprocessed.smi:2971|AV-procd|sdf|11332|dock1
  -GOLD-   2272016243D 1   1.00000     0.00000
 Structure written by MMmdl.
 36 38  0  0  0  0  0  0  0  0  1 V2000
  149.6741  144.0463  158.0377 O   0  0  0  0  0  0  0  0  0  0  0  0
  150.4936  142.8978  158.1374 C   0  0  2  0  0  0  0  0  0  0  0  0
  151.7156  143.2452  159.0022 C   0  0  0  0  0  0  0  0  0  0  0  0
  152.3815  142.0421  159.3632 O   0  0  0  0  0  0  0  0  0  0  0  0
  153.1091  142.0221  160.5347 C   0  0  0  0  0  0  0  0  0  0  0  0
  153.2205  143.1246  161.4203 C   0  0  0  0  0  0  0  0  0  0  0  0
  153.9853  143.0193  162.5985 C   0  0  0  0  0  0  0  0  0  0  0  0
  154.6476  141.8170  162.9066 C   0  0  0  0  0  0  0  0  0  0  0  0
  154.5440  140.7182  162.0338 C   0  0  0  0  0  0  0  0  0  0  0  0
  153.7784  140.8217  160.8560 C   0  0  0  0  0  0  0  0  0  0  0  0
  153.6856  139.7556  160.0255 F   0  0  0  0  0  0  0  0  0  0  0  0
  150.9026  142.4503  156.7204 C   0  0  0  0  0  0  0  0  0  0  0  0
  149.9465  141.5320  156.1268 N   0  0  0  0  0  0  0  0  0  0  0  0
  148.6993  141.8218  155.7096 C   0  0  0  0  0  0  0  0  0  0  0  0
  147.9810  140.8271  155.1963 N   0  0  0  0  0  0  0  0  0  0  0  0
  148.8662  139.7667  155.2903 C   0  0  0  0  0  0  0  0  0  0  0  0
  148.7174  138.4121  154.9154 C   0  0  0  0  0  0  0  0  0  0  0  0
  149.7729  137.4969  155.1094 C   0  0  0  0  0  0  0  0  0  0  0  0
  150.9916  137.9209  155.6784 C   0  0  0  0  0  0  0  0  0  0  0  0
  151.1632  139.2653  156.0600 C   0  0  0  0  0  0  0  0  0  0  0  0
  150.1068  140.1749  155.8673 C   0  0  0  0  0  0  0  0  0  0  0  0
  149.4023  144.1417  157.1374 H   0  0  0  0  0  0  0  0  0  0  0  0
  149.9252  142.0966  158.6119 H   0  0  0  0  0  0  0  0  0  0  0  0
  152.4063  143.8571  158.4196 H   0  0  0  0  0  0  0  0  0  0  0  0
  151.4176  143.8222  159.8798 H   0  0  0  0  0  0  0  0  0  0  0  0
  152.7289  144.0640  161.2194 H   0  0  0  0  0  0  0  0  0  0  0  0
  154.0635  143.8642  163.2669 H   0  0  0  0  0  0  0  0  0  0  0  0
  155.2340  141.7374  163.8102 H   0  0  0  0  0  0  0  0  0  0  0  0
  155.0521  139.7942  162.2674 H   0  0  0  0  0  0  0  0  0  0  0  0
  151.0158  143.3136  156.0631 H   0  0  0  0  0  0  0  0  0  0  0  0
  151.8733  141.9534  156.7483 H   0  0  0  0  0  0  0  0  0  0  0  0
  148.2955  142.8206  155.7884 H   0  0  0  0  0  0  0  0  0  0  0  0
  147.7890  138.0766  154.4774 H   0  0  0  0  0  0  0  0  0  0  0  0
  149.6474  136.4641  154.8194 H   0  0  0  0  0  0  0  0  0  0  0  0
  151.7951  137.2131  155.8207 H   0  0  0  0  0  0  0  0  0  0  0  0
  152.0961  139.5950  156.4928 H   0  0  0  0  0  0  0  0  0  0  0  0
  1  2  1  0  0  0  0
  1 22  1  0  0  0  0
  2  3  1  0  0  0  0
  2 12  1  0  0  0  0
  2 23  1  0  0  0  0
  3  4  1  0  0  0  0
  3 24  1  0  0  0  0
  3 25  1  0  0  0  0
  4  5  1  0  0  0  0
  5 10  1  0  0  0  0
  5  6  2  0  0  0  0
  6  7  1  0  0  0  0
  6 26  1  0  0  0  0
  7  8  2  0  0  0  0
  7 27  1  0  0  0  0
  8  9  1  0  0  0  0
  8 28  1  0  0  0  0
  9 10  2  0  0  0  0
  9 29  1  0  0  0  0
 10 11  1  0  0  0  0
 12 13  1  0  0  0  0
 12 30  1  0  0  0  0
 12 31  1  0  0  0  0
 13 21  1  0  0  0  0
 13 14  1  0  0  0  0
 14 15  2  0  0  0  0
 14 32  1  0  0  0  0
 15 16  1  0  0  0  0
 16 21  2  0  0  0  0
 16 17  1  0  0  0  0
 17 18  2  0  0  0  0
 17 33  1  0  0  0  0
 18 19  1  0  0  0  0
 18 34  1  0  0  0  0
 19 20  2  0  0  0  0
 19 35  1  0  0  0  0
 20 21  1  0  0  0  0
 20 36  1  0  0  0  0
M  END
> <s_m_source_file>
AV-unprocessed.smi

> <i_m_source_file_index>
2971

> <i_lp_mmshare_version>
43012

> <i_f3d_flags>
0

> <s_epik_input>
W2NIXTFbY0hdW2NIXVtjSF1jKGMxMiluKFtjSF1uMilbQ0gyXVtDQEhdKFtPSF0pW0NIMl1PYzNbY0hdW2NIXVtjSF1bY0hdYzNG

> <s_epik_cmdline>
J2VwaWtfcHl0aG9uJywgJy1waCcsICc3LjAnLCAnLXRuJywgJzgnLCAnLW1hJywgJzIwMCcsICctbWV0YWxfYmluZGluZycsICctaW1hZScsICc8aW5maWxlLm1hZT4nLCAnLW9tYWUnLCAnPG91dGZpbGUubWFlPic=

> <r_lp_tautomer_probability>
1

> <r_epik_Ionization_Penalty>
0.0600913

> <r_epik_Ionization_Penalty_Charging>
0

> <r_epik_Ionization_Penalty_Neutral>
0.0600913

> <r_epik_State_Penalty>
0.0520726

> <r_epik_Charging_Adjusted_Penalty>
0.0520726

> <i_epik_Tot_Q>
0

> <i_epik_Tot_abs_Q>
0

> <r_epik_Metal_State_Penalty>
5.44269e-05

> <b_epik_Metal_Only>
0

> <s_lp_Force_Field>
OPLS_2005

> <r_lp_Energy>
16.3694

> <b_lp_Chiralities_Consistent>
1

> <s_lp_Variant>
AV-unprocessed.smi:2971-1

> <Gold.Version>
5.8.1

> <Gold.Id.Protein>
6NUR|6NUR_protein|mol2

> <Gold.PLP.Fitness>
56.5870

> <Gold.PLP.PLP>
-51.7979

> <Gold.PLP.part.hbond>
-2.0000

> <Gold.PLP.part.metal>
0.0000

> <Gold.PLP.part.buried>
0.6813

> <Gold.PLP.part.nonpolar>
-49.9830

> <Gold.PLP.part.repulsive>
0.1068

> <Gold.PLP.ligand.clash>
0.0000

> <Gold.PLP.ligand.torsion>
0.6863

> <Gold.PLP.Chemscore.Hbond>
1.0000

> <Gold.PLP.Chemscore.CHOScore>
1.0000

> <Gold.PLP.Chemscore.Metal>
0.0000

> <Gold.Chemscore.Hbonds>
donor molecule, donor type, donor heavy atom, donor atom, acceptor molecule, acceptor atom, score
      L1  H     1    22       P1  8028  1.00
      L1  C    14    32       P1  8028  0.87

> <Gold.PLP.Chemscore.Internal.Correction>
0.1618

> <Gold.Rescore>
     Score         DG    S(hbond)    S(metal)    S(lipo)     H(rot)  DE(clash)    DE(int)     intcor
     14.23     -15.75       0.49        0.00     125.66       2.37       0.29       1.24       ----

> <Gold.Chemscore.Fitness>
14.2264

> <Gold.Chemscore.DG>
-15.7527

> <Gold.Chemscore.ZeroCoef>
-5.4800

> <Gold.Chemscore.Hbond>
0.4932

> <Gold.Chemscore.Metal>
0.0000

> <Gold.Chemscore.Lipo>
125.6558

> <Gold.Chemscore.Internal_Hbond>
0.0000

> <Gold.Chemscore.DEClash>
0.2873

> <Gold.Chemscore.DEInternal>
1.2390

> <Gold.Chemscore.Rot>
2.3735

> <Gold.Chemscore.Internal.Correction>
   9.000000E+99

> <Gold.Chemscore.Hbonds>
donor molecule, donor type, donor heavy atom, donor atom, acceptor molecule, acceptor atom, score
      L1  H     1    22       P1  8028  0.30

> <Gold.Chemscore.Hbond.Weighted>
-1.6472

> <Gold.Chemscore.Metal.Weighted>
-0.0000

> <Gold.Chemscore.Lipo.Weighted>
-14.7017

> <Gold.Chemscore.Internal_Hbond.Weighted>
0.0000

> <Gold.Chemscore.DEClash.Weighted>
0.2873

> <Gold.Chemscore.DEInternal.Weighted>
1.2390

> <Gold.Chemscore.Rot.Weighted>
6.0762

> <Gold.Chemscore.Internal.Correction.Weighted>
   9.000000E+99

> <Gold.Protein.RotatedTorsions>
[ 6907 6896 6895 6894 ] final  146.51 input  -60.11 | X-H torsion
[ 7974 7965 7964 7962 ] final  104.22 input  175.53 | X-H torsion
[ 8008 7997 7996 7995 ] final   46.46 input   59.86 | X-H torsion
[ 10167 10162 10161 10158 ] final  -88.40 input  -65.29 | X-H torsion
[ 10718 10713 10712 10709 ] final -123.43 input   66.30 | X-H torsion
[ 10763 10752 10751 10750 ] final -135.45 input  -60.55 | X-H torsion
[ 11005 11000 10999 10996 ] final  153.01 input  -57.11 | X-H torsion

> <Gold.Protein.ActiveResidues>
 VAL166  LYS551  ARG553  GLY616  TRP617  ASP618  TYR619  PRO620  LYS621  CYS622 
 ASP623  PHE694  ASN695  SER759  ASP760  ASP761  ALA762  ILE779  LEU786  VAL792 
 PHE793  MET794  SER795  GLU796  ALA797  LYS798  CYS799  TRP800  GLU811  SER814 

> <Gold.Protein.RotatedAtoms>
  152.1670  133.4618  159.4889 H   0  0  0  0  0  0  0  0  0  0  0  0  # atno 6907 bound_to 6896
  150.6914  134.2001  159.4328 H   0  0  0  0  0  0  0  0  0  0  0  0  # atno 6908 bound_to 6896
  151.9906  134.9981  160.0612 H   0  0  0  0  0  0  0  0  0  0  0  0  # atno 6909 bound_to 6896
  145.3357  139.2475  143.3637 H   0  0  0  0  0  0  0  0  0  0  0  0  # atno 7974 bound_to 7965
  155.3529  140.3414  155.4239 H   0  0  0  0  0  0  0  0  0  0  0  0  # atno 8008 bound_to 7997
  156.1754  140.1646  156.8407 H   0  0  0  0  0  0  0  0  0  0  0  0  # atno 8009 bound_to 7997
  154.5277  140.0752  156.8270 H   0  0  0  0  0  0  0  0  0  0  0  0  # atno 8010 bound_to 7997
  140.3750  143.2776  151.9454 H   0  0  0  0  0  0  0  0  0  0  0  0  # atno 10167 bound_to 10162
  156.1501  130.6529  150.9901 H   0  0  0  0  0  0  0  0  0  0  0  0  # atno 10718 bound_to 10713
  154.8702  135.3703  154.4900 H   0  0  0  0  0  0  0  0  0  0  0  0  # atno 10763 bound_to 10752
  153.5547  135.7024  153.5580 H   0  0  0  0  0  0  0  0  0  0  0  0  # atno 10764 bound_to 10752
  153.3682  135.4028  155.1733 H   0  0  0  0  0  0  0  0  0  0  0  0  # atno 10765 bound_to 10752
  140.1359  134.8771  157.2267 H   0  0  0  0  0  0  0  0  0  0  0  0  # atno 11005 bound_to 11000
  146.3028  140.3943  142.8698 LP  0  0  0  0  0  0  0  0  0  0  0  0  # atno 17320 bound_to 7965
  144.8829  140.7425  143.5975 LP  0  0  0  0  0  0  0  0  0  0  0  0  # atno 17321 bound_to 7965
  139.4800  144.5872  151.7834 LP  0  0  0  0  0  0  0  0  0  0  0  0  # atno 17342 bound_to 10162
  140.4995  144.1190  150.5968 LP  0  0  0  0  0  0  0  0  0  0  0  0  # atno 17343 bound_to 10162
  157.6650  131.0873  150.7750 LP  0  0  0  0  0  0  0  0  0  0  0  0  # atno 17370 bound_to 10713
  156.7818  130.4862  149.5399 LP  0  0  0  0  0  0  0  0  0  0  0  0  # atno 17371 bound_to 10713
  140.2782  134.3380  155.7351 LP  0  0  0  0  0  0  0  0  0  0  0  0  # atno 17394 bound_to 11000
  141.2178  133.7463  156.9325 LP  0  0  0  0  0  0  0  0  0  0  0  0  # atno 17395 bound_to 11000

$$$$
