#       Name:                AV-unprocessed.smi:1605
#       Creating user name   scv26
#       Creation time:       Fri Mar 27 07:11:11 2020


#       File generated by GOLD software.
#

@<TRIPOS>MOLECULE
AV-unprocessed.smi:1605
    56    58     1
SMALL
NO_CHARGES


@<TRIPOS>ATOM
      1 ****        -5.2912   3.9514   2.9617 C.3            1 S1                 0.0000
      2 ****        -4.9265   3.0226   1.9524 O.3            1 S1                 0.0000
      3 ****        -3.9878   3.5202   1.0054 C.3            1 S1                 0.0000
      4 ****        -4.0680   2.6366  -0.2489 C.3            1 S1                 0.0000
      5 ****        -3.5550   1.2117   0.0254 C.3            1 S1                 0.0000
      6 ****        -2.1699   1.2297   0.5620 N.4            1 S1                 1.0000
      7 ****        -1.6054  -0.1365   0.7127 C.3            1 S1                 0.0000
      8 ****        -0.0663  -0.1535   0.6253 C.3            1 S1                 0.0000
      9 ****         0.3152   0.2428  -0.6777 O.3            1 S1                 0.0000
     10 ****         0.5083  -1.5514   0.9275 C.3            1 S1                 0.0000
     11 ****         1.9768  -1.5916   0.8562 N.pl3          1 S1                 0.0000
     12 ****         2.8995  -1.2568   1.7992 C.2            1 S1                 0.0000
     13 ****         4.1325  -1.4658   1.2608 N.pl3          1 S1                 1.0000
     14 ****         3.9969  -1.9441  -0.0441 C.ar           1 S1                 0.0000
     15 ****         4.9547  -2.2977  -0.9870 C.ar           1 S1                 0.0000
     16 ****         4.4885  -2.7560  -2.2397 C.ar           1 S1                 0.0000
     17 ****         5.5096  -3.1497  -3.2937 C.3            1 S1                 0.0000
     18 ****         3.0990  -2.8484  -2.5118 C.ar           1 S1                 0.0000
     19 ****         2.6085  -3.3498  -3.8595 C.3            1 S1                 0.0000
     20 ****         2.1406  -2.4794  -1.5408 C.ar           1 S1                 0.0000
     21 ****         2.6162  -2.0306  -0.3105 C.ar           1 S1                 0.0000
     22 ****        -2.0747   2.0445   1.8028 C.3            1 S1                 0.0000
     23 ****        -2.5506   3.4868   1.5592 C.3            1 S1                 0.0000
     24 ****        -6.0393   3.5008   3.6137 H              1 S1                 0.0000
     25 ****        -5.7267   4.8532   2.5301 H              1 S1                 0.0000
     26 ****        -4.4410   4.2344   3.5815 H              1 S1                 0.0000
     27 ****        -4.2569   4.5403   0.7262 H              1 S1                 0.0000
     28 ****        -5.0946   2.6002  -0.6146 H              1 S1                 0.0000
     29 ****        -3.4752   3.0856  -1.0469 H              1 S1                 0.0000
     30 ****        -4.2128   0.7003   0.7300 H              1 S1                 0.0000
     31 ****        -3.5821   0.6411  -0.9037 H              1 S1                 0.0000
     32 ****        -1.9421  -0.5609   1.6600 H              1 S1                 0.0000
     33 ****        -2.0006  -0.7903  -0.0669 H              1 S1                 0.0000
     34 ****         0.3639   0.5541   1.3336 H              1 S1                 0.0000
     35 ****         1.2593   0.2379  -0.7290 H              1 S1                 0.0000
     36 ****         0.2308  -1.8539   1.9381 H              1 S1                 0.0000
     37 ****         0.0914  -2.3063   0.2606 H              1 S1                 0.0000
     38 ****         2.6924  -0.8916   2.7948 H              1 S1                 0.0000
     39 ****         6.0112  -2.2261  -0.7725 H              1 S1                 0.0000
     40 ****         5.4108  -4.2054  -3.5467 H              1 S1                 0.0000
     41 ****         6.5287  -2.9843  -2.9434 H              1 S1                 0.0000
     42 ****         5.3717  -2.5618  -4.2013 H              1 S1                 0.0000
     43 ****         1.5194  -3.3850  -3.9002 H              1 S1                 0.0000
     44 ****         2.9800  -4.3567  -4.0518 H              1 S1                 0.0000
     45 ****         2.9506  -2.6942  -4.6606 H              1 S1                 0.0000
     46 ****         1.0841  -2.5456  -1.7544 H              1 S1                 0.0000
     47 ****        -2.6715   1.5821   2.5907 H              1 S1                 0.0000
     48 ****        -1.0469   2.0693   2.1628 H              1 S1                 0.0000
     49 ****        -1.8803   3.9679   0.8458 H              1 S1                 0.0000
     50 ****        -2.4714   4.0673   2.4777 H              1 S1                 0.0000
     51 ****        -1.6057   1.6893  -0.1391 H              1 S1                 0.0000
     52 ****         5.0017  -1.2960   1.7510 H              1 S1                 0.0000
     53 ****        -5.7547   2.7545   1.4603 LP             1 S1                 0.0000
     54 ****        -4.5276   2.2199   2.3957 LP             1 S1                 0.0000
     55 ****        -0.0278   1.1634  -0.8642 LP             1 S1                 0.0000
     56 ****        -0.0622  -0.3957  -1.3485 LP             1 S1                 0.0000
@<TRIPOS>BOND
    1    1    2 1     
    2    1   24 1     
    3    1   25 1     
    4    1   26 1     
    5    2    3 1     
    6    3   23 1     
    7    3    4 1     
    8    3   27 1     
    9    4    5 1     
   10    4   28 1     
   11    4   29 1     
   12    5    6 1     
   13    5   30 1     
   14    5   31 1     
   15    6    7 1     
   16    6   22 1     
   17    6   51 1     
   18    7    8 1     
   19    7   32 1     
   20    7   33 1     
   21    8    9 1     
   22    8   10 1     
   23    8   34 1     
   24    9   35 1     
   25   10   11 1     
   26   10   36 1     
   27   10   37 1     
   28   11   21 1     
   29   11   12 1     
   30   12   13 2     
   31   12   38 1     
   32   13   14 1     
   33   13   52 1     
   34   14   21 ar    
   35   14   15 ar    
   36   15   16 ar    
   37   15   39 1     
   38   16   17 1     
   39   16   18 ar    
   40   17   40 1     
   41   17   41 1     
   42   17   42 1     
   43   18   19 1     
   44   18   20 ar    
   45   19   43 1     
   46   19   44 1     
   47   19   45 1     
   48   20   21 ar    
   49   20   46 1     
   50   22   23 1     
   51   22   47 1     
   52   22   48 1     
   53   23   49 1     
   54   23   50 1     
   55    2   53 1     
   56    2   54 1     
   57    9   55 1     
   58    9   56 1     
@<TRIPOS>SUBSTRUCTURE
      1 S1             1
@<TRIPOS>SET
LONE_PAIRS      STATIC     ATOMS    <user>   **** ""
4 53 54 55 56
DONOR_HYDROGENS      STATIC     ATOMS    <user>   **** ""
3 51 35 52
ATOM$BLUE        STATIC     ATOMS    COLORGROUP SYSTEM
4 53 54 55 56
ATOM$RED        STATIC     ATOMS    COLORGROUP SYSTEM
3 51 35 52
