AV-unprocessed.smi:2340|AV-procd|sdf|9344|dock2
  -GOLD-   2272012563D 1   1.00000     0.00000
 Structure written by MMmdl.
 40 41  0  0  0  0  0  0  0  0  1 V2000
  153.3800  141.6882  159.2452 C   0  0  0  0  0  0  0  0  0  0  0  0
  152.4034  141.4030  158.1481 C   0  0  0  0  0  0  0  0  0  0  0  0
  151.3874  142.2172  157.7144 C   0  0  0  0  0  0  0  0  0  0  0  0
  150.4804  141.4893  156.4178 S   0  0  0  0  0  0  0  0  0  0  0  0
  151.5400  140.0843  156.5048 C   0  0  0  0  0  0  0  0  0  0  0  0
  151.3830  138.8723  155.6356 C   0  0  2  0  0  0  0  0  0  0  0  0
  152.5991  138.6618  154.7224 C   0  0  0  0  0  0  0  0  0  0  0  0
  150.0560  138.8753  154.8522 C   0  0  0  0  0  0  0  0  0  0  0  0
  149.7262  137.5425  154.3608 N   0  0  0  0  0  0  0  0  0  0  0  0
  149.4677  136.4848  155.1384 C   0  0  0  0  0  0  0  0  0  0  0  0
  149.4549  136.5192  156.3689 O   0  0  0  0  0  0  0  0  0  0  0  0
  149.2273  135.3858  154.4115 N   0  0  0  0  0  0  0  0  0  0  0  0
  148.9066  134.0714  154.9577 C   0  0  2  0  0  0  0  0  0  0  0  0
  149.9675  133.5995  155.9306 C   0  0  0  0  0  0  0  0  0  0  0  0
  149.7787  132.0874  155.8930 C   0  0  0  0  0  0  0  0  0  0  0  0
  149.3451  131.7820  154.5719 O   0  0  0  0  0  0  0  0  0  0  0  0
  148.9564  132.9712  153.8887 C   0  0  1  0  0  0  0  0  0  0  0  0
  147.6315  132.7456  153.1500 C   0  0  0  0  0  0  0  0  0  0  0  0
  152.4775  140.1940  157.4507 N   0  0  0  0  0  0  0  0  0  0  0  0
  153.1550  142.6311  159.7442 H   0  0  0  0  0  0  0  0  0  0  0  0
  154.3972  141.7541  158.8588 H   0  0  0  0  0  0  0  0  0  0  0  0
  153.3626  140.9036  160.0019 H   0  0  0  0  0  0  0  0  0  0  0  0
  151.1155  143.1966  158.0797 H   0  0  0  0  0  0  0  0  0  0  0  0
  151.3486  138.0106  156.3046 H   0  0  0  0  0  0  0  0  0  0  0  0
  153.5177  138.5851  155.3052 H   0  0  0  0  0  0  0  0  0  0  0  0
  152.7180  139.4871  154.0199 H   0  0  0  0  0  0  0  0  0  0  0  0
  152.4985  137.7445  154.1418 H   0  0  0  0  0  0  0  0  0  0  0  0
  149.2515  139.2323  155.4980 H   0  0  0  0  0  0  0  0  0  0  0  0
  150.1147  139.5635  154.0080 H   0  0  0  0  0  0  0  0  0  0  0  0
  149.7133  137.4156  153.3591 H   0  0  0  0  0  0  0  0  0  0  0  0
  149.2643  135.4633  153.4057 H   0  0  0  0  0  0  0  0  0  0  0  0
  147.9386  134.0722  155.4632 H   0  0  0  0  0  0  0  0  0  0  0  0
  150.9645  133.8544  155.5673 H   0  0  0  0  0  0  0  0  0  0  0  0
  149.8510  134.0181  156.9306 H   0  0  0  0  0  0  0  0  0  0  0  0
  150.6889  131.5455  156.1510 H   0  0  0  0  0  0  0  0  0  0  0  0
  148.9959  131.7873  156.5907 H   0  0  0  0  0  0  0  0  0  0  0  0
  149.7446  133.1933  153.1672 H   0  0  0  0  0  0  0  0  0  0  0  0
  147.3308  133.6371  152.5996 H   0  0  0  0  0  0  0  0  0  0  0  0
  146.8299  132.4939  153.8448 H   0  0  0  0  0  0  0  0  0  0  0  0
  147.7206  131.9295  152.4331 H   0  0  0  0  0  0  0  0  0  0  0  0
  1  2  1  0  0  0  0
  1 20  1  0  0  0  0
  1 21  1  0  0  0  0
  1 22  1  0  0  0  0
  2 19  1  0  0  0  0
  2  3  2  0  0  0  0
  3  4  1  0  0  0  0
  3 23  1  0  0  0  0
  4  5  1  0  0  0  0
  5  6  1  0  0  0  0
  5 19  2  0  0  0  0
  6  7  1  0  0  0  0
  6  8  1  0  0  0  0
  6 24  1  0  0  0  0
  7 25  1  0  0  0  0
  7 26  1  0  0  0  0
  7 27  1  0  0  0  0
  8  9  1  0  0  0  0
  8 28  1  0  0  0  0
  8 29  1  0  0  0  0
  9 10  1  0  0  0  0
  9 30  1  0  0  0  0
 10 11  2  0  0  0  0
 10 12  1  0  0  0  0
 12 13  1  0  0  0  0
 12 31  1  0  0  0  0
 13 17  1  0  0  0  0
 13 14  1  0  0  0  0
 13 32  1  0  0  0  0
 14 15  1  0  0  0  0
 14 33  1  0  0  0  0
 14 34  1  0  0  0  0
 15 16  1  0  0  0  0
 15 35  1  0  0  0  0
 15 36  1  0  0  0  0
 16 17  1  0  0  0  0
 17 18  1  0  0  0  0
 17 37  1  0  0  0  0
 18 38  1  0  0  0  0
 18 39  1  0  0  0  0
 18 40  1  0  0  0  0
M  END
> <s_m_source_file>
AV-unprocessed.smi

> <i_m_source_file_index>
2340

> <i_lp_mmshare_version>
43012

> <i_f3d_flags>
0

> <s_epik_input>
W0NIM11jMVtjSF1zYyhuMSlbQ0BIXShbQ0gzXSlbQ0gyXVtOSF1DKD1PKVtOSF1bQ0BASF0yW0NIMl1bQ0gyXU9bQ0BIXTJbQ0gzXQ==

> <s_epik_cmdline>
J2VwaWtfcHl0aG9uJywgJy1waCcsICc3LjAnLCAnLXRuJywgJzgnLCAnLW1hJywgJzIwMCcsICctbWV0YWxfYmluZGluZycsICctaW1hZScsICc8aW5maWxlLm1hZT4nLCAnLW9tYWUnLCAnPG91dGZpbGUubWFlPic=

> <r_epik_Ionization_Penalty>
0.00156622

> <r_epik_Ionization_Penalty_Charging>
0

> <r_epik_Ionization_Penalty_Neutral>
0.00156622

> <r_epik_State_Penalty>
0.00101902

> <r_epik_Charging_Adjusted_Penalty>
0.00101902

> <i_epik_Tot_Q>
0

> <i_epik_Tot_abs_Q>
0

> <r_epik_Metal_State_Penalty>
-0

> <b_epik_Metal_Only>
0

> <s_lp_Force_Field>
OPLS_2005

> <r_lp_Energy>
4.8577

> <b_lp_Chiralities_Consistent>
1

> <s_lp_Variant>
AV-unprocessed.smi:2340-1

> <Gold.Version>
5.8.1

> <Gold.Id.Protein>
6NUR|6NUR_protein|mol2

> <Gold.PLP.Fitness>
41.4075

> <Gold.PLP.PLP>
-33.8363

> <Gold.PLP.part.hbond>
-3.0000

> <Gold.PLP.part.metal>
0.0000

> <Gold.PLP.part.buried>
-4.9827

> <Gold.PLP.part.nonpolar>
-26.7477

> <Gold.PLP.part.repulsive>
0.1054

> <Gold.PLP.ligand.clash>
0.0000

> <Gold.PLP.ligand.torsion>
0.3177

> <Gold.PLP.Chemscore.Hbond>
2.6982

> <Gold.PLP.Chemscore.CHOScore>
0.0000

> <Gold.PLP.Chemscore.Metal>
0.0000

> <Gold.Chemscore.Hbonds>
donor molecule, donor type, donor heavy atom, donor atom, acceptor molecule, acceptor atom, score
      L1  H     9    30       P1  7948  0.90
      L1  H    12    31       P1  7948  1.00
      P1  H  7997  8008       L1    19  0.89

> <Gold.PLP.Chemscore.Internal.Correction>
0.1121

> <Gold.Rescore>
     Score         DG    S(hbond)    S(metal)    S(lipo)     H(rot)  DE(clash)    DE(int)     intcor
     16.60     -16.90       1.71        0.00      82.41       1.53       0.13       0.17       ----

> <Gold.Chemscore.Fitness>
16.5964

> <Gold.Chemscore.DG>
-16.8954

> <Gold.Chemscore.ZeroCoef>
-5.4800

> <Gold.Chemscore.Hbond>
1.7056

> <Gold.Chemscore.Metal>
0.0000

> <Gold.Chemscore.Lipo>
82.4090

> <Gold.Chemscore.Internal_Hbond>
0.0000

> <Gold.Chemscore.DEClash>
0.1272

> <Gold.Chemscore.DEInternal>
0.1718

> <Gold.Chemscore.Rot>
1.5325

> <Gold.Chemscore.Internal.Correction>
   9.000000E+99

> <Gold.Chemscore.Hbonds>
donor molecule, donor type, donor heavy atom, donor atom, acceptor molecule, acceptor atom, score
      L1  H     9    30       P1  7948  0.57
      L1  H    12    31       P1  7948  0.30
      P1  H  7997  8008       L1    19  0.35

> <Gold.Chemscore.Hbond.Weighted>
-5.6969

> <Gold.Chemscore.Metal.Weighted>
-0.0000

> <Gold.Chemscore.Lipo.Weighted>
-9.6419

> <Gold.Chemscore.Internal_Hbond.Weighted>
0.0000

> <Gold.Chemscore.DEClash.Weighted>
0.1272

> <Gold.Chemscore.DEInternal.Weighted>
0.1718

> <Gold.Chemscore.Rot.Weighted>
3.9233

> <Gold.Chemscore.Internal.Correction.Weighted>
   9.000000E+99

> <Gold.Protein.RotatedTorsions>
[ 6907 6896 6895 6894 ] final -144.65 input  -60.11 | X-H torsion
[ 7974 7965 7964 7962 ] final  -20.80 input  175.53 | X-H torsion
[ 8008 7997 7996 7995 ] final  -72.58 input   59.86 | X-H torsion
[ 10167 10162 10161 10158 ] final  148.76 input  -65.29 | X-H torsion
[ 10718 10713 10712 10709 ] final  146.30 input   66.30 | X-H torsion
[ 10763 10752 10751 10750 ] final  106.68 input  -60.55 | X-H torsion
[ 11005 11000 10999 10996 ] final   33.46 input  -57.11 | X-H torsion

> <Gold.Protein.ActiveResidues>
 VAL166  LYS551  ARG553  GLY616  TRP617  ASP618  TYR619  PRO620  LYS621  CYS622 
 ASP623  PHE694  ASN695  SER759  ASP760  ASP761  ALA762  ILE779  LEU786  VAL792 
 PHE793  MET794  SER795  GLU796  ALA797  LYS798  CYS799  TRP800  GLU811  SER814 

> <Gold.Protein.RotatedAtoms>
  151.1169  133.5132  159.2603 H   0  0  0  0  0  0  0  0  0  0  0  0  # atno 6907 bound_to 6896
  151.1905  135.0400  159.8840 H   0  0  0  0  0  0  0  0  0  0  0  0  # atno 6908 bound_to 6896
  152.5453  134.1010  159.8371 H   0  0  0  0  0  0  0  0  0  0  0  0  # atno 6909 bound_to 6896
  146.1768  140.4252  142.8510 H   0  0  0  0  0  0  0  0  0  0  0  0  # atno 7974 bound_to 7965
  154.5177  140.0794  156.8113 H   0  0  0  0  0  0  0  0  0  0  0  0  # atno 8008 bound_to 7997
  155.3644  140.3419  155.4223 H   0  0  0  0  0  0  0  0  0  0  0  0  # atno 8009 bound_to 7997
  156.1646  140.1600  156.8540 H   0  0  0  0  0  0  0  0  0  0  0  0  # atno 8010 bound_to 7997
  139.4870  144.5654  151.7154 H   0  0  0  0  0  0  0  0  0  0  0  0  # atno 10167 bound_to 10162
  157.3348  131.0926  151.1132 H   0  0  0  0  0  0  0  0  0  0  0  0  # atno 10718 bound_to 10713
  153.3962  135.3869  155.1957 H   0  0  0  0  0  0  0  0  0  0  0  0  # atno 10763 bound_to 10752
  154.8724  135.3760  154.4675 H   0  0  0  0  0  0  0  0  0  0  0  0  # atno 10764 bound_to 10752
  153.5167  135.7087  153.5814 H   0  0  0  0  0  0  0  0  0  0  0  0  # atno 10765 bound_to 10752
  140.2629  134.3171  155.7852 H   0  0  0  0  0  0  0  0  0  0  0  0  # atno 11005 bound_to 11000
  144.8250  140.6613  143.6328 LP  0  0  0  0  0  0  0  0  0  0  0  0  # atno 17320 bound_to 7965
  145.4188  139.1567  143.4085 LP  0  0  0  0  0  0  0  0  0  0  0  0  # atno 17321 bound_to 7965
  140.5231  144.0847  150.6029 LP  0  0  0  0  0  0  0  0  0  0  0  0  # atno 17342 bound_to 10162
  140.3812  143.2802  152.0168 LP  0  0  0  0  0  0  0  0  0  0  0  0  # atno 17343 bound_to 10162
  157.2367  130.6550  149.5872 LP  0  0  0  0  0  0  0  0  0  0  0  0  # atno 17370 bound_to 10713
  155.9700  130.4581  150.5988 LP  0  0  0  0  0  0  0  0  0  0  0  0  # atno 17371 bound_to 10713
  141.2188  133.7420  156.9215 LP  0  0  0  0  0  0  0  0  0  0  0  0  # atno 17394 bound_to 11000
  140.1447  134.9270  157.2514 LP  0  0  0  0  0  0  0  0  0  0  0  0  # atno 17395 bound_to 11000

$$$$
