AV-unprocessed.smi:3335|AV-procd|sdf|12845|dock6
  -GOLD-   2272019233D 1   1.00000     0.00000
 Structure written by MMmdl.
 46 47  0  0  0  0  0  0  0  0  1 V2000
  146.4571  138.5581  151.6104 C   0  0  0  0  0  0  0  0  0  0  0  0
  146.9104  139.1134  152.9296 C   0  0  0  0  0  0  0  0  0  0  0  0
  146.5069  140.3283  153.5526 C   0  0  0  0  0  0  0  0  0  0  0  0
  147.1000  140.5302  154.7171 N   0  0  0  0  0  0  0  0  0  0  0  0
  147.8994  139.4527  154.8836 N   0  0  0  0  0  0  0  0  0  0  0  0
  148.7337  139.3311  156.0726 C   0  0  2  0  0  0  0  0  0  0  0  0
  147.8824  139.5322  157.3417 C   0  0  0  0  0  0  0  0  0  0  0  0
  149.9628  140.2783  156.0150 C   0  0  2  0  0  0  0  0  0  0  0  0
  150.7871  140.1434  154.7210 C   0  0  0  0  0  0  0  0  0  0  0  0
  150.8585  139.9668  157.1266 N   0  0  0  0  0  0  0  0  0  0  0  0
  151.0983  141.1007  158.0358 C   0  0  2  0  0  0  0  0  0  0  0  0
  151.2768  142.4131  157.2483 C   0  0  0  0  0  0  0  0  0  0  0  0
  152.3470  140.8429  158.9027 C   0  0  0  0  0  0  0  0  0  0  0  0
  153.1198  139.9375  158.5819 O   0  0  0  0  0  0  0  0  0  0  0  0
  152.5723  141.6149  159.9888 N   0  0  0  0  0  0  0  0  0  0  0  0
  151.6870  142.7077  160.3903 C   0  0  0  0  0  0  0  0  0  0  0  0
  152.4170  143.4476  161.5112 C   0  0  0  0  0  0  0  0  0  0  0  0
  153.3373  142.3951  162.1112 C   0  0  0  0  0  0  0  0  0  0  0  0
  153.6841  141.4870  160.9314 C   0  0  0  0  0  0  0  0  0  0  0  0
  147.8029  138.5829  153.8174 C   0  0  0  0  0  0  0  0  0  0  0  0
  146.0088  139.3265  150.9802 H   0  0  0  0  0  0  0  0  0  0  0  0
  145.7122  137.7731  151.7402 H   0  0  0  0  0  0  0  0  0  0  0  0
  147.2857  138.1268  151.0484 H   0  0  0  0  0  0  0  0  0  0  0  0
  145.8052  141.0665  153.1932 H   0  0  0  0  0  0  0  0  0  0  0  0
  149.1000  138.3031  156.0858 H   0  0  0  0  0  0  0  0  0  0  0  0
  148.4489  139.2975  158.2428 H   0  0  0  0  0  0  0  0  0  0  0  0
  147.0075  138.8818  157.3328 H   0  0  0  0  0  0  0  0  0  0  0  0
  147.5322  140.5609  157.4308 H   0  0  0  0  0  0  0  0  0  0  0  0
  149.6108  141.3096  156.0707 H   0  0  0  0  0  0  0  0  0  0  0  0
  150.2121  140.4439  153.8451 H   0  0  0  0  0  0  0  0  0  0  0  0
  151.1179  139.1160  154.5647 H   0  0  0  0  0  0  0  0  0  0  0  0
  151.6736  140.7784  154.7514 H   0  0  0  0  0  0  0  0  0  0  0  0
  151.7246  139.5827  156.7765 H   0  0  0  0  0  0  0  0  0  0  0  0
  150.2292  141.1922  158.6862 H   0  0  0  0  0  0  0  0  0  0  0  0
  151.4848  143.2504  157.9153 H   0  0  0  0  0  0  0  0  0  0  0  0
  150.3803  142.6711  156.6846 H   0  0  0  0  0  0  0  0  0  0  0  0
  152.1024  142.3435  156.5388 H   0  0  0  0  0  0  0  0  0  0  0  0
  151.4562  143.3763  159.5595 H   0  0  0  0  0  0  0  0  0  0  0  0
  150.7494  142.2876  160.7574 H   0  0  0  0  0  0  0  0  0  0  0  0
  153.0143  144.2564  161.0881 H   0  0  0  0  0  0  0  0  0  0  0  0
  151.7370  143.8828  162.2441 H   0  0  0  0  0  0  0  0  0  0  0  0
  154.2185  142.8247  162.5885 H   0  0  0  0  0  0  0  0  0  0  0  0
  152.7939  141.8237  162.8649 H   0  0  0  0  0  0  0  0  0  0  0  0
  153.8317  140.4582  161.2626 H   0  0  0  0  0  0  0  0  0  0  0  0
  154.6011  141.8270  160.4479 H   0  0  0  0  0  0  0  0  0  0  0  0
  148.3751  137.6678  153.7765 H   0  0  0  0  0  0  0  0  0  0  0  0
  1  2  1  0  0  0  0
  1 21  1  0  0  0  0
  1 22  1  0  0  0  0
  1 23  1  0  0  0  0
  2 20  2  0  0  0  0
  2  3  1  0  0  0  0
  3  4  2  0  0  0  0
  3 24  1  0  0  0  0
  4  5  1  0  0  0  0
  5  6  1  0  0  0  0
  5 20  1  0  0  0  0
  6  7  1  0  0  0  0
  6  8  1  0  0  0  0
  6 25  1  0  0  0  0
  7 26  1  0  0  0  0
  7 27  1  0  0  0  0
  7 28  1  0  0  0  0
  8  9  1  0  0  0  0
  8 10  1  0  0  0  0
  8 29  1  0  0  0  0
  9 30  1  0  0  0  0
  9 31  1  0  0  0  0
  9 32  1  0  0  0  0
 10 11  1  0  0  0  0
 10 33  1  0  0  0  0
 11 12  1  0  0  0  0
 11 13  1  0  0  0  0
 11 34  1  0  0  0  0
 12 35  1  0  0  0  0
 12 36  1  0  0  0  0
 12 37  1  0  0  0  0
 13 14  2  0  0  0  0
 13 15  1  0  0  0  0
 15 19  1  0  0  0  0
 15 16  1  0  0  0  0
 16 17  1  0  0  0  0
 16 38  1  0  0  0  0
 16 39  1  0  0  0  0
 17 18  1  0  0  0  0
 17 40  1  0  0  0  0
 17 41  1  0  0  0  0
 18 19  1  0  0  0  0
 18 42  1  0  0  0  0
 18 43  1  0  0  0  0
 19 44  1  0  0  0  0
 19 45  1  0  0  0  0
 20 46  1  0  0  0  0
M  END
> <s_m_source_file>
AV-unprocessed.smi

> <i_m_source_file_index>
3335

> <i_lp_mmshare_version>
43012

> <i_f3d_flags>
0

> <s_epik_input>
W0NIM11jMVtjSF1ubihbY0hdMSlbQ0BIXShbQ0gzXSlbQ0BIXShbQ0gzXSlbTkhdW0NASF0oW0NIM10pQyg9TylOMltDSDJdW0NIMl1bQ0gyXVtDSDJdMg==

> <s_epik_cmdline>
J2VwaWtfcHl0aG9uJywgJy1waCcsICc3LjAnLCAnLXRuJywgJzgnLCAnLW1hJywgJzIwMCcsICctbWV0YWxfYmluZGluZycsICctaW1hZScsICc8aW5maWxlLm1hZT4nLCAnLW9tYWUnLCAnPG91dGZpbGUubWFlPic=

> <r_lp_tautomer_probability>
1

> <r_epik_Ionization_Penalty>
0.918803

> <r_epik_Ionization_Penalty_Charging>
0

> <r_epik_Ionization_Penalty_Neutral>
0.918803

> <r_epik_State_Penalty>
0.958258

> <r_epik_Charging_Adjusted_Penalty>
0.958258

> <i_epik_Tot_Q>
0

> <i_epik_Tot_abs_Q>
0

> <r_epik_Metal_State_Penalty>
0.956786

> <b_epik_Metal_Only>
0

> <s_lp_Force_Field>
OPLS_2005

> <r_lp_Energy>
39.0848

> <b_lp_Chiralities_Consistent>
1

> <s_lp_Variant>
AV-unprocessed.smi:3335-9

> <Gold.Version>
5.8.1

> <Gold.Id.Protein>
6NUR|6NUR_protein|mol2

> <Gold.PLP.Fitness>
39.6665

> <Gold.PLP.PLP>
-33.8826

> <Gold.PLP.part.hbond>
-1.0000

> <Gold.PLP.part.metal>
0.0000

> <Gold.PLP.part.buried>
1.6078

> <Gold.PLP.part.nonpolar>
-34.5212

> <Gold.PLP.part.repulsive>
0.0820

> <Gold.PLP.ligand.clash>
0.0000

> <Gold.PLP.ligand.torsion>
1.5033

> <Gold.PLP.Chemscore.Hbond>
1.0000

> <Gold.PLP.Chemscore.CHOScore>
1.8857

> <Gold.PLP.Chemscore.Metal>
0.0000

> <Gold.Chemscore.Hbonds>
donor molecule, donor type, donor heavy atom, donor atom, acceptor molecule, acceptor atom, score
      P1  H  7997  8008       L1    14  0.70
      L1  C     3    24       P1 10175  0.85
      L1  C    20    46       P1  7948  1.00

> <Gold.PLP.Chemscore.Internal.Correction>
0.1333

> <Gold.Rescore>
     Score         DG    S(hbond)    S(metal)    S(lipo)     H(rot)  DE(clash)    DE(int)     intcor
     13.39     -16.60       0.91        0.00     104.46       1.62       1.65       1.56       ----

> <Gold.Chemscore.Fitness>
13.3897

> <Gold.Chemscore.DG>
-16.6004

> <Gold.Chemscore.ZeroCoef>
-5.4800

> <Gold.Chemscore.Hbond>
0.9122

> <Gold.Chemscore.Metal>
0.0000

> <Gold.Chemscore.Lipo>
104.4593

> <Gold.Chemscore.Internal_Hbond>
0.0000

> <Gold.Chemscore.DEClash>
1.6508

> <Gold.Chemscore.DEInternal>
1.5599

> <Gold.Chemscore.Rot>
1.6204

> <Gold.Chemscore.Internal.Correction>
   9.000000E+99

> <Gold.Chemscore.Hbonds>
donor molecule, donor type, donor heavy atom, donor atom, acceptor molecule, acceptor atom, score
      P1  H  7997  8008       L1    14  0.69

> <Gold.Chemscore.Hbond.Weighted>
-3.0468

> <Gold.Chemscore.Metal.Weighted>
-0.0000

> <Gold.Chemscore.Lipo.Weighted>
-12.2217

> <Gold.Chemscore.Internal_Hbond.Weighted>
0.0000

> <Gold.Chemscore.DEClash.Weighted>
1.6508

> <Gold.Chemscore.DEInternal.Weighted>
1.5599

> <Gold.Chemscore.Rot.Weighted>
4.1482

> <Gold.Chemscore.Internal.Correction.Weighted>
   9.000000E+99

> <Gold.Protein.RotatedTorsions>
[ 6907 6896 6895 6894 ] final   88.50 input  -60.11 | X-H torsion
[ 7974 7965 7964 7962 ] final  -88.57 input  175.53 | X-H torsion
[ 8008 7997 7996 7995 ] final  -96.16 input   59.86 | X-H torsion
[ 10167 10162 10161 10158 ] final -143.44 input  -65.29 | X-H torsion
[ 10718 10713 10712 10709 ] final  -96.13 input   66.30 | X-H torsion
[ 10763 10752 10751 10750 ] final   94.28 input  -60.55 | X-H torsion
[ 11005 11000 10999 10996 ] final  128.58 input  -57.11 | X-H torsion

> <Gold.Protein.ActiveResidues>
 VAL166  LYS551  ARG553  GLY616  TRP617  ASP618  TYR619  PRO620  LYS621  CYS622 
 ASP623  PHE694  ASN695  SER759  ASP760  ASP761  ALA762  ILE779  LEU786  VAL792 
 PHE793  MET794  SER795  GLU796  ALA797  LYS798  CYS799  TRP800  GLU811  SER814 

> <Gold.Protein.RotatedAtoms>
  152.5426  134.2112  159.8750 H   0  0  0  0  0  0  0  0  0  0  0  0  # atno 6907 bound_to 6896
  151.2094  133.4557  159.2605 H   0  0  0  0  0  0  0  0  0  0  0  0  # atno 6908 bound_to 6896
  151.0911  134.9929  159.8459 H   0  0  0  0  0  0  0  0  0  0  0  0  # atno 6909 bound_to 6896
  145.4513  140.9560  143.2020 H   0  0  0  0  0  0  0  0  0  0  0  0  # atno 7974 bound_to 7965
  154.7708  140.0474  157.1049 H   0  0  0  0  0  0  0  0  0  0  0  0  # atno 8008 bound_to 7997
  154.9823  140.3103  155.4921 H   0  0  0  0  0  0  0  0  0  0  0  0  # atno 8009 bound_to 7997
  156.2921  140.2233  156.4923 H   0  0  0  0  0  0  0  0  0  0  0  0  # atno 8010 bound_to 7997
  139.7993  143.7856  152.2657 H   0  0  0  0  0  0  0  0  0  0  0  0  # atno 10167 bound_to 10162
  156.0056  130.5138  150.6180 H   0  0  0  0  0  0  0  0  0  0  0  0  # atno 10718 bound_to 10713
  153.2399  135.4295  155.0686 H   0  0  0  0  0  0  0  0  0  0  0  0  # atno 10763 bound_to 10752
  154.8336  135.3400  154.6664 H   0  0  0  0  0  0  0  0  0  0  0  0  # atno 10764 bound_to 10752
  153.7088  135.7024  153.5099 H   0  0  0  0  0  0  0  0  0  0  0  0  # atno 10765 bound_to 10752
  139.9568  134.9611  156.9023 H   0  0  0  0  0  0  0  0  0  0  0  0  # atno 11005 bound_to 11000
  144.8060  139.6051  143.7051 LP  0  0  0  0  0  0  0  0  0  0  0  0  # atno 17320 bound_to 7965
  146.2502  139.6184  142.9432 LP  0  0  0  0  0  0  0  0  0  0  0  0  # atno 17321 bound_to 7965
  139.7971  144.7388  150.9875 LP  0  0  0  0  0  0  0  0  0  0  0  0  # atno 17342 bound_to 10162
  140.7820  143.4382  151.0591 LP  0  0  0  0  0  0  0  0  0  0  0  0  # atno 17343 bound_to 10162
  157.4001  131.0808  151.1316 LP  0  0  0  0  0  0  0  0  0  0  0  0  # atno 17370 bound_to 10713
  157.1981  130.6382  149.5728 LP  0  0  0  0  0  0  0  0  0  0  0  0  # atno 17371 bound_to 10713
  140.5590  134.0553  155.7393 LP  0  0  0  0  0  0  0  0  0  0  0  0  # atno 17394 bound_to 11000
  141.1241  133.9413  157.2671 LP  0  0  0  0  0  0  0  0  0  0  0  0  # atno 17395 bound_to 11000

$$$$
