#       Name:                AV-unprocessed.smi:148
#       Creating user name   scv26
#       Creation time:       Thu Mar 26 18:43:23 2020


#       File generated by GOLD software.
#

@<TRIPOS>MOLECULE
AV-unprocessed.smi:148
    73    77     1
SMALL
NO_CHARGES


@<TRIPOS>ATOM
      1 ****        -2.8461  -4.4510   0.9287 O.3            1 S1                 0.0000
      2 ****        -1.6945  -3.8443   1.4753 C.3            1 S1                 0.0000
      3 ****        -2.0549  -2.6745   2.4277 C.3            1 S1                 0.0000
      4 ****        -0.8374  -1.7436   2.6655 C.3            1 S1                 0.0000
      5 ****        -0.2551  -1.2201   1.4415 N.pl3          1 S1                 0.0000
      6 ****         0.9678  -1.5505   0.9026 C.2            1 S1                 0.0000
      7 ****         1.2631  -0.9472  -0.2161 N.2            1 S1                 0.0000
      8 ****         0.1689  -0.1248  -0.4580 C.ar           1 S1                 0.0000
      9 ****        -0.1768   0.7996  -1.4853 C.ar           1 S1                 0.0000
     10 ****         0.5865   1.0841  -2.5661 N.3            1 S1                 0.0000
     11 ****         0.3579   0.0743  -3.6007 C.3            1 S1                 0.0000
     12 ****         1.0096   0.4692  -4.9324 C.3            1 S1                 0.0000
     13 ****         2.5010   0.7549  -4.7321 C.3            1 S1                 0.0000
     14 ****         2.6802   1.8380  -3.6613 C.3            1 S1                 0.0000
     15 ****         1.9976   1.4388  -2.3248 C.3            1 S1                 0.0000
     16 ****         2.1892   2.5043  -1.1983 C.3            1 S1                 0.0000
     17 ****         3.6692   2.7823  -0.8582 C.3            1 S1                 0.0000
     18 ****         3.9233   4.2461  -1.2210 C.3            1 S1                 0.0000
     19 ****         2.5776   4.9208  -0.9796 C.3            1 S1                 0.0000
     20 ****         1.5574   3.8918  -1.4732 C.3            1 S1                 0.0000
     21 ****         0.3224   4.0599  -0.8082 O.3            1 S1                 0.0000
     22 ****        -1.3773   1.4243  -1.3992 N.ar           1 S1                 0.0000
     23 ****        -2.1838   1.1841  -0.3610 C.ar           1 S1                 0.0000
     24 ****        -1.9920   0.3621   0.6731 N.ar           1 S1                 0.0000
     25 ****        -0.7936  -0.2822   0.5785 C.ar           1 S1                 0.0000
     26 ****        -2.6232  -3.1767   3.7844 C.3            1 S1                 0.0000
     27 ****        -3.0337  -2.0794   4.7529 C.3            1 S1                 0.0000
     28 ****        -3.9273  -2.8267   5.7365 C.3            1 S1                 0.0000
     29 ****        -4.5550  -3.8548   4.9805 O.3            1 S1                 0.0000
     30 ****        -3.9367  -3.9635   3.7026 C.3            1 S1                 0.0000
     31 ****        -2.5745  -5.1430   0.3450 H              1 S1                 0.0000
     32 ****        -1.0954  -4.5945   1.9921 H              1 S1                 0.0000
     33 ****        -1.1055  -3.5048   0.6245 H              1 S1                 0.0000
     34 ****        -2.8241  -2.0738   1.9394 H              1 S1                 0.0000
     35 ****        -1.1190  -0.8862   3.2766 H              1 S1                 0.0000
     36 ****        -0.0619  -2.2763   3.2173 H              1 S1                 0.0000
     37 ****         1.6337  -2.2664   1.3622 H              1 S1                 0.0000
     38 ****         0.7606  -0.8823  -3.2636 H              1 S1                 0.0000
     39 ****        -0.7130  -0.0702  -3.7539 H              1 S1                 0.0000
     40 ****         0.8741  -0.3266  -5.6652 H              1 S1                 0.0000
     41 ****         0.5152   1.3538  -5.3362 H              1 S1                 0.0000
     42 ****         3.0177  -0.1565  -4.4288 H              1 S1                 0.0000
     43 ****         2.9528   1.0750  -5.6713 H              1 S1                 0.0000
     44 ****         3.7453   2.0155  -3.5191 H              1 S1                 0.0000
     45 ****         2.2669   2.7690  -4.0465 H              1 S1                 0.0000
     46 ****         2.4966   0.5292  -1.9900 H              1 S1                 0.0000
     47 ****         1.7615   2.1121  -0.2749 H              1 S1                 0.0000
     48 ****         3.8191   2.6530   0.2148 H              1 S1                 0.0000
     49 ****         4.3685   2.1058  -1.3490 H              1 S1                 0.0000
     50 ****         4.7280   4.6902  -0.6345 H              1 S1                 0.0000
     51 ****         4.1928   4.3265  -2.2749 H              1 S1                 0.0000
     52 ****         2.4529   5.0996   0.0899 H              1 S1                 0.0000
     53 ****         2.4881   5.8799  -1.4908 H              1 S1                 0.0000
     54 ****         1.3888   4.0475  -2.5369 H              1 S1                 0.0000
     55 ****        -0.2845   3.4126  -1.1353 H              1 S1                 0.0000
     56 ****        -3.1178   1.7265  -0.3598 H              1 S1                 0.0000
     57 ****        -1.8773  -3.8031   4.2765 H              1 S1                 0.0000
     58 ****        -2.1893  -1.6005   5.2491 H              1 S1                 0.0000
     59 ****        -3.6082  -1.3096   4.2353 H              1 S1                 0.0000
     60 ****        -3.3266  -3.2909   6.5195 H              1 S1                 0.0000
     61 ****        -4.6606  -2.1753   6.2124 H              1 S1                 0.0000
     62 ****        -4.6067  -3.5224   2.9633 H              1 S1                 0.0000
     63 ****        -3.7820  -5.0095   3.4377 H              1 S1                 0.0000
     64 ****        -3.3764  -3.7714   0.4217 LP             1 S1                 0.0000
     65 ****        -3.4075  -4.8313   1.6637 LP             1 S1                 0.0000
     66 ****         2.0876  -1.0524  -0.7720 LP             1 S1                 0.0000
     67 ****         0.2693   1.9685  -2.9084 LP             1 S1                 0.0000
     68 ****        -0.0344   4.9771  -0.9857 LP             1 S1                 0.0000
     69 ****         0.4495   3.9364   0.1760 LP             1 S1                 0.0000
     70 ****        -1.6593   2.0652  -2.1131 LP             1 S1                 0.0000
     71 ****        -2.6434   0.2350   1.4212 LP             1 S1                 0.0000
     72 ****        -5.5235  -3.6354   4.8626 LP             1 S1                 0.0000
     73 ****        -4.4670  -4.7244   5.4664 LP             1 S1                 0.0000
@<TRIPOS>BOND
    1    1    2 1     
    2    1   31 1     
    3    2    3 1     
    4    2   32 1     
    5    2   33 1     
    6    3    4 1     
    7    3   26 1     
    8    3   34 1     
    9    4    5 1     
   10    4   35 1     
   11    4   36 1     
   12    5   25 1     
   13    5    6 1     
   14    6    7 2     
   15    6   37 1     
   16    7    8 1     
   17    8   25 ar    
   18    8    9 ar    
   19    9   10 1     
   20    9   22 ar    
   21   10   15 1     
   22   10   11 1     
   23   11   12 1     
   24   11   38 1     
   25   11   39 1     
   26   12   13 1     
   27   12   40 1     
   28   12   41 1     
   29   13   14 1     
   30   13   42 1     
   31   13   43 1     
   32   14   15 1     
   33   14   44 1     
   34   14   45 1     
   35   15   16 1     
   36   15   46 1     
   37   16   20 1     
   38   16   17 1     
   39   16   47 1     
   40   17   18 1     
   41   17   48 1     
   42   17   49 1     
   43   18   19 1     
   44   18   50 1     
   45   18   51 1     
   46   19   20 1     
   47   19   52 1     
   48   19   53 1     
   49   20   21 1     
   50   20   54 1     
   51   21   55 1     
   52   22   23 ar    
   53   23   24 ar    
   54   23   56 1     
   55   24   25 ar    
   56   26   30 1     
   57   26   27 1     
   58   26   57 1     
   59   27   28 1     
   60   27   58 1     
   61   27   59 1     
   62   28   29 1     
   63   28   60 1     
   64   28   61 1     
   65   29   30 1     
   66   30   62 1     
   67   30   63 1     
   68    1   64 1     
   69    1   65 1     
   70    7   66 1     
   71   10   67 1     
   72   21   68 1     
   73   21   69 1     
   74   22   70 1     
   75   24   71 1     
   76   29   72 1     
   77   29   73 1     
@<TRIPOS>SUBSTRUCTURE
      1 S1             1
@<TRIPOS>SET
LONE_PAIRS      STATIC     ATOMS    <user>   **** ""
10 64 65 66 67 68 69 70 71 72 73
DONOR_HYDROGENS      STATIC     ATOMS    <user>   **** ""
2 31 55
ATOM$BLUE        STATIC     ATOMS    COLORGROUP SYSTEM
10 64 65 66 67 68 69 70 71 72 73
ATOM$RED        STATIC     ATOMS    COLORGROUP SYSTEM
2 31 55
