AV-unprocessed.smi:1718|AV-procd|sdf|6927|dock7
  -GOLD-   22720 8133D 1   1.00000     0.00000
 Structure written by MMmdl.
 39 40  0  0  0  0  0  0  0  0  2 V2000
  147.9489  140.5096  155.6126 C   0  0  0  0  0  0  0  0  0  0  0  0
  149.0107  139.9383  156.5642 C   0  0  1  0  0  0  0  0  0  0  0  0
  149.5586  141.0309  157.2969 O   0  0  0  0  0  0  0  0  0  0  0  0
  150.5636  141.7788  156.6212 C   0  0  0  0  0  0  0  0  0  0  0  0
  151.5942  142.2564  157.6509 C   0  0  2  0  0  0  0  0  0  0  0  0
  151.8136  141.2910  158.8134 C   0  0  0  0  0  0  0  0  0  0  0  0
  152.3777  142.2161  159.8676 C   0  0  0  0  0  0  0  0  0  0  0  0
  151.5795  143.4972  159.6315 C   0  0  0  0  0  0  0  0  0  0  0  0
  151.1642  143.4660  158.2673 O   0  0  0  0  0  0  0  0  0  0  0  0
  148.4051  138.9010  157.5241 C   0  0  0  0  0  0  0  0  0  0  0  0
  147.4355  139.2117  158.2159 O   0  0  0  0  0  0  0  0  0  0  0  0
  149.0079  137.6957  157.5251 N   0  0  0  0  0  0  0  0  0  0  0  0
  148.7377  136.5605  158.3079 C   0  0  0  0  0  0  0  0  0  0  0  0
  148.1164  136.5815  159.5196 C   0  0  0  0  0  0  0  0  0  0  0  0
  147.8790  135.3712  160.2960 C   0  0  0  0  0  0  0  0  0  0  0  0
  147.1030  135.3455  161.6010 C   0  0  0  0  0  0  0  0  0  0  0  0
  147.7686  135.9789  162.5669 F   0  0  0  0  0  0  0  0  0  0  0  0
  145.9271  135.9507  161.4419 F   0  0  0  0  0  0  0  0  0  0  0  0
  146.8759  134.0934  161.9979 F   0  0  0  0  0  0  0  0  0  0  0  0
  148.3448  134.2388  159.6567 C   0  0  0  0  0  0  0  0  0  0  0  0
  148.9927  134.1343  158.4758 N   0  5  0  0  0  0  0  0  0  0  0  0
  149.2113  135.2728  157.7592 C   0  0  0  0  0  0  0  0  0  0  0  0
  149.7918  135.2493  156.6733 O   0  0  0  0  0  0  0  0  0  0  0  0
  147.4772  139.7207  155.0257 H   0  0  0  0  0  0  0  0  0  0  0  0
  148.3978  141.2155  154.9136 H   0  0  0  0  0  0  0  0  0  0  0  0
  147.1652  141.0393  156.1556 H   0  0  0  0  0  0  0  0  0  0  0  0
  149.7956  139.4765  155.9618 H   0  0  0  0  0  0  0  0  0  0  0  0
  151.0633  141.1632  155.8727 H   0  0  0  0  0  0  0  0  0  0  0  0
  150.1229  142.6310  156.1020 H   0  0  0  0  0  0  0  0  0  0  0  0
  152.5473  142.4575  157.1587 H   0  0  0  0  0  0  0  0  0  0  0  0
  150.8650  140.8718  159.1523 H   0  0  0  0  0  0  0  0  0  0  0  0
  152.4830  140.4677  158.5624 H   0  0  0  0  0  0  0  0  0  0  0  0
  152.2732  141.8284  160.8812 H   0  0  0  0  0  0  0  0  0  0  0  0
  153.4370  142.3936  159.6774 H   0  0  0  0  0  0  0  0  0  0  0  0
  150.6909  143.5182  160.2632 H   0  0  0  0  0  0  0  0  0  0  0  0
  152.1670  144.3904  159.8452 H   0  0  0  0  0  0  0  0  0  0  0  0
  149.7468  137.5658  156.8490 H   0  0  0  0  0  0  0  0  0  0  0  0
  147.7951  137.5103  159.9610 H   0  0  0  0  0  0  0  0  0  0  0  0
  148.1664  133.2698  160.1701 H   0  0  0  0  0  0  0  0  0  0  0  0
  1  2  1  0  0  0  0
  1 24  1  0  0  0  0
  1 25  1  0  0  0  0
  1 26  1  0  0  0  0
  2  3  1  0  0  0  0
  2 10  1  0  0  0  0
  2 27  1  0  0  0  0
  3  4  1  0  0  0  0
  4  5  1  0  0  0  0
  4 28  1  0  0  0  0
  4 29  1  0  0  0  0
  5  9  1  0  0  0  0
  5  6  1  0  0  0  0
  5 30  1  0  0  0  0
  6  7  1  0  0  0  0
  6 31  1  0  0  0  0
  6 32  1  0  0  0  0
  7  8  1  0  0  0  0
  7 33  1  0  0  0  0
  7 34  1  0  0  0  0
  8  9  1  0  0  0  0
  8 35  1  0  0  0  0
  8 36  1  0  0  0  0
 10 11  2  0  0  0  0
 10 12  1  0  0  0  0
 12 13  1  0  0  0  0
 12 37  1  0  0  0  0
 13 22  1  0  0  0  0
 13 14  2  0  0  0  0
 14 15  1  0  0  0  0
 14 38  1  0  0  0  0
 15 16  1  0  0  0  0
 15 20  2  0  0  0  0
 16 17  1  0  0  0  0
 16 18  1  0  0  0  0
 16 19  1  0  0  0  0
 20 21  1  0  0  0  0
 20 39  1  0  0  0  0
 21 22  1  0  0  0  0
 22 23  2  0  0  0  0
M  CHG  1  21  -1
M  END
> <s_m_source_file>
AV-unprocessed.smi

> <i_m_source_file_index>
1718

> <i_lp_mmshare_version>
43012

> <i_f3d_flags>
0

> <s_epik_input>
TzFbQ0gyXVtDSDJdW0NIMl1bQ0BIXTFbQ0gyXU9bQ0BASF0oW0NIM10pQyg9TylbTkhdYzJbY0hdYyhDKEYpKEYpRilbY0hdW25IXWMyPU8=

> <s_epik_cmdline>
J2VwaWtfcHl0aG9uJywgJy1waCcsICc3LjAnLCAnLXRuJywgJzgnLCAnLW1hJywgJzIwMCcsICctbWV0YWxfYmluZGluZycsICctaW1hZScsICc8aW5maWxlLm1hZT4nLCAnLW9tYWUnLCAnPG91dGZpbGUubWFlPic=

> <r_epik_Ionization_Penalty>
2.5466

> <r_epik_Ionization_Penalty_Charging>
0.0575837

> <r_epik_Ionization_Penalty_Neutral>
2.48901

> <r_epik_State_Penalty>
2.6532

> <r_epik_Charging_Adjusted_Penalty>
2.71078

> <i_epik_Tot_Q>
-1

> <i_epik_Tot_abs_Q>
1

> <r_epik_Metal_State_Penalty>
0.516196

> <b_epik_Metal_Only>
0

> <s_lp_Force_Field>
OPLS_2005

> <r_lp_Energy>
37.0387

> <b_lp_Chiralities_Consistent>
1

> <s_lp_Variant>
AV-unprocessed.smi:1718-6

> <Gold.Version>
5.8.1

> <Gold.Id.Protein>
6NUR|6NUR_protein|mol2

> <Gold.PLP.Fitness>
40.3794

> <Gold.PLP.PLP>
-36.3043

> <Gold.PLP.part.hbond>
-2.0000

> <Gold.PLP.part.metal>
0.0000

> <Gold.PLP.part.buried>
-4.2922

> <Gold.PLP.part.nonpolar>
-29.5756

> <Gold.PLP.part.repulsive>
0.2710

> <Gold.PLP.ligand.clash>
0.0000

> <Gold.PLP.ligand.torsion>
1.0244

> <Gold.PLP.Chemscore.Hbond>
2.0000

> <Gold.PLP.Chemscore.CHOScore>
0.0000

> <Gold.PLP.Chemscore.Metal>
0.0000

> <Gold.Chemscore.Hbonds>
donor molecule, donor type, donor heavy atom, donor atom, acceptor molecule, acceptor atom, score
      P1  H  6896  6908       L1    21  0.67

> <Gold.PLP.Chemscore.Internal.Correction>
0.1238

> <Gold.Rescore>
     Score         DG    S(hbond)    S(metal)    S(lipo)     H(rot)  DE(clash)    DE(int)     intcor
     10.37     -12.40       0.73        0.00      78.59       1.85       0.02       2.01       ----

> <Gold.Chemscore.Fitness>
10.3665

> <Gold.Chemscore.DG>
-12.3970

> <Gold.Chemscore.ZeroCoef>
-5.4800

> <Gold.Chemscore.Hbond>
0.7325

> <Gold.Chemscore.Metal>
0.0000

> <Gold.Chemscore.Lipo>
78.5889

> <Gold.Chemscore.Internal_Hbond>
0.0000

> <Gold.Chemscore.DEClash>
0.0186

> <Gold.Chemscore.DEInternal>
2.0120

> <Gold.Chemscore.Rot>
1.8455

> <Gold.Chemscore.Internal.Correction>
   9.000000E+99

> <Gold.Chemscore.Hbond.Weighted>
-2.4466

> <Gold.Chemscore.Metal.Weighted>
-0.0000

> <Gold.Chemscore.Lipo.Weighted>
-9.1949

> <Gold.Chemscore.Internal_Hbond.Weighted>
0.0000

> <Gold.Chemscore.DEClash.Weighted>
0.0186

> <Gold.Chemscore.DEInternal.Weighted>
2.0120

> <Gold.Chemscore.Rot.Weighted>
4.7245

> <Gold.Chemscore.Internal.Correction.Weighted>
   9.000000E+99

> <Gold.Protein.RotatedTorsions>
[ 6907 6896 6895 6894 ] final  146.89 input  -60.11 | X-H torsion
[ 7974 7965 7964 7962 ] final   67.12 input  175.53 | X-H torsion
[ 8008 7997 7996 7995 ] final -140.92 input   59.86 | X-H torsion
[ 10167 10162 10161 10158 ] final   81.13 input  -65.29 | X-H torsion
[ 10718 10713 10712 10709 ] final   98.06 input   66.30 | X-H torsion
[ 10763 10752 10751 10750 ] final   74.48 input  -60.55 | X-H torsion
[ 11005 11000 10999 10996 ] final  170.32 input  -57.11 | X-H torsion

> <Gold.Protein.ActiveResidues>
 VAL166  LYS551  ARG553  GLY616  TRP617  ASP618  TYR619  PRO620  LYS621  CYS622 
 ASP623  PHE694  ASN695  SER759  ASP760  ASP761  ALA762  ILE779  LEU786  VAL792 
 PHE793  MET794  SER795  GLU796  ALA797  LYS798  CYS799  TRP800  GLU811  SER814 

> <Gold.Protein.RotatedAtoms>
  152.1620  133.4588  159.4865 H   0  0  0  0  0  0  0  0  0  0  0  0  # atno 6907 bound_to 6896
  150.6908  134.2060  159.4349 H   0  0  0  0  0  0  0  0  0  0  0  0  # atno 6908 bound_to 6896
  151.9962  134.9952  160.0614 H   0  0  0  0  0  0  0  0  0  0  0  0  # atno 6909 bound_to 6896
  145.8185  139.3071  143.1057 H   0  0  0  0  0  0  0  0  0  0  0  0  # atno 7974 bound_to 7965
  155.4692  140.0551  157.2981 H   0  0  0  0  0  0  0  0  0  0  0  0  # atno 8008 bound_to 7997
  154.4705  140.2038  155.9961 H   0  0  0  0  0  0  0  0  0  0  0  0  # atno 8009 bound_to 7997
  156.1048  140.3213  155.7995 H   0  0  0  0  0  0  0  0  0  0  0  0  # atno 8010 bound_to 7997
  139.9425  144.6080  150.8238 H   0  0  0  0  0  0  0  0  0  0  0  0  # atno 10167 bound_to 10162
  157.6902  131.0628  150.4739 H   0  0  0  0  0  0  0  0  0  0  0  0  # atno 10718 bound_to 10713
  153.0590  135.5024  154.8049 H   0  0  0  0  0  0  0  0  0  0  0  0  # atno 10763 bound_to 10752
  154.6852  135.2975  154.9559 H   0  0  0  0  0  0  0  0  0  0  0  0  # atno 10764 bound_to 10752
  154.0332  135.6727  153.4835 H   0  0  0  0  0  0  0  0  0  0  0  0  # atno 10765 bound_to 10752
  140.3071  134.7548  157.3962 H   0  0  0  0  0  0  0  0  0  0  0  0  # atno 11005 bound_to 11000
  145.9701  140.8767  143.0167 LP  0  0  0  0  0  0  0  0  0  0  0  0  # atno 17320 bound_to 7965
  144.6750  140.1933  143.7394 LP  0  0  0  0  0  0  0  0  0  0  0  0  # atno 17321 bound_to 7965
  140.7607  143.3156  151.2740 LP  0  0  0  0  0  0  0  0  0  0  0  0  # atno 17342 bound_to 10162
  139.6693  144.0049  152.2743 LP  0  0  0  0  0  0  0  0  0  0  0  0  # atno 17343 bound_to 10162
  156.5075  130.4131  149.6319 LP  0  0  0  0  0  0  0  0  0  0  0  0  # atno 17370 bound_to 10713
  156.3271  130.7311  151.2234 LP  0  0  0  0  0  0  0  0  0  0  0  0  # atno 17371 bound_to 10713
  140.1058  134.5412  155.8311 LP  0  0  0  0  0  0  0  0  0  0  0  0  # atno 17394 bound_to 11000
  141.2116  133.6709  156.6595 LP  0  0  0  0  0  0  0  0  0  0  0  0  # atno 17395 bound_to 11000

$$$$
