AV-unprocessed.smi:573|AV-procd|sdf|2972|dock5
  -GOLD-   2262023483D 1   1.00000     0.00000
 Structure written by MMmdl.
 44 46  0  0  0  0  0  0  0  0  1 V2000
  153.4301  136.3259  161.5828 C   0  0  0  0  0  0  0  0  0  0  0  0
  152.9434  137.2626  160.4666 C   0  0  1  0  0  0  0  0  0  0  0  0
  151.5809  136.9839  160.2245 O   0  0  0  0  0  0  0  0  0  0  0  0
  153.0710  138.7553  160.8165 C   0  0  0  0  0  0  0  0  0  0  0  0
  152.6389  139.6169  159.7311 N   0  0  0  0  0  0  0  0  0  0  0  0
  152.3631  140.9779  159.6701 C   0  0  0  0  0  0  0  0  0  0  0  0
  152.4577  141.8050  160.7097 N   0  0  0  0  0  0  0  0  0  0  0  0
  152.0831  143.0148  160.1560 C   0  0  0  0  0  0  0  0  0  0  0  0
  151.9733  144.2966  160.7415 C   0  0  0  0  0  0  0  0  0  0  0  0
  151.5626  145.4020  159.9680 C   0  0  0  0  0  0  0  0  0  0  0  0
  151.2545  145.2426  158.6014 C   0  0  0  0  0  0  0  0  0  0  0  0
  151.3565  143.9746  157.9975 C   0  0  0  0  0  0  0  0  0  0  0  0
  151.7695  142.8743  158.7725 C   0  0  0  0  0  0  0  0  0  0  0  0
  151.9694  141.5249  158.4962 N   0  0  0  0  0  0  0  0  0  0  0  0
  151.7788  140.8617  157.2141 C   0  0  0  0  0  0  0  0  0  0  0  0
  150.5386  141.3912  156.4755 C   0  0  2  0  0  0  0  0  0  0  0  0
  149.2378  141.1189  157.2538 C   0  0  0  0  0  0  0  0  0  0  0  0
  148.0232  141.6044  156.4542 C   0  0  0  0  0  0  0  0  0  0  0  0
  148.0543  140.9978  155.0470 C   0  0  0  0  0  0  0  0  0  0  0  0
  149.4128  141.2639  154.3786 C   0  0  0  0  0  0  0  0  0  0  0  0
  150.4637  140.7617  155.1974 O   0  0  0  0  0  0  0  0  0  0  0  0
  154.4960  136.4539  161.7711 H   0  0  0  0  0  0  0  0  0  0  0  0
  153.2719  135.2809  161.3144 H   0  0  0  0  0  0  0  0  0  0  0  0
  152.9018  136.5144  162.5180 H   0  0  0  0  0  0  0  0  0  0  0  0
  153.4921  137.0514  159.5477 H   0  0  0  0  0  0  0  0  0  0  0  0
  151.0589  137.4931  160.8254 H   0  0  0  0  0  0  0  0  0  0  0  0
  152.4536  138.9876  161.6848 H   0  0  0  0  0  0  0  0  0  0  0  0
  154.0989  138.9995  161.0881 H   0  0  0  0  0  0  0  0  0  0  0  0
  152.5476  139.1353  158.8485 H   0  0  0  0  0  0  0  0  0  0  0  0
  152.2045  144.4290  161.7880 H   0  0  0  0  0  0  0  0  0  0  0  0
  151.4821  146.3767  160.4260 H   0  0  0  0  0  0  0  0  0  0  0  0
  150.9391  146.0943  158.0168 H   0  0  0  0  0  0  0  0  0  0  0  0
  151.1176  143.8488  156.9519 H   0  0  0  0  0  0  0  0  0  0  0  0
  152.6724  141.0124  156.6077 H   0  0  0  0  0  0  0  0  0  0  0  0
  151.6994  139.7863  157.3782 H   0  0  0  0  0  0  0  0  0  0  0  0
  150.6522  142.4674  156.3314 H   0  0  0  0  0  0  0  0  0  0  0  0
  149.1422  140.0500  157.4490 H   0  0  0  0  0  0  0  0  0  0  0  0
  149.2665  141.6133  158.2254 H   0  0  0  0  0  0  0  0  0  0  0  0
  147.0979  141.3360  156.9647 H   0  0  0  0  0  0  0  0  0  0  0  0
  148.0398  142.6929  156.3856 H   0  0  0  0  0  0  0  0  0  0  0  0
  147.8844  139.9222  155.1080 H   0  0  0  0  0  0  0  0  0  0  0  0
  147.2472  141.4091  154.4403 H   0  0  0  0  0  0  0  0  0  0  0  0
  149.4568  140.7679  153.4089 H   0  0  0  0  0  0  0  0  0  0  0  0
  149.5565  142.3301  154.1976 H   0  0  0  0  0  0  0  0  0  0  0  0
  1  2  1  0  0  0  0
  1 22  1  0  0  0  0
  1 23  1  0  0  0  0
  1 24  1  0  0  0  0
  2  3  1  0  0  0  0
  2  4  1  0  0  0  0
  2 25  1  0  0  0  0
  3 26  1  0  0  0  0
  4  5  1  0  0  0  0
  4 27  1  0  0  0  0
  4 28  1  0  0  0  0
  5  6  1  0  0  0  0
  5 29  1  0  0  0  0
  6 14  1  0  0  0  0
  6  7  2  0  0  0  0
  7  8  1  0  0  0  0
  8 13  2  0  0  0  0
  8  9  1  0  0  0  0
  9 10  2  0  0  0  0
  9 30  1  0  0  0  0
 10 11  1  0  0  0  0
 10 31  1  0  0  0  0
 11 12  2  0  0  0  0
 11 32  1  0  0  0  0
 12 13  1  0  0  0  0
 12 33  1  0  0  0  0
 13 14  1  0  0  0  0
 14 15  1  0  0  0  0
 15 16  1  0  0  0  0
 15 34  1  0  0  0  0
 15 35  1  0  0  0  0
 16 21  1  0  0  0  0
 16 17  1  0  0  0  0
 16 36  1  0  0  0  0
 17 18  1  0  0  0  0
 17 37  1  0  0  0  0
 17 38  1  0  0  0  0
 18 19  1  0  0  0  0
 18 39  1  0  0  0  0
 18 40  1  0  0  0  0
 19 20  1  0  0  0  0
 19 41  1  0  0  0  0
 19 42  1  0  0  0  0
 20 21  1  0  0  0  0
 20 43  1  0  0  0  0
 20 44  1  0  0  0  0
M  END
> <s_m_source_file>
AV-unprocessed.smi

> <i_m_source_file_index>
573

> <i_lp_mmshare_version>
43012

> <i_f3d_flags>
0

> <s_epik_input>
W0NIM11bQ0BIXShbT0hdKVtDSDJdW05IXWMobjEpbihjKGMxMilbY0hdW2NIXVtjSF1bY0hdMilbQ0gyXVtDQEBIXTNbQ0gyXVtDSDJdW0NIMl1bQ0gyXU8z

> <s_epik_cmdline>
J2VwaWtfcHl0aG9uJywgJy1waCcsICc3LjAnLCAnLXRuJywgJzgnLCAnLW1hJywgJzIwMCcsICctbWV0YWxfYmluZGluZycsICctaW1hZScsICc8aW5maWxlLm1hZT4nLCAnLW9tYWUnLCAnPG91dGZpbGUubWFlPic=

> <r_epik_Ionization_Penalty>
1.30635

> <r_epik_Ionization_Penalty_Charging>
0

> <r_epik_Ionization_Penalty_Neutral>
1.30635

> <r_epik_State_Penalty>
1.38073

> <r_epik_Charging_Adjusted_Penalty>
1.38073

> <i_epik_Tot_Q>
0

> <i_epik_Tot_abs_Q>
0

> <r_epik_Metal_State_Penalty>
0.00547412

> <b_epik_Metal_Only>
0

> <s_lp_Force_Field>
OPLS_2005

> <r_lp_Energy>
6.58613

> <b_lp_Chiralities_Consistent>
1

> <s_lp_Variant>
AV-unprocessed.smi:573-6

> <Gold.Version>
5.8.1

> <Gold.Id.Protein>
6NUR|6NUR_protein|mol2

> <Gold.PLP.Fitness>
47.5008

> <Gold.PLP.PLP>
-43.3170

> <Gold.PLP.part.hbond>
-2.0000

> <Gold.PLP.part.metal>
0.0000

> <Gold.PLP.part.buried>
-5.5258

> <Gold.PLP.part.nonpolar>
-33.9795

> <Gold.PLP.part.repulsive>
0.1828

> <Gold.PLP.ligand.clash>
0.0000

> <Gold.PLP.ligand.torsion>
0.3666

> <Gold.PLP.Chemscore.Hbond>
1.6365

> <Gold.PLP.Chemscore.CHOScore>
0.0000

> <Gold.PLP.Chemscore.Metal>
0.0000

> <Gold.Chemscore.Hbonds>
donor molecule, donor type, donor heavy atom, donor atom, acceptor molecule, acceptor atom, score
      P1  H  6896  6907       L1     3  0.70
      P1  H  7989  7998       L1    21  0.20

> <Gold.PLP.Chemscore.Internal.Correction>
0.0076

> <Gold.Rescore>
     Score         DG    S(hbond)    S(metal)    S(lipo)     H(rot)  DE(clash)    DE(int)     intcor
     17.73     -18.20       1.44        0.00     111.72       2.02       0.16       0.31       ----

> <Gold.Chemscore.Fitness>
17.7263

> <Gold.Chemscore.DG>
-18.1981

> <Gold.Chemscore.ZeroCoef>
-5.4800

> <Gold.Chemscore.Hbond>
1.4442

> <Gold.Chemscore.Metal>
0.0000

> <Gold.Chemscore.Lipo>
111.7239

> <Gold.Chemscore.Internal_Hbond>
0.0000

> <Gold.Chemscore.DEClash>
0.1587

> <Gold.Chemscore.DEInternal>
0.3131

> <Gold.Chemscore.Rot>
2.0224

> <Gold.Chemscore.Internal.Correction>
   9.000000E+99

> <Gold.Chemscore.Hbonds>
donor molecule, donor type, donor heavy atom, donor atom, acceptor molecule, acceptor atom, score
      P1  H  6896  6907       L1     3  0.07

> <Gold.Chemscore.Hbond.Weighted>
-4.8238

> <Gold.Chemscore.Metal.Weighted>
-0.0000

> <Gold.Chemscore.Lipo.Weighted>
-13.0717

> <Gold.Chemscore.Internal_Hbond.Weighted>
0.0000

> <Gold.Chemscore.DEClash.Weighted>
0.1587

> <Gold.Chemscore.DEInternal.Weighted>
0.3131

> <Gold.Chemscore.Rot.Weighted>
5.1773

> <Gold.Chemscore.Internal.Correction.Weighted>
   9.000000E+99

> <Gold.Protein.RotatedTorsions>
[ 6907 6896 6895 6894 ] final   18.08 input  -60.11 | X-H torsion
[ 7974 7965 7964 7962 ] final -149.37 input  175.53 | X-H torsion
[ 8008 7997 7996 7995 ] final -139.33 input   59.86 | X-H torsion
[ 10167 10162 10161 10158 ] final -178.43 input  -65.29 | X-H torsion
[ 10718 10713 10712 10709 ] final  -16.47 input   66.30 | X-H torsion
[ 10763 10752 10751 10750 ] final  120.98 input  -60.55 | X-H torsion
[ 11005 11000 10999 10996 ] final  170.85 input  -57.11 | X-H torsion

> <Gold.Protein.ActiveResidues>
 VAL166  LYS551  ARG553  GLY616  TRP617  ASP618  TYR619  PRO620  LYS621  CYS622 
 ASP623  PHE694  ASN695  SER759  ASP760  ASP761  ALA762  ILE779  LEU786  VAL792 
 PHE793  MET794  SER795  GLU796  ALA797  LYS798  CYS799  TRP800  GLU811  SER814 

> <Gold.Protein.RotatedAtoms>
  151.8596  135.0529  160.0467 H   0  0  0  0  0  0  0  0  0  0  0  0  # atno 6907 bound_to 6896
  152.2673  133.5346  159.5426 H   0  0  0  0  0  0  0  0  0  0  0  0  # atno 6908 bound_to 6896
  150.7138  134.0663  159.3891 H   0  0  0  0  0  0  0  0  0  0  0  0  # atno 6909 bound_to 6896
  144.7972  140.5074  143.5732 H   0  0  0  0  0  0  0  0  0  0  0  0  # atno 7974 bound_to 7965
  155.4430  140.0533  157.3008 H   0  0  0  0  0  0  0  0  0  0  0  0  # atno 8008 bound_to 7997
  154.4810  140.2081  155.9722 H   0  0  0  0  0  0  0  0  0  0  0  0  # atno 8009 bound_to 7997
  156.1205  140.3189  155.8206 H   0  0  0  0  0  0  0  0  0  0  0  0  # atno 8010 bound_to 7997
  139.5432  144.2305  152.0938 H   0  0  0  0  0  0  0  0  0  0  0  0  # atno 10167 bound_to 10162
  156.5872  130.4789  149.6295 H   0  0  0  0  0  0  0  0  0  0  0  0  # atno 10718 bound_to 10713
  153.6069  135.3437  155.2965 H   0  0  0  0  0  0  0  0  0  0  0  0  # atno 10763 bound_to 10752
  154.8626  135.4241  154.2352 H   0  0  0  0  0  0  0  0  0  0  0  0  # atno 10764 bound_to 10752
  153.3193  135.7037  153.7116 H   0  0  0  0  0  0  0  0  0  0  0  0  # atno 10765 bound_to 10752
  140.3127  134.7503  157.4004 H   0  0  0  0  0  0  0  0  0  0  0  0  # atno 11005 bound_to 11000
  145.5644  139.1480  143.3323 LP  0  0  0  0  0  0  0  0  0  0  0  0  # atno 17320 bound_to 7965
  146.2243  140.5780  142.9003 LP  0  0  0  0  0  0  0  0  0  0  0  0  # atno 17321 bound_to 7965
  140.1787  144.4865  150.6540 LP  0  0  0  0  0  0  0  0  0  0  0  0  # atno 17342 bound_to 10162
  140.6671  143.2272  151.5716 LP  0  0  0  0  0  0  0  0  0  0  0  0  # atno 17343 bound_to 10162
  156.2581  130.6946  151.1706 LP  0  0  0  0  0  0  0  0  0  0  0  0  # atno 17370 bound_to 10713
  157.7312  131.0610  150.5687 LP  0  0  0  0  0  0  0  0  0  0  0  0  # atno 17371 bound_to 10713
  140.1010  134.5472  155.8353 LP  0  0  0  0  0  0  0  0  0  0  0  0  # atno 17394 bound_to 11000
  141.2104  133.6695  156.6509 LP  0  0  0  0  0  0  0  0  0  0  0  0  # atno 17395 bound_to 11000

$$$$
