#       Name:                AV-unprocessed.smi:2229
#       Creating user name   scv26
#       Creation time:       Fri Mar 27 12:23:54 2020


#       File generated by GOLD software.
#

@<TRIPOS>MOLECULE
AV-unprocessed.smi:2229
    49    50     1
SMALL
NO_CHARGES


@<TRIPOS>ATOM
      1 ****        -2.0365   2.2748   1.2615 C.3            1 S1                 0.0000
      2 ****        -2.6900   1.1513   0.4381 C.3            1 S1                 0.0000
      3 ****        -4.2124   1.1513   0.6433 C.3            1 S1                 0.0000
      4 ****        -2.0984  -0.2397   0.7498 C.3            1 S1                 0.0000
      5 ****        -0.6176  -0.3787   0.3593 C.3            1 S1                 0.0000
      6 ****        -0.0396  -1.7998   0.5456 C.3            1 S1                 0.0000
      7 ****        -0.6560  -2.8480  -0.3876 C.3            1 S1                 0.0000
      8 ****         0.3381  -4.0033  -0.3599 C.3            1 S1                 0.0000
      9 ****         1.7086  -3.3265  -0.3175 C.3            1 S1                 0.0000
     10 ****         1.4950  -1.9539   0.3522 C.3            1 S1                 0.0000
     11 ****         2.0792  -0.8933  -0.4709 N.am           1 S1                 0.0000
     12 ****         2.6673   0.2198  -0.0049 C.2            1 S1                 0.0000
     13 ****         2.8592   0.4385   1.1914 O.2            1 S1                 0.0000
     14 ****         3.0965   1.2532  -1.0492 C.3            1 S1                 0.0000
     15 ****         2.2385   2.4380  -0.9953 N.am           1 S1                 0.0000
     16 ****         2.5426   3.5554  -0.2585 C.2            1 S1                 0.0000
     17 ****         1.6088   4.4324  -0.3559 N.2            1 S1                 0.0000
     18 ****         0.6101   3.8684  -1.2126 N.pl3          1 S1                -1.0000
     19 ****         1.0524   2.6428  -1.5702 C.2            1 S1                 0.0000
     20 ****         0.5033   1.8148  -2.2957 O.2            1 S1                 0.0000
     21 ****        -2.1329   2.0914   2.3319 H              1 S1                 0.0000
     22 ****        -2.5007   3.2375   1.0464 H              1 S1                 0.0000
     23 ****        -0.9761   2.3795   1.0327 H              1 S1                 0.0000
     24 ****        -2.5072   1.3667  -0.6157 H              1 S1                 0.0000
     25 ****        -4.4723   0.9391   1.6808 H              1 S1                 0.0000
     26 ****        -4.6942   0.3992   0.0180 H              1 S1                 0.0000
     27 ****        -4.6444   2.1177   0.3822 H              1 S1                 0.0000
     28 ****        -2.2227  -0.4677   1.8091 H              1 S1                 0.0000
     29 ****        -2.6760  -0.9891   0.2085 H              1 S1                 0.0000
     30 ****        -0.4937  -0.0680  -0.6777 H              1 S1                 0.0000
     31 ****        -0.0347   0.3142   0.9650 H              1 S1                 0.0000
     32 ****        -0.2574  -2.1128   1.5682 H              1 S1                 0.0000
     33 ****        -1.6542  -3.1564  -0.0753 H              1 S1                 0.0000
     34 ****        -0.7303  -2.4514  -1.4013 H              1 S1                 0.0000
     35 ****         0.1900  -4.5907   0.5473 H              1 S1                 0.0000
     36 ****         0.2268  -4.6742  -1.2120 H              1 S1                 0.0000
     37 ****         2.4405  -3.9331   0.2169 H              1 S1                 0.0000
     38 ****         2.0771  -3.2070  -1.3378 H              1 S1                 0.0000
     39 ****         1.9738  -1.9635   1.3332 H              1 S1                 0.0000
     40 ****         1.9649  -0.9796  -1.4705 H              1 S1                 0.0000
     41 ****         4.1372   1.5281  -0.8698 H              1 S1                 0.0000
     42 ****         3.0635   0.8192  -2.0500 H              1 S1                 0.0000
     43 ****         3.4741   3.6040   0.3079 H              1 S1                 0.0000
     44 ****         2.5714  -0.2324   1.8748 LP             1 S1                 0.0000
     45 ****         3.3029   1.2870   1.4797 LP             1 S1                 0.0000
     46 ****         1.5844   5.3317   0.0806 LP             1 S1                 0.0000
     47 ****        -0.2485   4.2982  -1.4922 LP             1 S1                 0.0000
     48 ****         0.9475   0.9378  -2.4788 LP             1 S1                 0.0000
     49 ****        -0.3872   2.0188  -2.7024 LP             1 S1                 0.0000
@<TRIPOS>BOND
    1    1    2 1     
    2    1   21 1     
    3    1   22 1     
    4    1   23 1     
    5    2    3 1     
    6    2    4 1     
    7    2   24 1     
    8    3   25 1     
    9    3   26 1     
   10    3   27 1     
   11    4    5 1     
   12    4   28 1     
   13    4   29 1     
   14    5    6 1     
   15    5   30 1     
   16    5   31 1     
   17    6   10 1     
   18    6    7 1     
   19    6   32 1     
   20    7    8 1     
   21    7   33 1     
   22    7   34 1     
   23    8    9 1     
   24    8   35 1     
   25    8   36 1     
   26    9   10 1     
   27    9   37 1     
   28    9   38 1     
   29   10   11 1     
   30   10   39 1     
   31   11   12 am    
   32   11   40 1     
   33   12   13 2     
   34   12   14 1     
   35   14   15 1     
   36   14   41 1     
   37   14   42 1     
   38   15   19 am    
   39   15   16 1     
   40   16   17 2     
   41   16   43 1     
   42   17   18 1     
   43   18   19 1     
   44   19   20 2     
   45   13   44 1     
   46   13   45 1     
   47   17   46 1     
   48   18   47 1     
   49   20   48 1     
   50   20   49 1     
@<TRIPOS>SUBSTRUCTURE
      1 S1             1
@<TRIPOS>SET
LONE_PAIRS      STATIC     ATOMS    <user>   **** ""
6 44 45 46 47 48 49
DONOR_HYDROGENS      STATIC     ATOMS    <user>   **** ""
1 40
ATOM$BLUE        STATIC     ATOMS    COLORGROUP SYSTEM
6 44 45 46 47 48 49
ATOM$RED        STATIC     ATOMS    COLORGROUP SYSTEM
1 40
