AV-unprocessed.smi:309|AV-procd|sdf|2291|dock1
  -GOLD-   2262022193D 1   1.00000     0.00000
 Structure written by MMmdl.
 36 38  0  0  0  0  0  0  0  0  1 V2000
  152.6291  137.5070  154.6395 O   0  0  0  0  0  0  0  0  0  0  0  0
  151.8931  138.1652  155.6490 C   0  0  0  0  0  0  0  0  0  0  0  0
  150.7076  138.9163  155.1120 C   0  0  0  0  0  0  0  0  0  0  0  0
  149.7650  138.2904  154.4050 N   0  0  0  0  0  0  0  0  0  0  0  0
  148.8676  139.2997  154.1245 C   0  0  0  0  0  0  0  0  0  0  0  0
  147.6512  139.2711  153.4055 C   0  0  0  0  0  0  0  0  0  0  0  0
  146.8855  140.4449  153.2510 C   0  0  0  0  0  0  0  0  0  0  0  0
  147.3235  141.6607  153.8144 C   0  0  0  0  0  0  0  0  0  0  0  0
  148.5319  141.7097  154.5356 C   0  0  0  0  0  0  0  0  0  0  0  0
  149.2961  140.5359  154.6837 C   0  0  0  0  0  0  0  0  0  0  0  0
  150.5049  140.2470  155.3142 N   0  0  0  0  0  0  0  0  0  0  0  0
  151.3343  141.2057  156.0416 C   0  0  0  0  0  0  0  0  0  0  0  0
  150.7138  141.6902  157.3738 C   0  0  2  0  0  0  0  0  0  0  0  0
  149.9506  142.8606  157.1510 O   0  0  0  0  0  0  0  0  0  0  0  0
  151.7454  141.8543  158.4900 C   0  0  0  0  0  0  0  0  0  0  0  0
  152.3970  140.7160  159.0204 C   0  0  0  0  0  0  0  0  0  0  0  0
  153.3392  140.8451  160.0578 C   0  0  0  0  0  0  0  0  0  0  0  0
  154.1141  139.4431  160.6976 Cl  0  0  0  0  0  0  0  0  0  0  0  0
  153.6431  142.1165  160.5767 C   0  0  0  0  0  0  0  0  0  0  0  0
  152.9984  143.2555  160.0607 C   0  0  0  0  0  0  0  0  0  0  0  0
  152.0511  143.1315  159.0246 C   0  0  0  0  0  0  0  0  0  0  0  0
  151.2709  144.5628  158.4484 Cl  0  0  0  0  0  0  0  0  0  0  0  0
  153.3464  138.0641  154.3794 H   0  0  0  0  0  0  0  0  0  0  0  0
  151.5393  137.4227  156.3644 H   0  0  0  0  0  0  0  0  0  0  0  0
  152.5767  138.8171  156.1858 H   0  0  0  0  0  0  0  0  0  0  0  0
  147.3063  138.3435  152.9729 H   0  0  0  0  0  0  0  0  0  0  0  0
  145.9576  140.4120  152.6989 H   0  0  0  0  0  0  0  0  0  0  0  0
  146.7314  142.5559  153.6926 H   0  0  0  0  0  0  0  0  0  0  0  0
  148.8688  142.6405  154.9668 H   0  0  0  0  0  0  0  0  0  0  0  0
  152.2929  140.7275  156.2463 H   0  0  0  0  0  0  0  0  0  0  0  0
  151.5762  142.0484  155.3961 H   0  0  0  0  0  0  0  0  0  0  0  0
  149.9840  140.9471  157.6938 H   0  0  0  0  0  0  0  0  0  0  0  0
  149.9434  143.0416  156.2237 H   0  0  0  0  0  0  0  0  0  0  0  0
  152.1674  139.7299  158.6436 H   0  0  0  0  0  0  0  0  0  0  0  0
  154.3648  142.2191  161.3736 H   0  0  0  0  0  0  0  0  0  0  0  0
  153.2287  144.2294  160.4670 H   0  0  0  0  0  0  0  0  0  0  0  0
  1  2  1  0  0  0  0
  1 23  1  0  0  0  0
  2  3  1  0  0  0  0
  2 24  1  0  0  0  0
  2 25  1  0  0  0  0
  3 11  1  0  0  0  0
  3  4  2  0  0  0  0
  4  5  1  0  0  0  0
  5 10  2  0  0  0  0
  5  6  1  0  0  0  0
  6  7  2  0  0  0  0
  6 26  1  0  0  0  0
  7  8  1  0  0  0  0
  7 27  1  0  0  0  0
  8  9  2  0  0  0  0
  8 28  1  0  0  0  0
  9 10  1  0  0  0  0
  9 29  1  0  0  0  0
 10 11  1  0  0  0  0
 11 12  1  0  0  0  0
 12 13  1  0  0  0  0
 12 30  1  0  0  0  0
 12 31  1  0  0  0  0
 13 14  1  0  0  0  0
 13 15  1  0  0  0  0
 13 32  1  0  0  0  0
 14 33  1  0  0  0  0
 15 21  1  0  0  0  0
 15 16  2  0  0  0  0
 16 17  1  0  0  0  0
 16 34  1  0  0  0  0
 17 18  1  0  0  0  0
 17 19  2  0  0  0  0
 19 20  1  0  0  0  0
 19 35  1  0  0  0  0
 20 21  2  0  0  0  0
 20 36  1  0  0  0  0
 21 22  1  0  0  0  0
M  END
> <s_m_source_file>
AV-unprocessed.smi

> <i_m_source_file_index>
309

> <i_lp_mmshare_version>
43012

> <i_f3d_flags>
0

> <s_epik_input>
W2NIXTFbY0hdW2NIXVtjSF1jKGMxMiluKGMobjIpW0NIMl1bT0hdKVtDSDJdW0NASF0oW09IXSljM1tjSF1jKENsKVtjSF1bY0hdYzNDbA==

> <s_epik_cmdline>
J2VwaWtfcHl0aG9uJywgJy1waCcsICc3LjAnLCAnLXRuJywgJzgnLCAnLW1hJywgJzIwMCcsICctbWV0YWxfYmluZGluZycsICctaW1hZScsICc8aW5maWxlLm1hZT4nLCAnLW9tYWUnLCAnPG91dGZpbGUubWFlPic=

> <r_epik_Ionization_Penalty>
0.0634742

> <r_epik_Ionization_Penalty_Charging>
0

> <r_epik_Ionization_Penalty_Neutral>
0.0634742

> <r_epik_State_Penalty>
0.0551572

> <r_epik_Charging_Adjusted_Penalty>
0.0551572

> <i_epik_Tot_Q>
0

> <i_epik_Tot_abs_Q>
0

> <r_epik_Metal_State_Penalty>
5.78034e-05

> <b_epik_Metal_Only>
0

> <s_lp_Force_Field>
OPLS_2005

> <r_lp_Energy>
12.4446

> <b_lp_Chiralities_Consistent>
1

> <s_lp_Variant>
AV-unprocessed.smi:309-1

> <Gold.Version>
5.8.1

> <Gold.Id.Protein>
6NUR|6NUR_protein|mol2

> <Gold.PLP.Fitness>
51.4205

> <Gold.PLP.PLP>
-50.3718

> <Gold.PLP.part.hbond>
-2.0000

> <Gold.PLP.part.metal>
0.0000

> <Gold.PLP.part.buried>
-3.7322

> <Gold.PLP.part.nonpolar>
-44.8416

> <Gold.PLP.part.repulsive>
0.2099

> <Gold.PLP.ligand.clash>
0.0000

> <Gold.PLP.ligand.torsion>
0.7543

> <Gold.PLP.Chemscore.Hbond>
0.8355

> <Gold.PLP.Chemscore.CHOScore>
0.0000

> <Gold.PLP.Chemscore.Metal>
0.0000

> <Gold.Chemscore.Hbonds>
donor molecule, donor type, donor heavy atom, donor atom, acceptor molecule, acceptor atom, score
      L1  H    14    33       P1  8028  0.28
      P1  H 10752 10765       L1     1  0.53

> <Gold.PLP.Chemscore.Internal.Correction>
0.0509

> <Gold.Rescore>
     Score         DG    S(hbond)    S(metal)    S(lipo)     H(rot)  DE(clash)    DE(int)     intcor
     15.39     -17.92       0.75        0.00     142.36       2.62       0.12       2.40       ----

> <Gold.Chemscore.Fitness>
15.3938

> <Gold.Chemscore.DG>
-17.9165

> <Gold.Chemscore.ZeroCoef>
-5.4800

> <Gold.Chemscore.Hbond>
0.7474

> <Gold.Chemscore.Metal>
0.0000

> <Gold.Chemscore.Lipo>
142.3552

> <Gold.Chemscore.Internal_Hbond>
0.0000

> <Gold.Chemscore.DEClash>
0.1200

> <Gold.Chemscore.DEInternal>
2.4027

> <Gold.Chemscore.Rot>
2.6232

> <Gold.Chemscore.Internal.Correction>
   9.000000E+99

> <Gold.Chemscore.Hbonds>
donor molecule, donor type, donor heavy atom, donor atom, acceptor molecule, acceptor atom, score
      L1  H    14    33       P1  8028  0.27
      P1  H 10752 10765       L1     1  0.46

> <Gold.Chemscore.Hbond.Weighted>
-2.4963

> <Gold.Chemscore.Metal.Weighted>
-0.0000

> <Gold.Chemscore.Lipo.Weighted>
-16.6556

> <Gold.Chemscore.Internal_Hbond.Weighted>
0.0000

> <Gold.Chemscore.DEClash.Weighted>
0.1200

> <Gold.Chemscore.DEInternal.Weighted>
2.4027

> <Gold.Chemscore.Rot.Weighted>
6.7154

> <Gold.Chemscore.Internal.Correction.Weighted>
   9.000000E+99

> <Gold.Protein.RotatedTorsions>
[ 6907 6896 6895 6894 ] final -178.91 input  -60.11 | X-H torsion
[ 7974 7965 7964 7962 ] final -142.30 input  175.53 | X-H torsion
[ 8008 7997 7996 7995 ] final  -60.54 input   59.86 | X-H torsion
[ 10167 10162 10161 10158 ] final   10.31 input  -65.29 | X-H torsion
[ 10718 10713 10712 10709 ] final  -47.18 input   66.30 | X-H torsion
[ 10763 10752 10751 10750 ] final  170.18 input  -60.55 | X-H torsion
[ 11005 11000 10999 10996 ] final -126.06 input  -57.11 | X-H torsion

> <Gold.Protein.ActiveResidues>
 VAL166  LYS551  ARG553  GLY616  TRP617  ASP618  TYR619  PRO620  LYS621  CYS622 
 ASP623  PHE694  ASN695  SER759  ASP760  ASP761  ALA762  ILE779  LEU786  VAL792 
 PHE793  MET794  SER795  GLU796  ALA797  LYS798  CYS799  TRP800  GLU811  SER814 

> <Gold.Protein.RotatedAtoms>
  151.6449  133.3324  159.3138 H   0  0  0  0  0  0  0  0  0  0  0  0  # atno 6907 bound_to 6896
  150.7989  134.7073  159.6593 H   0  0  0  0  0  0  0  0  0  0  0  0  # atno 6908 bound_to 6896
  152.4079  134.6179  160.0094 H   0  0  0  0  0  0  0  0  0  0  0  0  # atno 6909 bound_to 6896
  144.8453  140.5974  143.5425 H   0  0  0  0  0  0  0  0  0  0  0  0  # atno 7974 bound_to 7965
  154.4404  140.1037  156.6290 H   0  0  0  0  0  0  0  0  0  0  0  0  # atno 8008 bound_to 7997
  155.5625  140.3488  155.4476 H   0  0  0  0  0  0  0  0  0  0  0  0  # atno 8009 bound_to 7997
  156.0449  140.1290  157.0104 H   0  0  0  0  0  0  0  0  0  0  0  0  # atno 8010 bound_to 7997
  140.6202  143.8222  150.7165 H   0  0  0  0  0  0  0  0  0  0  0  0  # atno 10167 bound_to 10162
  156.2110  130.4160  149.9115 H   0  0  0  0  0  0  0  0  0  0  0  0  # atno 10718 bound_to 10713
  154.3939  135.2754  155.2138 H   0  0  0  0  0  0  0  0  0  0  0  0  # atno 10763 bound_to 10752
  154.4192  135.6004  153.6003 H   0  0  0  0  0  0  0  0  0  0  0  0  # atno 10764 bound_to 10752
  152.9831  135.5968  154.4198 H   0  0  0  0  0  0  0  0  0  0  0  0  # atno 10765 bound_to 10752
  140.9712  134.0803  157.3868 H   0  0  0  0  0  0  0  0  0  0  0  0  # atno 11005 bound_to 11000
  145.4609  139.1513  143.3867 LP  0  0  0  0  0  0  0  0  0  0  0  0  # atno 17320 bound_to 7965
  146.2739  140.4739  142.8803 LP  0  0  0  0  0  0  0  0  0  0  0  0  # atno 17321 bound_to 7965
  140.1810  143.4115  152.1933 LP  0  0  0  0  0  0  0  0  0  0  0  0  # atno 17342 bound_to 10162
  139.5432  144.7275  151.4667 LP  0  0  0  0  0  0  0  0  0  0  0  0  # atno 17343 bound_to 10162
  156.6793  130.8852  151.3573 LP  0  0  0  0  0  0  0  0  0  0  0  0  # atno 17370 bound_to 10713
  157.7038  130.9362  150.0868 LP  0  0  0  0  0  0  0  0  0  0  0  0  # atno 17371 bound_to 10713
  139.8913  135.0117  156.6783 LP  0  0  0  0  0  0  0  0  0  0  0  0  # atno 17394 bound_to 11000
  140.7327  133.9045  155.8222 LP  0  0  0  0  0  0  0  0  0  0  0  0  # atno 17395 bound_to 11000

$$$$
