AV-unprocessed.smi:3132|AV-procd|sdf|11930|dock3
  -GOLD-   2272017313D 1   1.00000     0.00000
 Structure written by MMmdl.
 34 35  0  0  0  0  0  0  0  0  2 V2000
  148.2072  141.2711  157.1310 C   0  0  0  0  0  0  0  0  0  0  0  0
  149.5021  141.4178  156.3210 C   0  0  1  0  0  0  0  0  0  0  0  0
  149.1995  141.7059  154.8339 C   0  0  0  0  0  0  0  0  0  0  0  0
  148.5326  140.5905  154.1540 N   0  0  0  0  0  0  0  0  0  0  0  0
  147.3190  140.6098  153.5152 C   0  0  0  0  0  0  0  0  0  0  0  0
  147.1159  139.3456  153.0247 C   0  0  0  0  0  0  0  0  0  0  0  0
  148.2097  138.6076  153.3902 N   0  3  0  0  0  0  0  0  0  0  0  0
  149.0675  139.3649  154.0815 C   0  0  0  0  0  0  0  0  0  0  0  0
  150.3093  142.4834  156.9136 N   0  0  0  0  0  0  0  0  0  0  0  0
  151.4414  142.3157  157.6156 C   0  0  0  0  0  0  0  0  0  0  0  0
  151.9481  141.2125  157.8251 O   0  0  0  0  0  0  0  0  0  0  0  0
  152.0950  143.5929  158.1636 C   0  0  2  0  0  0  0  0  0  0  0  0
  152.4126  143.5266  159.6712 C   0  0  0  0  0  0  0  0  0  0  0  0
  151.6439  144.6932  160.2675 C   0  0  0  0  0  0  0  0  0  0  0  0
  150.5319  144.9189  159.2540 C   0  0  0  0  0  0  0  0  0  0  0  0
  151.1811  144.6784  158.0142 O   0  0  0  0  0  0  0  0  0  0  0  0
  147.5924  140.4581  156.7441 H   0  0  0  0  0  0  0  0  0  0  0  0
  147.6113  142.1839  157.0972 H   0  0  0  0  0  0  0  0  0  0  0  0
  148.4208  141.0504  158.1776 H   0  0  0  0  0  0  0  0  0  0  0  0
  150.0364  140.4690  156.3980 H   0  0  0  0  0  0  0  0  0  0  0  0
  148.5478  142.5758  154.7407 H   0  0  0  0  0  0  0  0  0  0  0  0
  150.1156  141.9389  154.2892 H   0  0  0  0  0  0  0  0  0  0  0  0
  146.7099  141.4998  153.4523 H   0  0  0  0  0  0  0  0  0  0  0  0
  146.2971  138.9267  152.4579 H   0  0  0  0  0  0  0  0  0  0  0  0
  150.0111  139.0512  154.4910 H   0  0  0  0  0  0  0  0  0  0  0  0
  149.9663  143.4266  156.7998 H   0  0  0  0  0  0  0  0  0  0  0  0
  152.9965  143.8250  157.5946 H   0  0  0  0  0  0  0  0  0  0  0  0
  152.0813  142.5898  160.1218 H   0  0  0  0  0  0  0  0  0  0  0  0
  153.4820  143.6162  159.8653 H   0  0  0  0  0  0  0  0  0  0  0  0
  151.2706  144.4920  161.2717 H   0  0  0  0  0  0  0  0  0  0  0  0
  152.2842  145.5752  160.3127 H   0  0  0  0  0  0  0  0  0  0  0  0
  149.7215  144.2025  159.3965 H   0  0  0  0  0  0  0  0  0  0  0  0
  150.1145  145.9248  159.3008 H   0  0  0  0  0  0  0  0  0  0  0  0
  148.3530  137.6302  153.1687 H   0  0  0  0  0  0  0  0  0  0  0  0
  1  2  1  0  0  0  0
  1 17  1  0  0  0  0
  1 18  1  0  0  0  0
  1 19  1  0  0  0  0
  2  3  1  0  0  0  0
  2  9  1  0  0  0  0
  2 20  1  0  0  0  0
  3  4  1  0  0  0  0
  3 21  1  0  0  0  0
  3 22  1  0  0  0  0
  4  8  1  0  0  0  0
  4  5  1  0  0  0  0
  5  6  2  0  0  0  0
  5 23  1  0  0  0  0
  6  7  1  0  0  0  0
  6 24  1  0  0  0  0
  7  8  2  0  0  0  0
  7 34  1  0  0  0  0
  8 25  1  0  0  0  0
  9 10  1  0  0  0  0
  9 26  1  0  0  0  0
 10 11  2  0  0  0  0
 10 12  1  0  0  0  0
 12 16  1  0  0  0  0
 12 13  1  0  0  0  0
 12 27  1  0  0  0  0
 13 14  1  0  0  0  0
 13 28  1  0  0  0  0
 13 29  1  0  0  0  0
 14 15  1  0  0  0  0
 14 30  1  0  0  0  0
 14 31  1  0  0  0  0
 15 16  1  0  0  0  0
 15 32  1  0  0  0  0
 15 33  1  0  0  0  0
M  CHG  1   7   1
M  END
> <s_m_source_file>
AV-unprocessed.smi

> <i_m_source_file_index>
3132

> <i_lp_mmshare_version>
43012

> <i_f3d_flags>
0

> <s_epik_input>
W2NIXTFuW2NIXVtjSF1uMVtDSDJdW0NAQEhdKFtDSDNdKVtOSF1DKD1PKVtDQEBIXTJbQ0gyXVtDSDJdW0NIMl1PMg==

> <s_epik_cmdline>
J2VwaWtfcHl0aG9uJywgJy1waCcsICc3LjAnLCAnLXRuJywgJzgnLCAnLW1hJywgJzIwMCcsICctbWV0YWxfYmluZGluZycsICctaW1hZScsICc8aW5maWxlLm1hZT4nLCAnLW9tYWUnLCAnPG91dGZpbGUubWFlPic=

> <r_lp_tautomer_probability>
1

> <r_epik_Ionization_Penalty>
0.250802

> <r_epik_Ionization_Penalty_Charging>
0

> <r_epik_Ionization_Penalty_Neutral>
0.250802

> <r_epik_State_Penalty>
0.242139

> <r_epik_Charging_Adjusted_Penalty>
0.242139

> <i_epik_Tot_Q>
1

> <i_epik_Tot_abs_Q>
1

> <r_epik_Metal_State_Penalty>
0.533361

> <b_epik_Metal_Only>
0

> <s_lp_Force_Field>
OPLS_2005

> <r_lp_Energy>
21.4246

> <b_lp_Chiralities_Consistent>
1

> <s_lp_Variant>
AV-unprocessed.smi:3132-2

> <Gold.Version>
5.8.1

> <Gold.Id.Protein>
6NUR|6NUR_protein|mol2

> <Gold.PLP.Fitness>
42.5558

> <Gold.PLP.PLP>
-34.2798

> <Gold.PLP.part.hbond>
-3.0000

> <Gold.PLP.part.metal>
0.0000

> <Gold.PLP.part.buried>
-1.0092

> <Gold.PLP.part.nonpolar>
-29.8968

> <Gold.PLP.part.repulsive>
0.2400

> <Gold.PLP.ligand.clash>
0.0000

> <Gold.PLP.ligand.torsion>
0.3205

> <Gold.PLP.Chemscore.Hbond>
2.9600

> <Gold.PLP.Chemscore.CHOScore>
0.0000

> <Gold.PLP.Chemscore.Metal>
0.0000

> <Gold.Chemscore.Hbonds>
donor molecule, donor type, donor heavy atom, donor atom, acceptor molecule, acceptor atom, score
      L1  H     7    34       P1  7948  1.92
      L1  H     9    26       P1  8028  0.96

> <Gold.PLP.Chemscore.Internal.Correction>
0.0371

> <Gold.Rescore>
     Score         DG    S(hbond)    S(metal)    S(lipo)     H(rot)  DE(clash)    DE(int)     intcor
     14.72     -15.80       1.87        0.00      77.01       1.93       0.66       0.42       ----

> <Gold.Chemscore.Fitness>
14.7212

> <Gold.Chemscore.DG>
-15.8033

> <Gold.Chemscore.ZeroCoef>
-5.4800

> <Gold.Chemscore.Hbond>
1.8730

> <Gold.Chemscore.Metal>
0.0000

> <Gold.Chemscore.Lipo>
77.0123

> <Gold.Chemscore.Internal_Hbond>
0.0000

> <Gold.Chemscore.DEClash>
0.6575

> <Gold.Chemscore.DEInternal>
0.4246

> <Gold.Chemscore.Rot>
1.9308

> <Gold.Chemscore.Internal.Correction>
   9.000000E+99

> <Gold.Chemscore.Hbonds>
donor molecule, donor type, donor heavy atom, donor atom, acceptor molecule, acceptor atom, score
      L1  H     7    34       P1  7948  0.89
      L1  H     9    26       P1  8028  0.86

> <Gold.Chemscore.Hbond.Weighted>
-6.2558

> <Gold.Chemscore.Metal.Weighted>
-0.0000

> <Gold.Chemscore.Lipo.Weighted>
-9.0104

> <Gold.Chemscore.Internal_Hbond.Weighted>
0.0000

> <Gold.Chemscore.DEClash.Weighted>
0.6575

> <Gold.Chemscore.DEInternal.Weighted>
0.4246

> <Gold.Chemscore.Rot.Weighted>
4.9429

> <Gold.Chemscore.Internal.Correction.Weighted>
   9.000000E+99

> <Gold.Protein.RotatedTorsions>
[ 6907 6896 6895 6894 ] final  175.24 input  -60.11 | X-H torsion
[ 7974 7965 7964 7962 ] final  -52.21 input  175.53 | X-H torsion
[ 8008 7997 7996 7995 ] final -155.70 input   59.86 | X-H torsion
[ 10167 10162 10161 10158 ] final  131.78 input  -65.29 | X-H torsion
[ 10718 10713 10712 10709 ] final  -83.13 input   66.30 | X-H torsion
[ 10763 10752 10751 10750 ] final  -32.91 input  -60.55 | X-H torsion
[ 11005 11000 10999 10996 ] final   84.13 input  -57.11 | X-H torsion

> <Gold.Protein.ActiveResidues>
 VAL166  LYS551  ARG553  GLY616  TRP617  ASP618  TYR619  PRO620  LYS621  CYS622 
 ASP623  PHE694  ASN695  SER759  ASP760  ASP761  ALA762  ILE779  LEU786  VAL792 
 PHE793  MET794  SER795  GLU796  ALA797  LYS798  CYS799  TRP800  GLU811  SER814 

> <Gold.Protein.RotatedAtoms>
  151.7394  133.3321  159.3361 H   0  0  0  0  0  0  0  0  0  0  0  0  # atno 6907 bound_to 6896
  150.7579  134.6292  159.6186 H   0  0  0  0  0  0  0  0  0  0  0  0  # atno 6908 bound_to 6896
  152.3540  134.6968  160.0279 H   0  0  0  0  0  0  0  0  0  0  0  0  # atno 6909 bound_to 6896
  145.9105  140.7919  142.9698 H   0  0  0  0  0  0  0  0  0  0  0  0  # atno 7974 bound_to 7965
  155.7058  140.0772  157.2391 H   0  0  0  0  0  0  0  0  0  0  0  0  # atno 8008 bound_to 7997
  154.4066  140.1639  156.2295 H   0  0  0  0  0  0  0  0  0  0  0  0  # atno 8009 bound_to 7997
  155.9327  140.3390  155.6265 H   0  0  0  0  0  0  0  0  0  0  0  0  # atno 8010 bound_to 7997
  139.5369  144.6691  151.4756 H   0  0  0  0  0  0  0  0  0  0  0  0  # atno 10167 bound_to 10162
  156.0023  130.4656  150.4210 H   0  0  0  0  0  0  0  0  0  0  0  0  # atno 10718 bound_to 10713
  153.8215  135.6874  153.4826 H   0  0  0  0  0  0  0  0  0  0  0  0  # atno 10763 bound_to 10752
  153.1566  135.4596  154.9711 H   0  0  0  0  0  0  0  0  0  0  0  0  # atno 10764 bound_to 10752
  154.7925  135.3307  154.7687 H   0  0  0  0  0  0  0  0  0  0  0  0  # atno 10765 bound_to 10752
  139.9009  134.8194  156.2403 H   0  0  0  0  0  0  0  0  0  0  0  0  # atno 11005 bound_to 11000
  144.6743  140.1818  143.7405 LP  0  0  0  0  0  0  0  0  0  0  0  0  # atno 17320 bound_to 7965
  145.8678  139.2256  143.1679 LP  0  0  0  0  0  0  0  0  0  0  0  0  # atno 17321 bound_to 7965
  140.6580  143.8559  150.6856 LP  0  0  0  0  0  0  0  0  0  0  0  0  # atno 17342 bound_to 10162
  140.1945  143.4009  152.1838 LP  0  0  0  0  0  0  0  0  0  0  0  0  # atno 17343 bound_to 10162
  157.2266  131.0494  151.2516 LP  0  0  0  0  0  0  0  0  0  0  0  0  # atno 17370 bound_to 10713
  157.3750  130.7201  149.6591 LP  0  0  0  0  0  0  0  0  0  0  0  0  # atno 17371 bound_to 10713
  141.0289  133.7000  156.1395 LP  0  0  0  0  0  0  0  0  0  0  0  0  # atno 17394 bound_to 11000
  140.7126  134.4445  157.5580 LP  0  0  0  0  0  0  0  0  0  0  0  0  # atno 17395 bound_to 11000

$$$$
