AV-unprocessed.smi:3056|AV-procd|sdf|11652|dock5
  -GOLD-   2272017 53D 1   1.00000     0.00000
 Structure written by MMmdl.
 48 49  0  0  0  0  0  0  0  0  2 V2000
  151.7196  142.5691  158.0028 C   0  0  0  0  0  0  0  0  0  0  0  0
  151.3566  141.5981  156.9165 C   0  0  0  0  0  0  0  0  0  0  0  0
  150.6594  141.8628  155.7040 C   0  0  0  0  0  0  0  0  0  0  0  0
  150.4949  140.7817  154.9592 N   0  0  0  0  0  0  0  0  0  0  0  0
  151.0810  139.7901  155.6639 N   0  0  0  0  0  0  0  0  0  0  0  0
  151.0779  138.4301  155.1395 C   0  0  1  0  0  0  0  0  0  0  0  0
  152.4705  138.0856  154.5805 C   0  0  0  0  0  0  0  0  0  0  0  0
  150.5746  137.4090  156.1944 C   0  0  1  0  0  0  0  0  0  0  0  0
  149.2494  137.8269  156.8574 C   0  0  0  0  0  0  0  0  0  0  0  0
  150.3958  136.0733  155.5821 N   0  3  0  0  0  0  0  0  0  0  0  0
  149.5432  135.1406  156.3514 C   0  0  0  0  0  0  0  0  0  0  0  0
  150.0810  133.7019  156.3344 C   0  0  0  0  0  0  0  0  0  0  0  0
  150.5905  133.2475  157.3604 O   0  0  0  0  0  0  0  0  0  0  0  0
  149.9812  132.9771  155.1944 N   0  0  0  0  0  0  0  0  0  0  0  0
  150.3992  131.5826  155.0176 C   0  0  0  0  0  0  0  0  0  0  0  0
  149.1539  130.7393  154.6915 C   0  0  0  0  0  0  0  0  0  0  0  0
  148.5123  131.2587  153.5296 O   0  0  0  0  0  0  0  0  0  0  0  0
  148.1089  132.6201  153.6664 C   0  0  2  0  0  0  0  0  0  0  0  0
  147.4117  133.0467  152.3700 C   0  0  0  0  0  0  0  0  0  0  0  0
  149.3487  133.4842  153.9731 C   0  0  0  0  0  0  0  0  0  0  0  0
  151.6083  140.2571  156.8514 C   0  0  0  0  0  0  0  0  0  0  0  0
  151.7439  143.5958  157.6369 H   0  0  0  0  0  0  0  0  0  0  0  0
  152.7026  142.3561  158.4234 H   0  0  0  0  0  0  0  0  0  0  0  0
  151.0042  142.5377  158.8245 H   0  0  0  0  0  0  0  0  0  0  0  0
  150.2682  142.8038  155.3462 H   0  0  0  0  0  0  0  0  0  0  0  0
  150.3801  138.4110  154.2997 H   0  0  0  0  0  0  0  0  0  0  0  0
  152.4633  137.1354  154.0469 H   0  0  0  0  0  0  0  0  0  0  0  0
  153.2158  138.0173  155.3736 H   0  0  0  0  0  0  0  0  0  0  0  0
  152.8065  138.8460  153.8746 H   0  0  0  0  0  0  0  0  0  0  0  0
  151.3182  137.3398  156.9906 H   0  0  0  0  0  0  0  0  0  0  0  0
  149.3518  138.7525  157.4241 H   0  0  0  0  0  0  0  0  0  0  0  0
  148.9040  137.0639  157.5558 H   0  0  0  0  0  0  0  0  0  0  0  0
  148.4650  137.9762  156.1144 H   0  0  0  0  0  0  0  0  0  0  0  0
  149.9718  136.1968  154.6736 H   0  0  0  0  0  0  0  0  0  0  0  0
  149.4776  135.4881  157.3828 H   0  0  0  0  0  0  0  0  0  0  0  0
  148.5384  135.1511  155.9261 H   0  0  0  0  0  0  0  0  0  0  0  0
  151.1140  131.5253  154.1956 H   0  0  0  0  0  0  0  0  0  0  0  0
  150.9063  131.1586  155.8826 H   0  0  0  0  0  0  0  0  0  0  0  0
  149.4375  129.7036  154.5035 H   0  0  0  0  0  0  0  0  0  0  0  0
  148.4578  130.7330  155.5317 H   0  0  0  0  0  0  0  0  0  0  0  0
  147.3944  132.6972  154.4880 H   0  0  0  0  0  0  0  0  0  0  0  0
  147.0661  134.0789  152.4312 H   0  0  0  0  0  0  0  0  0  0  0  0
  146.5440  132.4178  152.1693 H   0  0  0  0  0  0  0  0  0  0  0  0
  148.0843  132.9690  151.5156 H   0  0  0  0  0  0  0  0  0  0  0  0
  149.0576  134.5326  154.0511 H   0  0  0  0  0  0  0  0  0  0  0  0
  150.0626  133.4302  153.1497 H   0  0  0  0  0  0  0  0  0  0  0  0
  152.1123  139.6028  157.5474 H   0  0  0  0  0  0  0  0  0  0  0  0
  151.3043  135.6519  155.4504 H   0  0  0  0  0  0  0  0  0  0  0  0
  1  2  1  0  0  0  0
  1 22  1  0  0  0  0
  1 23  1  0  0  0  0
  1 24  1  0  0  0  0
  2 21  2  0  0  0  0
  2  3  1  0  0  0  0
  3  4  2  0  0  0  0
  3 25  1  0  0  0  0
  4  5  1  0  0  0  0
  5  6  1  0  0  0  0
  5 21  1  0  0  0  0
  6  7  1  0  0  0  0
  6  8  1  0  0  0  0
  6 26  1  0  0  0  0
  7 27  1  0  0  0  0
  7 28  1  0  0  0  0
  7 29  1  0  0  0  0
  8  9  1  0  0  0  0
  8 10  1  0  0  0  0
  8 30  1  0  0  0  0
  9 31  1  0  0  0  0
  9 32  1  0  0  0  0
  9 33  1  0  0  0  0
 10 11  1  0  0  0  0
 10 34  1  0  0  0  0
 10 48  1  0  0  0  0
 11 12  1  0  0  0  0
 11 35  1  0  0  0  0
 11 36  1  0  0  0  0
 12 13  2  0  0  0  0
 12 14  1  0  0  0  0
 14 20  1  0  0  0  0
 14 15  1  0  0  0  0
 15 16  1  0  0  0  0
 15 37  1  0  0  0  0
 15 38  1  0  0  0  0
 16 17  1  0  0  0  0
 16 39  1  0  0  0  0
 16 40  1  0  0  0  0
 17 18  1  0  0  0  0
 18 19  1  0  0  0  0
 18 20  1  0  0  0  0
 18 41  1  0  0  0  0
 19 42  1  0  0  0  0
 19 43  1  0  0  0  0
 19 44  1  0  0  0  0
 20 45  1  0  0  0  0
 20 46  1  0  0  0  0
 21 47  1  0  0  0  0
M  CHG  1  10   1
M  END
> <s_m_source_file>
AV-unprocessed.smi

> <i_m_source_file_index>
3056

> <i_lp_mmshare_version>
43012

> <i_f3d_flags>
0

> <s_epik_input>
W0NIM11jMVtjSF1ubihbY0hdMSlbQ0BIXShbQ0gzXSlbQ0BIXShbQ0gzXSlbTkhdW0NIMl1DKD1PKU4yW0NIMl1bQ0gyXU9bQ0BASF0oW0NIM10pW0NIMl0y

> <s_epik_cmdline>
J2VwaWtfcHl0aG9uJywgJy1waCcsICc3LjAnLCAnLXRuJywgJzgnLCAnLW1hJywgJzIwMCcsICctbWV0YWxfYmluZGluZycsICctaW1hZScsICc8aW5maWxlLm1hZT4nLCAnLW9tYWUnLCAnPG91dGZpbGUubWFlPic=

> <r_lp_tautomer_probability>
1

> <r_epik_Ionization_Penalty>
0.233715

> <r_epik_Ionization_Penalty_Charging>
0.233698

> <r_epik_Ionization_Penalty_Neutral>
1.68157e-05

> <r_epik_State_Penalty>
0.225221

> <r_epik_Charging_Adjusted_Penalty>
0.458919

> <i_epik_Tot_Q>
1

> <i_epik_Tot_abs_Q>
1

> <r_epik_Metal_State_Penalty>
0.225535

> <b_epik_Metal_Only>
0

> <s_lp_Force_Field>
OPLS_2005

> <r_lp_Energy>
28.8948

> <b_lp_Chiralities_Consistent>
1

> <s_lp_Variant>
AV-unprocessed.smi:3056-8

> <Gold.Version>
5.8.1

> <Gold.Id.Protein>
6NUR|6NUR_protein|mol2

> <Gold.PLP.Fitness>
41.1512

> <Gold.PLP.PLP>
-34.7491

> <Gold.PLP.part.hbond>
-2.0000

> <Gold.PLP.part.metal>
0.0000

> <Gold.PLP.part.buried>
-4.9364

> <Gold.PLP.part.nonpolar>
-28.4943

> <Gold.PLP.part.repulsive>
0.2537

> <Gold.PLP.ligand.clash>
0.0270

> <Gold.PLP.ligand.torsion>
0.9763

> <Gold.PLP.Chemscore.Hbond>
1.7600

> <Gold.PLP.Chemscore.CHOScore>
1.0000

> <Gold.PLP.Chemscore.Metal>
0.0000

> <Gold.Chemscore.Hbonds>
donor molecule, donor type, donor heavy atom, donor atom, acceptor molecule, acceptor atom, score
      P1  H  6896  6908       L1    13  0.88
      P1  H  7989  7998       L1     4  0.85
      L1  C     3    25       P1  8028  1.00

> <Gold.PLP.Chemscore.Internal.Correction>
0.1016

> <Gold.Rescore>
     Score         DG    S(hbond)    S(metal)    S(lipo)     H(rot)  DE(clash)    DE(int)     intcor
     14.54     -15.59       1.46        0.00      82.74       1.74       0.06       0.98       ----

> <Gold.Chemscore.Fitness>
14.5431

> <Gold.Chemscore.DG>
-15.5859

> <Gold.Chemscore.ZeroCoef>
-5.4800

> <Gold.Chemscore.Hbond>
1.4574

> <Gold.Chemscore.Metal>
0.0000

> <Gold.Chemscore.Lipo>
82.7422

> <Gold.Chemscore.Internal_Hbond>
0.0000

> <Gold.Chemscore.DEClash>
0.0603

> <Gold.Chemscore.DEInternal>
0.9825

> <Gold.Chemscore.Rot>
1.7354

> <Gold.Chemscore.Internal.Correction>
   9.000000E+99

> <Gold.Chemscore.Hbonds>
donor molecule, donor type, donor heavy atom, donor atom, acceptor molecule, acceptor atom, score
      P1  H  6896  6908       L1    13  0.86
      P1  H  7989  7998       L1     4  0.16

> <Gold.Chemscore.Hbond.Weighted>
-4.8677

> <Gold.Chemscore.Metal.Weighted>
-0.0000

> <Gold.Chemscore.Lipo.Weighted>
-9.6808

> <Gold.Chemscore.Internal_Hbond.Weighted>
0.0000

> <Gold.Chemscore.DEClash.Weighted>
0.0603

> <Gold.Chemscore.DEInternal.Weighted>
0.9825

> <Gold.Chemscore.Rot.Weighted>
4.4426

> <Gold.Chemscore.Internal.Correction.Weighted>
   9.000000E+99

> <Gold.Protein.RotatedTorsions>
[ 6907 6896 6895 6894 ] final   85.96 input  -60.11 | X-H torsion
[ 7974 7965 7964 7962 ] final -119.77 input  175.53 | X-H torsion
[ 8008 7997 7996 7995 ] final -141.53 input   59.86 | X-H torsion
[ 10167 10162 10161 10158 ] final   12.32 input  -65.29 | X-H torsion
[ 10718 10713 10712 10709 ] final    6.50 input   66.30 | X-H torsion
[ 10763 10752 10751 10750 ] final  -83.92 input  -60.55 | X-H torsion
[ 11005 11000 10999 10996 ] final -174.58 input  -57.11 | X-H torsion

> <Gold.Protein.ActiveResidues>
 VAL166  LYS551  ARG553  GLY616  TRP617  ASP618  TYR619  PRO620  LYS621  CYS622 
 ASP623  PHE694  ASN695  SER759  ASP760  ASP761  ALA762  ILE779  LEU786  VAL792 
 PHE793  MET794  SER795  GLU796  ALA797  LYS798  CYS799  TRP800  GLU811  SER814 

> <Gold.Protein.RotatedAtoms>
  152.5385  134.2506  159.8896 H   0  0  0  0  0  0  0  0  0  0  0  0  # atno 6907 bound_to 6896
  151.2469  133.4363  159.2617 H   0  0  0  0  0  0  0  0  0  0  0  0  # atno 6908 bound_to 6896
  151.0575  134.9728  159.8299 H   0  0  0  0  0  0  0  0  0  0  0  0  # atno 6909 bound_to 6896
  145.0589  140.8275  143.4164 H   0  0  0  0  0  0  0  0  0  0  0  0  # atno 7974 bound_to 7965
  155.4793  140.0559  157.2969 H   0  0  0  0  0  0  0  0  0  0  0  0  # atno 8008 bound_to 7997
  154.4667  140.2021  156.0053 H   0  0  0  0  0  0  0  0  0  0  0  0  # atno 8009 bound_to 7997
  156.0986  140.3222  155.7916 H   0  0  0  0  0  0  0  0  0  0  0  0  # atno 8010 bound_to 7997
  140.6076  143.8476  150.7030 H   0  0  0  0  0  0  0  0  0  0  0  0  # atno 10167 bound_to 10162
  156.9231  130.5798  149.5648 H   0  0  0  0  0  0  0  0  0  0  0  0  # atno 10718 bound_to 10713
  154.5934  135.5539  153.7301 H   0  0  0  0  0  0  0  0  0  0  0  0  # atno 10763 bound_to 10752
  153.0126  135.6349  154.1817 H   0  0  0  0  0  0  0  0  0  0  0  0  # atno 10764 bound_to 10752
  154.1757  135.2889  155.3047 H   0  0  0  0  0  0  0  0  0  0  0  0  # atno 10765 bound_to 10752
  140.4729  134.6148  157.4889 H   0  0  0  0  0  0  0  0  0  0  0  0  # atno 11005 bound_to 11000
  145.1434  139.2558  143.5478 LP  0  0  0  0  0  0  0  0  0  0  0  0  # atno 17320 bound_to 7965
  146.3523  140.1117  142.8603 LP  0  0  0  0  0  0  0  0  0  0  0  0  # atno 17321 bound_to 7965
  140.2037  143.3939  152.1772 LP  0  0  0  0  0  0  0  0  0  0  0  0  # atno 17342 bound_to 10162
  139.5336  144.7186  151.4969 LP  0  0  0  0  0  0  0  0  0  0  0  0  # atno 17343 bound_to 10162
  156.0482  130.5555  150.8928 LP  0  0  0  0  0  0  0  0  0  0  0  0  # atno 17370 bound_to 10713
  157.5895  131.0945  150.9142 LP  0  0  0  0  0  0  0  0  0  0  0  0  # atno 17371 bound_to 10713
  139.9874  134.7040  155.9750 LP  0  0  0  0  0  0  0  0  0  0  0  0  # atno 17394 bound_to 11000
  141.1568  133.6542  156.4188 LP  0  0  0  0  0  0  0  0  0  0  0  0  # atno 17395 bound_to 11000

$$$$
