AV-unprocessed.smi:109|AV-procd|sdf|1040|dock3
  -GOLD-   2262018 63D 1   1.00000     0.00000
 Structure written by MMmdl.
 58 61  0  0  0  0  0  0  0  0  1 V2000
  144.4719  137.5355  156.6249 O   0  0  0  0  0  0  0  0  0  0  0  0
  145.6795  138.1386  157.0358 C   0  0  0  0  0  0  0  0  0  0  0  0
  146.2165  139.0490  155.9198 C   0  0  0  0  0  0  0  0  0  0  0  0
  146.5080  138.2873  154.6106 C   0  0  1  0  0  0  0  0  0  0  0  0
  145.3090  138.2559  153.7711 N   0  0  0  0  0  0  0  0  0  0  0  0
  144.5802  137.1324  153.5884 C   0  0  0  0  0  0  0  0  0  0  0  0
  143.5482  136.8092  154.4113 N   0  0  0  0  0  0  0  0  0  0  0  0
  142.8457  135.6919  154.1995 C   0  0  0  0  0  0  0  0  0  0  0  0
  143.0017  134.7766  153.2401 N   0  0  0  0  0  0  0  0  0  0  0  0
  144.0374  135.0986  152.4122 C   0  0  0  0  0  0  0  0  0  0  0  0
  144.8685  136.2477  152.5178 C   0  0  0  0  0  0  0  0  0  0  0  0
  145.8109  136.2414  151.4972 N   0  0  0  0  0  0  0  0  0  0  0  0
  145.5427  135.1531  150.8262 C   0  0  0  0  0  0  0  0  0  0  0  0
  144.4881  134.4077  151.3102 N   0  0  0  0  0  0  0  0  0  0  0  0
  143.9099  133.1353  150.7837 C   0  0  2  0  0  0  0  0  0  0  0  0
  144.2650  132.1117  151.6654 O   0  0  0  0  0  0  0  0  0  0  0  0
  144.9411  131.0633  150.9781 C   0  0  2  0  0  0  0  0  0  0  0  0
  145.9311  130.3395  151.9077 C   0  0  0  0  0  0  0  0  0  0  0  0
  146.6739  129.3874  151.1771 O   0  0  0  0  0  0  0  0  0  0  0  0
  145.5608  131.7490  149.7532 C   0  0  2  0  0  0  0  0  0  0  0  0
  146.8105  132.3404  150.0629 O   0  0  0  0  0  0  0  0  0  0  0  0
  144.5349  132.8199  149.4158 C   0  0  1  0  0  0  0  0  0  0  0  0
  143.5659  132.3256  148.5133 O   0  0  0  0  0  0  0  0  0  0  0  0
  147.7282  138.8655  153.8461 C   0  0  0  0  0  0  0  0  0  0  0  0
  149.0774  138.2171  154.2373 C   0  0  0  0  0  0  0  0  0  0  0  0
  150.2415  138.7885  153.4107 C   0  0  0  0  0  0  0  0  0  0  0  0
  150.3157  140.3181  153.5295 C   0  0  0  0  0  0  0  0  0  0  0  0
  148.9821  140.9686  153.1325 C   0  0  0  0  0  0  0  0  0  0  0  0
  147.8193  140.4027  153.9630 C   0  0  0  0  0  0  0  0  0  0  0  0
  142.8323  133.3056  150.7659 H   0  0  0  0  0  0  0  0  0  0  0  0
  144.1875  130.3609  150.6167 H   0  0  0  0  0  0  0  0  0  0  0  0
  145.7181  131.0488  148.9316 H   0  0  0  0  0  0  0  0  0  0  0  0
  144.9850  133.7076  148.9677 H   0  0  0  0  0  0  0  0  0  0  0  0
  143.9680  138.1730  156.1421 H   0  0  0  0  0  0  0  0  0  0  0  0
  145.4996  138.7100  157.9469 H   0  0  0  0  0  0  0  0  0  0  0  0
  146.3973  137.3547  157.2791 H   0  0  0  0  0  0  0  0  0  0  0  0
  145.5064  139.8562  155.7369 H   0  0  0  0  0  0  0  0  0  0  0  0
  147.1336  139.5226  156.2724 H   0  0  0  0  0  0  0  0  0  0  0  0
  146.7802  137.2776  154.9175 H   0  0  0  0  0  0  0  0  0  0  0  0
  145.0589  139.1368  153.3449 H   0  0  0  0  0  0  0  0  0  0  0  0
  142.0428  135.5065  154.8978 H   0  0  0  0  0  0  0  0  0  0  0  0
  146.1075  134.8691  149.9502 H   0  0  0  0  0  0  0  0  0  0  0  0
  146.6412  131.0519  152.3282 H   0  0  0  0  0  0  0  0  0  0  0  0
  145.4167  129.8596  152.7409 H   0  0  0  0  0  0  0  0  0  0  0  0
  147.4657  129.7981  150.8649 H   0  0  0  0  0  0  0  0  0  0  0  0
  147.4788  131.6743  150.0131 H   0  0  0  0  0  0  0  0  0  0  0  0
  143.6324  132.8137  147.7066 H   0  0  0  0  0  0  0  0  0  0  0  0
  147.5642  138.6501  152.7890 H   0  0  0  0  0  0  0  0  0  0  0  0
  149.2787  138.3790  155.2969 H   0  0  0  0  0  0  0  0  0  0  0  0
  149.0395  137.1379  154.0920 H   0  0  0  0  0  0  0  0  0  0  0  0
  151.1820  138.3445  153.7386 H   0  0  0  0  0  0  0  0  0  0  0  0
  150.1168  138.5094  152.3636 H   0  0  0  0  0  0  0  0  0  0  0  0
  150.5665  140.5938  154.5546 H   0  0  0  0  0  0  0  0  0  0  0  0
  151.1186  140.7021  152.8996 H   0  0  0  0  0  0  0  0  0  0  0  0
  149.0416  142.0489  153.2664 H   0  0  0  0  0  0  0  0  0  0  0  0
  148.7925  140.7980  152.0720 H   0  0  0  0  0  0  0  0  0  0  0  0
  146.8842  140.8580  153.6353 H   0  0  0  0  0  0  0  0  0  0  0  0
  147.9550  140.6923  155.0056 H   0  0  0  0  0  0  0  0  0  0  0  0
  1  2  1  0  0  0  0
  1 34  1  0  0  0  0
  2  3  1  0  0  0  0
  2 35  1  0  0  0  0
  2 36  1  0  0  0  0
  3  4  1  0  0  0  0
  3 37  1  0  0  0  0
  3 38  1  0  0  0  0
  4  5  1  0  0  0  0
  4 24  1  0  0  0  0
  4 39  1  0  0  0  0
  5  6  1  0  0  0  0
  5 40  1  0  0  0  0
  6 11  1  0  0  0  0
  6  7  2  0  0  0  0
  7  8  1  0  0  0  0
  8  9  2  0  0  0  0
  8 41  1  0  0  0  0
  9 10  1  0  0  0  0
 10 14  1  0  0  0  0
 10 11  2  0  0  0  0
 11 12  1  0  0  0  0
 12 13  2  0  0  0  0
 13 14  1  0  0  0  0
 13 42  1  0  0  0  0
 14 15  1  0  0  0  0
 15 30  1  0  0  0  0
 15 22  1  0  0  0  0
 15 16  1  0  0  0  0
 16 17  1  0  0  0  0
 17 31  1  0  0  0  0
 17 18  1  0  0  0  0
 17 20  1  0  0  0  0
 18 19  1  0  0  0  0
 18 43  1  0  0  0  0
 18 44  1  0  0  0  0
 19 45  1  0  0  0  0
 20 32  1  0  0  0  0
 20 21  1  0  0  0  0
 20 22  1  0  0  0  0
 21 46  1  0  0  0  0
 22 33  1  0  0  0  0
 22 23  1  0  0  0  0
 23 47  1  0  0  0  0
 24 29  1  0  0  0  0
 24 25  1  0  0  0  0
 24 48  1  0  0  0  0
 25 26  1  0  0  0  0
 25 49  1  0  0  0  0
 25 50  1  0  0  0  0
 26 27  1  0  0  0  0
 26 51  1  0  0  0  0
 26 52  1  0  0  0  0
 27 28  1  0  0  0  0
 27 53  1  0  0  0  0
 27 54  1  0  0  0  0
 28 29  1  0  0  0  0
 28 55  1  0  0  0  0
 28 56  1  0  0  0  0
 29 57  1  0  0  0  0
 29 58  1  0  0  0  0
M  END
> <s_m_source_file>
AV-unprocessed.smi

> <i_m_source_file_index>
109

> <i_lp_mmshare_version>
43012

> <i_f3d_flags>
0

> <s_epik_input>
W0NIMl0xW0NIMl1bQ0gyXVtDSDJdW0NIMl1bQ0hdMVtDQEhdKFtDSDJdW0NIMl1bT0hdKVtOSF1jKG5bY0hdbjIpYyhjMjMpbltjSF1uM1tDQEBIXTRPW0NASF0oW0NIMl1bT0hdKVtDQEBIXShbT0hdKVtDQEhdNFtPSF0=

> <s_epik_cmdline>
J2VwaWtfcHl0aG9uJywgJy1waCcsICc3LjAnLCAnLXRuJywgJzgnLCAnLW1hJywgJzIwMCcsICctbWV0YWxfYmluZGluZycsICctaW1hZScsICc8aW5maWxlLm1hZT4nLCAnLW9tYWUnLCAnPG91dGZpbGUubWFlPic=

> <r_lp_tautomer_probability>
1

> <r_epik_Ionization_Penalty>
0.000793976

> <r_epik_Ionization_Penalty_Charging>
0

> <r_epik_Ionization_Penalty_Neutral>
0.000793976

> <r_epik_State_Penalty>
-0

> <r_epik_Charging_Adjusted_Penalty>
0

> <i_epik_Tot_Q>
0

> <i_epik_Tot_abs_Q>
0

> <r_epik_Metal_State_Penalty>
-0

> <b_epik_Metal_Only>
0

> <s_epik_Chemistry_Notes>
This compound contains an acetal/aminal-like group ( X-CH(R)-Y where X, Y are N, S, or O) that may be acid/base labile, releasing an aldehyde.

> <s_lp_Force_Field>
OPLS_2005

> <r_lp_Energy>
47.8615

> <b_lp_Chiralities_Consistent>
1

> <s_lp_Variant>
AV-unprocessed.smi:109-10

> <Gold.Version>
5.8.1

> <Gold.Id.Protein>
6NUR|6NUR_protein|mol2

> <Gold.PLP.Fitness>
55.9653

> <Gold.PLP.PLP>
-44.6203

> <Gold.PLP.part.hbond>
-4.1989

> <Gold.PLP.part.metal>
0.0000

> <Gold.PLP.part.buried>
-9.3948

> <Gold.PLP.part.nonpolar>
-33.5054

> <Gold.PLP.part.repulsive>
0.6723

> <Gold.PLP.ligand.clash>
0.0000

> <Gold.PLP.ligand.torsion>
2.1886

> <Gold.PLP.Chemscore.Hbond>
3.2746

> <Gold.PLP.Chemscore.CHOScore>
1.8914

> <Gold.PLP.Chemscore.Metal>
0.0000

> <Gold.Chemscore.Hbonds>
donor molecule, donor type, donor heavy atom, donor atom, acceptor molecule, acceptor atom, score
      L1  H     5    40       P1 10175  0.81
      L1  H    19    45       P1 10747  1.00
      L1  H    21    46       P1 10747  1.00
      P1  H 10785 10796       L1    23  0.38
      L1  C     8    41       P1 11000  0.31
      L1  C    13    42       P1  7921  1.00

> <Gold.PLP.Chemscore.Internal.Correction>
0.2244

> <Gold.Rescore>
     Score         DG    S(hbond)    S(metal)    S(lipo)     H(rot)  DE(clash)    DE(int)     intcor
      7.58     -10.59       3.01        0.00      77.27       5.47       1.03       1.99       ----

> <Gold.Chemscore.Fitness>
7.5791

> <Gold.Chemscore.DG>
-10.5936

> <Gold.Chemscore.ZeroCoef>
-5.4800

> <Gold.Chemscore.Hbond>
3.0141

> <Gold.Chemscore.Metal>
0.0000

> <Gold.Chemscore.Lipo>
77.2651

> <Gold.Chemscore.Internal_Hbond>
0.0000

> <Gold.Chemscore.DEClash>
1.0283

> <Gold.Chemscore.DEInternal>
1.9862

> <Gold.Chemscore.Rot>
5.4662

> <Gold.Chemscore.Internal.Correction>
   9.000000E+99

> <Gold.Chemscore.Hbonds>
donor molecule, donor type, donor heavy atom, donor atom, acceptor molecule, acceptor atom, score
      L1  H     5    40       P1 10175  0.77
      L1  H    19    45       P1 10747  1.00
      L1  H    21    46       P1 10747  1.00
      P1  H 10785 10796       L1    23  0.33

> <Gold.Chemscore.Hbond.Weighted>
-10.0671

> <Gold.Chemscore.Metal.Weighted>
-0.0000

> <Gold.Chemscore.Lipo.Weighted>
-9.0400

> <Gold.Chemscore.Internal_Hbond.Weighted>
0.0000

> <Gold.Chemscore.DEClash.Weighted>
1.0283

> <Gold.Chemscore.DEInternal.Weighted>
1.9862

> <Gold.Chemscore.Rot.Weighted>
13.9935

> <Gold.Chemscore.Internal.Correction.Weighted>
   9.000000E+99

> <Gold.Protein.RotatedTorsions>
[ 6907 6896 6895 6894 ] final  -36.16 input  -60.11 | X-H torsion
[ 7974 7965 7964 7962 ] final   39.92 input  175.53 | X-H torsion
[ 8008 7997 7996 7995 ] final   42.57 input   59.86 | X-H torsion
[ 10167 10162 10161 10158 ] final  162.18 input  -65.29 | X-H torsion
[ 10718 10713 10712 10709 ] final   82.02 input   66.30 | X-H torsion
[ 10763 10752 10751 10750 ] final  145.40 input  -60.55 | X-H torsion
[ 11005 11000 10999 10996 ] final -166.35 input  -57.11 | X-H torsion

> <Gold.Protein.ActiveResidues>
 VAL166  LYS551  ARG553  GLY616  TRP617  ASP618  TYR619  PRO620  LYS621  CYS622 
 ASP623  PHE694  ASN695  SER759  ASP760  ASP761  ALA762  ILE779  LEU786  VAL792 
 PHE793  MET794  SER795  GLU796  ALA797  LYS798  CYS799  TRP800  GLU811  SER814 

> <Gold.Protein.RotatedAtoms>
  151.0307  134.9537  159.8108 H   0  0  0  0  0  0  0  0  0  0  0  0  # atno 6907 bound_to 6896
  152.5345  134.2784  159.9008 H   0  0  0  0  0  0  0  0  0  0  0  0  # atno 6908 bound_to 6896
  151.2794  133.4175  159.2660 H   0  0  0  0  0  0  0  0  0  0  0  0  # atno 6909 bound_to 6896
  146.0946  139.5594  142.9454 H   0  0  0  0  0  0  0  0  0  0  0  0  # atno 7974 bound_to 7965
  155.2883  140.3377  155.4254 H   0  0  0  0  0  0  0  0  0  0  0  0  # atno 8008 bound_to 7997
  156.2058  140.1750  156.7843 H   0  0  0  0  0  0  0  0  0  0  0  0  # atno 8009 bound_to 7997
  154.5618  140.0686  156.8816 H   0  0  0  0  0  0  0  0  0  0  0  0  # atno 8010 bound_to 7997
  139.4857  144.4463  151.8888 H   0  0  0  0  0  0  0  0  0  0  0  0  # atno 10167 bound_to 10162
  157.6847  131.0030  150.2313 H   0  0  0  0  0  0  0  0  0  0  0  0  # atno 10718 bound_to 10713
  154.0048  135.2920  155.3399 H   0  0  0  0  0  0  0  0  0  0  0  0  # atno 10763 bound_to 10752
  154.7138  135.5138  153.8709 H   0  0  0  0  0  0  0  0  0  0  0  0  # atno 10764 bound_to 10752
  153.0749  135.6660  154.0286 H   0  0  0  0  0  0  0  0  0  0  0  0  # atno 10765 bound_to 10752
  140.5655  134.5290  157.5152 H   0  0  0  0  0  0  0  0  0  0  0  0  # atno 11005 bound_to 11000
  145.5973  141.0360  143.2037 LP  0  0  0  0  0  0  0  0  0  0  0  0  # atno 17320 bound_to 7965
  144.7385  139.7515  143.7320 LP  0  0  0  0  0  0  0  0  0  0  0  0  # atno 17321 bound_to 7965
  140.3917  144.2607  150.5899 LP  0  0  0  0  0  0  0  0  0  0  0  0  # atno 17342 bound_to 10162
  140.5140  143.2283  151.8492 LP  0  0  0  0  0  0  0  0  0  0  0  0  # atno 17343 bound_to 10162
  156.2945  130.3750  149.7809 LP  0  0  0  0  0  0  0  0  0  0  0  0  # atno 17370 bound_to 10713
  156.5458  130.8320  151.3284 LP  0  0  0  0  0  0  0  0  0  0  0  0  # atno 17371 bound_to 10713
  139.9387  134.7827  156.0735 LP  0  0  0  0  0  0  0  0  0  0  0  0  # atno 17394 bound_to 11000
  141.1088  133.6650  156.2929 LP  0  0  0  0  0  0  0  0  0  0  0  0  # atno 17395 bound_to 11000

$$$$
