AV-unprocessed.smi:1433|AV-procd|sdf|5836|dock1
  -GOLD-   22720 5493D 1   1.00000     0.00000
 Structure written by MMmdl.
 44 45  0  0  0  0  0  0  0  0  1 V2000
  153.1498  138.7109  154.6960 C   0  0  0  0  0  0  0  0  0  0  0  0
  151.6709  138.5121  154.3479 C   0  0  1  0  0  0  0  0  0  0  0  0
  151.0383  137.3495  155.1362 C   0  0  0  0  0  0  0  0  0  0  0  0
  149.6042  137.1913  154.8710 N   0  0  0  0  0  0  0  0  0  0  0  0
  149.0022  136.0814  155.6463 C   0  0  2  0  0  0  0  0  0  0  0  0
  149.9293  134.8410  155.7356 C   0  0  0  0  0  0  0  0  0  0  0  0
  147.6165  135.6343  155.1040 C   0  0  0  0  0  0  0  0  0  0  0  0
  147.7197  134.9739  153.8088 N   0  0  0  0  0  0  0  0  0  0  0  0
  147.1931  133.7778  153.5087 C   0  0  0  0  0  0  0  0  0  0  0  0
  146.5976  133.0742  154.3239 O   0  0  0  0  0  0  0  0  0  0  0  0
  147.3637  133.3025  152.0647 C   0  0  0  0  0  0  0  0  0  0  0  0
  146.1093  132.8112  151.5200 N   0  0  0  0  0  0  0  0  0  0  0  0
  145.8371  131.5704  150.9822 C   0  0  0  0  0  0  0  0  0  0  0  0
  144.5218  131.5658  150.6161 C   0  0  0  0  0  0  0  0  0  0  0  0
  144.0659  132.8648  150.9757 C   0  0  0  0  0  0  0  0  0  0  0  0
  145.0178  133.6083  151.5160 N   0  0  0  0  0  0  0  0  0  0  0  0
  148.9538  138.4811  155.1266 C   0  0  0  0  0  0  0  0  0  0  0  0
  149.5916  139.6419  154.3393 C   0  0  1  0  0  0  0  0  0  0  0  0
  148.9511  140.9922  154.6780 C   0  0  0  0  0  0  0  0  0  0  0  0
  150.9763  139.7145  154.6535 O   0  0  0  0  0  0  0  0  0  0  0  0
  153.7307  137.8169  154.4675 H   0  0  0  0  0  0  0  0  0  0  0  0
  153.2800  138.9331  155.7555 H   0  0  0  0  0  0  0  0  0  0  0  0
  153.5756  139.5379  154.1273 H   0  0  0  0  0  0  0  0  0  0  0  0
  151.5878  138.3158  153.2774 H   0  0  0  0  0  0  0  0  0  0  0  0
  151.5793  136.4465  154.8596 H   0  0  0  0  0  0  0  0  0  0  0  0
  151.2005  137.5019  156.2045 H   0  0  0  0  0  0  0  0  0  0  0  0
  148.8442  136.4331  156.6672 H   0  0  0  0  0  0  0  0  0  0  0  0
  149.4656  134.0068  156.2614 H   0  0  0  0  0  0  0  0  0  0  0  0
  150.8440  135.0474  156.2896 H   0  0  0  0  0  0  0  0  0  0  0  0
  150.2083  134.4859  154.7431 H   0  0  0  0  0  0  0  0  0  0  0  0
  147.1386  134.9113  155.7630 H   0  0  0  0  0  0  0  0  0  0  0  0
  146.9517  136.4971  155.0349 H   0  0  0  0  0  0  0  0  0  0  0  0
  148.1932  135.4800  153.0740 H   0  0  0  0  0  0  0  0  0  0  0  0
  147.7367  134.1207  151.4464 H   0  0  0  0  0  0  0  0  0  0  0  0
  148.1025  132.5014  152.0183 H   0  0  0  0  0  0  0  0  0  0  0  0
  146.5940  130.8031  150.9086 H   0  0  0  0  0  0  0  0  0  0  0  0
  143.9696  130.7566  150.1614 H   0  0  0  0  0  0  0  0  0  0  0  0
  143.0784  133.2865  150.8611 H   0  0  0  0  0  0  0  0  0  0  0  0
  147.9053  138.4454  154.8389 H   0  0  0  0  0  0  0  0  0  0  0  0
  148.9834  138.7033  156.1943 H   0  0  0  0  0  0  0  0  0  0  0  0
  149.4796  139.4614  153.2688 H   0  0  0  0  0  0  0  0  0  0  0  0
  147.8862  140.9913  154.4441 H   0  0  0  0  0  0  0  0  0  0  0  0
  149.4154  141.7974  154.1080 H   0  0  0  0  0  0  0  0  0  0  0  0
  149.0617  141.2270  155.7370 H   0  0  0  0  0  0  0  0  0  0  0  0
  1  2  1  0  0  0  0
  1 21  1  0  0  0  0
  1 22  1  0  0  0  0
  1 23  1  0  0  0  0
  2 20  1  0  0  0  0
  2  3  1  0  0  0  0
  2 24  1  0  0  0  0
  3  4  1  0  0  0  0
  3 25  1  0  0  0  0
  3 26  1  0  0  0  0
  4  5  1  0  0  0  0
  4 17  1  0  0  0  0
  5  6  1  0  0  0  0
  5  7  1  0  0  0  0
  5 27  1  0  0  0  0
  6 28  1  0  0  0  0
  6 29  1  0  0  0  0
  6 30  1  0  0  0  0
  7  8  1  0  0  0  0
  7 31  1  0  0  0  0
  7 32  1  0  0  0  0
  8  9  1  0  0  0  0
  8 33  1  0  0  0  0
  9 10  2  0  0  0  0
  9 11  1  0  0  0  0
 11 12  1  0  0  0  0
 11 34  1  0  0  0  0
 11 35  1  0  0  0  0
 12 16  1  0  0  0  0
 12 13  1  0  0  0  0
 13 14  2  0  0  0  0
 13 36  1  0  0  0  0
 14 15  1  0  0  0  0
 14 37  1  0  0  0  0
 15 16  2  0  0  0  0
 15 38  1  0  0  0  0
 17 18  1  0  0  0  0
 17 39  1  0  0  0  0
 17 40  1  0  0  0  0
 18 19  1  0  0  0  0
 18 20  1  0  0  0  0
 18 41  1  0  0  0  0
 19 42  1  0  0  0  0
 19 43  1  0  0  0  0
 19 44  1  0  0  0  0
M  END
> <s_m_source_file>
AV-unprocessed.smi

> <i_m_source_file_index>
1433

> <i_lp_mmshare_version>
43012

> <i_f3d_flags>
0

> <s_epik_input>
W0NIM11bQ0BASF0xW0NIMl1OKFtDSDJdW0NASF0oTzEpW0NIM10pW0NASF0oW0NIM10pW0NIMl1bTkhdQyg9TylbQ0gyXW4yW2NIXVtjSF1bY0hdbjI=

> <s_epik_cmdline>
J2VwaWtfcHl0aG9uJywgJy1waCcsICc3LjAnLCAnLXRuJywgJzgnLCAnLW1hJywgJzIwMCcsICctbWV0YWxfYmluZGluZycsICctaW1hZScsICc8aW5maWxlLm1hZT4nLCAnLW9tYWUnLCAnPG91dGZpbGUubWFlPic=

> <r_lp_tautomer_probability>
1

> <r_epik_Ionization_Penalty>
0.196927

> <r_epik_Ionization_Penalty_Charging>
0

> <r_epik_Ionization_Penalty_Neutral>
0.196927

> <r_epik_State_Penalty>
0.186684

> <r_epik_Charging_Adjusted_Penalty>
0.186684

> <i_epik_Tot_Q>
0

> <i_epik_Tot_abs_Q>
0

> <r_epik_Metal_State_Penalty>
0.186682

> <b_epik_Metal_Only>
0

> <s_lp_Force_Field>
OPLS_2005

> <r_lp_Energy>
26.9477

> <b_lp_Chiralities_Consistent>
1

> <s_lp_Variant>
AV-unprocessed.smi:1433-2

> <Gold.Version>
5.8.1

> <Gold.Id.Protein>
6NUR|6NUR_protein|mol2

> <Gold.PLP.Fitness>
45.8025

> <Gold.PLP.PLP>
-34.7549

> <Gold.PLP.part.hbond>
-2.0000

> <Gold.PLP.part.metal>
0.0000

> <Gold.PLP.part.buried>
-5.4028

> <Gold.PLP.part.nonpolar>
-27.7316

> <Gold.PLP.part.repulsive>
0.4208

> <Gold.PLP.ligand.clash>
0.0000

> <Gold.PLP.ligand.torsion>
0.4970

> <Gold.PLP.Chemscore.Hbond>
2.0000

> <Gold.PLP.Chemscore.CHOScore>
2.0000

> <Gold.PLP.Chemscore.Metal>
0.0000

> <Gold.Chemscore.Hbonds>
donor molecule, donor type, donor heavy atom, donor atom, acceptor molecule, acceptor atom, score
      L1  H     8    33       P1  7948  1.00
      P1  H  7989  7998       L1    20  1.00
      L1  C    13    36       P1 10747  1.00
      L1  C    15    38       P1 10186  0.58

> <Gold.PLP.Chemscore.Internal.Correction>
0.0417

> <Gold.Rescore>
     Score         DG    S(hbond)    S(metal)    S(lipo)     H(rot)  DE(clash)    DE(int)     intcor
     14.51     -15.04       1.27        0.00      84.99       1.80       0.06       0.47       ----

> <Gold.Chemscore.Fitness>
14.5079

> <Gold.Chemscore.DG>
-15.0408

> <Gold.Chemscore.ZeroCoef>
-5.4800

> <Gold.Chemscore.Hbond>
1.2677

> <Gold.Chemscore.Metal>
0.0000

> <Gold.Chemscore.Lipo>
84.9942

> <Gold.Chemscore.Internal_Hbond>
0.0000

> <Gold.Chemscore.DEClash>
0.0580

> <Gold.Chemscore.DEInternal>
0.4749

> <Gold.Chemscore.Rot>
1.8038

> <Gold.Chemscore.Internal.Correction>
   9.000000E+99

> <Gold.Chemscore.Hbonds>
donor molecule, donor type, donor heavy atom, donor atom, acceptor molecule, acceptor atom, score
      L1  H     8    33       P1  7948  0.99
      P1  H  7989  7998       L1    20  0.20

> <Gold.Chemscore.Hbond.Weighted>
-4.2342

> <Gold.Chemscore.Metal.Weighted>
-0.0000

> <Gold.Chemscore.Lipo.Weighted>
-9.9443

> <Gold.Chemscore.Internal_Hbond.Weighted>
0.0000

> <Gold.Chemscore.DEClash.Weighted>
0.0580

> <Gold.Chemscore.DEInternal.Weighted>
0.4749

> <Gold.Chemscore.Rot.Weighted>
4.6178

> <Gold.Chemscore.Internal.Correction.Weighted>
   9.000000E+99

> <Gold.Protein.RotatedTorsions>
[ 6907 6896 6895 6894 ] final -176.74 input  -60.11 | X-H torsion
[ 7974 7965 7964 7962 ] final -137.79 input  175.53 | X-H torsion
[ 8008 7997 7996 7995 ] final   15.86 input   59.86 | X-H torsion
[ 10167 10162 10161 10158 ] final -150.16 input  -65.29 | X-H torsion
[ 10718 10713 10712 10709 ] final   53.20 input   66.30 | X-H torsion
[ 10763 10752 10751 10750 ] final  110.69 input  -60.55 | X-H torsion
[ 11005 11000 10999 10996 ] final  120.99 input  -57.11 | X-H torsion

> <Gold.Protein.ActiveResidues>
 VAL166  LYS551  ARG553  GLY616  TRP617  ASP618  TYR619  PRO620  LYS621  CYS622 
 ASP623  PHE694  ASN695  SER759  ASP760  ASP761  ALA762  ILE779  LEU786  VAL792 
 PHE793  MET794  SER795  GLU796  ALA797  LYS798  CYS799  TRP800  GLU811  SER814 

> <Gold.Protein.RotatedAtoms>
  151.6097  133.3348  159.3064 H   0  0  0  0  0  0  0  0  0  0  0  0  # atno 6907 bound_to 6896
  150.8163  134.7350  159.6744 H   0  0  0  0  0  0  0  0  0  0  0  0  # atno 6908 bound_to 6896
  152.4259  134.5875  160.0016 H   0  0  0  0  0  0  0  0  0  0  0  0  # atno 6909 bound_to 6896
  144.8812  140.6511  143.5204 H   0  0  0  0  0  0  0  0  0  0  0  0  # atno 7974 bound_to 7965
  154.8686  140.2955  155.5495 H   0  0  0  0  0  0  0  0  0  0  0  0  # atno 8008 bound_to 7997
  156.3021  140.2464  156.3605 H   0  0  0  0  0  0  0  0  0  0  0  0  # atno 8009 bound_to 7997
  154.8841  140.0397  157.1789 H   0  0  0  0  0  0  0  0  0  0  0  0  # atno 8010 bound_to 7997
  139.7379  143.8707  152.2554 H   0  0  0  0  0  0  0  0  0  0  0  0  # atno 10167 bound_to 10162
  157.5145  130.8523  149.8477 H   0  0  0  0  0  0  0  0  0  0  0  0  # atno 10718 bound_to 10713
  153.4525  135.3740  155.2292 H   0  0  0  0  0  0  0  0  0  0  0  0  # atno 10763 bound_to 10752
  154.8756  135.3889  154.4021 H   0  0  0  0  0  0  0  0  0  0  0  0  # atno 10764 bound_to 10752
  153.4582  135.7086  153.6130 H   0  0  0  0  0  0  0  0  0  0  0  0  # atno 10765 bound_to 10752
  139.9207  134.9637  156.7890 H   0  0  0  0  0  0  0  0  0  0  0  0  # atno 11005 bound_to 11000
  145.3950  139.1609  143.4208 LP  0  0  0  0  0  0  0  0  0  0  0  0  # atno 17320 bound_to 7965
  146.2996  140.4042  142.8709 LP  0  0  0  0  0  0  0  0  0  0  0  0  # atno 17321 bound_to 7965
  139.8649  144.7098  150.9055 LP  0  0  0  0  0  0  0  0  0  0  0  0  # atno 17342 bound_to 10162
  140.7781  143.3786  151.1518 LP  0  0  0  0  0  0  0  0  0  0  0  0  # atno 17343 bound_to 10162
  156.0311  130.3764  150.1686 LP  0  0  0  0  0  0  0  0  0  0  0  0  # atno 17370 bound_to 10713
  156.9875  130.9883  151.3423 LP  0  0  0  0  0  0  0  0  0  0  0  0  # atno 17371 bound_to 10713
  140.6482  133.9756  155.7741 LP  0  0  0  0  0  0  0  0  0  0  0  0  # atno 17394 bound_to 11000
  141.0726  134.0183  157.3504 LP  0  0  0  0  0  0  0  0  0  0  0  0  # atno 17395 bound_to 11000

$$$$
