AV-unprocessed.smi:517|AV-procd|sdf|2788|dock10
  -GOLD-   2262023263D 1   1.00000     0.00000
 Structure written by MMmdl.
 35 36  0  0  0  0  0  0  0  0  1 V2000
  147.2994  142.2497  154.1159 C   0  0  0  0  0  0  0  0  0  0  0  0
  148.1340  140.9717  154.0069 C   0  0  0  0  0  0  0  0  0  0  0  0
  149.4832  141.2874  154.3004 O   0  0  0  0  0  0  0  0  0  0  0  0
  149.7358  141.4105  155.6903 C   0  0  0  0  0  0  0  0  0  0  0  0
  151.1792  140.9780  155.9854 C   0  0  0  0  0  0  0  0  0  0  0  0
  151.5602  141.2462  157.3654 N   0  0  0  0  0  0  0  0  0  0  0  0
  151.9018  140.3583  158.3345 C   0  0  0  0  0  0  0  0  0  0  0  0
  151.9188  138.8734  158.0925 C   0  0  2  0  0  0  0  0  0  0  0  0
  152.1662  138.0872  159.3871 C   0  0  0  0  0  0  0  0  0  0  0  0
  152.9030  138.4922  157.1522 O   0  0  0  0  0  0  0  0  0  0  0  0
  152.1890  140.8888  159.5258 N   0  0  0  0  0  0  0  0  0  0  0  0
  152.0423  142.2432  159.3027 C   0  0  0  0  0  0  0  0  0  0  0  0
  152.2172  143.3417  160.1744 C   0  0  0  0  0  0  0  0  0  0  0  0
  152.0113  144.6585  159.7135 C   0  0  0  0  0  0  0  0  0  0  0  0
  151.6267  144.8951  158.3779 C   0  0  0  0  0  0  0  0  0  0  0  0
  151.4432  143.8142  157.4943 C   0  0  0  0  0  0  0  0  0  0  0  0
  151.6512  142.5017  157.9591 C   0  0  0  0  0  0  0  0  0  0  0  0
  146.2522  142.0529  153.8863 H   0  0  0  0  0  0  0  0  0  0  0  0
  147.6578  143.0108  153.4224 H   0  0  0  0  0  0  0  0  0  0  0  0
  147.3496  142.6644  155.1229 H   0  0  0  0  0  0  0  0  0  0  0  0
  147.7603  140.2214  154.7051 H   0  0  0  0  0  0  0  0  0  0  0  0
  148.0549  140.5582  153.0005 H   0  0  0  0  0  0  0  0  0  0  0  0
  149.5881  142.4448  156.0043 H   0  0  0  0  0  0  0  0  0  0  0  0
  149.0343  140.7944  156.2547 H   0  0  0  0  0  0  0  0  0  0  0  0
  151.2913  139.9098  155.7969 H   0  0  0  0  0  0  0  0  0  0  0  0
  151.8760  141.4761  155.3117 H   0  0  0  0  0  0  0  0  0  0  0  0
  150.9642  138.5674  157.6661 H   0  0  0  0  0  0  0  0  0  0  0  0
  151.3998  138.3059  160.1310 H   0  0  0  0  0  0  0  0  0  0  0  0
  153.1334  138.3373  159.8246 H   0  0  0  0  0  0  0  0  0  0  0  0
  152.1504  137.0123  159.2048 H   0  0  0  0  0  0  0  0  0  0  0  0
  152.8878  137.5510  157.0692 H   0  0  0  0  0  0  0  0  0  0  0  0
  152.5120  143.1707  161.1991 H   0  0  0  0  0  0  0  0  0  0  0  0
  152.1500  145.4911  160.3875 H   0  0  0  0  0  0  0  0  0  0  0  0
  151.4732  145.9067  158.0317 H   0  0  0  0  0  0  0  0  0  0  0  0
  151.1517  143.9920  156.4698 H   0  0  0  0  0  0  0  0  0  0  0  0
  1  2  1  0  0  0  0
  1 18  1  0  0  0  0
  1 19  1  0  0  0  0
  1 20  1  0  0  0  0
  2  3  1  0  0  0  0
  2 21  1  0  0  0  0
  2 22  1  0  0  0  0
  3  4  1  0  0  0  0
  4  5  1  0  0  0  0
  4 23  1  0  0  0  0
  4 24  1  0  0  0  0
  5  6  1  0  0  0  0
  5 25  1  0  0  0  0
  5 26  1  0  0  0  0
  6 17  1  0  0  0  0
  6  7  1  0  0  0  0
  7  8  1  0  0  0  0
  7 11  2  0  0  0  0
  8  9  1  0  0  0  0
  8 10  1  0  0  0  0
  8 27  1  0  0  0  0
  9 28  1  0  0  0  0
  9 29  1  0  0  0  0
  9 30  1  0  0  0  0
 10 31  1  0  0  0  0
 11 12  1  0  0  0  0
 12 17  2  0  0  0  0
 12 13  1  0  0  0  0
 13 14  2  0  0  0  0
 13 32  1  0  0  0  0
 14 15  1  0  0  0  0
 14 33  1  0  0  0  0
 15 16  2  0  0  0  0
 15 34  1  0  0  0  0
 16 17  1  0  0  0  0
 16 35  1  0  0  0  0
M  END
> <s_m_source_file>
AV-unprocessed.smi

> <i_m_source_file_index>
517

> <i_lp_mmshare_version>
43012

> <i_f3d_flags>
0

> <s_epik_input>
W0NIM11bQ0gyXU9bQ0gyXVtDSDJdbihjKG4xKVtDQEhdKFtDSDNdKVtPSF0pYyhjMTIpW2NIXVtjSF1bY0hdW2NIXTI=

> <s_epik_cmdline>
J2VwaWtfcHl0aG9uJywgJy1waCcsICc3LjAnLCAnLXRuJywgJzgnLCAnLW1hJywgJzIwMCcsICctbWV0YWxfYmluZGluZycsICctaW1hZScsICc8aW5maWxlLm1hZT4nLCAnLW9tYWUnLCAnPG91dGZpbGUubWFlPic=

> <r_epik_Ionization_Penalty>
0.0517997

> <r_epik_Ionization_Penalty_Charging>
0

> <r_epik_Ionization_Penalty_Neutral>
0.0517997

> <r_epik_State_Penalty>
0.0443961

> <r_epik_Charging_Adjusted_Penalty>
0.0443961

> <i_epik_Tot_Q>
0

> <i_epik_Tot_abs_Q>
0

> <r_epik_Metal_State_Penalty>
4.60999e-05

> <b_epik_Metal_Only>
0

> <s_lp_Force_Field>
OPLS_2005

> <r_lp_Energy>
5.78947

> <b_lp_Chiralities_Consistent>
1

> <s_lp_Variant>
AV-unprocessed.smi:517-1

> <Gold.Version>
5.8.1

> <Gold.Id.Protein>
6NUR|6NUR_protein|mol2

> <Gold.PLP.Fitness>
44.2095

> <Gold.PLP.PLP>
-40.6505

> <Gold.PLP.part.hbond>
-3.0000

> <Gold.PLP.part.metal>
0.0000

> <Gold.PLP.part.buried>
-3.1761

> <Gold.PLP.part.nonpolar>
-32.7305

> <Gold.PLP.part.repulsive>
0.1803

> <Gold.PLP.ligand.clash>
0.0000

> <Gold.PLP.ligand.torsion>
0.3678

> <Gold.PLP.Chemscore.Hbond>
1.4221

> <Gold.PLP.Chemscore.CHOScore>
0.0000

> <Gold.PLP.Chemscore.Metal>
0.0000

> <Gold.Chemscore.Hbonds>
donor molecule, donor type, donor heavy atom, donor atom, acceptor molecule, acceptor atom, score
      P1  H  7989  7998       L1     3  0.13
      P1  H  7997  8009       L1    10  0.49
      P1  H  8011  8017       L1     3  0.17

> <Gold.PLP.Chemscore.Internal.Correction>
0.0283

> <Gold.Rescore>
     Score         DG    S(hbond)    S(metal)    S(lipo)     H(rot)  DE(clash)    DE(int)     intcor
     15.41     -16.24       1.14        0.00     105.61       2.11       0.39       0.44       ----

> <Gold.Chemscore.Fitness>
15.4121

> <Gold.Chemscore.DG>
-16.2449

> <Gold.Chemscore.ZeroCoef>
-5.4800

> <Gold.Chemscore.Hbond>
1.1372

> <Gold.Chemscore.Metal>
0.0000

> <Gold.Chemscore.Lipo>
105.6081

> <Gold.Chemscore.Internal_Hbond>
0.0000

> <Gold.Chemscore.DEClash>
0.3888

> <Gold.Chemscore.DEInternal>
0.4440

> <Gold.Chemscore.Rot>
2.1052

> <Gold.Chemscore.Internal.Correction>
   9.000000E+99

> <Gold.Chemscore.Hbonds>
donor molecule, donor type, donor heavy atom, donor atom, acceptor molecule, acceptor atom, score
      P1  H  7989  7998       L1     3  0.04
      P1  H  7997  8009       L1    10  0.44
      P1  H  8011  8017       L1     3  0.02

> <Gold.Chemscore.Hbond.Weighted>
-3.7982

> <Gold.Chemscore.Metal.Weighted>
-0.0000

> <Gold.Chemscore.Lipo.Weighted>
-12.3561

> <Gold.Chemscore.Internal_Hbond.Weighted>
0.0000

> <Gold.Chemscore.DEClash.Weighted>
0.3888

> <Gold.Chemscore.DEInternal.Weighted>
0.4440

> <Gold.Chemscore.Rot.Weighted>
5.3894

> <Gold.Chemscore.Internal.Correction.Weighted>
   9.000000E+99

> <Gold.Protein.RotatedTorsions>
[ 6907 6896 6895 6894 ] final -115.62 input  -60.11 | X-H torsion
[ 7974 7965 7964 7962 ] final  125.23 input  175.53 | X-H torsion
[ 8008 7997 7996 7995 ] final -173.35 input   59.86 | X-H torsion
[ 10167 10162 10161 10158 ] final  -41.36 input  -65.29 | X-H torsion
[ 10718 10713 10712 10709 ] final -152.93 input   66.30 | X-H torsion
[ 10763 10752 10751 10750 ] final  145.97 input  -60.55 | X-H torsion
[ 11005 11000 10999 10996 ] final   92.48 input  -57.11 | X-H torsion

> <Gold.Protein.ActiveResidues>
 VAL166  LYS551  ARG553  GLY616  TRP617  ASP618  TYR619  PRO620  LYS621  CYS622 
 ASP623  PHE694  ASN695  SER759  ASP760  ASP761  ALA762  ILE779  LEU786  VAL792 
 PHE793  MET794  SER795  GLU796  ALA797  LYS798  CYS799  TRP800  GLU811  SER814 

> <Gold.Protein.RotatedAtoms>
  150.7992  133.8633  159.3237 H   0  0  0  0  0  0  0  0  0  0  0  0  # atno 6907 bound_to 6896
  151.6450  135.1006  160.0158 H   0  0  0  0  0  0  0  0  0  0  0  0  # atno 6908 bound_to 6896
  152.4077  133.6875  159.6406 H   0  0  0  0  0  0  0  0  0  0  0  0  # atno 6909 bound_to 6896
  145.0754  139.3698  143.4936 H   0  0  0  0  0  0  0  0  0  0  0  0  # atno 7974 bound_to 7965
  155.9562  140.1136  157.0934 H   0  0  0  0  0  0  0  0  0  0  0  0  # atno 8008 bound_to 7997
  154.4121  140.1191  156.5185 H   0  0  0  0  0  0  0  0  0  0  0  0  # atno 8009 bound_to 7997
  155.6778  140.3473  155.4846 H   0  0  0  0  0  0  0  0  0  0  0  0  # atno 8010 bound_to 7997
  140.7005  143.3099  151.3055 H   0  0  0  0  0  0  0  0  0  0  0  0  # atno 10167 bound_to 10162
  156.4790  130.8294  151.2521 H   0  0  0  0  0  0  0  0  0  0  0  0  # atno 10718 bound_to 10713
  154.0142  135.2911  155.3389 H   0  0  0  0  0  0  0  0  0  0  0  0  # atno 10763 bound_to 10752
  154.7085  135.5159  153.8634 H   0  0  0  0  0  0  0  0  0  0  0  0  # atno 10764 bound_to 10752
  153.0709  135.6647  154.0371 H   0  0  0  0  0  0  0  0  0  0  0  0  # atno 10765 bound_to 10752
  139.8823  134.8735  156.3578 H   0  0  0  0  0  0  0  0  0  0  0  0  # atno 11005 bound_to 11000
  146.3530  140.0518  142.8635 LP  0  0  0  0  0  0  0  0  0  0  0  0  # atno 17320 bound_to 7965
  145.1242  140.9480  143.4582 LP  0  0  0  0  0  0  0  0  0  0  0  0  # atno 17321 bound_to 7965
  139.6518  144.0348  152.2632 LP  0  0  0  0  0  0  0  0  0  0  0  0  # atno 17342 bound_to 10162
  139.9887  144.6377  150.7834 LP  0  0  0  0  0  0  0  0  0  0  0  0  # atno 17343 bound_to 10162
  157.7485  131.0051  150.3101 LP  0  0  0  0  0  0  0  0  0  0  0  0  # atno 17370 bound_to 10713
  156.3541  130.3836  149.7305 LP  0  0  0  0  0  0  0  0  0  0  0  0  # atno 17371 bound_to 10713
  140.9550  133.7426  156.0323 LP  0  0  0  0  0  0  0  0  0  0  0  0  # atno 17394 bound_to 11000
  140.8059  134.3455  157.5426 LP  0  0  0  0  0  0  0  0  0  0  0  0  # atno 17395 bound_to 11000

$$$$
