AV-unprocessed.smi:1564|AV-procd|sdf|6293|dock1
  -GOLD-   22720 6493D 1   1.00000     0.00000
 Structure written by MMmdl.
 43 44  0  0  0  0  0  0  0  0  2 V2000
  153.7396  139.0036  158.8175 C   0  0  0  0  0  0  0  0  0  0  0  0
  153.3945  139.4792  157.5209 O   0  0  0  0  0  0  0  0  0  0  0  0
  152.5916  138.6879  156.7251 C   0  0  0  0  0  0  0  0  0  0  0  0
  152.1975  139.1789  155.4647 C   0  0  0  0  0  0  0  0  0  0  0  0
  151.3798  138.3769  154.6456 C   0  0  0  0  0  0  0  0  0  0  0  0
  150.9866  137.0999  155.1127 C   0  0  0  0  0  0  0  0  0  0  0  0
  150.1491  136.2061  154.3916 N   0  0  0  0  0  0  0  0  0  0  0  0
  149.7257  134.9826  154.7522 C   0  0  0  0  0  0  0  0  0  0  0  0
  149.9711  134.4295  155.8239 O   0  0  0  0  0  0  0  0  0  0  0  0
  148.9676  134.4283  153.7956 N   0  0  0  0  0  0  0  0  0  0  0  0
  148.3561  133.1061  153.8818 C   0  0  2  0  0  0  0  0  0  0  0  0
  149.3542  131.9666  154.0152 C   0  0  0  0  0  0  0  0  0  0  0  0
  148.4921  130.7655  153.6244 C   0  0  0  0  0  0  0  0  0  0  0  0
  147.5806  131.2403  152.5525 N   0  3  1  0  0  0  0  0  0  0  0  0
  146.2427  130.5835  152.5000 C   0  0  0  0  0  0  0  0  0  0  0  0
  146.3579  129.0648  152.2584 C   0  0  0  0  0  0  0  0  0  0  0  0
  145.3649  131.2006  151.3936 C   0  0  0  0  0  0  0  0  0  0  0  0
  147.5649  132.7245  152.6242 C   0  0  0  0  0  0  0  0  0  0  0  0
  151.4222  136.7086  156.3957 C   0  0  0  0  0  0  0  0  0  0  0  0
  152.2072  137.4715  157.1849 N   0  0  0  0  0  0  0  0  0  0  0  0
  154.3746  139.7375  159.3133 H   0  0  0  0  0  0  0  0  0  0  0  0
  154.2968  138.0671  158.7631 H   0  0  0  0  0  0  0  0  0  0  0  0
  152.8550  138.8586  159.4393 H   0  0  0  0  0  0  0  0  0  0  0  0
  152.5139  140.1567  155.1324 H   0  0  0  0  0  0  0  0  0  0  0  0
  151.0620  138.7622  153.6895 H   0  0  0  0  0  0  0  0  0  0  0  0
  149.7925  136.5617  153.5165 H   0  0  0  0  0  0  0  0  0  0  0  0
  148.8118  134.9520  152.9464 H   0  0  0  0  0  0  0  0  0  0  0  0
  147.6885  133.0775  154.7460 H   0  0  0  0  0  0  0  0  0  0  0  0
  150.1770  132.0881  153.3091 H   0  0  0  0  0  0  0  0  0  0  0  0
  149.7718  131.8793  155.0189 H   0  0  0  0  0  0  0  0  0  0  0  0
  149.0880  129.9127  153.2983 H   0  0  0  0  0  0  0  0  0  0  0  0
  147.9103  130.4578  154.4951 H   0  0  0  0  0  0  0  0  0  0  0  0
  145.7507  130.7376  153.4619 H   0  0  0  0  0  0  0  0  0  0  0  0
  145.3713  128.6094  152.1670 H   0  0  0  0  0  0  0  0  0  0  0  0
  146.8630  128.5517  153.0765 H   0  0  0  0  0  0  0  0  0  0  0  0
  146.9047  128.8496  151.3395 H   0  0  0  0  0  0  0  0  0  0  0  0
  144.3961  130.7030  151.3426 H   0  0  0  0  0  0  0  0  0  0  0  0
  145.8365  131.1015  150.4151 H   0  0  0  0  0  0  0  0  0  0  0  0
  145.1647  132.2586  151.5584 H   0  0  0  0  0  0  0  0  0  0  0  0
  146.5597  133.1440  152.6682 H   0  0  0  0  0  0  0  0  0  0  0  0
  148.0461  133.1113  151.7248 H   0  0  0  0  0  0  0  0  0  0  0  0
  151.1368  135.7491  156.8023 H   0  0  0  0  0  0  0  0  0  0  0  0
  148.0392  131.0153  151.6811 H   0  0  0  0  0  0  0  0  0  0  0  0
  1  2  1  0  0  0  0
  1 21  1  0  0  0  0
  1 22  1  0  0  0  0
  1 23  1  0  0  0  0
  2  3  1  0  0  0  0
  3 20  1  0  0  0  0
  3  4  2  0  0  0  0
  4  5  1  0  0  0  0
  4 24  1  0  0  0  0
  5  6  2  0  0  0  0
  5 25  1  0  0  0  0
  6  7  1  0  0  0  0
  6 19  1  0  0  0  0
  7  8  1  0  0  0  0
  7 26  1  0  0  0  0
  8  9  2  0  0  0  0
  8 10  1  0  0  0  0
 10 11  1  0  0  0  0
 10 27  1  0  0  0  0
 11 18  1  0  0  0  0
 11 12  1  0  0  0  0
 11 28  1  0  0  0  0
 12 13  1  0  0  0  0
 12 29  1  0  0  0  0
 12 30  1  0  0  0  0
 13 14  1  0  0  0  0
 13 31  1  0  0  0  0
 13 32  1  0  0  0  0
 14 15  1  0  0  0  0
 14 18  1  0  0  0  0
 14 43  1  0  0  0  0
 15 16  1  0  0  0  0
 15 17  1  0  0  0  0
 15 33  1  0  0  0  0
 16 34  1  0  0  0  0
 16 35  1  0  0  0  0
 16 36  1  0  0  0  0
 17 37  1  0  0  0  0
 17 38  1  0  0  0  0
 17 39  1  0  0  0  0
 18 40  1  0  0  0  0
 18 41  1  0  0  0  0
 19 20  2  0  0  0  0
 19 42  1  0  0  0  0
M  CHG  1  14   1
M  END
> <s_m_source_file>
AV-unprocessed.smi

> <i_m_source_file_index>
1564

> <i_lp_mmshare_version>
43012

> <i_f3d_flags>
0

> <s_epik_input>
W0NIM11PYzFbY0hdW2NIXWMoW2NIXW4xKVtOSF1DKD1PKVtOSF1bQ0BASF0yW0NIMl1bQ0gyXU4oW0NIMl0yKVtDSF0oW0NIM10pW0NIM10=

> <s_epik_cmdline>
J2VwaWtfcHl0aG9uJywgJy1waCcsICc3LjAnLCAnLXRuJywgJzgnLCAnLW1hJywgJzIwMCcsICctbWV0YWxfYmluZGluZycsICctaW1hZScsICc8aW5maWxlLm1hZT4nLCAnLW9tYWUnLCAnPG91dGZpbGUubWFlPic=

> <r_lp_tautomer_probability>
1

> <r_epik_Ionization_Penalty>
0.000679474

> <r_epik_Ionization_Penalty_Charging>
0.000606352

> <r_epik_Ionization_Penalty_Neutral>
7.31222e-05

> <r_epik_State_Penalty>
0.000382168

> <r_epik_Charging_Adjusted_Penalty>
0.00098852

> <i_epik_Tot_Q>
1

> <i_epik_Tot_abs_Q>
1

> <r_epik_Metal_State_Penalty>
-0

> <b_epik_Metal_Only>
0

> <s_lp_Force_Field>
OPLS_2005

> <r_lp_Energy>
34.2158

> <b_lp_Chiralities_Consistent>
1

> <s_lp_Variant>
AV-unprocessed.smi:1564-1

> <Gold.Version>
5.8.1

> <Gold.Id.Protein>
6NUR|6NUR_protein|mol2

> <Gold.PLP.Fitness>
46.6092

> <Gold.PLP.PLP>
-34.6794

> <Gold.PLP.part.hbond>
-4.6304

> <Gold.PLP.part.metal>
0.0000

> <Gold.PLP.part.buried>
-2.3838

> <Gold.PLP.part.nonpolar>
-27.7224

> <Gold.PLP.part.repulsive>
0.0958

> <Gold.PLP.ligand.clash>
0.0000

> <Gold.PLP.ligand.torsion>
0.0426

> <Gold.PLP.Chemscore.Hbond>
3.9920

> <Gold.PLP.Chemscore.CHOScore>
0.0000

> <Gold.PLP.Chemscore.Metal>
0.0000

> <Gold.Chemscore.Hbonds>
donor molecule, donor type, donor heavy atom, donor atom, acceptor molecule, acceptor atom, score
      L1  H     7    26       P1  7948  0.98
      L1  H    10    27       P1  7948  0.95
      L1  H    14    43       P1 10747  1.00
      P1  H  7997  8009       L1     2  0.71

> <Gold.PLP.Chemscore.Internal.Correction>
0.0390

> <Gold.Rescore>
     Score         DG    S(hbond)    S(metal)    S(lipo)     H(rot)  DE(clash)    DE(int)     intcor
     20.09     -21.56       3.28        0.00      75.50       1.44       0.01       1.46       ----

> <Gold.Chemscore.Fitness>
20.0912

> <Gold.Chemscore.DG>
-21.5594

> <Gold.Chemscore.ZeroCoef>
-5.4800

> <Gold.Chemscore.Hbond>
3.2765

> <Gold.Chemscore.Metal>
0.0000

> <Gold.Chemscore.Lipo>
75.5027

> <Gold.Chemscore.Internal_Hbond>
0.0000

> <Gold.Chemscore.DEClash>
0.0060

> <Gold.Chemscore.DEInternal>
1.4622

> <Gold.Chemscore.Rot>
1.4445

> <Gold.Chemscore.Internal.Correction>
   9.000000E+99

> <Gold.Chemscore.Hbonds>
donor molecule, donor type, donor heavy atom, donor atom, acceptor molecule, acceptor atom, score
      L1  H     7    26       P1  7948  0.32
      L1  H    10    27       P1  7948  0.21
      L1  H    14    43       P1 10747  1.00
      P1  H  7997  8009       L1     2  0.47

> <Gold.Chemscore.Hbond.Weighted>
-10.9435

> <Gold.Chemscore.Metal.Weighted>
-0.0000

> <Gold.Chemscore.Lipo.Weighted>
-8.8338

> <Gold.Chemscore.Internal_Hbond.Weighted>
0.0000

> <Gold.Chemscore.DEClash.Weighted>
0.0060

> <Gold.Chemscore.DEInternal.Weighted>
1.4622

> <Gold.Chemscore.Rot.Weighted>
3.6979

> <Gold.Chemscore.Internal.Correction.Weighted>
   9.000000E+99

> <Gold.Protein.RotatedTorsions>
[ 6907 6896 6895 6894 ] final  127.30 input  -60.11 | X-H torsion
[ 7974 7965 7964 7962 ] final  161.70 input  175.53 | X-H torsion
[ 8008 7997 7996 7995 ] final  176.13 input   59.86 | X-H torsion
[ 10167 10162 10161 10158 ] final  -12.63 input  -65.29 | X-H torsion
[ 10718 10713 10712 10709 ] final   57.30 input   66.30 | X-H torsion
[ 10763 10752 10751 10750 ] final   45.69 input  -60.55 | X-H torsion
[ 11005 11000 10999 10996 ] final  -89.03 input  -57.11 | X-H torsion

> <Gold.Protein.ActiveResidues>
 VAL166  LYS551  ARG553  GLY616  TRP617  ASP618  TYR619  PRO620  LYS621  CYS622 
 ASP623  PHE694  ASN695  SER759  ASP760  ASP761  ALA762  ILE779  LEU786  VAL792 
 PHE793  MET794  SER795  GLU796  ALA797  LYS798  CYS799  TRP800  GLU811  SER814 

> <Gold.Protein.RotatedAtoms>
  152.3825  133.6566  159.6172 H   0  0  0  0  0  0  0  0  0  0  0  0  # atno 6907 bound_to 6896
  150.7752  133.9090  159.3372 H   0  0  0  0  0  0  0  0  0  0  0  0  # atno 6908 bound_to 6896
  151.6892  135.0950  160.0282 H   0  0  0  0  0  0  0  0  0  0  0  0  # atno 6909 bound_to 6896
  144.7672  139.7936  143.6310 H   0  0  0  0  0  0  0  0  0  0  0  0  # atno 7974 bound_to 7965
  156.0798  140.1391  156.9727 H   0  0  0  0  0  0  0  0  0  0  0  0  # atno 8008 bound_to 7997
  154.4578  140.0954  156.6857 H   0  0  0  0  0  0  0  0  0  0  0  0  # atno 8009 bound_to 7997
  155.5095  140.3453  155.4388 H   0  0  0  0  0  0  0  0  0  0  0  0  # atno 8010 bound_to 7997
  140.7165  143.5512  150.9299 H   0  0  0  0  0  0  0  0  0  0  0  0  # atno 10167 bound_to 10162
  157.5503  130.8761  149.8953 H   0  0  0  0  0  0  0  0  0  0  0  0  # atno 10718 bound_to 10713
  152.9821  135.6031  154.3478 H   0  0  0  0  0  0  0  0  0  0  0  0  # atno 10763 bound_to 10752
  154.3170  135.2770  155.2540 H   0  0  0  0  0  0  0  0  0  0  0  0  # atno 10764 bound_to 10752
  154.4724  135.5938  153.6386 H   0  0  0  0  0  0  0  0  0  0  0  0  # atno 10765 bound_to 10752
  141.1592  133.7606  156.9537 H   0  0  0  0  0  0  0  0  0  0  0  0  # atno 11005 bound_to 11000
  146.1790  139.4974  142.9879 LP  0  0  0  0  0  0  0  0  0  0  0  0  # atno 17320 bound_to 7965
  145.6432  141.0279  143.1800 LP  0  0  0  0  0  0  0  0  0  0  0  0  # atno 17321 bound_to 7965
  139.9236  143.6576  152.3091 LP  0  0  0  0  0  0  0  0  0  0  0  0  # atno 17342 bound_to 10162
  139.7002  144.7636  151.1287 LP  0  0  0  0  0  0  0  0  0  0  0  0  # atno 17343 bound_to 10162
  156.0571  130.3706  150.1067 LP  0  0  0  0  0  0  0  0  0  0  0  0  # atno 17370 bound_to 10713
  156.9240  130.9692  151.3544 LP  0  0  0  0  0  0  0  0  0  0  0  0  # atno 17371 bound_to 10713
  140.1240  134.9399  157.2243 LP  0  0  0  0  0  0  0  0  0  0  0  0  # atno 17394 bound_to 11000
  140.3036  134.3103  155.7283 LP  0  0  0  0  0  0  0  0  0  0  0  0  # atno 17395 bound_to 11000

$$$$
