#       Name:                AV-unprocessed.smi:2973
#       Creating user name   scv26
#       Creation time:       Fri Mar 27 16:25:40 2020


#       File generated by GOLD software.
#

@<TRIPOS>MOLECULE
AV-unprocessed.smi:2973
    56    58     1
SMALL
NO_CHARGES


@<TRIPOS>ATOM
      1 ****        -3.8452   1.6238  -0.5545 C.3            1 S1                 0.0000
      2 ****        -2.8177   1.7220   0.5931 C.3            1 S1                 0.0000
      3 ****        -2.9424   3.0879   1.3028 C.3            1 S1                 0.0000
      4 ****        -1.9810   3.2083   2.4960 C.3            1 S1                 0.0000
      5 ****        -0.5278   2.9631   2.0680 C.3            1 S1                 0.0000
      6 ****        -0.3841   1.5984   1.3773 C.3            1 S1                 0.0000
      7 ****        -1.3404   1.4557   0.1686 C.3            1 S1                 0.0000
      8 ****        -0.9163   2.3081  -0.9298 N.am           1 S1                 0.0000
      9 ****        -0.5147   1.6156  -2.0034 C.2            1 S1                 0.0000
     10 ****        -0.0855   2.1092  -3.0447 O.2            1 S1                 0.0000
     11 ****        -0.6580   0.3042  -1.7383 N.am           1 S1                 0.0000
     12 ****        -0.2705  -0.7784  -2.6513 C.3            1 S1                 0.0000
     13 ****         1.1435  -1.2994  -2.3616 C.2            1 S1                 0.0000
     14 ****         2.0312  -0.5276  -1.9958 O.2            1 S1                 0.0000
     15 ****         1.3389  -2.6172  -2.5253 N.am           1 S1                 0.0000
     16 ****         2.5902  -3.3253  -2.2626 C.3            1 S1                 0.0000
     17 ****         2.6474  -3.9207  -0.8407 C.3            1 S1                 0.0000
     18 ****         2.4691  -2.8955   0.2666 C.ar           1 S1                 0.0000
     19 ****         1.2671  -2.7810   0.9987 C.ar           1 S1                 0.0000
     20 ****         1.1582  -1.7883   1.9943 C.ar           1 S1                 0.0000
     21 ****         2.2514  -0.9317   2.2378 C.ar           1 S1                 0.0000
     22 ****         3.4297  -1.0932   1.4812 C.ar           1 S1                 0.0000
     23 ****         3.4966  -2.0582   0.5377 N.pl3          1 S1                 1.0000
     24 ****        -1.1400   0.1041  -0.5040 C.2            1 S1                 0.0000
     25 ****        -1.3797  -0.9776   0.0334 O.2            1 S1                 0.0000
     26 ****        -3.6499   2.3598  -1.3345 H              1 S1                 0.0000
     27 ****        -4.8558   1.8007  -0.1856 H              1 S1                 0.0000
     28 ****        -3.8441   0.6372  -1.0176 H              1 S1                 0.0000
     29 ****        -3.0900   0.9584   1.3238 H              1 S1                 0.0000
     30 ****        -2.7452   3.8939   0.5946 H              1 S1                 0.0000
     31 ****        -3.9656   3.2330   1.6516 H              1 S1                 0.0000
     32 ****        -2.0725   4.1961   2.9487 H              1 S1                 0.0000
     33 ****        -2.2617   2.4885   3.2658 H              1 S1                 0.0000
     34 ****        -0.2025   3.7573   1.3950 H              1 S1                 0.0000
     35 ****         0.1277   3.0088   2.9381 H              1 S1                 0.0000
     36 ****         0.6522   1.4547   1.0662 H              1 S1                 0.0000
     37 ****        -0.5929   0.8139   2.1063 H              1 S1                 0.0000
     38 ****        -0.9108   3.3159  -0.8684 H              1 S1                 0.0000
     39 ****        -0.9908  -1.5955  -2.5776 H              1 S1                 0.0000
     40 ****        -0.3093  -0.4391  -3.6875 H              1 S1                 0.0000
     41 ****         0.5574  -3.1748  -2.8395 H              1 S1                 0.0000
     42 ****         2.6842  -4.1275  -2.9946 H              1 S1                 0.0000
     43 ****         3.4437  -2.6659  -2.4287 H              1 S1                 0.0000
     44 ****         1.8785  -4.6875  -0.7375 H              1 S1                 0.0000
     45 ****         3.6008  -4.4302  -0.6957 H              1 S1                 0.0000
     46 ****         0.4318  -3.4342   0.7919 H              1 S1                 0.0000
     47 ****         0.2429  -1.6795   2.5573 H              1 S1                 0.0000
     48 ****         2.1850  -0.1599   2.9906 H              1 S1                 0.0000
     49 ****         4.3126  -0.4820   1.5986 H              1 S1                 0.0000
     50 ****         4.3567  -2.1509  -0.0033 H              1 S1                 0.0000
     51 ****        -0.0158   3.1027  -3.1355 LP             1 S1                 0.0000
     52 ****         0.1937   1.5172  -3.8007 LP             1 S1                 0.0000
     53 ****         1.8328   0.4464  -1.8857 LP             1 S1                 0.0000
     54 ****         2.9501  -0.8750  -1.8090 LP             1 S1                 0.0000
     55 ****        -1.7291  -1.0040   0.9700 LP             1 S1                 0.0000
     56 ****        -1.2251  -1.8295  -0.4668 LP             1 S1                 0.0000
@<TRIPOS>BOND
    1    1    2 1     
    2    1   26 1     
    3    1   27 1     
    4    1   28 1     
    5    2    7 1     
    6    2    3 1     
    7    2   29 1     
    8    3    4 1     
    9    3   30 1     
   10    3   31 1     
   11    4    5 1     
   12    4   32 1     
   13    4   33 1     
   14    5    6 1     
   15    5   34 1     
   16    5   35 1     
   17    6    7 1     
   18    6   36 1     
   19    6   37 1     
   20    7   24 1     
   21    7    8 1     
   22    8    9 am    
   23    8   38 1     
   24    9   10 2     
   25    9   11 am    
   26   11   12 1     
   27   11   24 am    
   28   12   13 1     
   29   12   39 1     
   30   12   40 1     
   31   13   14 2     
   32   13   15 am    
   33   15   16 1     
   34   15   41 1     
   35   16   17 1     
   36   16   42 1     
   37   16   43 1     
   38   17   18 1     
   39   17   44 1     
   40   17   45 1     
   41   18   23 ar    
   42   18   19 ar    
   43   19   20 ar    
   44   19   46 1     
   45   20   21 ar    
   46   20   47 1     
   47   21   22 ar    
   48   21   48 1     
   49   22   23 ar    
   50   22   49 1     
   51   23   50 1     
   52   24   25 2     
   53   10   51 1     
   54   10   52 1     
   55   14   53 1     
   56   14   54 1     
   57   25   55 1     
   58   25   56 1     
@<TRIPOS>SUBSTRUCTURE
      1 S1             1
@<TRIPOS>SET
LONE_PAIRS      STATIC     ATOMS    <user>   **** ""
6 51 52 53 54 55 56
DONOR_HYDROGENS      STATIC     ATOMS    <user>   **** ""
3 38 41 50
ATOM$BLUE        STATIC     ATOMS    COLORGROUP SYSTEM
6 51 52 53 54 55 56
ATOM$RED        STATIC     ATOMS    COLORGROUP SYSTEM
3 38 41 50
