AV-unprocessed.smi:1107|AV-procd|sdf|4783|dock3
  -GOLD-   22720 3323D 1   1.00000     0.00000
 Structure written by MMmdl.
 49 50  0  0  0  0  0  0  0  0  2 V2000
  151.2127  141.3844  158.5368 C   0  0  0  0  0  0  0  0  0  0  0  0
  151.1644  139.9755  157.9868 C   0  0  0  0  0  0  0  0  0  0  0  0
  151.5762  139.8793  156.6678 N   0  0  0  0  0  0  0  0  0  0  0  0
  151.5696  138.6282  156.0769 C   0  0  0  0  0  0  0  0  0  0  0  0
  152.0217  138.6108  154.6274 C   0  0  0  0  0  0  0  0  0  0  0  0
  151.1736  137.5287  156.7668 C   0  0  0  0  0  0  0  0  0  0  0  0
  151.1292  136.1296  156.1498 C   0  0  0  0  0  0  0  0  0  0  0  0
  149.7889  135.6667  155.5673 C   0  0  0  0  0  0  0  0  0  0  0  0
  148.7902  136.3684  155.7187 O   0  0  0  0  0  0  0  0  0  0  0  0
  149.7755  134.5099  154.8830 N   0  0  0  0  0  0  0  0  0  0  0  0
  148.6247  133.9170  154.2037 C   0  0  2  0  0  0  0  0  0  0  0  0
  147.5428  133.5955  155.2434 C   0  0  0  0  0  0  0  0  0  0  0  0
  149.0403  132.6544  153.4146 C   0  0  0  0  0  0  0  0  0  0  0  0
  147.9605  132.1411  152.5328 N   0  3  0  0  0  0  0  0  0  0  0  0
  147.1195  131.1073  153.1886 C   0  0  0  0  0  0  0  0  0  0  0  0
  146.1276  130.4897  152.1883 C   0  0  0  0  0  0  0  0  0  0  0  0
  145.2582  131.5716  151.5340 C   0  0  0  0  0  0  0  0  0  0  0  0
  146.1487  132.6484  150.8999 C   0  0  0  0  0  0  0  0  0  0  0  0
  147.1358  133.2213  151.9299 C   0  0  0  0  0  0  0  0  0  0  0  0
  150.7338  137.6957  158.1720 C   0  0  0  0  0  0  0  0  0  0  0  0
  150.3379  136.7401  158.8384 O   0  0  0  0  0  0  0  0  0  0  0  0
  150.7637  138.9855  158.7257 N   0  0  0  0  0  0  0  0  0  0  0  0
  151.8815  140.6711  156.1199 H   0  0  0  0  0  0  0  0  0  0  0  0
  150.8800  141.4099  159.5752 H   0  0  0  0  0  0  0  0  0  0  0  0
  150.5657  142.0422  157.9556 H   0  0  0  0  0  0  0  0  0  0  0  0
  152.2303  141.7739  158.4959 H   0  0  0  0  0  0  0  0  0  0  0  0
  152.9292  138.0167  154.5192 H   0  0  0  0  0  0  0  0  0  0  0  0
  152.2341  139.6157  154.2599 H   0  0  0  0  0  0  0  0  0  0  0  0
  151.2477  138.1790  153.9921 H   0  0  0  0  0  0  0  0  0  0  0  0
  151.4576  135.3923  156.8835 H   0  0  0  0  0  0  0  0  0  0  0  0
  151.8686  136.0695  155.3511 H   0  0  0  0  0  0  0  0  0  0  0  0
  150.6454  134.0005  154.8182 H   0  0  0  0  0  0  0  0  0  0  0  0
  148.1961  134.6467  153.5156 H   0  0  0  0  0  0  0  0  0  0  0  0
  146.6564  133.1732  154.7692 H   0  0  0  0  0  0  0  0  0  0  0  0
  147.2324  134.4938  155.7782 H   0  0  0  0  0  0  0  0  0  0  0  0
  147.8999  132.8761  155.9812 H   0  0  0  0  0  0  0  0  0  0  0  0
  149.9077  132.9118  152.8046 H   0  0  0  0  0  0  0  0  0  0  0  0
  149.3715  131.8646  154.0908 H   0  0  0  0  0  0  0  0  0  0  0  0
  147.7536  130.3171  153.5927 H   0  0  0  0  0  0  0  0  0  0  0  0
  146.5848  131.5502  154.0303 H   0  0  0  0  0  0  0  0  0  0  0  0
  146.6767  129.9460  151.4181 H   0  0  0  0  0  0  0  0  0  0  0  0
  145.4954  129.7578  152.6919 H   0  0  0  0  0  0  0  0  0  0  0  0
  144.6070  131.1283  150.7802 H   0  0  0  0  0  0  0  0  0  0  0  0
  144.6074  132.0247  152.2829 H   0  0  0  0  0  0  0  0  0  0  0  0
  146.7017  132.2219  150.0619 H   0  0  0  0  0  0  0  0  0  0  0  0
  145.5317  133.4481  150.4889 H   0  0  0  0  0  0  0  0  0  0  0  0
  146.5946  133.7511  152.7153 H   0  0  0  0  0  0  0  0  0  0  0  0
  147.7753  133.9545  151.4390 H   0  0  0  0  0  0  0  0  0  0  0  0
  148.4272  131.6730  151.7688 H   0  0  0  0  0  0  0  0  0  0  0  0
  1 24  1  0  0  0  0
  1 25  1  0  0  0  0
  1 26  1  0  0  0  0
  1  2  1  0  0  0  0
  2  3  1  0  0  0  0
  2 22  2  0  0  0  0
  3  4  1  0  0  0  0
  3 23  1  0  0  0  0
  4  6  2  0  0  0  0
  4  5  1  0  0  0  0
  5 27  1  0  0  0  0
  5 28  1  0  0  0  0
  5 29  1  0  0  0  0
  6 20  1  0  0  0  0
  6  7  1  0  0  0  0
  7  8  1  0  0  0  0
  7 30  1  0  0  0  0
  7 31  1  0  0  0  0
  8  9  2  0  0  0  0
  8 10  1  0  0  0  0
 10 11  1  0  0  0  0
 10 32  1  0  0  0  0
 11 12  1  0  0  0  0
 11 13  1  0  0  0  0
 11 33  1  0  0  0  0
 12 34  1  0  0  0  0
 12 35  1  0  0  0  0
 12 36  1  0  0  0  0
 13 14  1  0  0  0  0
 13 37  1  0  0  0  0
 13 38  1  0  0  0  0
 14 19  1  0  0  0  0
 14 15  1  0  0  0  0
 14 49  1  0  0  0  0
 15 16  1  0  0  0  0
 15 39  1  0  0  0  0
 15 40  1  0  0  0  0
 16 17  1  0  0  0  0
 16 41  1  0  0  0  0
 16 42  1  0  0  0  0
 17 18  1  0  0  0  0
 17 43  1  0  0  0  0
 17 44  1  0  0  0  0
 18 19  1  0  0  0  0
 18 45  1  0  0  0  0
 18 46  1  0  0  0  0
 19 47  1  0  0  0  0
 19 48  1  0  0  0  0
 20 21  2  0  0  0  0
 20 22  1  0  0  0  0
M  CHG  1  14   1
M  END
> <s_m_source_file>
AV-unprocessed.smi

> <i_m_source_file_index>
1107

> <i_lp_mmshare_version>
43012

> <i_f3d_flags>
0

> <s_epik_input>
W0NIM11jMW5jKFtDSDNdKWMoYyg9TylbbkhdMSlbQ0gyXUMoPU8pW05IXVtDQEhdKFtDSDNdKVtDSDJdTjJbQ0gyXVtDSDJdW0NIMl1bQ0gyXVtDSDJdMg==

> <s_epik_cmdline>
J2VwaWtfcHl0aG9uJywgJy1waCcsICc3LjAnLCAnLXRuJywgJzgnLCAnLW1hJywgJzIwMCcsICctbWV0YWxfYmluZGluZycsICctaW1hZScsICc8aW5maWxlLm1hZT4nLCAnLW9tYWUnLCAnPG91dGZpbGUubWFlPic=

> <r_lp_tautomer_probability>
0.156392

> <r_epik_Ionization_Penalty>
0.0190033

> <r_epik_Ionization_Penalty_Charging>
0.0189172

> <r_epik_Ionization_Penalty_Neutral>
8.60838e-05

> <r_epik_State_Penalty>
1.15342

> <r_epik_Charging_Adjusted_Penalty>
1.17233

> <i_epik_Tot_Q>
1

> <i_epik_Tot_abs_Q>
1

> <r_epik_Metal_State_Penalty>
1.34593

> <b_epik_Metal_Only>
0

> <s_lp_Force_Field>
OPLS_2005

> <r_lp_Energy>
27.2894

> <b_lp_Chiralities_Consistent>
1

> <s_lp_Variant>
AV-unprocessed.smi:1107-3

> <Gold.Version>
5.8.1

> <Gold.Id.Protein>
6NUR|6NUR_protein|mol2

> <Gold.PLP.Fitness>
37.5744

> <Gold.PLP.PLP>
-33.0950

> <Gold.PLP.part.hbond>
-2.0000

> <Gold.PLP.part.metal>
0.0000

> <Gold.PLP.part.buried>
-7.1769

> <Gold.PLP.part.nonpolar>
-24.8393

> <Gold.PLP.part.repulsive>
0.2160

> <Gold.PLP.ligand.clash>
0.0000

> <Gold.PLP.ligand.torsion>
0.7992

> <Gold.PLP.Chemscore.Hbond>
2.0000

> <Gold.PLP.Chemscore.CHOScore>
0.0000

> <Gold.PLP.Chemscore.Metal>
0.0000

> <Gold.Chemscore.Hbonds>
donor molecule, donor type, donor heavy atom, donor atom, acceptor molecule, acceptor atom, score
      L1  H    14    49       P1 10747  1.00
      P1  H  6896  6908       L1    21  0.84

> <Gold.PLP.Chemscore.Internal.Correction>
0.0778

> <Gold.Rescore>
     Score         DG    S(hbond)    S(metal)    S(lipo)     H(rot)  DE(clash)    DE(int)     intcor
     15.69     -16.43       1.98        0.00      80.43       1.98       0.06       0.68       ----

> <Gold.Chemscore.Fitness>
15.6894

> <Gold.Chemscore.DG>
-16.4287

> <Gold.Chemscore.ZeroCoef>
-5.4800

> <Gold.Chemscore.Hbond>
1.9810

> <Gold.Chemscore.Metal>
0.0000

> <Gold.Chemscore.Lipo>
80.4328

> <Gold.Chemscore.Internal_Hbond>
0.0000

> <Gold.Chemscore.DEClash>
0.0560

> <Gold.Chemscore.DEInternal>
0.6833

> <Gold.Chemscore.Rot>
1.9837

> <Gold.Chemscore.Internal.Correction>
   9.000000E+99

> <Gold.Chemscore.Hbonds>
donor molecule, donor type, donor heavy atom, donor atom, acceptor molecule, acceptor atom, score
      L1  H    14    49       P1 10747  1.00
      P1  H  6896  6908       L1    21  0.81

> <Gold.Chemscore.Hbond.Weighted>
-6.6164

> <Gold.Chemscore.Metal.Weighted>
-0.0000

> <Gold.Chemscore.Lipo.Weighted>
-9.4106

> <Gold.Chemscore.Internal_Hbond.Weighted>
0.0000

> <Gold.Chemscore.DEClash.Weighted>
0.0560

> <Gold.Chemscore.DEInternal.Weighted>
0.6833

> <Gold.Chemscore.Rot.Weighted>
5.0783

> <Gold.Chemscore.Internal.Correction.Weighted>
   9.000000E+99

> <Gold.Protein.RotatedTorsions>
[ 6907 6896 6895 6894 ] final -146.84 input  -60.11 | X-H torsion
[ 7974 7965 7964 7962 ] final -155.39 input  175.53 | X-H torsion
[ 8008 7997 7996 7995 ] final   -9.62 input   59.86 | X-H torsion
[ 10167 10162 10161 10158 ] final  -16.11 input  -65.29 | X-H torsion
[ 10718 10713 10712 10709 ] final   67.17 input   66.30 | X-H torsion
[ 10763 10752 10751 10750 ] final   32.20 input  -60.55 | X-H torsion
[ 11005 11000 10999 10996 ] final -140.14 input  -57.11 | X-H torsion

> <Gold.Protein.ActiveResidues>
 VAL166  LYS551  ARG553  GLY616  TRP617  ASP618  TYR619  PRO620  LYS621  CYS622 
 ASP623  PHE694  ASN695  SER759  ASP760  ASP761  ALA762  ILE779  LEU786  VAL792 
 PHE793  MET794  SER795  GLU796  ALA797  LYS798  CYS799  TRP800  GLU811  SER814 

> <Gold.Protein.RotatedAtoms>
  151.1472  133.4931  159.2595 H   0  0  0  0  0  0  0  0  0  0  0  0  # atno 6907 bound_to 6896
  151.1592  135.0264  159.8712 H   0  0  0  0  0  0  0  0  0  0  0  0  # atno 6908 bound_to 6896
  152.5463  134.1348  159.8507 H   0  0  0  0  0  0  0  0  0  0  0  0  # atno 6909 bound_to 6896
  144.7642  140.4255  143.5954 H   0  0  0  0  0  0  0  0  0  0  0  0  # atno 7974 bound_to 7965
  154.5629  140.2350  155.8307 H   0  0  0  0  0  0  0  0  0  0  0  0  # atno 8008 bound_to 7997
  156.2044  140.3043  155.9555 H   0  0  0  0  0  0  0  0  0  0  0  0  # atno 8009 bound_to 7997
  155.2855  140.0424  157.3009 H   0  0  0  0  0  0  0  0  0  0  0  0  # atno 8010 bound_to 7997
  140.7229  143.5150  150.9703 H   0  0  0  0  0  0  0  0  0  0  0  0  # atno 10167 bound_to 10162
  157.6214  130.9307  150.0207 H   0  0  0  0  0  0  0  0  0  0  0  0  # atno 10718 bound_to 10713
  153.0275  135.6419  154.1318 H   0  0  0  0  0  0  0  0  0  0  0  0  # atno 10763 bound_to 10752
  154.1045  135.2857  155.3246 H   0  0  0  0  0  0  0  0  0  0  0  0  # atno 10764 bound_to 10752
  154.6375  135.5471  153.7814 H   0  0  0  0  0  0  0  0  0  0  0  0  # atno 10765 bound_to 10752
  140.8451  134.2354  157.4790 H   0  0  0  0  0  0  0  0  0  0  0  0  # atno 11005 bound_to 11000
  145.6522  139.1567  143.2855 LP  0  0  0  0  0  0  0  0  0  0  0  0  # atno 17320 bound_to 7965
  146.1734  140.6610  142.9222 LP  0  0  0  0  0  0  0  0  0  0  0  0  # atno 17321 bound_to 7965
  139.8865  143.7007  152.3151 LP  0  0  0  0  0  0  0  0  0  0  0  0  # atno 17342 bound_to 10162
  139.7307  144.7583  151.0806 LP  0  0  0  0  0  0  0  0  0  0  0  0  # atno 17343 bound_to 10162
  156.1362  130.3642  149.9654 LP  0  0  0  0  0  0  0  0  0  0  0  0  # atno 17370 bound_to 10713
  156.7704  130.9184  151.3644 LP  0  0  0  0  0  0  0  0  0  0  0  0  # atno 17371 bound_to 10713
  139.8703  134.9655  156.4532 LP  0  0  0  0  0  0  0  0  0  0  0  0  # atno 17394 bound_to 11000
  140.8852  133.7889  155.9510 LP  0  0  0  0  0  0  0  0  0  0  0  0  # atno 17395 bound_to 11000

$$$$
