AV-unprocessed.smi:72|AV-procd|sdf|693|dock3
  -GOLD-   2262017 03D 1   1.00000     0.00000
 Structure written by MMmdl.
 29 30  0  0  0  0  0  0  0  0  1 V2000
  154.1615  138.4311  154.4092 N   0  0  0  0  0  0  0  0  0  0  0  0
  152.8803  138.4943  154.4804 C   0  0  0  0  0  0  0  0  0  0  0  0
  151.9882  137.6050  153.8629 N   0  0  0  0  0  0  0  0  0  0  0  0
  150.7138  137.7907  154.0225 C   0  0  0  0  0  0  0  0  0  0  0  0
  150.1836  138.8888  154.8200 N   0  0  0  0  0  0  0  0  0  0  0  0
  148.6937  139.1097  155.0131 C   0  0  2  0  0  0  0  0  0  0  0  0
  147.9741  138.0711  154.4106 O   0  0  0  0  0  0  0  0  0  0  0  0
  147.3096  138.5452  153.2421 C   0  0  1  0  0  0  0  0  0  0  0  0
  146.0980  137.6525  152.9347 C   0  0  0  0  0  0  0  0  0  0  0  0
  145.2696  138.2759  151.9768 O   0  0  0  0  0  0  0  0  0  0  0  0
  146.9369  139.9679  153.6563 C   0  0  2  0  0  0  0  0  0  0  0  0
  146.5874  140.7937  152.5609 O   0  0  0  0  0  0  0  0  0  0  0  0
  148.1839  140.4364  154.4002 C   0  0  2  0  0  0  0  0  0  0  0  0
  149.1197  141.0629  153.5350 O   0  0  0  0  0  0  0  0  0  0  0  0
  151.0729  139.7970  155.4443 C   0  0  0  0  0  0  0  0  0  0  0  0
  150.6759  140.7498  156.1152 O   0  0  0  0  0  0  0  0  0  0  0  0
  152.3872  139.5569  155.2481 N   0  0  0  0  0  0  0  0  0  0  0  0
  148.5257  139.0411  156.0894 H   0  0  0  0  0  0  0  0  0  0  0  0
  148.0023  138.5776  152.3989 H   0  0  0  0  0  0  0  0  0  0  0  0
  146.0985  139.9348  154.3540 H   0  0  0  0  0  0  0  0  0  0  0  0
  147.9323  141.1351  155.1990 H   0  0  0  0  0  0  0  0  0  0  0  0
  154.4372  137.6426  153.8414 H   0  0  0  0  0  0  0  0  0  0  0  0
  149.9692  137.1368  153.5691 H   0  0  0  0  0  0  0  0  0  0  0  0
  146.4087  136.6672  152.5862 H   0  0  0  0  0  0  0  0  0  0  0  0
  145.5020  137.5047  153.8356 H   0  0  0  0  0  0  0  0  0  0  0  0
  144.8880  139.0476  152.3665 H   0  0  0  0  0  0  0  0  0  0  0  0
  145.6450  140.8482  152.5156 H   0  0  0  0  0  0  0  0  0  0  0  0
  149.2925  140.4816  152.8104 H   0  0  0  0  0  0  0  0  0  0  0  0
  153.0485  140.1863  155.6788 H   0  0  0  0  0  0  0  0  0  0  0  0
  1  2  2  0  0  0  0
  1 22  1  0  0  0  0
  2 17  1  0  0  0  0
  2  3  1  0  0  0  0
  3  4  2  0  0  0  0
  4  5  1  0  0  0  0
  4 23  1  0  0  0  0
  5  6  1  0  0  0  0
  5 15  1  0  0  0  0
  6 18  1  0  0  0  0
  6 13  1  0  0  0  0
  6  7  1  0  0  0  0
  7  8  1  0  0  0  0
  8 19  1  0  0  0  0
  8  9  1  0  0  0  0
  8 11  1  0  0  0  0
  9 10  1  0  0  0  0
  9 24  1  0  0  0  0
  9 25  1  0  0  0  0
 10 26  1  0  0  0  0
 11 20  1  0  0  0  0
 11 12  1  0  0  0  0
 11 13  1  0  0  0  0
 12 27  1  0  0  0  0
 13 21  1  0  0  0  0
 13 14  1  0  0  0  0
 14 28  1  0  0  0  0
 15 16  2  0  0  0  0
 15 17  1  0  0  0  0
 17 29  1  0  0  0  0
M  END
> <s_m_source_file>
AV-unprocessed.smi

> <i_m_source_file_index>
72

> <i_lp_mmshare_version>
43012

> <i_f3d_flags>
0

> <s_epik_input>
W05IMl1jMW5bY0hdbihjKD1PKW4xKVtDQEBIXTJPW0NASF0oW0NIMl1bT0hdKVtDQEBIXShbT0hdKVtDQEhdMltPSF0=

> <s_epik_cmdline>
J2VwaWtfcHl0aG9uJywgJy1waCcsICc3LjAnLCAnLXRuJywgJzgnLCAnLW1hJywgJzIwMCcsICctbWV0YWxfYmluZGluZycsICctaW1hZScsICc8aW5maWxlLm1hZT4nLCAnLW9tYWUnLCAnPG91dGZpbGUubWFlPic=

> <r_lp_tautomer_probability>
7.17554e-07

> <r_epik_Ionization_Penalty>
0.0066451

> <r_epik_Ionization_Penalty_Charging>
0.00663793

> <r_epik_Ionization_Penalty_Neutral>
7.17052e-06

> <r_epik_State_Penalty>
0.419231

> <r_epik_Charging_Adjusted_Penalty>
0.425868

> <i_epik_Tot_Q>
0

> <i_epik_Tot_abs_Q>
0

> <r_epik_Metal_State_Penalty>
1.44144

> <b_epik_Metal_Only>
0

> <s_epik_Chemistry_Notes>
This compound contains an acetal/aminal-like group ( X-CH(R)-Y where X, Y are N, S, or O) that may be acid/base labile, releasing an aldehyde.

> <s_lp_Force_Field>
OPLS_2005

> <r_lp_Energy>
47.3952

> <b_lp_Chiralities_Consistent>
1

> <s_lp_Variant>
AV-unprocessed.smi:72-31

> <Gold.Version>
5.8.1

> <Gold.Id.Protein>
6NUR|6NUR_protein|mol2

> <Gold.PLP.Fitness>
46.1966

> <Gold.PLP.PLP>
-28.4216

> <Gold.PLP.part.hbond>
-8.7033

> <Gold.PLP.part.metal>
0.0000

> <Gold.PLP.part.buried>
-6.3843

> <Gold.PLP.part.nonpolar>
-16.3734

> <Gold.PLP.part.repulsive>
0.5176

> <Gold.PLP.ligand.clash>
0.0000

> <Gold.PLP.ligand.torsion>
0.0902

> <Gold.PLP.Chemscore.Hbond>
4.9605

> <Gold.PLP.Chemscore.CHOScore>
1.0000

> <Gold.PLP.Chemscore.Metal>
0.0000

> <Gold.Chemscore.Hbonds>
donor molecule, donor type, donor heavy atom, donor atom, acceptor molecule, acceptor atom, score
      L1  H    10    26       P1 10175  1.00
      L1  H    12    27       P1 10175  0.85
      L1  H    14    28       P1  7957  1.00
      P1  H  7997  8008       L1     1  0.39
      P1  H  8011  8017       L1    14  0.15
      P1  H 10752 10763       L1     3  0.46
      L1  C     4    23       P1  7948  1.00

> <Gold.PLP.Chemscore.Internal.Correction>
0.0740

> <Gold.Rescore>
     Score         DG    S(hbond)    S(metal)    S(lipo)     H(rot)  DE(clash)    DE(int)     intcor
      6.60      -7.11       2.96        0.00      18.28       4.06       0.30       0.22       ----

> <Gold.Chemscore.Fitness>
6.5996

> <Gold.Chemscore.DG>
-7.1126

> <Gold.Chemscore.ZeroCoef>
-5.4800

> <Gold.Chemscore.Hbond>
2.9602

> <Gold.Chemscore.Metal>
0.0000

> <Gold.Chemscore.Lipo>
18.2817

> <Gold.Chemscore.Internal_Hbond>
0.0000

> <Gold.Chemscore.DEClash>
0.2978

> <Gold.Chemscore.DEInternal>
0.2152

> <Gold.Chemscore.Rot>
4.0600

> <Gold.Chemscore.Internal.Correction>
   9.000000E+99

> <Gold.Chemscore.Hbonds>
donor molecule, donor type, donor heavy atom, donor atom, acceptor molecule, acceptor atom, score
      L1  H    10    26       P1 10175  0.98
      L1  H    12    27       P1 10175  0.14
      L1  H    14    28       P1  7957  0.99
      P1  H  7997  8008       L1     1  0.09
      P1  H 10752 10763       L1     3  0.14

> <Gold.Chemscore.Hbond.Weighted>
-9.8872

> <Gold.Chemscore.Metal.Weighted>
-0.0000

> <Gold.Chemscore.Lipo.Weighted>
-2.1390

> <Gold.Chemscore.Internal_Hbond.Weighted>
0.0000

> <Gold.Chemscore.DEClash.Weighted>
0.2978

> <Gold.Chemscore.DEInternal.Weighted>
0.2152

> <Gold.Chemscore.Rot.Weighted>
10.3936

> <Gold.Chemscore.Internal.Correction.Weighted>
   9.000000E+99

> <Gold.Protein.RotatedTorsions>
[ 6907 6896 6895 6894 ] final -172.91 input  -60.11 | X-H torsion
[ 7974 7965 7964 7962 ] final  -65.67 input  175.53 | X-H torsion
[ 8008 7997 7996 7995 ] final    2.17 input   59.86 | X-H torsion
[ 10167 10162 10161 10158 ] final   92.81 input  -65.29 | X-H torsion
[ 10718 10713 10712 10709 ] final   91.15 input   66.30 | X-H torsion
[ 10763 10752 10751 10750 ] final   44.22 input  -60.55 | X-H torsion
[ 11005 11000 10999 10996 ] final   87.20 input  -57.11 | X-H torsion

> <Gold.Protein.ActiveResidues>
 VAL166  LYS551  ARG553  GLY616  TRP617  ASP618  TYR619  PRO620  LYS621  CYS622 
 ASP623  PHE694  ASN695  SER759  ASP760  ASP761  ALA762  ILE779  LEU786  VAL792 
 PHE793  MET794  SER795  GLU796  ALA797  LYS798  CYS799  TRP800  GLU811  SER814 

> <Gold.Protein.RotatedAtoms>
  151.5476  133.3422  159.2946 H   0  0  0  0  0  0  0  0  0  0  0  0  # atno 6907 bound_to 6896
  150.8498  134.7821  159.7010 H   0  0  0  0  0  0  0  0  0  0  0  0  # atno 6908 bound_to 6896
  152.4547  134.5326  159.9867 H   0  0  0  0  0  0  0  0  0  0  0  0  # atno 6909 bound_to 6896
  145.7514  140.8906  143.0478 H   0  0  0  0  0  0  0  0  0  0  0  0  # atno 7974 bound_to 7965
  154.6884  140.2648  155.6837 H   0  0  0  0  0  0  0  0  0  0  0  0  # atno 8008 bound_to 7997
  156.2723  140.2796  156.1376 H   0  0  0  0  0  0  0  0  0  0  0  0  # atno 8009 bound_to 7997
  155.0932  140.0373  157.2665 H   0  0  0  0  0  0  0  0  0  0  0  0  # atno 8010 bound_to 7997
  139.8241  144.6718  150.9482 H   0  0  0  0  0  0  0  0  0  0  0  0  # atno 10167 bound_to 10162
  157.6960  131.0397  150.3686 H   0  0  0  0  0  0  0  0  0  0  0  0  # atno 10718 bound_to 10713
  152.9845  135.6077  154.3238 H   0  0  0  0  0  0  0  0  0  0  0  0  # atno 10763 bound_to 10752
  154.2946  135.2774  155.2641 H   0  0  0  0  0  0  0  0  0  0  0  0  # atno 10764 bound_to 10752
  154.4921  135.5889  153.6523 H   0  0  0  0  0  0  0  0  0  0  0  0  # atno 10765 bound_to 10752
  139.8925  134.8406  156.2826 H   0  0  0  0  0  0  0  0  0  0  0  0  # atno 11005 bound_to 11000
  144.6849  139.9597  143.7480 LP  0  0  0  0  0  0  0  0  0  0  0  0  # atno 17320 bound_to 7965
  146.0353  139.3371  143.0730 LP  0  0  0  0  0  0  0  0  0  0  0  0  # atno 17321 bound_to 7965
  140.7811  143.4064  151.1065 LP  0  0  0  0  0  0  0  0  0  0  0  0  # atno 17342 bound_to 10162
  139.7722  143.8477  152.3122 LP  0  0  0  0  0  0  0  0  0  0  0  0  # atno 17343 bound_to 10162
  156.4113  130.3935  149.6889 LP  0  0  0  0  0  0  0  0  0  0  0  0  # atno 17370 bound_to 10713
  156.4172  130.7751  151.2767 LP  0  0  0  0  0  0  0  0  0  0  0  0  # atno 17371 bound_to 10713
  141.0028  133.7141  156.0988 LP  0  0  0  0  0  0  0  0  0  0  0  0  # atno 17394 bound_to 11000
  140.7474  134.4083  157.5546 LP  0  0  0  0  0  0  0  0  0  0  0  0  # atno 17395 bound_to 11000

$$$$
