AV-unprocessed.smi:1278|AV-procd|sdf|5347|dock7
  -GOLD-   22720 4483D 1   1.00000     0.00000
 Structure written by MMmdl.
 39 40  0  0  0  0  0  0  0  0  2 V2000
  145.8854  132.7607  149.9636 C   0  0  0  0  0  0  0  0  0  0  0  0
  146.6691  133.5609  151.0138 C   0  0  2  0  0  0  0  0  0  0  0  0
  147.1872  132.6512  152.1406 C   0  0  0  0  0  0  0  0  0  0  0  0
  147.9397  133.4795  153.1892 C   0  0  0  0  0  0  0  0  0  0  0  0
  147.0606  134.6227  153.7199 C   0  0  0  0  0  0  0  0  0  0  0  0
  146.5798  135.4884  152.6122 N   0  3  2  0  0  0  0  0  0  0  0  0
  145.8374  136.6725  153.1124 C   0  0  0  0  0  0  0  0  0  0  0  0
  146.0502  137.9179  152.2301 C   0  0  0  0  0  0  0  0  0  0  0  0
  147.2587  138.6417  152.6088 N   0  0  0  0  0  0  0  0  0  0  0  0
  147.5249  139.0873  153.8454 C   0  0  0  0  0  0  0  0  0  0  0  0
  146.7634  138.9232  154.7992 O   0  0  0  0  0  0  0  0  0  0  0  0
  148.7106  139.7195  153.8949 N   0  0  0  0  0  0  0  0  0  0  0  0
  149.3447  140.3046  155.0226 C   0  0  0  0  0  0  0  0  0  0  0  0
  150.6686  140.4503  155.1516 N   0  0  0  0  0  0  0  0  0  0  0  0
  151.0137  141.0634  156.3586 C   0  0  0  0  0  0  0  0  0  0  0  0
  149.9321  141.3807  157.1422 C   0  0  0  0  0  0  0  0  0  0  0  0
  148.4282  140.9176  156.3913 S   0  0  0  0  0  0  0  0  0  0  0  0
  145.8190  134.7066  151.5999 C   0  0  0  0  0  0  0  0  0  0  0  0
  144.9997  132.2959  150.3980 H   0  0  0  0  0  0  0  0  0  0  0  0
  146.4998  131.9689  149.5342 H   0  0  0  0  0  0  0  0  0  0  0  0
  145.5568  133.4020  149.1451 H   0  0  0  0  0  0  0  0  0  0  0  0
  147.5317  134.0029  150.5125 H   0  0  0  0  0  0  0  0  0  0  0  0
  146.3527  132.1318  152.6142 H   0  0  0  0  0  0  0  0  0  0  0  0
  147.8443  131.8808  151.7354 H   0  0  0  0  0  0  0  0  0  0  0  0
  148.2547  132.8388  154.0135 H   0  0  0  0  0  0  0  0  0  0  0  0
  148.8506  133.8895  152.7506 H   0  0  0  0  0  0  0  0  0  0  0  0
  146.2057  134.2206  154.2660 H   0  0  0  0  0  0  0  0  0  0  0  0
  147.6395  135.2161  154.4285 H   0  0  0  0  0  0  0  0  0  0  0  0
  144.7782  136.4253  153.2013 H   0  0  0  0  0  0  0  0  0  0  0  0
  146.1797  136.9148  154.1198 H   0  0  0  0  0  0  0  0  0  0  0  0
  146.1464  137.6207  151.1854 H   0  0  0  0  0  0  0  0  0  0  0  0
  145.1993  138.5977  152.2808 H   0  0  0  0  0  0  0  0  0  0  0  0
  147.9349  138.8192  151.8799 H   0  0  0  0  0  0  0  0  0  0  0  0
  149.2236  139.7852  153.0282 H   0  0  0  0  0  0  0  0  0  0  0  0
  152.0564  141.2371  156.5796 H   0  0  0  0  0  0  0  0  0  0  0  0
  149.9294  141.8569  158.1114 H   0  0  0  0  0  0  0  0  0  0  0  0
  145.4983  135.3587  150.7880 H   0  0  0  0  0  0  0  0  0  0  0  0
  144.9119  134.3074  152.0571 H   0  0  0  0  0  0  0  0  0  0  0  0
  147.4068  135.8415  152.1526 H   0  0  0  0  0  0  0  0  0  0  0  0
  1  2  1  0  0  0  0
  1 19  1  0  0  0  0
  1 20  1  0  0  0  0
  1 21  1  0  0  0  0
  2 18  1  0  0  0  0
  2  3  1  0  0  0  0
  2 22  1  0  0  0  0
  3  4  1  0  0  0  0
  3 23  1  0  0  0  0
  3 24  1  0  0  0  0
  4  5  1  0  0  0  0
  4 25  1  0  0  0  0
  4 26  1  0  0  0  0
  5  6  1  0  0  0  0
  5 27  1  0  0  0  0
  5 28  1  0  0  0  0
  6  7  1  0  0  0  0
  6 18  1  0  0  0  0
  6 39  1  0  0  0  0
  7  8  1  0  0  0  0
  7 29  1  0  0  0  0
  7 30  1  0  0  0  0
  8  9  1  0  0  0  0
  8 31  1  0  0  0  0
  8 32  1  0  0  0  0
  9 10  1  0  0  0  0
  9 33  1  0  0  0  0
 10 11  2  0  0  0  0
 10 12  1  0  0  0  0
 12 13  1  0  0  0  0
 12 34  1  0  0  0  0
 13 17  1  0  0  0  0
 13 14  2  0  0  0  0
 14 15  1  0  0  0  0
 15 16  2  0  0  0  0
 15 35  1  0  0  0  0
 16 17  1  0  0  0  0
 16 36  1  0  0  0  0
 18 37  1  0  0  0  0
 18 38  1  0  0  0  0
M  CHG  1   6   1
M  END
> <s_m_source_file>
AV-unprocessed.smi

> <i_m_source_file_index>
1278

> <i_lp_mmshare_version>
43012

> <i_f3d_flags>
0

> <s_epik_input>
W0NIM11bQ0BASF0xW0NIMl1bQ0gyXVtDSDJdTihbQ0gyXTEpW0NIMl1bQ0gyXVtOSF1DKD1PKVtOSF1jMm5bY0hdW2NIXXMy

> <s_epik_cmdline>
J2VwaWtfcHl0aG9uJywgJy1waCcsICc3LjAnLCAnLXRuJywgJzgnLCAnLW1hJywgJzIwMCcsICctbWV0YWxfYmluZGluZycsICctaW1hZScsICc8aW5maWxlLm1hZT4nLCAnLW9tYWUnLCAnPG91dGZpbGUubWFlPic=

> <r_lp_tautomer_probability>
0.999

> <r_epik_Ionization_Penalty>
0.00222194

> <r_epik_Ionization_Penalty_Charging>
0.00208169

> <r_epik_Ionization_Penalty_Neutral>
0.000140251

> <r_epik_State_Penalty>
0.00142585

> <r_epik_Charging_Adjusted_Penalty>
0.00350754

> <i_epik_Tot_Q>
1

> <i_epik_Tot_abs_Q>
1

> <r_epik_Metal_State_Penalty>
0.0570424

> <b_epik_Metal_Only>
0

> <s_lp_Force_Field>
OPLS_2005

> <r_lp_Energy>
14.0127

> <b_lp_Chiralities_Consistent>
1

> <s_lp_Variant>
AV-unprocessed.smi:1278-1

> <Gold.Version>
5.8.1

> <Gold.Id.Protein>
6NUR|6NUR_protein|mol2

> <Gold.PLP.Fitness>
45.5907

> <Gold.PLP.PLP>
-32.6264

> <Gold.PLP.part.hbond>
-5.0000

> <Gold.PLP.part.metal>
0.0000

> <Gold.PLP.part.buried>
-2.8279

> <Gold.PLP.part.nonpolar>
-25.1791

> <Gold.PLP.part.repulsive>
0.3908

> <Gold.PLP.ligand.clash>
0.0000

> <Gold.PLP.ligand.torsion>
0.6940

> <Gold.PLP.Chemscore.Hbond>
4.7760

> <Gold.PLP.Chemscore.CHOScore>
0.0000

> <Gold.PLP.Chemscore.Metal>
0.0000

> <Gold.Chemscore.Hbonds>
donor molecule, donor type, donor heavy atom, donor atom, acceptor molecule, acceptor atom, score
      L1  H     6    39       P1  7948  2.00
      L1  H     9    33       P1  7957  0.68
      L1  H    12    34       P1  7957  1.00
      P1  H  7989  7998       L1    14  1.00

> <Gold.PLP.Chemscore.Internal.Correction>
0.0245

> <Gold.Rescore>
     Score         DG    S(hbond)    S(metal)    S(lipo)     H(rot)  DE(clash)    DE(int)     intcor
     17.62     -20.91       3.79        0.00      58.74       1.60       0.00       3.30       ----

> <Gold.Chemscore.Fitness>
17.6158

> <Gold.Chemscore.DG>
-20.9130

> <Gold.Chemscore.ZeroCoef>
-5.4800

> <Gold.Chemscore.Hbond>
3.7895

> <Gold.Chemscore.Metal>
0.0000

> <Gold.Chemscore.Lipo>
58.7380

> <Gold.Chemscore.Internal_Hbond>
0.0000

> <Gold.Chemscore.DEClash>
0.0021

> <Gold.Chemscore.DEInternal>
3.2951

> <Gold.Chemscore.Rot>
1.6001

> <Gold.Chemscore.Internal.Correction>
   9.000000E+99

> <Gold.Chemscore.Hbonds>
donor molecule, donor type, donor heavy atom, donor atom, acceptor molecule, acceptor atom, score
      L1  H     6    39       P1  7948  0.98
      L1  H     9    33       P1  7957  0.60
      L1  H    12    34       P1  7957  0.99
      P1  H  7989  7998       L1    14  0.84

> <Gold.Chemscore.Hbond.Weighted>
-12.6569

> <Gold.Chemscore.Metal.Weighted>
-0.0000

> <Gold.Chemscore.Lipo.Weighted>
-6.8723

> <Gold.Chemscore.Internal_Hbond.Weighted>
0.0000

> <Gold.Chemscore.DEClash.Weighted>
0.0021

> <Gold.Chemscore.DEInternal.Weighted>
3.2951

> <Gold.Chemscore.Rot.Weighted>
4.0963

> <Gold.Chemscore.Internal.Correction.Weighted>
   9.000000E+99

> <Gold.Protein.RotatedTorsions>
[ 6907 6896 6895 6894 ] final  -39.64 input  -60.11 | X-H torsion
[ 7974 7965 7964 7962 ] final  -71.09 input  175.53 | X-H torsion
[ 8008 7997 7996 7995 ] final    3.43 input   59.86 | X-H torsion
[ 10167 10162 10161 10158 ] final -150.66 input  -65.29 | X-H torsion
[ 10718 10713 10712 10709 ] final   22.26 input   66.30 | X-H torsion
[ 10763 10752 10751 10750 ] final   79.71 input  -60.55 | X-H torsion
[ 11005 11000 10999 10996 ] final   58.78 input  -57.11 | X-H torsion

> <Gold.Protein.ActiveResidues>
 VAL166  LYS551  ARG553  GLY616  TRP617  ASP618  TYR619  PRO620  LYS621  CYS622 
 ASP623  PHE694  ASN695  SER759  ASP760  ASP761  ALA762  ILE779  LEU786  VAL792 
 PHE793  MET794  SER795  GLU796  ALA797  LYS798  CYS799  TRP800  GLU811  SER814 

> <Gold.Protein.RotatedAtoms>
  150.9880  134.9221  159.7882 H   0  0  0  0  0  0  0  0  0  0  0  0  # atno 6907 bound_to 6896
  152.5242  134.3321  159.9196 H   0  0  0  0  0  0  0  0  0  0  0  0  # atno 6908 bound_to 6896
  151.3327  133.3953  159.2698 H   0  0  0  0  0  0  0  0  0  0  0  0  # atno 6909 bound_to 6896
  145.6826  140.9182  143.0824 H   0  0  0  0  0  0  0  0  0  0  0  0  # atno 7974 bound_to 7965
  154.7036  140.2678  155.6696 H   0  0  0  0  0  0  0  0  0  0  0  0  # atno 8008 bound_to 7997
  156.2773  140.2767  156.1578 H   0  0  0  0  0  0  0  0  0  0  0  0  # atno 8009 bound_to 7997
  155.0731  140.0372  157.2605 H   0  0  0  0  0  0  0  0  0  0  0  0  # atno 8010 bound_to 7997
  139.7335  143.8772  152.2542 H   0  0  0  0  0  0  0  0  0  0  0  0  # atno 10167 bound_to 10162
  157.1498  130.6669  149.6008 H   0  0  0  0  0  0  0  0  0  0  0  0  # atno 10718 bound_to 10713
  153.0974  135.4829  154.8805 H   0  0  0  0  0  0  0  0  0  0  0  0  # atno 10763 bound_to 10752
  154.7340  135.3067  154.8844 H   0  0  0  0  0  0  0  0  0  0  0  0  # atno 10764 bound_to 10752
  153.9472  135.6827  153.4797 H   0  0  0  0  0  0  0  0  0  0  0  0  # atno 10765 bound_to 10752
  140.0352  134.5954  155.9454 H   0  0  0  0  0  0  0  0  0  0  0  0  # atno 11005 bound_to 11000
  144.7021  139.8716  143.7441 LP  0  0  0  0  0  0  0  0  0  0  0  0  # atno 17320 bound_to 7965
  146.0951  139.3943  143.0381 LP  0  0  0  0  0  0  0  0  0  0  0  0  # atno 17321 bound_to 7965
  139.8702  144.7072  150.8996 LP  0  0  0  0  0  0  0  0  0  0  0  0  # atno 17342 bound_to 10162
  140.7775  143.3744  151.1589 LP  0  0  0  0  0  0  0  0  0  0  0  0  # atno 17343 bound_to 10162
  155.9772  130.4748  150.6582 LP  0  0  0  0  0  0  0  0  0  0  0  0  # atno 17370 bound_to 10713
  157.4231  131.0839  151.1112 LP  0  0  0  0  0  0  0  0  0  0  0  0  # atno 17371 bound_to 10713
  141.1853  133.6555  156.5193 LP  0  0  0  0  0  0  0  0  0  0  0  0  # atno 17394 bound_to 11000
  140.4159  134.7230  157.4863 LP  0  0  0  0  0  0  0  0  0  0  0  0  # atno 17395 bound_to 11000

$$$$
