AV-unprocessed.smi:635|AV-procd|sdf|3139|dock10
  -GOLD-   22720 0 63D 1   1.00000     0.00000
 Structure written by MMmdl.
 37 38  0  0  0  0  0  0  0  0  1 V2000
  144.1090  133.8420  150.8036 C   0  0  0  0  0  0  0  0  0  0  0  0
  144.4298  135.3165  150.5353 C   0  0  0  0  0  0  0  0  0  0  0  0
  145.7273  135.7725  151.2204 C   0  0  0  0  0  0  0  0  0  0  0  0
  146.0054  137.2704  151.0422 C   0  0  0  0  0  0  0  0  0  0  0  0
  146.2872  137.8468  152.3123 O   0  0  0  0  0  0  0  0  0  0  0  0
  146.7200  139.2037  152.2730 C   0  0  0  0  0  0  0  0  0  0  0  0
  147.3727  139.6230  153.5950 C   0  0  0  0  0  0  0  0  0  0  0  0
  146.7063  139.6005  154.6294 O   0  0  0  0  0  0  0  0  0  0  0  0
  148.6612  140.0060  153.5200 N   0  0  0  0  0  0  0  0  0  0  0  0
  149.5060  140.4546  154.5683 C   0  0  0  0  0  0  0  0  0  0  0  0
  148.8781  141.2428  155.5553 C   0  0  0  0  0  0  0  0  0  0  0  0
  149.6563  141.7154  156.6256 C   0  0  0  0  0  0  0  0  0  0  0  0
  151.0200  141.3679  156.6384 C   0  0  0  0  0  0  0  0  0  0  0  0
  151.9471  141.7986  157.7319 C   0  0  0  0  0  0  0  0  0  0  0  0
  151.7405  141.3484  159.1612 C   0  0  0  0  0  0  0  0  0  0  0  0
  151.4973  142.7882  158.7823 C   0  0  0  0  0  0  0  0  0  0  0  0
  151.5744  140.6035  155.6714 N   0  0  0  0  0  0  0  0  0  0  0  0
  150.8290  140.1593  154.6543 N   0  0  0  0  0  0  0  0  0  0  0  0
  143.1862  133.5483  150.3029 H   0  0  0  0  0  0  0  0  0  0  0  0
  143.9836  133.6540  151.8702 H   0  0  0  0  0  0  0  0  0  0  0  0
  144.9060  133.1931  150.4393 H   0  0  0  0  0  0  0  0  0  0  0  0
  144.5063  135.4746  149.4590 H   0  0  0  0  0  0  0  0  0  0  0  0
  143.5983  135.9328  150.8787 H   0  0  0  0  0  0  0  0  0  0  0  0
  145.6650  135.5493  152.2861 H   0  0  0  0  0  0  0  0  0  0  0  0
  146.5713  135.1986  150.8359 H   0  0  0  0  0  0  0  0  0  0  0  0
  146.8458  137.4192  150.3627 H   0  0  0  0  0  0  0  0  0  0  0  0
  145.1345  137.7461  150.5900 H   0  0  0  0  0  0  0  0  0  0  0  0
  147.4599  139.3067  151.4789 H   0  0  0  0  0  0  0  0  0  0  0  0
  145.8905  139.8671  152.0226 H   0  0  0  0  0  0  0  0  0  0  0  0
  149.0860  139.9598  152.6053 H   0  0  0  0  0  0  0  0  0  0  0  0
  147.8258  141.4803  155.4973 H   0  0  0  0  0  0  0  0  0  0  0  0
  149.2211  142.3200  157.4074 H   0  0  0  0  0  0  0  0  0  0  0  0
  152.9708  141.8735  157.3698 H   0  0  0  0  0  0  0  0  0  0  0  0
  150.8662  140.7421  159.3898 H   0  0  0  0  0  0  0  0  0  0  0  0
  152.6237  141.1425  159.7625 H   0  0  0  0  0  0  0  0  0  0  0  0
  152.2221  143.5197  159.1335 H   0  0  0  0  0  0  0  0  0  0  0  0
  150.4640  143.1286  158.7514 H   0  0  0  0  0  0  0  0  0  0  0  0
  1  2  1  0  0  0  0
  1 19  1  0  0  0  0
  1 20  1  0  0  0  0
  1 21  1  0  0  0  0
  2  3  1  0  0  0  0
  2 22  1  0  0  0  0
  2 23  1  0  0  0  0
  3  4  1  0  0  0  0
  3 24  1  0  0  0  0
  3 25  1  0  0  0  0
  4  5  1  0  0  0  0
  4 26  1  0  0  0  0
  4 27  1  0  0  0  0
  5  6  1  0  0  0  0
  6  7  1  0  0  0  0
  6 28  1  0  0  0  0
  6 29  1  0  0  0  0
  7  8  2  0  0  0  0
  7  9  1  0  0  0  0
  9 10  1  0  0  0  0
  9 30  1  0  0  0  0
 10 18  1  0  0  0  0
 10 11  2  0  0  0  0
 11 12  1  0  0  0  0
 11 31  1  0  0  0  0
 12 13  2  0  0  0  0
 12 32  1  0  0  0  0
 13 14  1  0  0  0  0
 13 17  1  0  0  0  0
 14 16  1  0  0  0  0
 14 15  1  0  0  0  0
 14 33  1  0  0  0  0
 15 16  1  0  0  0  0
 15 34  1  0  0  0  0
 15 35  1  0  0  0  0
 16 36  1  0  0  0  0
 16 37  1  0  0  0  0
 17 18  2  0  0  0  0
M  END
> <s_m_source_file>
AV-unprocessed.smi

> <i_m_source_file_index>
635

> <i_lp_mmshare_version>
43012

> <i_f3d_flags>
0

> <s_epik_input>
W0NIM11bQ0gyXVtDSDJdW0NIMl1PW0NIMl1DKD1PKVtOSF1jMVtjSF1bY0hdYyhubjEpW0NIXTJbQ0gyXVtDSDJdMg==

> <s_epik_cmdline>
J2VwaWtfcHl0aG9uJywgJy1waCcsICc3LjAnLCAnLXRuJywgJzgnLCAnLW1hJywgJzIwMCcsICctbWV0YWxfYmluZGluZycsICctaW1hZScsICc8aW5maWxlLm1hZT4nLCAnLW9tYWUnLCAnPG91dGZpbGUubWFlPic=

> <r_lp_tautomer_probability>
1

> <r_epik_Ionization_Penalty>
0.00559584

> <r_epik_Ionization_Penalty_Charging>
0

> <r_epik_Ionization_Penalty_Neutral>
0.00559584

> <r_epik_State_Penalty>
-0

> <r_epik_Charging_Adjusted_Penalty>
0

> <i_epik_Tot_Q>
0

> <i_epik_Tot_abs_Q>
0

> <r_epik_Metal_State_Penalty>
-0

> <b_epik_Metal_Only>
0

> <s_lp_Force_Field>
OPLS_2005

> <r_lp_Energy>
16.6483

> <b_lp_Chiralities_Consistent>
1

> <s_lp_Variant>
AV-unprocessed.smi:635-1

> <Gold.Version>
5.8.1

> <Gold.Id.Protein>
6NUR|6NUR_protein|mol2

> <Gold.PLP.Fitness>
35.9347

> <Gold.PLP.PLP>
-31.5883

> <Gold.PLP.part.hbond>
-2.9428

> <Gold.PLP.part.metal>
0.0000

> <Gold.PLP.part.buried>
-2.0821

> <Gold.PLP.part.nonpolar>
-28.4013

> <Gold.PLP.part.repulsive>
0.5816

> <Gold.PLP.ligand.clash>
0.0000

> <Gold.PLP.ligand.torsion>
0.7725

> <Gold.PLP.Chemscore.Hbond>
1.9000

> <Gold.PLP.Chemscore.CHOScore>
0.0000

> <Gold.PLP.Chemscore.Metal>
0.0000

> <Gold.Chemscore.Hbonds>
donor molecule, donor type, donor heavy atom, donor atom, acceptor molecule, acceptor atom, score
      L1  H     9    30       P1  7957  1.00
      P1  H  7989  7998       L1    18  0.85

> <Gold.PLP.Chemscore.Internal.Correction>
0.1915

> <Gold.Rescore>
     Score         DG    S(hbond)    S(metal)    S(lipo)     H(rot)  DE(clash)    DE(int)     intcor
     11.90     -14.58       1.54        0.00      73.42       1.82       0.52       2.16       ----

> <Gold.Chemscore.Fitness>
11.9047

> <Gold.Chemscore.DG>
-14.5819

> <Gold.Chemscore.ZeroCoef>
-5.4800

> <Gold.Chemscore.Hbond>
1.5445

> <Gold.Chemscore.Metal>
0.0000

> <Gold.Chemscore.Lipo>
73.4226

> <Gold.Chemscore.Internal_Hbond>
0.0000

> <Gold.Chemscore.DEClash>
0.5161

> <Gold.Chemscore.DEInternal>
2.1611

> <Gold.Chemscore.Rot>
1.8153

> <Gold.Chemscore.Internal.Correction>
   9.000000E+99

> <Gold.Chemscore.Hbonds>
donor molecule, donor type, donor heavy atom, donor atom, acceptor molecule, acceptor atom, score
      L1  H     9    30       P1  7957  0.94
      P1  H  7989  7998       L1    18  0.11

> <Gold.Chemscore.Hbond.Weighted>
-5.1586

> <Gold.Chemscore.Metal.Weighted>
-0.0000

> <Gold.Chemscore.Lipo.Weighted>
-8.5904

> <Gold.Chemscore.Internal_Hbond.Weighted>
0.0000

> <Gold.Chemscore.DEClash.Weighted>
0.5161

> <Gold.Chemscore.DEInternal.Weighted>
2.1611

> <Gold.Chemscore.Rot.Weighted>
4.6472

> <Gold.Chemscore.Internal.Correction.Weighted>
   9.000000E+99

> <Gold.Protein.RotatedTorsions>
[ 6907 6896 6895 6894 ] final -118.39 input  -60.11 | X-H torsion
[ 7974 7965 7964 7962 ] final -133.26 input  175.53 | X-H torsion
[ 8008 7997 7996 7995 ] final  -26.31 input   59.86 | X-H torsion
[ 10167 10162 10161 10158 ] final -155.63 input  -65.29 | X-H torsion
[ 10718 10713 10712 10709 ] final  125.17 input   66.30 | X-H torsion
[ 10763 10752 10751 10750 ] final  -24.51 input  -60.55 | X-H torsion
[ 11005 11000 10999 10996 ] final   11.85 input  -57.11 | X-H torsion

> <Gold.Protein.ActiveResidues>
 VAL166  LYS551  ARG553  GLY616  TRP617  ASP618  TYR619  PRO620  LYS621  CYS622 
 ASP623  PHE694  ASN695  SER759  ASP760  ASP761  ALA762  ILE779  LEU786  VAL792 
 PHE793  MET794  SER795  GLU796  ALA797  LYS798  CYS799  TRP800  GLU811  SER814 

> <Gold.Protein.RotatedAtoms>
  150.8215  133.8244  159.3136 H   0  0  0  0  0  0  0  0  0  0  0  0  # atno 6907 bound_to 6896
  151.6001  135.1046  160.0068 H   0  0  0  0  0  0  0  0  0  0  0  0  # atno 6908 bound_to 6896
  152.4304  133.7227  159.6599 H   0  0  0  0  0  0  0  0  0  0  0  0  # atno 6909 bound_to 6896
  144.9210  140.7014  143.4965 H   0  0  0  0  0  0  0  0  0  0  0  0  # atno 7974 bound_to 7965
  154.4432  140.1903  156.0755 H   0  0  0  0  0  0  0  0  0  0  0  0  # atno 8008 bound_to 7997
  156.0479  140.3312  155.7290 H   0  0  0  0  0  0  0  0  0  0  0  0  # atno 8009 bound_to 7997
  155.5602  140.0603  157.2821 H   0  0  0  0  0  0  0  0  0  0  0  0  # atno 8010 bound_to 7997
  139.6915  143.9412  152.2387 H   0  0  0  0  0  0  0  0  0  0  0  0  # atno 10167 bound_to 10162
  157.5525  131.1093  150.8677 H   0  0  0  0  0  0  0  0  0  0  0  0  # atno 10718 bound_to 10713
  153.6850  135.6965  153.5107 H   0  0  0  0  0  0  0  0  0  0  0  0  # atno 10763 bound_to 10752
  153.2456  135.4291  155.0743 H   0  0  0  0  0  0  0  0  0  0  0  0  # atno 10764 bound_to 10752
  154.8389  135.3518  154.6392 H   0  0  0  0  0  0  0  0  0  0  0  0  # atno 10765 bound_to 10752
  140.4986  134.0769  155.7788 H   0  0  0  0  0  0  0  0  0  0  0  0  # atno 11005 bound_to 11000
  145.3296  139.1763  143.4544 LP  0  0  0  0  0  0  0  0  0  0  0  0  # atno 17320 bound_to 7965
  146.3204  140.3324  142.8641 LP  0  0  0  0  0  0  0  0  0  0  0  0  # atno 17321 bound_to 7965
  139.9229  144.6788  150.8442 LP  0  0  0  0  0  0  0  0  0  0  0  0  # atno 17342 bound_to 10162
  140.7684  143.3362  151.2304 LP  0  0  0  0  0  0  0  0  0  0  0  0  # atno 17343 bound_to 10162
  156.9198  130.5311  149.5279 LP  0  0  0  0  0  0  0  0  0  0  0  0  # atno 17370 bound_to 10713
  156.0589  130.5646  150.9152 LP  0  0  0  0  0  0  0  0  0  0  0  0  # atno 17371 bound_to 10713
  141.1447  133.9075  157.2243 LP  0  0  0  0  0  0  0  0  0  0  0  0  # atno 17394 bound_to 11000
  139.9727  135.0123  156.9552 LP  0  0  0  0  0  0  0  0  0  0  0  0  # atno 17395 bound_to 11000

$$$$
