AV-unprocessed.smi:2217|AV-procd|sdf|8970|dock3
  -GOLD-   2272012183D 1   1.00000     0.00000
 Structure written by MMmdl.
 45 48  0  0  0  0  0  0  0  0  1 V2000
  146.7107  139.0830  152.0758 C   0  0  0  0  0  0  0  0  0  0  0  0
  147.4185  139.8659  153.1614 C   0  0  0  0  0  0  0  0  0  0  0  0
  147.1206  141.2219  153.3924 C   0  0  0  0  0  0  0  0  0  0  0  0
  147.8063  141.9029  154.4168 C   0  0  0  0  0  0  0  0  0  0  0  0
  148.7706  141.2169  155.1890 C   0  0  0  0  0  0  0  0  0  0  0  0
  149.4019  142.0135  156.1909 N   0  0  0  0  0  0  0  0  0  0  0  0
  149.7648  141.7293  157.4605 C   0  0  0  0  0  0  0  0  0  0  0  0
  149.5659  140.6168  157.9453 O   0  0  0  0  0  0  0  0  0  0  0  0
  150.3479  142.7265  158.1416 N   0  0  0  0  0  0  0  0  0  0  0  0
  150.8011  142.6770  159.5310 C   0  0  2  0  0  0  0  0  0  0  0  0
  151.3897  144.0224  160.0152 C   0  0  2  0  0  0  0  0  0  0  0  0
  151.2207  145.3110  159.2468 C   0  0  0  0  0  0  0  0  0  0  0  0
  152.5221  145.4033  158.4438 C   0  0  0  0  0  0  0  0  0  0  0  0
  153.0319  144.0715  158.4141 O   0  0  0  0  0  0  0  0  0  0  0  0
  152.7676  143.4729  159.6812 C   0  0  2  0  0  0  0  0  0  0  0  0
  152.2035  142.0368  159.6584 C   0  0  0  0  0  0  0  0  0  0  0  0
  152.7210  141.0877  158.5769 C   0  0  0  0  0  0  0  0  0  0  0  0
  153.9473  140.3837  159.1588 C   0  0  0  0  0  0  0  0  0  0  0  0
  153.7462  140.4020  160.6770 C   0  0  0  0  0  0  0  0  0  0  0  0
  152.4701  141.2155  160.9195 C   0  0  0  0  0  0  0  0  0  0  0  0
  149.0486  139.9088  154.9549 N   0  0  0  0  0  0  0  0  0  0  0  0
  148.3921  139.2553  153.9741 C   0  0  0  0  0  0  0  0  0  0  0  0
  146.2971  139.7496  151.3186 H   0  0  0  0  0  0  0  0  0  0  0  0
  145.8948  138.5002  152.5037 H   0  0  0  0  0  0  0  0  0  0  0  0
  147.4020  138.3983  151.5836 H   0  0  0  0  0  0  0  0  0  0  0  0
  146.3797  141.7351  152.7972 H   0  0  0  0  0  0  0  0  0  0  0  0
  147.5889  142.9443  154.6052 H   0  0  0  0  0  0  0  0  0  0  0  0
  149.6437  142.9457  155.8883 H   0  0  0  0  0  0  0  0  0  0  0  0
  150.4718  143.6068  157.6606 H   0  0  0  0  0  0  0  0  0  0  0  0
  150.0760  142.2570  160.2300 H   0  0  0  0  0  0  0  0  0  0  0  0
  151.2639  144.1330  161.0934 H   0  0  0  0  0  0  0  0  0  0  0  0
  150.3508  145.2870  158.5905 H   0  0  0  0  0  0  0  0  0  0  0  0
  151.1053  146.1715  159.9061 H   0  0  0  0  0  0  0  0  0  0  0  0
  152.3689  145.7940  157.4375 H   0  0  0  0  0  0  0  0  0  0  0  0
  153.2410  146.0458  158.9539 H   0  0  0  0  0  0  0  0  0  0  0  0
  153.5290  143.6844  160.4335 H   0  0  0  0  0  0  0  0  0  0  0  0
  151.9579  140.3448  158.3401 H   0  0  0  0  0  0  0  0  0  0  0  0
  152.9624  141.5973  157.6437 H   0  0  0  0  0  0  0  0  0  0  0  0
  154.0594  139.3727  158.7661 H   0  0  0  0  0  0  0  0  0  0  0  0
  154.8500  140.9393  158.9018 H   0  0  0  0  0  0  0  0  0  0  0  0
  153.6533  139.3955  161.0862 H   0  0  0  0  0  0  0  0  0  0  0  0
  154.6012  140.8753  161.1610 H   0  0  0  0  0  0  0  0  0  0  0  0
  152.5605  141.8370  161.8113 H   0  0  0  0  0  0  0  0  0  0  0  0
  151.6384  140.5326  161.0991 H   0  0  0  0  0  0  0  0  0  0  0  0
  148.6534  138.2164  153.8364 H   0  0  0  0  0  0  0  0  0  0  0  0
  1  2  1  0  0  0  0
  1 23  1  0  0  0  0
  1 24  1  0  0  0  0
  1 25  1  0  0  0  0
  2 22  1  0  0  0  0
  2  3  2  0  0  0  0
  3  4  1  0  0  0  0
  3 26  1  0  0  0  0
  4  5  2  0  0  0  0
  4 27  1  0  0  0  0
  5  6  1  0  0  0  0
  5 21  1  0  0  0  0
  6  7  1  0  0  0  0
  6 28  1  0  0  0  0
  7  8  2  0  0  0  0
  7  9  1  0  0  0  0
  9 10  1  0  0  0  0
  9 29  1  0  0  0  0
 10 16  1  0  0  0  0
 10 11  1  0  0  0  0
 10 30  1  0  0  0  0
 11 15  1  0  0  0  0
 11 12  1  0  0  0  0
 11 31  1  0  0  0  0
 12 13  1  0  0  0  0
 12 32  1  0  0  0  0
 12 33  1  0  0  0  0
 13 14  1  0  0  0  0
 13 34  1  0  0  0  0
 13 35  1  0  0  0  0
 14 15  1  0  0  0  0
 15 16  1  0  0  0  0
 15 36  1  0  0  0  0
 16 20  1  0  0  0  0
 16 17  1  0  0  0  0
 17 18  1  0  0  0  0
 17 37  1  0  0  0  0
 17 38  1  0  0  0  0
 18 19  1  0  0  0  0
 18 39  1  0  0  0  0
 18 40  1  0  0  0  0
 19 20  1  0  0  0  0
 19 41  1  0  0  0  0
 19 42  1  0  0  0  0
 20 43  1  0  0  0  0
 20 44  1  0  0  0  0
 21 22  2  0  0  0  0
 22 45  1  0  0  0  0
M  END
> <s_m_source_file>
AV-unprocessed.smi

> <i_m_source_file_index>
2217

> <i_lp_mmshare_version>
43012

> <i_f3d_flags>
0

> <s_epik_input>
W0NIM11jMVtjSF1bY0hdYyhuW2NIXTEpW05IXUMoPU8pW05IXVtDQEBIXTJbQ0BASF0oW0NIMl1bQ0gyXU8zKVtDQEhdM0MyNFtDSDJdW0NIMl1bQ0gyXVtDSDJdNA==

> <s_epik_cmdline>
J2VwaWtfcHl0aG9uJywgJy1waCcsICc3LjAnLCAnLXRuJywgJzgnLCAnLW1hJywgJzIwMCcsICctbWV0YWxfYmluZGluZycsICctaW1hZScsICc8aW5maWxlLm1hZT4nLCAnLW9tYWUnLCAnPG91dGZpbGUubWFlPic=

> <r_lp_tautomer_probability>
1

> <r_epik_Ionization_Penalty>
6.14796e-05

> <r_epik_Ionization_Penalty_Charging>
0

> <r_epik_Ionization_Penalty_Neutral>
6.14796e-05

> <r_epik_State_Penalty>
-0

> <r_epik_Charging_Adjusted_Penalty>
0

> <i_epik_Tot_Q>
0

> <i_epik_Tot_abs_Q>
0

> <r_epik_Metal_State_Penalty>
-0

> <b_epik_Metal_Only>
0

> <s_lp_Force_Field>
OPLS_2005

> <r_lp_Energy>
58.8698

> <b_lp_Chiralities_Consistent>
1

> <s_lp_Variant>
AV-unprocessed.smi:2217-3

> <Gold.Version>
5.8.1

> <Gold.Id.Protein>
6NUR|6NUR_protein|mol2

> <Gold.PLP.Fitness>
38.2940

> <Gold.PLP.PLP>
-35.0449

> <Gold.PLP.part.hbond>
-1.0000

> <Gold.PLP.part.metal>
0.0000

> <Gold.PLP.part.buried>
0.3380

> <Gold.PLP.part.nonpolar>
-33.4837

> <Gold.PLP.part.repulsive>
0.2065

> <Gold.PLP.ligand.clash>
0.0000

> <Gold.PLP.ligand.torsion>
0.4728

> <Gold.PLP.Chemscore.Hbond>
0.8640

> <Gold.PLP.Chemscore.CHOScore>
0.4657

> <Gold.PLP.Chemscore.Metal>
0.0000

> <Gold.Chemscore.Hbonds>
donor molecule, donor type, donor heavy atom, donor atom, acceptor molecule, acceptor atom, score
      L1  H     6    28       P1  8028  0.83
      L1  C    22    45       P1  7948  0.33

> <Gold.PLP.Chemscore.Internal.Correction>
0.2055

> <Gold.Rescore>
     Score         DG    S(hbond)    S(metal)    S(lipo)     H(rot)  DE(clash)    DE(int)     intcor
     18.74     -21.60       0.87        0.00     134.95       1.00       1.76       1.10       ----

> <Gold.Chemscore.Fitness>
18.7445

> <Gold.Chemscore.DG>
-21.5997

> <Gold.Chemscore.ZeroCoef>
-5.4800

> <Gold.Chemscore.Hbond>
0.8655

> <Gold.Chemscore.Metal>
0.0000

> <Gold.Chemscore.Lipo>
134.9490

> <Gold.Chemscore.Internal_Hbond>
0.0000

> <Gold.Chemscore.DEClash>
1.7579

> <Gold.Chemscore.DEInternal>
1.0973

> <Gold.Chemscore.Rot>
1.0000

> <Gold.Chemscore.Internal.Correction>
   9.000000E+99

> <Gold.Chemscore.Hbonds>
donor molecule, donor type, donor heavy atom, donor atom, acceptor molecule, acceptor atom, score
      L1  H     6    28       P1  8028  0.82

> <Gold.Chemscore.Hbond.Weighted>
-2.8907

> <Gold.Chemscore.Metal.Weighted>
-0.0000

> <Gold.Chemscore.Lipo.Weighted>
-15.7890

> <Gold.Chemscore.Internal_Hbond.Weighted>
0.0000

> <Gold.Chemscore.DEClash.Weighted>
1.7579

> <Gold.Chemscore.DEInternal.Weighted>
1.0973

> <Gold.Chemscore.Rot.Weighted>
2.5600

> <Gold.Chemscore.Internal.Correction.Weighted>
   9.000000E+99

> <Gold.Protein.RotatedTorsions>
[ 6907 6896 6895 6894 ] final  166.00 input  -60.11 | X-H torsion
[ 7974 7965 7964 7962 ] final   97.24 input  175.53 | X-H torsion
[ 8008 7997 7996 7995 ] final  102.08 input   59.86 | X-H torsion
[ 10167 10162 10161 10158 ] final   79.73 input  -65.29 | X-H torsion
[ 10718 10713 10712 10709 ] final  -98.69 input   66.30 | X-H torsion
[ 10763 10752 10751 10750 ] final -145.11 input  -60.55 | X-H torsion
[ 11005 11000 10999 10996 ] final -146.78 input  -57.11 | X-H torsion

> <Gold.Protein.ActiveResidues>
 VAL166  LYS551  ARG553  GLY616  TRP617  ASP618  TYR619  PRO620  LYS621  CYS622 
 ASP623  PHE694  ASN695  SER759  ASP760  ASP761  ALA762  ILE779  LEU786  VAL792 
 PHE793  MET794  SER795  GLU796  ALA797  LYS798  CYS799  TRP800  GLU811  SER814 

> <Gold.Protein.RotatedAtoms>
  151.8857  133.3505  159.3781 H   0  0  0  0  0  0  0  0  0  0  0  0  # atno 6907 bound_to 6896
  150.7116  134.4974  159.5554 H   0  0  0  0  0  0  0  0  0  0  0  0  # atno 6908 bound_to 6896
  152.2534  134.8109  160.0493 H   0  0  0  0  0  0  0  0  0  0  0  0  # atno 6909 bound_to 6896
  145.4282  139.2313  143.3159 H   0  0  0  0  0  0  0  0  0  0  0  0  # atno 7974 bound_to 7965
  156.1360  140.3187  155.8421 H   0  0  0  0  0  0  0  0  0  0  0  0  # atno 8008 bound_to 7997
  155.4244  140.0514  157.3040 H   0  0  0  0  0  0  0  0  0  0  0  0  # atno 8009 bound_to 7997
  154.4937  140.2102  155.9506 H   0  0  0  0  0  0  0  0  0  0  0  0  # atno 8010 bound_to 7997
  139.9572  144.5986  150.8105 H   0  0  0  0  0  0  0  0  0  0  0  0  # atno 10167 bound_to 10162
  156.0114  130.5249  150.6560 H   0  0  0  0  0  0  0  0  0  0  0  0  # atno 10718 bound_to 10713
  154.8398  135.3422  154.6452 H   0  0  0  0  0  0  0  0  0  0  0  0  # atno 10763 bound_to 10752
  153.7064  135.6966  153.5054 H   0  0  0  0  0  0  0  0  0  0  0  0  # atno 10764 bound_to 10752
  153.2484  135.4361  155.0726 H   0  0  0  0  0  0  0  0  0  0  0  0  # atno 10765 bound_to 10752
  140.7785  134.3107  157.5053 H   0  0  0  0  0  0  0  0  0  0  0  0  # atno 11005 bound_to 11000
  146.2621  140.5015  142.8849 LP  0  0  0  0  0  0  0  0  0  0  0  0  # atno 17320 bound_to 7965
  144.8200  140.6534  143.6359 LP  0  0  0  0  0  0  0  0  0  0  0  0  # atno 17321 bound_to 7965
  140.7564  143.3066  151.2947 LP  0  0  0  0  0  0  0  0  0  0  0  0  # atno 17342 bound_to 10162
  139.6582  144.0237  152.2674 LP  0  0  0  0  0  0  0  0  0  0  0  0  # atno 17343 bound_to 10162
  157.4311  131.0849  151.1037 LP  0  0  0  0  0  0  0  0  0  0  0  0  # atno 17370 bound_to 10713
  157.1609  130.6225  149.5610 LP  0  0  0  0  0  0  0  0  0  0  0  0  # atno 17371 bound_to 10713
  139.8746  134.9304  156.3500 LP  0  0  0  0  0  0  0  0  0  0  0  0  # atno 17394 bound_to 11000
  140.9506  133.7454  156.0267 LP  0  0  0  0  0  0  0  0  0  0  0  0  # atno 17395 bound_to 11000

$$$$
