AV-unprocessed.smi:1264|AV-procd|sdf|5314|dock1
  -GOLD-   22720 4443D 1   1.00000     0.00000
 Structure written by MMmdl.
 43 43  0  0  0  0  0  0  0  0  1 V2000
  146.2033  138.0564  152.6375 C   0  0  0  0  0  0  0  0  0  0  0  0
  146.4375  136.6238  152.5444 N   0  0  0  0  0  0  0  0  0  0  0  0
  145.5119  135.7311  152.1653 C   0  0  0  0  0  0  0  0  0  0  0  0
  144.3569  136.0442  151.8693 O   0  0  0  0  0  0  0  0  0  0  0  0
  145.9587  134.2593  152.1350 C   0  0  1  0  0  0  0  0  0  0  0  0
  145.8096  133.7493  150.6820 C   0  0  0  0  0  0  0  0  0  0  0  0
  145.8008  132.2118  150.5206 C   0  0  0  0  0  0  0  0  0  0  0  0
  145.9585  131.8251  149.0423 C   0  0  0  0  0  0  0  0  0  0  0  0
  144.5360  131.5654  151.1099 C   0  0  0  0  0  0  0  0  0  0  0  0
  147.3642  134.1608  152.5256 N   0  0  0  0  0  0  0  0  0  0  0  0
  147.8766  133.2559  153.3744 C   0  0  0  0  0  0  0  0  0  0  0  0
  147.2141  132.3593  153.8958 O   0  0  0  0  0  0  0  0  0  0  0  0
  149.3634  133.3973  153.6950 C   0  0  0  0  0  0  0  0  0  0  0  0
  149.5325  133.6940  155.1631 C   0  0  0  0  0  0  0  0  0  0  0  0
  150.1953  132.9025  156.1445 C   0  0  0  0  0  0  0  0  0  0  0  0
  150.8908  131.5836  155.9656 C   0  0  0  0  0  0  0  0  0  0  0  0
  150.1533  133.4618  157.3421 N   0  0  0  0  0  0  0  0  0  0  0  0
  149.4414  134.6546  157.1828 O   0  0  0  0  0  0  0  0  0  0  0  0
  149.0823  134.7696  155.8791 C   0  0  0  0  0  0  0  0  0  0  0  0
  148.2973  135.9821  155.5081 C   0  0  0  0  0  0  0  0  0  0  0  0
  147.1126  138.5612  152.9638 H   0  0  0  0  0  0  0  0  0  0  0  0
  145.4139  138.2746  153.3580 H   0  0  0  0  0  0  0  0  0  0  0  0
  145.9144  138.4663  151.6687 H   0  0  0  0  0  0  0  0  0  0  0  0
  147.3618  136.2895  152.7767 H   0  0  0  0  0  0  0  0  0  0  0  0
  145.3342  133.6748  152.8124 H   0  0  0  0  0  0  0  0  0  0  0  0
  144.8906  134.1481  150.2480 H   0  0  0  0  0  0  0  0  0  0  0  0
  146.6218  134.1581  150.0775 H   0  0  0  0  0  0  0  0  0  0  0  0
  146.6617  131.7999  151.0478 H   0  0  0  0  0  0  0  0  0  0  0  0
  145.1262  132.1982  148.4440 H   0  0  0  0  0  0  0  0  0  0  0  0
  145.9970  130.7424  148.9202 H   0  0  0  0  0  0  0  0  0  0  0  0
  146.8787  132.2336  148.6236 H   0  0  0  0  0  0  0  0  0  0  0  0
  143.6332  131.9696  150.6510 H   0  0  0  0  0  0  0  0  0  0  0  0
  144.4656  131.7236  152.1856 H   0  0  0  0  0  0  0  0  0  0  0  0
  144.5360  130.4873  150.9460 H   0  0  0  0  0  0  0  0  0  0  0  0
  147.9864  134.8637  152.1547 H   0  0  0  0  0  0  0  0  0  0  0  0
  149.8772  132.4780  153.4116 H   0  0  0  0  0  0  0  0  0  0  0  0
  149.7927  134.1856  153.0756 H   0  0  0  0  0  0  0  0  0  0  0  0
  150.3122  130.9216  155.3211 H   0  0  0  0  0  0  0  0  0  0  0  0
  151.0354  131.0714  156.9176 H   0  0  0  0  0  0  0  0  0  0  0  0
  151.8706  131.7193  155.5080 H   0  0  0  0  0  0  0  0  0  0  0  0
  148.4599  136.2476  154.4636 H   0  0  0  0  0  0  0  0  0  0  0  0
  148.5854  136.8364  156.1210 H   0  0  0  0  0  0  0  0  0  0  0  0
  147.2308  135.8068  155.6501 H   0  0  0  0  0  0  0  0  0  0  0  0
  1  2  1  0  0  0  0
  1 21  1  0  0  0  0
  1 22  1  0  0  0  0
  1 23  1  0  0  0  0
  2  3  1  0  0  0  0
  2 24  1  0  0  0  0
  3  4  2  0  0  0  0
  3  5  1  0  0  0  0
  5  6  1  0  0  0  0
  5 10  1  0  0  0  0
  5 25  1  0  0  0  0
  6  7  1  0  0  0  0
  6 26  1  0  0  0  0
  6 27  1  0  0  0  0
  7  8  1  0  0  0  0
  7  9  1  0  0  0  0
  7 28  1  0  0  0  0
  8 29  1  0  0  0  0
  8 30  1  0  0  0  0
  8 31  1  0  0  0  0
  9 32  1  0  0  0  0
  9 33  1  0  0  0  0
  9 34  1  0  0  0  0
 10 11  1  0  0  0  0
 10 35  1  0  0  0  0
 11 12  2  0  0  0  0
 11 13  1  0  0  0  0
 13 14  1  0  0  0  0
 13 36  1  0  0  0  0
 13 37  1  0  0  0  0
 14 19  2  0  0  0  0
 14 15  1  0  0  0  0
 15 16  1  0  0  0  0
 15 17  2  0  0  0  0
 16 38  1  0  0  0  0
 16 39  1  0  0  0  0
 16 40  1  0  0  0  0
 17 18  1  0  0  0  0
 18 19  1  0  0  0  0
 19 20  1  0  0  0  0
 20 41  1  0  0  0  0
 20 42  1  0  0  0  0
 20 43  1  0  0  0  0
M  END
> <s_m_source_file>
AV-unprocessed.smi

> <i_m_source_file_index>
1264

> <i_lp_mmshare_version>
43012

> <i_f3d_flags>
0

> <s_epik_input>
W0NIM11bTkhdQyg9TylbQ0BIXShbQ0gyXVtDSF0oW0NIM10pW0NIM10pW05IXUMoPU8pW0NIMl1jMWMoW0NIM10pbm9jMVtDSDNd

> <s_epik_cmdline>
J2VwaWtfcHl0aG9uJywgJy1waCcsICc3LjAnLCAnLXRuJywgJzgnLCAnLW1hJywgJzIwMCcsICctbWV0YWxfYmluZGluZycsICctaW1hZScsICc8aW5maWxlLm1hZT4nLCAnLW9tYWUnLCAnPG91dGZpbGUubWFlPic=

> <r_lp_tautomer_probability>
1

> <r_epik_Ionization_Penalty>
6.00781e-08

> <r_epik_Ionization_Penalty_Charging>
0

> <r_epik_Ionization_Penalty_Neutral>
6.00781e-08

> <r_epik_State_Penalty>
-0

> <r_epik_Charging_Adjusted_Penalty>
0

> <i_epik_Tot_Q>
0

> <i_epik_Tot_abs_Q>
0

> <r_epik_Metal_State_Penalty>
-0

> <b_epik_Metal_Only>
0

> <s_lp_Force_Field>
OPLS_2005

> <r_lp_Energy>
-0.987692

> <b_lp_Chiralities_Consistent>
1

> <s_lp_Variant>
AV-unprocessed.smi:1264-2

> <Gold.Version>
5.8.1

> <Gold.Id.Protein>
6NUR|6NUR_protein|mol2

> <Gold.PLP.Fitness>
40.6489

> <Gold.PLP.PLP>
-33.3309

> <Gold.PLP.part.hbond>
-3.0000

> <Gold.PLP.part.metal>
0.0000

> <Gold.PLP.part.buried>
-4.7727

> <Gold.PLP.part.nonpolar>
-25.8552

> <Gold.PLP.part.repulsive>
0.2678

> <Gold.PLP.ligand.clash>
0.0000

> <Gold.PLP.ligand.torsion>
0.4006

> <Gold.PLP.Chemscore.Hbond>
2.6232

> <Gold.PLP.Chemscore.CHOScore>
0.0000

> <Gold.PLP.Chemscore.Metal>
0.0000

> <Gold.Chemscore.Hbonds>
donor molecule, donor type, donor heavy atom, donor atom, acceptor molecule, acceptor atom, score
      L1  H     2    24       P1  7948  0.66
      L1  H    10    35       P1  7948  1.00
      P1  H  6896  6908       L1    17  0.96

> <Gold.PLP.Chemscore.Internal.Correction>
0.2496

> <Gold.Rescore>
     Score         DG    S(hbond)    S(metal)    S(lipo)     H(rot)  DE(clash)    DE(int)     intcor
     15.42     -16.07       2.12        0.00      75.67       2.09       0.00       0.64       ----

> <Gold.Chemscore.Fitness>
15.4229

> <Gold.Chemscore.DG>
-16.0697

> <Gold.Chemscore.ZeroCoef>
-5.4800

> <Gold.Chemscore.Hbond>
2.1240

> <Gold.Chemscore.Metal>
0.0000

> <Gold.Chemscore.Lipo>
75.6745

> <Gold.Chemscore.Internal_Hbond>
0.0000

> <Gold.Chemscore.DEClash>
0.0042

> <Gold.Chemscore.DEInternal>
0.6426

> <Gold.Chemscore.Rot>
2.0931

> <Gold.Chemscore.Internal.Correction>
   9.000000E+99

> <Gold.Chemscore.Hbonds>
donor molecule, donor type, donor heavy atom, donor atom, acceptor molecule, acceptor atom, score
      L1  H     2    24       P1  7948  0.66
      L1  H    10    35       P1  7948  0.55
      P1  H  6896  6908       L1    17  0.47

> <Gold.Chemscore.Hbond.Weighted>
-7.0942

> <Gold.Chemscore.Metal.Weighted>
-0.0000

> <Gold.Chemscore.Lipo.Weighted>
-8.8539

> <Gold.Chemscore.Internal_Hbond.Weighted>
0.0000

> <Gold.Chemscore.DEClash.Weighted>
0.0042

> <Gold.Chemscore.DEInternal.Weighted>
0.6426

> <Gold.Chemscore.Rot.Weighted>
5.3584

> <Gold.Chemscore.Internal.Correction.Weighted>
   9.000000E+99

> <Gold.Protein.RotatedTorsions>
[ 6907 6896 6895 6894 ] final  101.34 input  -60.11 | X-H torsion
[ 7974 7965 7964 7962 ] final  146.08 input  175.53 | X-H torsion
[ 8008 7997 7996 7995 ] final  -22.61 input   59.86 | X-H torsion
[ 10167 10162 10161 10158 ] final  -14.00 input  -65.29 | X-H torsion
[ 10718 10713 10712 10709 ] final  -23.70 input   66.30 | X-H torsion
[ 10763 10752 10751 10750 ] final -121.27 input  -60.55 | X-H torsion
[ 11005 11000 10999 10996 ] final  -13.85 input  -57.11 | X-H torsion

> <Gold.Protein.ActiveResidues>
 VAL166  LYS551  ARG553  GLY616  TRP617  ASP618  TYR619  PRO620  LYS621  CYS622 
 ASP623  PHE694  ASN695  SER759  ASP760  ASP761  ALA762  ILE779  LEU786  VAL792 
 PHE793  MET794  SER795  GLU796  ALA797  LYS798  CYS799  TRP800  GLU811  SER814 

> <Gold.Protein.RotatedAtoms>
  152.5351  134.0140  159.7951 H   0  0  0  0  0  0  0  0  0  0  0  0  # atno 6907 bound_to 6896
  151.0337  133.5759  159.2665 H   0  0  0  0  0  0  0  0  0  0  0  0  # atno 6908 bound_to 6896
  151.2754  135.0705  159.9203 H   0  0  0  0  0  0  0  0  0  0  0  0  # atno 6909 bound_to 6896
  144.8700  139.5862  143.5891 H   0  0  0  0  0  0  0  0  0  0  0  0  # atno 7974 bound_to 7965
  154.4633  140.2003  156.0184 H   0  0  0  0  0  0  0  0  0  0  0  0  # atno 8008 bound_to 7997
  156.0881  140.3262  155.7752 H   0  0  0  0  0  0  0  0  0  0  0  0  # atno 8009 bound_to 7997
  155.5001  140.0553  157.2931 H   0  0  0  0  0  0  0  0  0  0  0  0  # atno 8010 bound_to 7997
  140.7193  143.5368  150.9456 H   0  0  0  0  0  0  0  0  0  0  0  0  # atno 10167 bound_to 10162
  156.4875  130.4559  149.6775 H   0  0  0  0  0  0  0  0  0  0  0  0  # atno 10718 bound_to 10713
  154.8664  135.4173  154.2593 H   0  0  0  0  0  0  0  0  0  0  0  0  # atno 10763 bound_to 10752
  153.3524  135.6999  153.6783 H   0  0  0  0  0  0  0  0  0  0  0  0  # atno 10764 bound_to 10752
  153.5717  135.3590  155.2813 H   0  0  0  0  0  0  0  0  0  0  0  0  # atno 10765 bound_to 10752
  140.7804  133.8367  155.9287 H   0  0  0  0  0  0  0  0  0  0  0  0  # atno 11005 bound_to 11000
  146.2923  139.7175  142.9152 LP  0  0  0  0  0  0  0  0  0  0  0  0  # atno 17320 bound_to 7965
  145.4149  141.0400  143.2996 LP  0  0  0  0  0  0  0  0  0  0  0  0  # atno 17321 bound_to 7965
  139.9089  143.6744  152.3118 LP  0  0  0  0  0  0  0  0  0  0  0  0  # atno 17342 bound_to 10162
  139.7120  144.7618  151.1096 LP  0  0  0  0  0  0  0  0  0  0  0  0  # atno 17343 bound_to 10162
  156.3459  130.7407  151.2359 LP  0  0  0  0  0  0  0  0  0  0  0  0  # atno 17370 bound_to 10713
  157.7477  131.0390  150.4532 LP  0  0  0  0  0  0  0  0  0  0  0  0  # atno 17371 bound_to 10713
  140.9488  134.1806  157.4743 LP  0  0  0  0  0  0  0  0  0  0  0  0  # atno 17394 bound_to 11000
  139.8743  134.9901  156.5487 LP  0  0  0  0  0  0  0  0  0  0  0  0  # atno 17395 bound_to 11000

$$$$
