AV-unprocessed.smi:1019|AV-procd|sdf|4444|dock1
  -GOLD-   22720 2403D 1   1.00000     0.00000
 Structure written by MMmdl.
 44 46  0  0  0  0  0  0  0  0  2 V2000
  148.7221  139.4074  154.1944 C   0  0  0  0  0  0  0  0  0  0  0  0
  148.2562  140.7078  154.7387 N   0  3  2  0  0  0  0  0  0  0  0  0
  147.6608  141.5836  153.6973 C   0  0  0  0  0  0  0  0  0  0  0  0
  146.5572  142.4677  154.2511 C   0  0  0  0  0  0  0  0  0  0  0  0
  145.9813  143.4669  153.4382 C   0  0  0  0  0  0  0  0  0  0  0  0
  144.9592  144.2913  153.9471 C   0  0  0  0  0  0  0  0  0  0  0  0
  144.5070  144.1183  155.2694 C   0  0  0  0  0  0  0  0  0  0  0  0
  145.0772  143.1199  156.0830 C   0  0  0  0  0  0  0  0  0  0  0  0
  146.1000  142.2953  155.5752 C   0  0  0  0  0  0  0  0  0  0  0  0
  149.3053  141.4054  155.5265 C   0  0  0  0  0  0  0  0  0  0  0  0
  150.1357  140.4369  156.4005 C   0  0  2  0  0  0  0  0  0  0  0  0
  149.5115  140.2994  157.6614 O   0  0  0  0  0  0  0  0  0  0  0  0
  151.5810  140.9155  156.6480 C   0  0  0  0  0  0  0  0  0  0  0  0
  151.6506  142.0321  157.5735 N   0  0  0  0  0  0  0  0  0  0  0  0
  151.2005  143.2854  157.3678 C   0  0  0  0  0  0  0  0  0  0  0  0
  151.3817  144.1660  158.3473 N   0  0  0  0  0  0  0  0  0  0  0  0
  152.0089  143.3917  159.3079 C   0  0  0  0  0  0  0  0  0  0  0  0
  152.4755  143.7308  160.5980 C   0  0  0  0  0  0  0  0  0  0  0  0
  153.0930  142.7590  161.4127 C   0  0  0  0  0  0  0  0  0  0  0  0
  153.2510  141.4357  160.9525 C   0  0  0  0  0  0  0  0  0  0  0  0
  152.7955  141.0742  159.6701 C   0  0  0  0  0  0  0  0  0  0  0  0
  152.1843  142.0480  158.8581 C   0  0  0  0  0  0  0  0  0  0  0  0
  149.4985  139.5557  153.4425 H   0  0  0  0  0  0  0  0  0  0  0  0
  147.9031  138.8572  153.7313 H   0  0  0  0  0  0  0  0  0  0  0  0
  149.1296  138.7663  154.9748 H   0  0  0  0  0  0  0  0  0  0  0  0
  148.4236  142.2434  153.2815 H   0  0  0  0  0  0  0  0  0  0  0  0
  147.2879  140.9793  152.8683 H   0  0  0  0  0  0  0  0  0  0  0  0
  146.3230  143.6047  152.4227 H   0  0  0  0  0  0  0  0  0  0  0  0
  144.5213  145.0564  153.3227 H   0  0  0  0  0  0  0  0  0  0  0  0
  143.7223  144.7499  155.6590 H   0  0  0  0  0  0  0  0  0  0  0  0
  144.7289  142.9864  157.0967 H   0  0  0  0  0  0  0  0  0  0  0  0
  146.5325  141.5324  156.2062 H   0  0  0  0  0  0  0  0  0  0  0  0
  149.9393  141.9584  154.8322 H   0  0  0  0  0  0  0  0  0  0  0  0
  148.8588  142.1547  156.1820 H   0  0  0  0  0  0  0  0  0  0  0  0
  150.1771  139.4499  155.9429 H   0  0  0  0  0  0  0  0  0  0  0  0
  149.3114  139.3881  157.8093 H   0  0  0  0  0  0  0  0  0  0  0  0
  152.1864  140.0992  157.0458 H   0  0  0  0  0  0  0  0  0  0  0  0
  152.0465  141.2211  155.7100 H   0  0  0  0  0  0  0  0  0  0  0  0
  150.7233  143.5713  156.4418 H   0  0  0  0  0  0  0  0  0  0  0  0
  152.3568  144.7404  160.9628 H   0  0  0  0  0  0  0  0  0  0  0  0
  153.4447  143.0301  162.3975 H   0  0  0  0  0  0  0  0  0  0  0  0
  153.7213  140.6977  161.5859 H   0  0  0  0  0  0  0  0  0  0  0  0
  152.9138  140.0606  159.3176 H   0  0  0  0  0  0  0  0  0  0  0  0
  147.5080  140.5081  155.3870 H   0  0  0  0  0  0  0  0  0  0  0  0
  1  2  1  0  0  0  0
  1 23  1  0  0  0  0
  1 24  1  0  0  0  0
  1 25  1  0  0  0  0
  2  3  1  0  0  0  0
  2 10  1  0  0  0  0
  2 44  1  0  0  0  0
  3  4  1  0  0  0  0
  3 26  1  0  0  0  0
  3 27  1  0  0  0  0
  4  9  1  0  0  0  0
  4  5  2  0  0  0  0
  5  6  1  0  0  0  0
  5 28  1  0  0  0  0
  6  7  2  0  0  0  0
  6 29  1  0  0  0  0
  7  8  1  0  0  0  0
  7 30  1  0  0  0  0
  8  9  2  0  0  0  0
  8 31  1  0  0  0  0
  9 32  1  0  0  0  0
 10 11  1  0  0  0  0
 10 33  1  0  0  0  0
 10 34  1  0  0  0  0
 11 12  1  0  0  0  0
 11 13  1  0  0  0  0
 11 35  1  0  0  0  0
 12 36  1  0  0  0  0
 13 14  1  0  0  0  0
 13 37  1  0  0  0  0
 13 38  1  0  0  0  0
 14 22  1  0  0  0  0
 14 15  1  0  0  0  0
 15 16  2  0  0  0  0
 15 39  1  0  0  0  0
 16 17  1  0  0  0  0
 17 22  2  0  0  0  0
 17 18  1  0  0  0  0
 18 19  2  0  0  0  0
 18 40  1  0  0  0  0
 19 20  1  0  0  0  0
 19 41  1  0  0  0  0
 20 21  2  0  0  0  0
 20 42  1  0  0  0  0
 21 22  1  0  0  0  0
 21 43  1  0  0  0  0
M  CHG  1   2   1
M  END
> <s_m_source_file>
AV-unprocessed.smi

> <i_m_source_file_index>
1019

> <i_lp_mmshare_version>
43012

> <i_f3d_flags>
0

> <s_epik_input>
W2NIXTFbY0hdW2NIXVtjSF1bY0hdYzFbQ0gyXU4oW0NIM10pW0NIMl1bQ0BIXShbT0hdKVtDSDJdbihbY0hdbjIpYyhjMjMpW2NIXVtjSF1bY0hdW2NIXTM=

> <s_epik_cmdline>
J2VwaWtfcHl0aG9uJywgJy1waCcsICc3LjAnLCAnLXRuJywgJzgnLCAnLW1hJywgJzIwMCcsICctbWV0YWxfYmluZGluZycsICctaW1hZScsICc8aW5maWxlLm1hZT4nLCAnLW9tYWUnLCAnPG91dGZpbGUubWFlPic=

> <r_epik_Ionization_Penalty>
0.0996557

> <r_epik_Ionization_Penalty_Charging>
0.0475377

> <r_epik_Ionization_Penalty_Neutral>
0.0521179

> <r_epik_State_Penalty>
0.0851777

> <r_epik_Charging_Adjusted_Penalty>
0.132715

> <i_epik_Tot_Q>
1

> <i_epik_Tot_abs_Q>
1

> <r_epik_Metal_State_Penalty>
0.0423478

> <b_epik_Metal_Only>
0

> <s_lp_Force_Field>
OPLS_2005

> <r_lp_Energy>
17.6047

> <b_lp_Chiralities_Consistent>
1

> <s_lp_Variant>
AV-unprocessed.smi:1019-2

> <Gold.Version>
5.8.1

> <Gold.Id.Protein>
6NUR|6NUR_protein|mol2

> <Gold.PLP.Fitness>
48.9782

> <Gold.PLP.PLP>
-47.5303

> <Gold.PLP.part.hbond>
0.0000

> <Gold.PLP.part.metal>
0.0000

> <Gold.PLP.part.buried>
-7.1655

> <Gold.PLP.part.nonpolar>
-39.5365

> <Gold.PLP.part.repulsive>
0.1931

> <Gold.PLP.ligand.clash>
0.0000

> <Gold.PLP.ligand.torsion>
1.0103

> <Gold.PLP.Chemscore.Hbond>
0.0000

> <Gold.PLP.Chemscore.CHOScore>
1.0000

> <Gold.PLP.Chemscore.Metal>
0.0000

> <Gold.Chemscore.Hbonds>
donor molecule, donor type, donor heavy atom, donor atom, acceptor molecule, acceptor atom, score
      L1  C    15    39       P1  8028  1.00

> <Gold.PLP.Chemscore.Internal.Correction>
0.4685

> <Gold.Rescore>
     Score         DG    S(hbond)    S(metal)    S(lipo)     H(rot)  DE(clash)    DE(int)     intcor
     13.49     -14.51       0.00        0.00     128.83       2.36       0.12       0.90       ----

> <Gold.Chemscore.Fitness>
13.4945

> <Gold.Chemscore.DG>
-14.5077

> <Gold.Chemscore.ZeroCoef>
-5.4800

> <Gold.Chemscore.Hbond>
0.0000

> <Gold.Chemscore.Metal>
0.0000

> <Gold.Chemscore.Lipo>
128.8328

> <Gold.Chemscore.Internal_Hbond>
0.0000

> <Gold.Chemscore.DEClash>
0.1165

> <Gold.Chemscore.DEInternal>
0.8967

> <Gold.Chemscore.Rot>
2.3616

> <Gold.Chemscore.Internal.Correction>
   9.000000E+99

> <Gold.Chemscore.Hbond.Weighted>
-0.0000

> <Gold.Chemscore.Metal.Weighted>
-0.0000

> <Gold.Chemscore.Lipo.Weighted>
-15.0734

> <Gold.Chemscore.Internal_Hbond.Weighted>
0.0000

> <Gold.Chemscore.DEClash.Weighted>
0.1165

> <Gold.Chemscore.DEInternal.Weighted>
0.8967

> <Gold.Chemscore.Rot.Weighted>
6.0457

> <Gold.Chemscore.Internal.Correction.Weighted>
   9.000000E+99

> <Gold.Protein.RotatedTorsions>
[ 6907 6896 6895 6894 ] final  -96.09 input  -60.11 | X-H torsion
[ 7974 7965 7964 7962 ] final  -95.88 input  175.53 | X-H torsion
[ 8008 7997 7996 7995 ] final  -75.39 input   59.86 | X-H torsion
[ 10167 10162 10161 10158 ] final  167.67 input  -65.29 | X-H torsion
[ 10718 10713 10712 10709 ] final   61.40 input   66.30 | X-H torsion
[ 10763 10752 10751 10750 ] final -166.89 input  -60.55 | X-H torsion
[ 11005 11000 10999 10996 ] final  -51.85 input  -57.11 | X-H torsion

> <Gold.Protein.ActiveResidues>
 VAL166  LYS551  ARG553  GLY616  TRP617  ASP618  TYR619  PRO620  LYS621  CYS622 
 ASP623  PHE694  ASN695  SER759  ASP760  ASP761  ALA762  ILE779  LEU786  VAL792 
 PHE793  MET794  SER795  GLU796  ALA797  LYS798  CYS799  TRP800  GLU811  SER814 

> <Gold.Protein.RotatedAtoms>
  150.6980  134.1557  159.4156 H   0  0  0  0  0  0  0  0  0  0  0  0  # atno 6907 bound_to 6896
  151.9539  135.0154  160.0553 H   0  0  0  0  0  0  0  0  0  0  0  0  # atno 6908 bound_to 6896
  152.1987  133.4790  159.5083 H   0  0  0  0  0  0  0  0  0  0  0  0  # atno 6909 bound_to 6896
  145.3543  140.9481  143.2537 H   0  0  0  0  0  0  0  0  0  0  0  0  # atno 7974 bound_to 7965
  154.5412  140.0745  156.8513 H   0  0  0  0  0  0  0  0  0  0  0  0  # atno 8008 bound_to 7997
  155.3177  140.3394  155.4224 H   0  0  0  0  0  0  0  0  0  0  0  0  # atno 8009 bound_to 7997
  156.1876  140.1674  156.8141 H   0  0  0  0  0  0  0  0  0  0  0  0  # atno 8010 bound_to 7997
  139.4950  144.3896  151.9532 H   0  0  0  0  0  0  0  0  0  0  0  0  # atno 10167 bound_to 10162
  157.5825  130.8992  149.9456 H   0  0  0  0  0  0  0  0  0  0  0  0  # atno 10718 bound_to 10713
  154.6787  135.2951  154.9642 H   0  0  0  0  0  0  0  0  0  0  0  0  # atno 10763 bound_to 10752
  154.0644  135.6627  153.4820 H   0  0  0  0  0  0  0  0  0  0  0  0  # atno 10764 bound_to 10752
  153.0533  135.5160  154.7820 H   0  0  0  0  0  0  0  0  0  0  0  0  # atno 10765 bound_to 10752
  141.0893  133.6636  156.3938 H   0  0  0  0  0  0  0  0  0  0  0  0  # atno 11005 bound_to 11000
  144.8694  139.5060  143.6775 LP  0  0  0  0  0  0  0  0  0  0  0  0  # atno 17320 bound_to 7965
  146.2955  139.7264  142.9130 LP  0  0  0  0  0  0  0  0  0  0  0  0  # atno 17321 bound_to 7965
  140.3334  144.3290  150.5982 LP  0  0  0  0  0  0  0  0  0  0  0  0  # atno 17342 bound_to 10162
  140.5626  143.2190  151.7738 LP  0  0  0  0  0  0  0  0  0  0  0  0  # atno 17343 bound_to 10162
  156.0872  130.3667  150.0465 LP  0  0  0  0  0  0  0  0  0  0  0  0  # atno 17370 bound_to 10713
  156.8602  130.9489  151.3618 LP  0  0  0  0  0  0  0  0  0  0  0  0  # atno 17371 bound_to 10713
  140.5289  134.6232  157.5343 LP  0  0  0  0  0  0  0  0  0  0  0  0  # atno 17394 bound_to 11000
  139.9716  134.7283  156.0030 LP  0  0  0  0  0  0  0  0  0  0  0  0  # atno 17395 bound_to 11000

$$$$
