AV-unprocessed.smi:2525|AV-procd|sdf|9927|dock6
  -GOLD-   2272013563D 1   1.00000     0.00000
 Structure written by MMmdl.
 44 45  0  0  0  0  0  0  0  0  1 V2000
  152.0053  139.6266  157.5204 C   0  0  0  0  0  0  0  0  0  0  0  0
  150.8476  140.4462  158.1077 C   0  0  0  0  0  0  0  0  0  0  0  0
  150.8054  141.9348  157.6959 C   0  0  0  0  0  0  0  0  0  0  0  0
  150.5656  141.9998  156.1546 C   0  0  0  0  0  0  0  0  0  0  0  0
  149.2721  141.3448  155.6399 C   0  0  0  0  0  0  0  0  0  0  0  0
  149.8652  142.8033  158.5830 C   0  0  2  0  0  0  0  0  0  0  0  0
  148.5637  143.1033  157.9994 N   0  0  0  0  0  0  0  0  0  0  0  0
  147.3905  142.9105  158.6197 C   0  0  0  0  0  0  0  0  0  0  0  0
  147.2927  142.5611  159.7957 O   0  0  0  0  0  0  0  0  0  0  0  0
  146.1346  143.1154  157.7729 C   0  0  0  0  0  0  0  0  0  0  0  0
  145.1427  143.8838  158.5050 N   0  0  0  0  0  0  0  0  0  0  0  0
  145.2390  145.1727  158.9885 C   0  0  0  0  0  0  0  0  0  0  0  0
  144.0398  145.3688  159.6117 C   0  0  0  0  0  0  0  0  0  0  0  0
  143.2754  144.2105  159.4838 N   0  0  0  0  0  0  0  0  0  0  0  0
  143.9473  143.3266  158.8156 N   0  0  0  0  0  0  0  0  0  0  0  0
  150.8648  143.9573  158.4489 C   0  0  1  0  0  0  0  0  0  0  0  0
  150.9846  144.9886  159.5635 C   0  0  0  0  0  0  0  0  0  0  0  0
  151.9256  142.8533  158.2703 C   0  0  1  0  0  0  0  0  0  0  0  0
  152.4241  142.3662  159.5131 O   0  0  0  0  0  0  0  0  0  0  0  0
  153.3936  143.2180  160.0994 C   0  0  0  0  0  0  0  0  0  0  0  0
  152.0544  138.6454  157.9928 H   0  0  0  0  0  0  0  0  0  0  0  0
  152.9660  140.1164  157.6792 H   0  0  0  0  0  0  0  0  0  0  0  0
  151.8753  139.4574  156.4525 H   0  0  0  0  0  0  0  0  0  0  0  0
  149.9054  139.9563  157.8595 H   0  0  0  0  0  0  0  0  0  0  0  0
  150.9140  140.3707  159.1934 H   0  0  0  0  0  0  0  0  0  0  0  0
  150.5870  143.0347  155.8115 H   0  0  0  0  0  0  0  0  0  0  0  0
  151.3772  141.5217  155.6075 H   0  0  0  0  0  0  0  0  0  0  0  0
  149.1133  141.5934  154.5904 H   0  0  0  0  0  0  0  0  0  0  0  0
  148.3890  141.6644  156.1895 H   0  0  0  0  0  0  0  0  0  0  0  0
  149.3266  140.2580  155.7013 H   0  0  0  0  0  0  0  0  0  0  0  0
  149.8034  142.4480  159.6147 H   0  0  0  0  0  0  0  0  0  0  0  0
  148.5507  143.3991  157.0340 H   0  0  0  0  0  0  0  0  0  0  0  0
  146.3831  143.6484  156.8541 H   0  0  0  0  0  0  0  0  0  0  0  0
  145.7159  142.1498  157.4850 H   0  0  0  0  0  0  0  0  0  0  0  0
  146.1093  145.7990  158.8585 H   0  0  0  0  0  0  0  0  0  0  0  0
  143.6680  146.2356  160.1377 H   0  0  0  0  0  0  0  0  0  0  0  0
  150.7252  144.4631  157.4908 H   0  0  0  0  0  0  0  0  0  0  0  0
  151.1138  144.5150  160.5369 H   0  0  0  0  0  0  0  0  0  0  0  0
  150.0910  145.6103  159.6189 H   0  0  0  0  0  0  0  0  0  0  0  0
  151.8355  145.6499  159.3999 H   0  0  0  0  0  0  0  0  0  0  0  0
  152.7197  143.1006  157.5664 H   0  0  0  0  0  0  0  0  0  0  0  0
  153.6975  142.8145  161.0651 H   0  0  0  0  0  0  0  0  0  0  0  0
  153.0022  144.2222  160.2616 H   0  0  0  0  0  0  0  0  0  0  0  0
  154.2820  143.2874  159.4704 H   0  0  0  0  0  0  0  0  0  0  0  0
  1  2  1  0  0  0  0
  1 21  1  0  0  0  0
  1 22  1  0  0  0  0
  1 23  1  0  0  0  0
  2  3  1  0  0  0  0
  2 24  1  0  0  0  0
  2 25  1  0  0  0  0
  3 18  1  0  0  0  0
  3  4  1  0  0  0  0
  3  6  1  0  0  0  0
  4  5  1  0  0  0  0
  4 26  1  0  0  0  0
  4 27  1  0  0  0  0
  5 28  1  0  0  0  0
  5 29  1  0  0  0  0
  5 30  1  0  0  0  0
  6  7  1  0  0  0  0
  6 16  1  0  0  0  0
  6 31  1  0  0  0  0
  7  8  1  0  0  0  0
  7 32  1  0  0  0  0
  8  9  2  0  0  0  0
  8 10  1  0  0  0  0
 10 11  1  0  0  0  0
 10 33  1  0  0  0  0
 10 34  1  0  0  0  0
 11 15  1  0  0  0  0
 11 12  1  0  0  0  0
 12 13  2  0  0  0  0
 12 35  1  0  0  0  0
 13 14  1  0  0  0  0
 13 36  1  0  0  0  0
 14 15  2  0  0  0  0
 16 17  1  0  0  0  0
 16 18  1  0  0  0  0
 16 37  1  0  0  0  0
 17 38  1  0  0  0  0
 17 39  1  0  0  0  0
 17 40  1  0  0  0  0
 18 19  1  0  0  0  0
 18 41  1  0  0  0  0
 19 20  1  0  0  0  0
 20 42  1  0  0  0  0
 20 43  1  0  0  0  0
 20 44  1  0  0  0  0
M  END
> <s_m_source_file>
AV-unprocessed.smi

> <i_m_source_file_index>
2525

> <i_lp_mmshare_version>
43012

> <i_f3d_flags>
0

> <s_epik_input>
W0NIM11PW0NAQEhdMVtDQEhdKFtDSDNdKVtDQEBIXShDMShbQ0gyXVtDSDNdKVtDSDJdW0NIM10pW05IXUMoPU8pW0NIMl1uMltjSF1bY0hdbm4y

> <s_epik_cmdline>
J2VwaWtfcHl0aG9uJywgJy1waCcsICc3LjAnLCAnLXRuJywgJzgnLCAnLW1hJywgJzIwMCcsICctbWV0YWxfYmluZGluZycsICctaW1hZScsICc8aW5maWxlLm1hZT4nLCAnLW9tYWUnLCAnPG91dGZpbGUubWFlPic=

> <r_lp_tautomer_probability>
1

> <r_epik_Ionization_Penalty>
1.18045e-06

> <r_epik_Ionization_Penalty_Charging>
0

> <r_epik_Ionization_Penalty_Neutral>
1.18045e-06

> <r_epik_State_Penalty>
-0

> <r_epik_Charging_Adjusted_Penalty>
0

> <i_epik_Tot_Q>
0

> <i_epik_Tot_abs_Q>
0

> <r_epik_Metal_State_Penalty>
-0

> <b_epik_Metal_Only>
0

> <s_lp_Force_Field>
OPLS_2005

> <r_lp_Energy>
28.7766

> <b_lp_Chiralities_Consistent>
1

> <s_lp_Variant>
AV-unprocessed.smi:2525-2

> <Gold.Version>
5.8.1

> <Gold.Id.Protein>
6NUR|6NUR_protein|mol2

> <Gold.PLP.Fitness>
39.4085

> <Gold.PLP.PLP>
-29.5674

> <Gold.PLP.part.hbond>
-4.0000

> <Gold.PLP.part.metal>
0.0000

> <Gold.PLP.part.buried>
-2.2694

> <Gold.PLP.part.nonpolar>
-22.4461

> <Gold.PLP.part.repulsive>
0.1549

> <Gold.PLP.ligand.clash>
0.0000

> <Gold.PLP.ligand.torsion>
0.5250

> <Gold.PLP.Chemscore.Hbond>
2.4001

> <Gold.PLP.Chemscore.CHOScore>
1.0000

> <Gold.PLP.Chemscore.Metal>
0.0000

> <Gold.Chemscore.Hbonds>
donor molecule, donor type, donor heavy atom, donor atom, acceptor molecule, acceptor atom, score
      L1  H     7    32       P1  8028  1.00
      P1  H  6933  6944       L1     9  0.63
      P1  H  6934  6946       L1     9  0.70
      L1  C    12    35       P1  8029  1.00

> <Gold.PLP.Chemscore.Internal.Correction>
0.6908

> <Gold.Rescore>
     Score         DG    S(hbond)    S(metal)    S(lipo)     H(rot)  DE(clash)    DE(int)     intcor
     13.20     -15.82       1.63        0.00      85.15       1.98       0.10       2.53       ----

> <Gold.Chemscore.Fitness>
13.1999

> <Gold.Chemscore.DG>
-15.8241

> <Gold.Chemscore.ZeroCoef>
-5.4800

> <Gold.Chemscore.Hbond>
1.6331

> <Gold.Chemscore.Metal>
0.0000

> <Gold.Chemscore.Lipo>
85.1512

> <Gold.Chemscore.Internal_Hbond>
0.0000

> <Gold.Chemscore.DEClash>
0.0956

> <Gold.Chemscore.DEInternal>
2.5286

> <Gold.Chemscore.Rot>
1.9817

> <Gold.Chemscore.Internal.Correction>
   9.000000E+99

> <Gold.Chemscore.Hbonds>
donor molecule, donor type, donor heavy atom, donor atom, acceptor molecule, acceptor atom, score
      L1  H     7    32       P1  8028  0.24
      P1  H  6933  6944       L1     9  0.59
      P1  H  6934  6946       L1     9  0.69

> <Gold.Chemscore.Hbond.Weighted>
-5.4544

> <Gold.Chemscore.Metal.Weighted>
-0.0000

> <Gold.Chemscore.Lipo.Weighted>
-9.9627

> <Gold.Chemscore.Internal_Hbond.Weighted>
0.0000

> <Gold.Chemscore.DEClash.Weighted>
0.0956

> <Gold.Chemscore.DEInternal.Weighted>
2.5286

> <Gold.Chemscore.Rot.Weighted>
5.0731

> <Gold.Chemscore.Internal.Correction.Weighted>
   9.000000E+99

> <Gold.Protein.RotatedTorsions>
[ 6907 6896 6895 6894 ] final  -52.04 input  -60.11 | X-H torsion
[ 7974 7965 7964 7962 ] final  -43.82 input  175.53 | X-H torsion
[ 8008 7997 7996 7995 ] final  -82.62 input   59.86 | X-H torsion
[ 10167 10162 10161 10158 ] final  -71.44 input  -65.29 | X-H torsion
[ 10718 10713 10712 10709 ] final  -41.84 input   66.30 | X-H torsion
[ 10763 10752 10751 10750 ] final -134.44 input  -60.55 | X-H torsion
[ 11005 11000 10999 10996 ] final  -39.50 input  -57.11 | X-H torsion

> <Gold.Protein.ActiveResidues>
 VAL166  LYS551  ARG553  GLY616  TRP617  ASP618  TYR619  PRO620  LYS621  CYS622 
 ASP623  PHE694  ASN695  SER759  ASP760  ASP761  ALA762  ILE779  LEU786  VAL792 
 PHE793  MET794  SER795  GLU796  ALA797  LYS798  CYS799  TRP800  GLU811  SER814 

> <Gold.Protein.RotatedAtoms>
  150.8555  134.7893  159.7042 H   0  0  0  0  0  0  0  0  0  0  0  0  # atno 6907 bound_to 6896
  152.4608  134.5185  159.9785 H   0  0  0  0  0  0  0  0  0  0  0  0  # atno 6908 bound_to 6896
  151.5298  133.3413  159.2952 H   0  0  0  0  0  0  0  0  0  0  0  0  # atno 6909 bound_to 6896
  145.9981  140.7105  142.9284 H   0  0  0  0  0  0  0  0  0  0  0  0  # atno 7974 bound_to 7965
  154.6105  140.0630  156.9488 H   0  0  0  0  0  0  0  0  0  0  0  0  # atno 8008 bound_to 7997
  155.1980  140.3312  155.4329 H   0  0  0  0  0  0  0  0  0  0  0  0  # atno 8009 bound_to 7997
  156.2374  140.1869  156.7066 H   0  0  0  0  0  0  0  0  0  0  0  0  # atno 8010 bound_to 7997
  140.5273  143.2325  151.7325 H   0  0  0  0  0  0  0  0  0  0  0  0  # atno 10167 bound_to 10162
  156.2660  130.4202  149.8490 H   0  0  0  0  0  0  0  0  0  0  0  0  # atno 10718 bound_to 10713
  154.8719  135.3734  154.4736 H   0  0  0  0  0  0  0  0  0  0  0  0  # atno 10763 bound_to 10752
  153.5394  135.7026  153.5649 H   0  0  0  0  0  0  0  0  0  0  0  0  # atno 10764 bound_to 10752
  153.3817  135.3995  155.1826 H   0  0  0  0  0  0  0  0  0  0  0  0  # atno 10765 bound_to 10752
  141.0106  133.6910  156.2194 H   0  0  0  0  0  0  0  0  0  0  0  0  # atno 11005 bound_to 11000
  144.6910  140.3186  143.7236 LP  0  0  0  0  0  0  0  0  0  0  0  0  # atno 17320 bound_to 7965
  145.7529  139.1799  143.2311 LP  0  0  0  0  0  0  0  0  0  0  0  0  # atno 17321 bound_to 7965
  139.4942  144.4167  152.0023 LP  0  0  0  0  0  0  0  0  0  0  0  0  # atno 17342 bound_to 10162
  140.3267  144.3365  150.5997 LP  0  0  0  0  0  0  0  0  0  0  0  0  # atno 17343 bound_to 10162
  156.5988  130.8538  151.3427 LP  0  0  0  0  0  0  0  0  0  0  0  0  # atno 17370 bound_to 10713
  157.7267  130.9633  150.1669 LP  0  0  0  0  0  0  0  0  0  0  0  0  # atno 17371 bound_to 10713
  140.6740  134.4838  157.5588 LP  0  0  0  0  0  0  0  0  0  0  0  0  # atno 17394 bound_to 11000
  139.9088  134.8391  156.1606 LP  0  0  0  0  0  0  0  0  0  0  0  0  # atno 17395 bound_to 11000

$$$$
