AV-unprocessed.smi:1954|AV-procd|sdf|7894|dock5
  -GOLD-   2272010 53D 1   1.00000     0.00000
 Structure written by MMmdl.
 44 46  0  0  0  0  0  0  0  0  1 V2000
  144.8313  136.2329  153.4130 O   0  0  0  0  0  0  0  0  0  0  0  0
  145.9438  136.2596  152.8858 C   0  0  0  0  0  0  0  0  0  0  0  0
  146.8889  137.1522  153.2061 N   0  0  0  0  0  0  0  0  0  0  0  0
  146.7391  138.1960  154.2155 C   0  0  0  0  0  0  0  0  0  0  0  0
  148.0304  139.0649  154.3548 C   0  0  1  0  0  0  0  0  0  0  0  0
  149.2449  138.1923  154.3554 N   0  0  0  0  0  0  0  0  0  0  0  0
  150.5319  138.8740  154.5572 C   0  0  0  0  0  0  0  0  0  0  0  0
  151.7276  137.9106  154.4620 C   0  0  0  0  0  0  0  0  0  0  0  0
  151.5720  136.8547  155.4001 O   0  0  0  0  0  0  0  0  0  0  0  0
  150.3744  136.1205  155.1859 C   0  0  0  0  0  0  0  0  0  0  0  0
  149.1642  137.0628  155.2919 C   0  0  0  0  0  0  0  0  0  0  0  0
  148.0190  140.1084  153.1998 C   0  0  0  0  0  0  0  0  0  0  0  0
  146.9318  141.1542  153.4724 C   0  0  0  0  0  0  0  0  0  0  0  0
  146.8038  141.3462  155.2659 S   0  0  0  0  0  0  0  0  0  0  0  0
  147.8937  139.9413  155.6261 C   0  0  0  0  0  0  0  0  0  0  0  0
  146.3760  135.4143  151.9333 N   0  0  0  0  0  0  0  0  0  0  0  0
  145.6681  134.3460  151.3210 C   0  0  0  0  0  0  0  0  0  0  0  0
  146.4787  133.3608  150.7129 C   0  0  0  0  0  0  0  0  0  0  0  0
  145.8723  132.2608  150.0759 C   0  0  0  0  0  0  0  0  0  0  0  0
  144.4688  132.1746  150.0620 C   0  0  0  0  0  0  0  0  0  0  0  0
  143.7358  133.1982  150.6902 C   0  0  0  0  0  0  0  0  0  0  0  0
  144.3150  134.2528  151.3021 N   0  0  0  0  0  0  0  0  0  0  0  0
  147.7785  137.1058  152.7307 H   0  0  0  0  0  0  0  0  0  0  0  0
  145.8736  138.8067  153.9591 H   0  0  0  0  0  0  0  0  0  0  0  0
  146.4658  137.7316  155.1627 H   0  0  0  0  0  0  0  0  0  0  0  0
  150.6931  139.6394  153.8022 H   0  0  0  0  0  0  0  0  0  0  0  0
  150.5581  139.3679  155.5278 H   0  0  0  0  0  0  0  0  0  0  0  0
  151.8154  137.5016  153.4544 H   0  0  0  0  0  0  0  0  0  0  0  0
  152.6569  138.4394  154.6738 H   0  0  0  0  0  0  0  0  0  0  0  0
  150.4030  135.6367  154.2083 H   0  0  0  0  0  0  0  0  0  0  0  0
  150.3045  135.3299  155.9326 H   0  0  0  0  0  0  0  0  0  0  0  0
  149.0908  137.4319  156.3155 H   0  0  0  0  0  0  0  0  0  0  0  0
  148.2747  136.4640  155.1098 H   0  0  0  0  0  0  0  0  0  0  0  0
  148.9495  140.6703  153.1650 H   0  0  0  0  0  0  0  0  0  0  0  0
  147.8991  139.6510  152.2174 H   0  0  0  0  0  0  0  0  0  0  0  0
  147.1613  142.1089  152.9988 H   0  0  0  0  0  0  0  0  0  0  0  0
  145.9685  140.8240  153.0832 H   0  0  0  0  0  0  0  0  0  0  0  0
  147.5168  139.3814  156.4826 H   0  0  0  0  0  0  0  0  0  0  0  0
  148.8503  140.3671  155.9237 H   0  0  0  0  0  0  0  0  0  0  0  0
  147.3211  135.5518  151.6075 H   0  0  0  0  0  0  0  0  0  0  0  0
  147.5559  133.4427  150.7324 H   0  0  0  0  0  0  0  0  0  0  0  0
  146.4746  131.4968  149.6065 H   0  0  0  0  0  0  0  0  0  0  0  0
  143.9671  131.3469  149.5830 H   0  0  0  0  0  0  0  0  0  0  0  0
  142.6563  133.1704  150.7024 H   0  0  0  0  0  0  0  0  0  0  0  0
  1  2  2  0  0  0  0
  2  3  1  0  0  0  0
  2 16  1  0  0  0  0
  3  4  1  0  0  0  0
  3 23  1  0  0  0  0
  4  5  1  0  0  0  0
  4 24  1  0  0  0  0
  4 25  1  0  0  0  0
  5 15  1  0  0  0  0
  5  6  1  0  0  0  0
  5 12  1  0  0  0  0
  6 11  1  0  0  0  0
  6  7  1  0  0  0  0
  7  8  1  0  0  0  0
  7 26  1  0  0  0  0
  7 27  1  0  0  0  0
  8  9  1  0  0  0  0
  8 28  1  0  0  0  0
  8 29  1  0  0  0  0
  9 10  1  0  0  0  0
 10 11  1  0  0  0  0
 10 30  1  0  0  0  0
 10 31  1  0  0  0  0
 11 32  1  0  0  0  0
 11 33  1  0  0  0  0
 12 13  1  0  0  0  0
 12 34  1  0  0  0  0
 12 35  1  0  0  0  0
 13 14  1  0  0  0  0
 13 36  1  0  0  0  0
 13 37  1  0  0  0  0
 14 15  1  0  0  0  0
 15 38  1  0  0  0  0
 15 39  1  0  0  0  0
 16 17  1  0  0  0  0
 16 40  1  0  0  0  0
 17 22  1  0  0  0  0
 17 18  2  0  0  0  0
 18 19  1  0  0  0  0
 18 41  1  0  0  0  0
 19 20  2  0  0  0  0
 19 42  1  0  0  0  0
 20 21  1  0  0  0  0
 20 43  1  0  0  0  0
 21 22  2  0  0  0  0
 21 44  1  0  0  0  0
M  END
> <s_m_source_file>
AV-unprocessed.smi

> <i_m_source_file_index>
1954

> <i_lp_mmshare_version>
43012

> <i_f3d_flags>
0

> <s_epik_input>
bjFbY0hdW2NIXVtjSF1bY0hdYzFbTkhdQyg9TylbTkhdW0NIMl1bQ0BdMihbQ0gyXVtDSDJdU1tDSDJdMilOM1tDSDJdW0NIMl1PW0NIMl1bQ0gyXTM=

> <s_epik_cmdline>
J2VwaWtfcHl0aG9uJywgJy1waCcsICc3LjAnLCAnLXRuJywgJzgnLCAnLW1hJywgJzIwMCcsICctbWV0YWxfYmluZGluZycsICctaW1hZScsICc8aW5maWxlLm1hZT4nLCAnLW9tYWUnLCAnPG91dGZpbGUubWFlPic=

> <r_epik_Ionization_Penalty>
0.0195535

> <r_epik_Ionization_Penalty_Charging>
0

> <r_epik_Ionization_Penalty_Neutral>
0.0195535

> <r_epik_State_Penalty>
0.0155843

> <r_epik_Charging_Adjusted_Penalty>
0.0155843

> <i_epik_Tot_Q>
0

> <i_epik_Tot_abs_Q>
0

> <r_epik_Metal_State_Penalty>
0.0155842

> <b_epik_Metal_Only>
0

> <s_lp_Force_Field>
OPLS_2005

> <r_lp_Energy>
55.5144

> <b_lp_Chiralities_Consistent>
1

> <s_lp_Variant>
AV-unprocessed.smi:1954-1

> <Gold.Version>
5.8.1

> <Gold.Id.Protein>
6NUR|6NUR_protein|mol2

> <Gold.PLP.Fitness>
43.7808

> <Gold.PLP.PLP>
-32.5029

> <Gold.PLP.part.hbond>
-3.0000

> <Gold.PLP.part.metal>
0.0000

> <Gold.PLP.part.buried>
-2.7410

> <Gold.PLP.part.nonpolar>
-28.6486

> <Gold.PLP.part.repulsive>
0.5797

> <Gold.PLP.ligand.clash>
0.0000

> <Gold.PLP.ligand.torsion>
0.3905

> <Gold.PLP.Chemscore.Hbond>
3.0000

> <Gold.PLP.Chemscore.CHOScore>
0.9972

> <Gold.PLP.Chemscore.Metal>
0.0000

> <Gold.Chemscore.Hbonds>
donor molecule, donor type, donor heavy atom, donor atom, acceptor molecule, acceptor atom, score
      L1  H     3    23       P1  7948  1.00
      L1  H    16    40       P1  7948  1.00
      P1  H 10752 10764       L1     9  0.98
      L1  C    21    44       P1 10186  1.00

> <Gold.PLP.Chemscore.Internal.Correction>
0.0674

> <Gold.Rescore>
     Score         DG    S(hbond)    S(metal)    S(lipo)     H(rot)  DE(clash)    DE(int)     intcor
     16.47     -20.05       2.21        0.00      94.21       1.49       2.02       1.57       ----

> <Gold.Chemscore.Fitness>
16.4650

> <Gold.Chemscore.DG>
-20.0501

> <Gold.Chemscore.ZeroCoef>
-5.4800

> <Gold.Chemscore.Hbond>
2.2074

> <Gold.Chemscore.Metal>
0.0000

> <Gold.Chemscore.Lipo>
94.2061

> <Gold.Chemscore.Internal_Hbond>
0.0000

> <Gold.Chemscore.DEClash>
2.0186

> <Gold.Chemscore.DEInternal>
1.5664

> <Gold.Chemscore.Rot>
1.4940

> <Gold.Chemscore.Internal.Correction>
   9.000000E+99

> <Gold.Chemscore.Hbonds>
donor molecule, donor type, donor heavy atom, donor atom, acceptor molecule, acceptor atom, score
      L1  H     3    23       P1  7948  0.95
      L1  H    16    40       P1  7948  0.95
      P1  H 10752 10764       L1     9  0.16

> <Gold.Chemscore.Hbond.Weighted>
-7.3726

> <Gold.Chemscore.Metal.Weighted>
-0.0000

> <Gold.Chemscore.Lipo.Weighted>
-11.0221

> <Gold.Chemscore.Internal_Hbond.Weighted>
0.0000

> <Gold.Chemscore.DEClash.Weighted>
2.0186

> <Gold.Chemscore.DEInternal.Weighted>
1.5664

> <Gold.Chemscore.Rot.Weighted>
3.8246

> <Gold.Chemscore.Internal.Correction.Weighted>
   9.000000E+99

> <Gold.Protein.RotatedTorsions>
[ 6907 6896 6895 6894 ] final -106.58 input  -60.11 | X-H torsion
[ 7974 7965 7964 7962 ] final   38.66 input  175.53 | X-H torsion
[ 8008 7997 7996 7995 ] final -109.91 input   59.86 | X-H torsion
[ 10167 10162 10161 10158 ] final  172.86 input  -65.29 | X-H torsion
[ 10718 10713 10712 10709 ] final  167.76 input   66.30 | X-H torsion
[ 10763 10752 10751 10750 ] final  -40.92 input  -60.55 | X-H torsion
[ 11005 11000 10999 10996 ] final   34.35 input  -57.11 | X-H torsion

> <Gold.Protein.ActiveResidues>
 VAL166  LYS551  ARG553  GLY616  TRP617  ASP618  TYR619  PRO620  LYS621  CYS622 
 ASP623  PHE694  ASN695  SER759  ASP760  ASP761  ALA762  ILE779  LEU786  VAL792 
 PHE793  MET794  SER795  GLU796  ALA797  LYS798  CYS799  TRP800  GLU811  SER814 

> <Gold.Protein.RotatedAtoms>
  150.7397  133.9954  159.3620 H   0  0  0  0  0  0  0  0  0  0  0  0  # atno 6907 bound_to 6896
  151.7905  135.0735  160.0396 H   0  0  0  0  0  0  0  0  0  0  0  0  # atno 6908 bound_to 6896
  152.3211  133.5818  159.5781 H   0  0  0  0  0  0  0  0  0  0  0  0  # atno 6909 bound_to 6896
  146.1044  139.5745  142.9393 H   0  0  0  0  0  0  0  0  0  0  0  0  # atno 7974 bound_to 7965
  154.9665  140.0398  157.2214 H   0  0  0  0  0  0  0  0  0  0  0  0  # atno 8008 bound_to 7997
  154.7841  140.2824  155.6019 H   0  0  0  0  0  0  0  0  0  0  0  0  # atno 8009 bound_to 7997
  156.2940  140.2586  156.2673 H   0  0  0  0  0  0  0  0  0  0  0  0  # atno 8010 bound_to 7997
  139.5090  144.3326  152.0096 H   0  0  0  0  0  0  0  0  0  0  0  0  # atno 10167 bound_to 10162
  157.0469  131.0302  151.2694 H   0  0  0  0  0  0  0  0  0  0  0  0  # atno 10718 bound_to 10713
  153.9539  135.6747  153.4744 H   0  0  0  0  0  0  0  0  0  0  0  0  # atno 10763 bound_to 10752
  153.0871  135.4893  154.8614 H   0  0  0  0  0  0  0  0  0  0  0  0  # atno 10764 bound_to 10752
  154.7310  135.3138  154.8851 H   0  0  0  0  0  0  0  0  0  0  0  0  # atno 10765 bound_to 10752
  140.2537  134.3273  155.7881 H   0  0  0  0  0  0  0  0  0  0  0  0  # atno 11005 bound_to 11000
  145.5790  141.0385  143.2133 LP  0  0  0  0  0  0  0  0  0  0  0  0  # atno 17320 bound_to 7965
  144.7459  139.7322  143.7292 LP  0  0  0  0  0  0  0  0  0  0  0  0  # atno 17321 bound_to 7965
  140.2766  144.3906  150.6133 LP  0  0  0  0  0  0  0  0  0  0  0  0  # atno 17342 bound_to 10162
  140.6049  143.2167  151.7000 LP  0  0  0  0  0  0  0  0  0  0  0  0  # atno 17343 bound_to 10162
  157.5061  130.7909  149.7655 LP  0  0  0  0  0  0  0  0  0  0  0  0  # atno 17370 bound_to 10713
  156.0020  130.3875  150.2570 LP  0  0  0  0  0  0  0  0  0  0  0  0  # atno 17371 bound_to 10713
  141.2198  133.7368  156.9077 LP  0  0  0  0  0  0  0  0  0  0  0  0  # atno 17394 bound_to 11000
  140.1533  134.9215  157.2620 LP  0  0  0  0  0  0  0  0  0  0  0  0  # atno 17395 bound_to 11000

$$$$
