AV-unprocessed.smi:234|AV-procd|sdf|1787|dock6
  -GOLD-   2262020343D 1   1.00000     0.00000
 Structure written by MMmdl.
 59 62  0  0  0  0  0  0  0  0  1 V2000
  150.8502  142.9608  157.6973 C   0  0  0  0  0  0  0  0  0  0  0  0
  150.9451  142.0665  156.4541 C   0  0  0  0  0  0  0  0  0  0  0  0
  150.1246  140.9123  156.5614 O   0  0  0  0  0  0  0  0  0  0  0  0
  149.9730  140.1758  155.3548 C   0  0  2  0  0  0  0  0  0  0  0  0
  149.1732  140.9491  154.3085 C   0  0  0  0  0  0  0  0  0  0  0  0
  148.5476  139.5966  153.9407 C   0  0  2  0  0  0  0  0  0  0  0  0
  147.1286  139.6697  153.5808 N   0  0  0  0  0  0  0  0  0  0  0  0
  146.3426  140.7919  154.0804 C   0  0  0  0  0  0  0  0  0  0  0  0
  146.4183  138.5165  153.5717 C   0  0  0  0  0  0  0  0  0  0  0  0
  145.9417  138.0767  154.7638 N   0  0  0  0  0  0  0  0  0  0  0  0
  145.2274  136.9492  154.8264 C   0  0  0  0  0  0  0  0  0  0  0  0
  144.8864  136.1208  153.8373 N   0  0  0  0  0  0  0  0  0  0  0  0
  145.3776  136.5497  152.6394 C   0  0  0  0  0  0  0  0  0  0  0  0
  146.1537  137.7229  152.4177 C   0  0  0  0  0  0  0  0  0  0  0  0
  146.4931  137.8148  151.0725 N   0  0  0  0  0  0  0  0  0  0  0  0
  145.9363  136.7678  150.5291 C   0  0  0  0  0  0  0  0  0  0  0  0
  145.2354  135.9597  151.3951 N   0  0  0  0  0  0  0  0  0  0  0  0
  144.5119  134.7426  151.0585 C   0  0  0  0  0  0  0  0  0  0  0  0
  145.4030  133.4724  151.0849 C   0  0  1  0  0  0  0  0  0  0  0  0
  146.5060  133.6931  150.2221 O   0  0  0  0  0  0  0  0  0  0  0  0
  145.9547  133.1449  152.4705 C   0  0  0  0  0  0  0  0  0  0  0  0
  146.1144  131.6332  152.4297 C   0  0  0  0  0  0  0  0  0  0  0  0
  144.9590  131.2252  151.7198 O   0  0  0  0  0  0  0  0  0  0  0  0
  144.7261  132.1406  150.6524 C   0  0  1  0  0  0  0  0  0  0  0  0
  143.2118  132.1819  150.3949 C   0  0  0  0  0  0  0  0  0  0  0  0
  148.8310  139.1267  155.3960 C   0  0  0  0  0  0  0  0  0  0  0  0
  149.2828  137.6748  155.5600 C   0  0  0  0  0  0  0  0  0  0  0  0
  147.7360  139.3793  156.4471 C   0  0  0  0  0  0  0  0  0  0  0  0
  151.4045  143.8876  157.5490 H   0  0  0  0  0  0  0  0  0  0  0  0
  151.2660  142.4705  158.5770 H   0  0  0  0  0  0  0  0  0  0  0  0
  149.8141  143.2223  157.9130 H   0  0  0  0  0  0  0  0  0  0  0  0
  150.6060  142.6305  155.5851 H   0  0  0  0  0  0  0  0  0  0  0  0
  151.9794  141.7819  156.2543 H   0  0  0  0  0  0  0  0  0  0  0  0
  150.9028  139.7865  154.9321 H   0  0  0  0  0  0  0  0  0  0  0  0
  148.4697  141.6626  154.7421 H   0  0  0  0  0  0  0  0  0  0  0  0
  149.7777  141.4045  153.5239 H   0  0  0  0  0  0  0  0  0  0  0  0
  149.1565  139.0510  153.2173 H   0  0  0  0  0  0  0  0  0  0  0  0
  145.6214  140.4736  154.8350 H   0  0  0  0  0  0  0  0  0  0  0  0
  145.7949  141.2577  153.2608 H   0  0  0  0  0  0  0  0  0  0  0  0
  146.9775  141.5509  154.5346 H   0  0  0  0  0  0  0  0  0  0  0  0
  144.8786  136.6713  155.8103 H   0  0  0  0  0  0  0  0  0  0  0  0
  146.0182  136.5586  149.4725 H   0  0  0  0  0  0  0  0  0  0  0  0
  143.6878  134.6458  151.7657 H   0  0  0  0  0  0  0  0  0  0  0  0
  144.0611  134.8736  150.0739 H   0  0  0  0  0  0  0  0  0  0  0  0
  146.1883  134.0810  149.4213 H   0  0  0  0  0  0  0  0  0  0  0  0
  146.8801  133.6692  152.7138 H   0  0  0  0  0  0  0  0  0  0  0  0
  145.2198  133.3967  153.2359 H   0  0  0  0  0  0  0  0  0  0  0  0
  147.0107  131.3445  151.8785 H   0  0  0  0  0  0  0  0  0  0  0  0
  146.1565  131.1860  153.4230 H   0  0  0  0  0  0  0  0  0  0  0  0
  145.2138  131.7381  149.7624 H   0  0  0  0  0  0  0  0  0  0  0  0
  142.9653  132.8582  149.5765 H   0  0  0  0  0  0  0  0  0  0  0  0
  142.6626  132.5002  151.2811 H   0  0  0  0  0  0  0  0  0  0  0  0
  142.8428  131.1933  150.1213 H   0  0  0  0  0  0  0  0  0  0  0  0
  148.4620  136.9749  155.4057 H   0  0  0  0  0  0  0  0  0  0  0  0
  149.6798  137.4902  156.5582 H   0  0  0  0  0  0  0  0  0  0  0  0
  150.0661  137.4170  154.8470 H   0  0  0  0  0  0  0  0  0  0  0  0
  146.9031  138.6845  156.3369 H   0  0  0  0  0  0  0  0  0  0  0  0
  147.3244  140.3864  156.3795 H   0  0  0  0  0  0  0  0  0  0  0  0
  148.1232  139.2608  157.4596 H   0  0  0  0  0  0  0  0  0  0  0  0
  1  2  1  0  0  0  0
  1 29  1  0  0  0  0
  1 30  1  0  0  0  0
  1 31  1  0  0  0  0
  2  3  1  0  0  0  0
  2 32  1  0  0  0  0
  2 33  1  0  0  0  0
  3  4  1  0  0  0  0
  4 26  1  0  0  0  0
  4  5  1  0  0  0  0
  4 34  1  0  0  0  0
  5  6  1  0  0  0  0
  5 35  1  0  0  0  0
  5 36  1  0  0  0  0
  6  7  1  0  0  0  0
  6 26  1  0  0  0  0
  6 37  1  0  0  0  0
  7  8  1  0  0  0  0
  7  9  1  0  0  0  0
  8 38  1  0  0  0  0
  8 39  1  0  0  0  0
  8 40  1  0  0  0  0
  9 14  1  0  0  0  0
  9 10  2  0  0  0  0
 10 11  1  0  0  0  0
 11 12  2  0  0  0  0
 11 41  1  0  0  0  0
 12 13  1  0  0  0  0
 13 17  1  0  0  0  0
 13 14  2  0  0  0  0
 14 15  1  0  0  0  0
 15 16  2  0  0  0  0
 16 17  1  0  0  0  0
 16 42  1  0  0  0  0
 17 18  1  0  0  0  0
 18 19  1  0  0  0  0
 18 43  1  0  0  0  0
 18 44  1  0  0  0  0
 19 24  1  0  0  0  0
 19 20  1  0  0  0  0
 19 21  1  0  0  0  0
 20 45  1  0  0  0  0
 21 22  1  0  0  0  0
 21 46  1  0  0  0  0
 21 47  1  0  0  0  0
 22 23  1  0  0  0  0
 22 48  1  0  0  0  0
 22 49  1  0  0  0  0
 23 24  1  0  0  0  0
 24 25  1  0  0  0  0
 24 50  1  0  0  0  0
 25 51  1  0  0  0  0
 25 52  1  0  0  0  0
 25 53  1  0  0  0  0
 26 27  1  0  0  0  0
 26 28  1  0  0  0  0
 27 54  1  0  0  0  0
 27 55  1  0  0  0  0
 27 56  1  0  0  0  0
 28 57  1  0  0  0  0
 28 58  1  0  0  0  0
 28 59  1  0  0  0  0
M  END
> <s_m_source_file>
AV-unprocessed.smi

> <i_m_source_file_index>
234

> <i_lp_mmshare_version>
43012

> <i_f3d_flags>
0

> <s_epik_input>
W0NIM11bQ0gyXU9bQ0BASF0oQzEoW0NIM10pW0NIM10pW0NIMl1bQ0BIXTFOKFtDSDNdKWMobltjSF1uMiljKGMyMyluW2NIXW4zW0NIMl1bQ0BAXTQoW09IXSlbQ0gyXVtDSDJdT1tDQEhdNFtDSDNd

> <s_epik_cmdline>
J2VwaWtfcHl0aG9uJywgJy1waCcsICc3LjAnLCAnLXRuJywgJzgnLCAnLW1hJywgJzIwMCcsICctbWV0YWxfYmluZGluZycsICctaW1hZScsICc8aW5maWxlLm1hZT4nLCAnLW9tYWUnLCAnPG91dGZpbGUubWFlPic=

> <r_lp_tautomer_probability>
1

> <r_epik_Ionization_Penalty>
0.00349132

> <r_epik_Ionization_Penalty_Charging>
0

> <r_epik_Ionization_Penalty_Neutral>
0.00349132

> <r_epik_State_Penalty>
0.00242418

> <r_epik_Charging_Adjusted_Penalty>
0.00242418

> <i_epik_Tot_Q>
0

> <i_epik_Tot_abs_Q>
0

> <r_epik_Metal_State_Penalty>
-0

> <b_epik_Metal_Only>
0

> <s_lp_Force_Field>
OPLS_2005

> <r_lp_Energy>
50.018

> <b_lp_Chiralities_Consistent>
1

> <s_lp_Variant>
AV-unprocessed.smi:234-3

> <Gold.Version>
5.8.1

> <Gold.Id.Protein>
6NUR|6NUR_protein|mol2

> <Gold.PLP.Fitness>
39.0348

> <Gold.PLP.PLP>
-32.5740

> <Gold.PLP.part.hbond>
-3.0000

> <Gold.PLP.part.metal>
0.0000

> <Gold.PLP.part.buried>
3.0593

> <Gold.PLP.part.nonpolar>
-35.7169

> <Gold.PLP.part.repulsive>
2.4804

> <Gold.PLP.ligand.clash>
0.0000

> <Gold.PLP.ligand.torsion>
1.1819

> <Gold.PLP.Chemscore.Hbond>
1.5787

> <Gold.PLP.Chemscore.CHOScore>
1.0000

> <Gold.PLP.Chemscore.Metal>
0.0000

> <Gold.Chemscore.Hbonds>
donor molecule, donor type, donor heavy atom, donor atom, acceptor molecule, acceptor atom, score
      L1  H    20    45       P1  7921  0.70
      P1  H  7954  7966       L1    15  0.81
      L1  C    16    42       P1  7921  1.00

> <Gold.PLP.Chemscore.Internal.Correction>
1.0884

> <Gold.Rescore>
     Score         DG    S(hbond)    S(metal)    S(lipo)     H(rot)  DE(clash)    DE(int)     intcor
      5.43     -10.65       0.33        0.00      92.10       2.62       2.46       2.76       ----

> <Gold.Chemscore.Fitness>
5.4313

> <Gold.Chemscore.DG>
-10.6509

> <Gold.Chemscore.ZeroCoef>
-5.4800

> <Gold.Chemscore.Hbond>
0.3317

> <Gold.Chemscore.Metal>
0.0000

> <Gold.Chemscore.Lipo>
92.0959

> <Gold.Chemscore.Internal_Hbond>
0.0000

> <Gold.Chemscore.DEClash>
2.4635

> <Gold.Chemscore.DEInternal>
2.7561

> <Gold.Chemscore.Rot>
2.6219

> <Gold.Chemscore.Internal.Correction>
   9.000000E+99

> <Gold.Chemscore.Hbonds>
donor molecule, donor type, donor heavy atom, donor atom, acceptor molecule, acceptor atom, score
      L1  H    20    45       P1  7921  0.07
      P1  H  7954  7966       L1    15  0.13

> <Gold.Chemscore.Hbond.Weighted>
-1.1077

> <Gold.Chemscore.Metal.Weighted>
-0.0000

> <Gold.Chemscore.Lipo.Weighted>
-10.7752

> <Gold.Chemscore.Internal_Hbond.Weighted>
0.0000

> <Gold.Chemscore.DEClash.Weighted>
2.4635

> <Gold.Chemscore.DEInternal.Weighted>
2.7561

> <Gold.Chemscore.Rot.Weighted>
6.7121

> <Gold.Chemscore.Internal.Correction.Weighted>
   9.000000E+99

> <Gold.Protein.RotatedTorsions>
[ 6907 6896 6895 6894 ] final   65.74 input  -60.11 | X-H torsion
[ 7974 7965 7964 7962 ] final  -97.26 input  175.53 | X-H torsion
[ 8008 7997 7996 7995 ] final  -98.16 input   59.86 | X-H torsion
[ 10167 10162 10161 10158 ] final -162.83 input  -65.29 | X-H torsion
[ 10718 10713 10712 10709 ] final -175.58 input   66.30 | X-H torsion
[ 10763 10752 10751 10750 ] final  147.95 input  -60.55 | X-H torsion
[ 11005 11000 10999 10996 ] final   41.02 input  -57.11 | X-H torsion

> <Gold.Protein.ActiveResidues>
 VAL166  LYS551  ARG553  GLY616  TRP617  ASP618  TYR619  PRO620  LYS621  CYS622 
 ASP623  PHE694  ASN695  SER759  ASP760  ASP761  ALA762  ILE779  LEU786  VAL792 
 PHE793  MET794  SER795  GLU796  ALA797  LYS798  CYS799  TRP800  GLU811  SER814 

> <Gold.Protein.RotatedAtoms>
  152.4430  134.5552  159.9878 H   0  0  0  0  0  0  0  0  0  0  0  0  # atno 6907 bound_to 6896
  151.5645  133.3393  159.2985 H   0  0  0  0  0  0  0  0  0  0  0  0  # atno 6908 bound_to 6896
  150.8340  134.7638  159.6941 H   0  0  0  0  0  0  0  0  0  0  0  0  # atno 6909 bound_to 6896
  145.3361  140.9451  143.2634 H   0  0  0  0  0  0  0  0  0  0  0  0  # atno 7974 bound_to 7965
  154.7974  140.0457  157.1247 H   0  0  0  0  0  0  0  0  0  0  0  0  # atno 8008 bound_to 7997
  154.9519  140.3066  155.5051 H   0  0  0  0  0  0  0  0  0  0  0  0  # atno 8009 bound_to 7997
  156.2957  140.2286  156.4597 H   0  0  0  0  0  0  0  0  0  0  0  0  # atno 8010 bound_to 7997
  139.6364  144.0343  152.2057 H   0  0  0  0  0  0  0  0  0  0  0  0  # atno 10167 bound_to 10162
  156.8020  130.9555  151.3118 H   0  0  0  0  0  0  0  0  0  0  0  0  # atno 10718 bound_to 10713
  154.0468  135.2885  155.3346 H   0  0  0  0  0  0  0  0  0  0  0  0  # atno 10763 bound_to 10752
  154.6894  135.5232  153.8375 H   0  0  0  0  0  0  0  0  0  0  0  0  # atno 10764 bound_to 10752
  153.0577  135.6602  154.0667 H   0  0  0  0  0  0  0  0  0  0  0  0  # atno 10765 bound_to 10752
  140.1875  134.4028  155.8165 H   0  0  0  0  0  0  0  0  0  0  0  0  # atno 11005 bound_to 11000
  144.8826  139.4883  143.6715 LP  0  0  0  0  0  0  0  0  0  0  0  0  # atno 17320 bound_to 7965
  146.3026  139.7476  142.9080 LP  0  0  0  0  0  0  0  0  0  0  0  0  # atno 17321 bound_to 7965
  140.0021  144.6286  150.7721 LP  0  0  0  0  0  0  0  0  0  0  0  0  # atno 17342 bound_to 10162
  140.7467  143.2895  151.3369 LP  0  0  0  0  0  0  0  0  0  0  0  0  # atno 17343 bound_to 10162
  157.6549  130.8916  149.9708 LP  0  0  0  0  0  0  0  0  0  0  0  0  # atno 17370 bound_to 10713
  156.1096  130.3651  150.0073 LP  0  0  0  0  0  0  0  0  0  0  0  0  # atno 17371 bound_to 10713
  141.2225  133.7030  156.8037 LP  0  0  0  0  0  0  0  0  0  0  0  0  # atno 17394 bound_to 11000
  140.2197  134.8766  157.3364 LP  0  0  0  0  0  0  0  0  0  0  0  0  # atno 17395 bound_to 11000

$$$$
