AV-unprocessed.smi:2183|AV-procd|sdf|8867|dock8
  -GOLD-   2272012 63D 1   1.00000     0.00000
 Structure written by MMmdl.
 41 43  0  0  0  0  0  0  0  0  2 V2000
  148.7285  142.2803  154.5398 O   0  0  0  0  0  0  0  0  0  0  0  0
  149.3516  141.2260  155.2389 C   0  0  0  0  0  0  0  0  0  0  0  0
  150.2266  141.7188  156.3438 C   0  0  0  0  0  0  0  0  0  0  0  0
  150.4698  143.0248  156.6471 N   0  3  0  0  0  0  0  0  0  0  0  0
  151.3433  143.1033  157.7324 C   0  0  0  0  0  0  0  0  0  0  0  0
  151.8753  144.2053  158.3948 C   0  0  0  0  0  0  0  0  0  0  0  0
  152.7414  143.9372  159.4749 C   0  0  0  0  0  0  0  0  0  0  0  0
  153.0478  142.6157  159.8592 C   0  0  0  0  0  0  0  0  0  0  0  0
  152.5033  141.5064  159.1793 C   0  0  0  0  0  0  0  0  0  0  0  0
  151.6489  141.7794  158.1109 C   0  0  0  0  0  0  0  0  0  0  0  0
  150.9392  140.9592  157.2249 N   0  0  0  0  0  0  0  0  0  0  0  0
  151.0450  139.4955  157.3364 C   0  0  0  0  0  0  0  0  0  0  0  0
  152.1469  138.9062  156.4332 C   0  0  2  0  0  0  0  0  0  0  0  0
  151.5735  138.0463  155.4696 O   0  0  0  0  0  0  0  0  0  0  0  0
  153.2001  138.1201  157.2268 C   0  0  0  0  0  0  0  0  0  0  0  0
  153.8370  139.0036  158.1405 O   0  0  0  0  0  0  0  0  0  0  0  0
  154.0759  138.5578  159.4225 C   0  0  0  0  0  0  0  0  0  0  0  0
  154.7091  139.4576  160.3048 C   0  0  0  0  0  0  0  0  0  0  0  0
  154.9920  139.0864  161.6335 C   0  0  0  0  0  0  0  0  0  0  0  0
  154.6429  137.8035  162.0946 C   0  0  0  0  0  0  0  0  0  0  0  0
  154.9890  137.3449  163.7215 Cl  0  0  0  0  0  0  0  0  0  0  0  0
  154.0108  136.8951  161.2250 C   0  0  0  0  0  0  0  0  0  0  0  0
  153.7277  137.2673  159.8963 C   0  0  0  0  0  0  0  0  0  0  0  0
  149.0310  143.1005  154.8993 H   0  0  0  0  0  0  0  0  0  0  0  0
  148.5849  140.5679  155.6487 H   0  0  0  0  0  0  0  0  0  0  0  0
  149.9413  140.6337  154.5393 H   0  0  0  0  0  0  0  0  0  0  0  0
  151.6418  145.2186  158.1023 H   0  0  0  0  0  0  0  0  0  0  0  0
  153.1790  144.7613  160.0198 H   0  0  0  0  0  0  0  0  0  0  0  0
  153.7141  142.4486  160.6931 H   0  0  0  0  0  0  0  0  0  0  0  0
  152.7427  140.4991  159.4863 H   0  0  0  0  0  0  0  0  0  0  0  0
  151.2592  139.2702  158.3818 H   0  0  0  0  0  0  0  0  0  0  0  0
  150.0755  139.0436  157.1267 H   0  0  0  0  0  0  0  0  0  0  0  0
  152.6452  139.7111  155.8922 H   0  0  0  0  0  0  0  0  0  0  0  0
  152.0531  138.1423  154.6612 H   0  0  0  0  0  0  0  0  0  0  0  0
  152.7303  137.2876  157.7536 H   0  0  0  0  0  0  0  0  0  0  0  0
  153.9446  137.7112  156.5411 H   0  0  0  0  0  0  0  0  0  0  0  0
  154.9808  140.4442  159.9592 H   0  0  0  0  0  0  0  0  0  0  0  0
  155.4770  139.7872  162.2969 H   0  0  0  0  0  0  0  0  0  0  0  0
  153.7414  135.9097  161.5753 H   0  0  0  0  0  0  0  0  0  0  0  0
  153.2435  136.5425  159.2600 H   0  0  0  0  0  0  0  0  0  0  0  0
  150.0693  143.8047  156.1419 H   0  0  0  0  0  0  0  0  0  0  0  0
  1  2  1  0  0  0  0
  1 24  1  0  0  0  0
  2  3  1  0  0  0  0
  2 25  1  0  0  0  0
  2 26  1  0  0  0  0
  3 11  1  0  0  0  0
  3  4  2  0  0  0  0
  4  5  1  0  0  0  0
  4 41  1  0  0  0  0
  5 10  2  0  0  0  0
  5  6  1  0  0  0  0
  6  7  2  0  0  0  0
  6 27  1  0  0  0  0
  7  8  1  0  0  0  0
  7 28  1  0  0  0  0
  8  9  2  0  0  0  0
  8 29  1  0  0  0  0
  9 10  1  0  0  0  0
  9 30  1  0  0  0  0
 10 11  1  0  0  0  0
 11 12  1  0  0  0  0
 12 13  1  0  0  0  0
 12 31  1  0  0  0  0
 12 32  1  0  0  0  0
 13 14  1  0  0  0  0
 13 15  1  0  0  0  0
 13 33  1  0  0  0  0
 14 34  1  0  0  0  0
 15 16  1  0  0  0  0
 15 35  1  0  0  0  0
 15 36  1  0  0  0  0
 16 17  1  0  0  0  0
 17 23  1  0  0  0  0
 17 18  2  0  0  0  0
 18 19  1  0  0  0  0
 18 37  1  0  0  0  0
 19 20  2  0  0  0  0
 19 38  1  0  0  0  0
 20 21  1  0  0  0  0
 20 22  1  0  0  0  0
 22 23  2  0  0  0  0
 22 39  1  0  0  0  0
 23 40  1  0  0  0  0
M  CHG  1   4   1
M  END
> <s_m_source_file>
AV-unprocessed.smi

> <i_m_source_file_index>
2183

> <i_lp_mmshare_version>
43012

> <i_f3d_flags>
0

> <s_epik_input>
W2NIXTFbY0hdW2NIXVtjSF1jKGMxMiluKGMobjIpW0NIMl1bT0hdKVtDSDJdW0NASF0oW09IXSlbQ0gyXU9jM1tjSF1bY0hdYyhDbClbY0hdW2NIXTM=

> <s_epik_cmdline>
J2VwaWtfcHl0aG9uJywgJy1waCcsICc3LjAnLCAnLXRuJywgJzgnLCAnLW1hJywgJzIwMCcsICctbWV0YWxfYmluZGluZycsICctaW1hZScsICc8aW5maWxlLm1hZT4nLCAnLW9tYWUnLCAnPG91dGZpbGUubWFlPic=

> <r_lp_tautomer_probability>
1

> <r_epik_Ionization_Penalty>
1.40052

> <r_epik_Ionization_Penalty_Charging>
1.39966

> <r_epik_Ionization_Penalty_Neutral>
0.000858184

> <r_epik_State_Penalty>
1.4817

> <r_epik_Charging_Adjusted_Penalty>
2.88136

> <i_epik_Tot_Q>
1

> <i_epik_Tot_abs_Q>
1

> <r_epik_Metal_State_Penalty>
5.5238

> <b_epik_Metal_Only>
0

> <s_lp_Force_Field>
OPLS_2005

> <r_lp_Energy>
17.0634

> <b_lp_Chiralities_Consistent>
1

> <s_lp_Variant>
AV-unprocessed.smi:2183-3

> <Gold.Version>
5.8.1

> <Gold.Id.Protein>
6NUR|6NUR_protein|mol2

> <Gold.PLP.Fitness>
58.3358

> <Gold.PLP.PLP>
-48.6890

> <Gold.PLP.part.hbond>
-4.0000

> <Gold.PLP.part.metal>
0.0000

> <Gold.PLP.part.buried>
-6.6866

> <Gold.PLP.part.nonpolar>
-39.5430

> <Gold.PLP.part.repulsive>
0.0590

> <Gold.PLP.ligand.clash>
0.0000

> <Gold.PLP.ligand.torsion>
1.4248

> <Gold.PLP.Chemscore.Hbond>
4.1326

> <Gold.PLP.Chemscore.CHOScore>
0.0000

> <Gold.PLP.Chemscore.Metal>
0.0000

> <Gold.Chemscore.Hbonds>
donor molecule, donor type, donor heavy atom, donor atom, acceptor molecule, acceptor atom, score
      L1  H     1    24       P1  8028  1.00
      L1  H     4    41       P1  8028  2.00
      P1  H  7997  8010       L1    16  1.00

> <Gold.PLP.Chemscore.Internal.Correction>
0.0987

> <Gold.Rescore>
     Score         DG    S(hbond)    S(metal)    S(lipo)     H(rot)  DE(clash)    DE(int)     intcor
     20.34     -21.79       2.82        0.00     127.49       3.13       0.00       1.44       ----

> <Gold.Chemscore.Fitness>
20.3427

> <Gold.Chemscore.DG>
-21.7872

> <Gold.Chemscore.ZeroCoef>
-5.4800

> <Gold.Chemscore.Hbond>
2.8157

> <Gold.Chemscore.Metal>
0.0000

> <Gold.Chemscore.Lipo>
127.4945

> <Gold.Chemscore.Internal_Hbond>
0.0000

> <Gold.Chemscore.DEClash>
0.0000

> <Gold.Chemscore.DEInternal>
1.4446

> <Gold.Chemscore.Rot>
3.1305

> <Gold.Chemscore.Internal.Correction>
   9.000000E+99

> <Gold.Chemscore.Hbonds>
donor molecule, donor type, donor heavy atom, donor atom, acceptor molecule, acceptor atom, score
      L1  H     1    24       P1  8028  0.99
      L1  H     4    41       P1  8028  0.94
      P1  H  7997  8010       L1    16  0.68

> <Gold.Chemscore.Hbond.Weighted>
-9.4045

> <Gold.Chemscore.Metal.Weighted>
-0.0000

> <Gold.Chemscore.Lipo.Weighted>
-14.9169

> <Gold.Chemscore.Internal_Hbond.Weighted>
0.0000

> <Gold.Chemscore.DEClash.Weighted>
0.0000

> <Gold.Chemscore.DEInternal.Weighted>
1.4446

> <Gold.Chemscore.Rot.Weighted>
8.0141

> <Gold.Chemscore.Internal.Correction.Weighted>
   9.000000E+99

> <Gold.Protein.RotatedTorsions>
[ 6907 6896 6895 6894 ] final  -85.94 input  -60.11 | X-H torsion
[ 7974 7965 7964 7962 ] final  103.51 input  175.53 | X-H torsion
[ 8008 7997 7996 7995 ] final    8.78 input   59.86 | X-H torsion
[ 10167 10162 10161 10158 ] final   99.23 input  -65.29 | X-H torsion
[ 10718 10713 10712 10709 ] final  -93.61 input   66.30 | X-H torsion
[ 10763 10752 10751 10750 ] final  -77.59 input  -60.55 | X-H torsion
[ 11005 11000 10999 10996 ] final -172.08 input  -57.11 | X-H torsion

> <Gold.Protein.ActiveResidues>
 VAL166  LYS551  ARG553  GLY616  TRP617  ASP618  TYR619  PRO620  LYS621  CYS622 
 ASP623  PHE694  ASN695  SER759  ASP760  ASP761  ALA762  ILE779  LEU786  VAL792 
 PHE793  MET794  SER795  GLU796  ALA797  LYS798  CYS799  TRP800  GLU811  SER814 

> <Gold.Protein.RotatedAtoms>
  150.6868  134.3127  159.4752 H   0  0  0  0  0  0  0  0  0  0  0  0  # atno 6907 bound_to 6896
  152.1011  134.9338  160.0579 H   0  0  0  0  0  0  0  0  0  0  0  0  # atno 6908 bound_to 6896
  152.0617  133.4030  159.4457 H   0  0  0  0  0  0  0  0  0  0  0  0  # atno 6909 bound_to 6896
  145.3450  139.2453  143.3589 H   0  0  0  0  0  0  0  0  0  0  0  0  # atno 7974 bound_to 7965
  154.7713  140.2802  155.6135 H   0  0  0  0  0  0  0  0  0  0  0  0  # atno 8008 bound_to 7997
  156.2934  140.2641  156.2444 H   0  0  0  0  0  0  0  0  0  0  0  0  # atno 8009 bound_to 7997
  154.9896  140.0374  157.2303 H   0  0  0  0  0  0  0  0  0  0  0  0  # atno 8010 bound_to 7997
  139.7637  144.6946  151.0256 H   0  0  0  0  0  0  0  0  0  0  0  0  # atno 10167 bound_to 10162
  156.0016  130.5034  150.5803 H   0  0  0  0  0  0  0  0  0  0  0  0  # atno 10718 bound_to 10713
  154.5149  135.5759  153.6634 H   0  0  0  0  0  0  0  0  0  0  0  0  # atno 10763 bound_to 10752
  152.9905  135.6167  154.2830 H   0  0  0  0  0  0  0  0  0  0  0  0  # atno 10764 bound_to 10752
  154.2747  135.2852  155.2702 H   0  0  0  0  0  0  0  0  0  0  0  0  # atno 10765 bound_to 10752
  140.5010  134.5894  157.4987 H   0  0  0  0  0  0  0  0  0  0  0  0  # atno 11005 bound_to 11000
  146.2992  140.4055  142.8710 LP  0  0  0  0  0  0  0  0  0  0  0  0  # atno 17320 bound_to 7965
  144.8761  140.7338  143.6016 LP  0  0  0  0  0  0  0  0  0  0  0  0  # atno 17321 bound_to 7965
  140.7809  143.4668  151.0201 LP  0  0  0  0  0  0  0  0  0  0  0  0  # atno 17342 bound_to 10162
  139.8353  143.7636  152.3180 LP  0  0  0  0  0  0  0  0  0  0  0  0  # atno 17343 bound_to 10162
  157.3684  131.0761  151.1578 LP  0  0  0  0  0  0  0  0  0  0  0  0  # atno 17370 bound_to 10713
  157.2340  130.6538  149.5861 LP  0  0  0  0  0  0  0  0  0  0  0  0  # atno 17371 bound_to 10713
  139.9714  134.7287  156.0035 LP  0  0  0  0  0  0  0  0  0  0  0  0  # atno 17394 bound_to 11000
  141.1436  133.6560  156.3800 LP  0  0  0  0  0  0  0  0  0  0  0  0  # atno 17395 bound_to 11000

$$$$
