AV-unprocessed.smi:3216|AV-procd|sdf|12287|dock6
  -GOLD-   2272018123D 1   1.00000     0.00000
 Structure written by MMmdl.
 37 37  0  0  0  0  0  0  0  0  2 V2000
  146.6987  133.4306  151.9393 C   0  0  0  0  0  0  0  0  0  0  0  0
  145.4082  134.0177  151.3417 C   0  0  0  0  0  0  0  0  0  0  0  0
  144.8403  133.0880  150.2592 C   0  0  0  0  0  0  0  0  0  0  0  0
  145.6144  135.4423  150.7843 C   0  0  0  0  0  0  0  0  0  0  0  0
  145.9063  136.4176  151.8306 N   0  0  0  0  0  0  0  0  0  0  0  0
  146.4495  137.6270  151.6265 C   0  0  0  0  0  0  0  0  0  0  0  0
  146.7615  138.0481  150.5118 O   0  0  0  0  0  0  0  0  0  0  0  0
  146.6582  138.4889  152.8729 C   0  0  0  0  0  0  0  0  0  0  0  0
  148.0746  138.8633  153.0625 N   0  3  0  0  0  0  0  0  0  0  0  0
  148.3920  139.3508  154.4182 C   0  0  0  0  0  0  0  0  0  0  0  0
  148.8785  140.8069  154.3805 C   0  0  0  0  0  0  0  0  0  0  0  0
  149.8433  141.0803  155.4282 N   0  0  0  0  0  0  0  0  0  0  0  0
  149.7174  141.9220  156.5134 C   0  0  0  0  0  0  0  0  0  0  0  0
  150.8860  141.8549  157.2165 C   0  0  0  0  0  0  0  0  0  0  0  0
  151.6780  140.9380  156.4703 C   0  0  0  0  0  0  0  0  0  0  0  0
  151.0515  140.4777  155.3991 N   0  0  0  0  0  0  0  0  0  0  0  0
  147.4873  133.3647  151.1891 H   0  0  0  0  0  0  0  0  0  0  0  0
  146.5279  132.4267  152.3292 H   0  0  0  0  0  0  0  0  0  0  0  0
  147.0727  134.0374  152.7641 H   0  0  0  0  0  0  0  0  0  0  0  0
  144.6677  134.0685  152.1412 H   0  0  0  0  0  0  0  0  0  0  0  0
  145.5249  132.9971  149.4151 H   0  0  0  0  0  0  0  0  0  0  0  0
  143.8898  133.4629  149.8782 H   0  0  0  0  0  0  0  0  0  0  0  0
  144.6627  132.0869  150.6533 H   0  0  0  0  0  0  0  0  0  0  0  0
  146.4451  135.4472  150.0776 H   0  0  0  0  0  0  0  0  0  0  0  0
  144.7355  135.7610  150.2210 H   0  0  0  0  0  0  0  0  0  0  0  0
  145.6741  136.1507  152.7768 H   0  0  0  0  0  0  0  0  0  0  0  0
  146.0520  139.3911  152.7822 H   0  0  0  0  0  0  0  0  0  0  0  0
  146.3078  137.9447  153.7511 H   0  0  0  0  0  0  0  0  0  0  0  0
  148.6458  138.0535  152.8672 H   0  0  0  0  0  0  0  0  0  0  0  0
  147.5040  139.2699  155.0468 H   0  0  0  0  0  0  0  0  0  0  0  0
  149.1579  138.7084  154.8557 H   0  0  0  0  0  0  0  0  0  0  0  0
  149.3403  141.0328  153.4180 H   0  0  0  0  0  0  0  0  0  0  0  0
  148.0371  141.4914  154.4972 H   0  0  0  0  0  0  0  0  0  0  0  0
  148.8177  142.4916  156.6942 H   0  0  0  0  0  0  0  0  0  0  0  0
  151.1383  142.3825  158.1245 H   0  0  0  0  0  0  0  0  0  0  0  0
  152.6824  140.5963  156.6733 H   0  0  0  0  0  0  0  0  0  0  0  0
  148.3043  139.5855  152.3944 H   0  0  0  0  0  0  0  0  0  0  0  0
  1  2  1  0  0  0  0
  1 17  1  0  0  0  0
  1 18  1  0  0  0  0
  1 19  1  0  0  0  0
  2  3  1  0  0  0  0
  2  4  1  0  0  0  0
  2 20  1  0  0  0  0
  3 21  1  0  0  0  0
  3 22  1  0  0  0  0
  3 23  1  0  0  0  0
  4  5  1  0  0  0  0
  4 24  1  0  0  0  0
  4 25  1  0  0  0  0
  5  6  1  0  0  0  0
  5 26  1  0  0  0  0
  6  7  2  0  0  0  0
  6  8  1  0  0  0  0
  8  9  1  0  0  0  0
  8 27  1  0  0  0  0
  8 28  1  0  0  0  0
  9 10  1  0  0  0  0
  9 29  1  0  0  0  0
  9 37  1  0  0  0  0
 10 11  1  0  0  0  0
 10 30  1  0  0  0  0
 10 31  1  0  0  0  0
 11 12  1  0  0  0  0
 11 32  1  0  0  0  0
 11 33  1  0  0  0  0
 12 16  1  0  0  0  0
 12 13  1  0  0  0  0
 13 14  2  0  0  0  0
 13 34  1  0  0  0  0
 14 15  1  0  0  0  0
 14 35  1  0  0  0  0
 15 16  2  0  0  0  0
 15 36  1  0  0  0  0
M  CHG  1   9   1
M  END
> <s_m_source_file>
AV-unprocessed.smi

> <i_m_source_file_index>
3216

> <i_lp_mmshare_version>
43012

> <i_f3d_flags>
0

> <s_epik_input>
W0NIM11bQ0hdKFtDSDNdKVtDSDJdW05IXUMoPU8pW0NIMl1bTkhdW0NIMl1bQ0gyXW4xW2NIXVtjSF1bY0hdbjE=

> <s_epik_cmdline>
J2VwaWtfcHl0aG9uJywgJy1waCcsICc3LjAnLCAnLXRuJywgJzgnLCAnLW1hJywgJzIwMCcsICctbWV0YWxfYmluZGluZycsICctaW1hZScsICc8aW5maWxlLm1hZT4nLCAnLW9tYWUnLCAnPG91dGZpbGUubWFlPic=

> <r_lp_tautomer_probability>
1

> <r_epik_Ionization_Penalty>
0.20724

> <r_epik_Ionization_Penalty_Charging>
0.207237

> <r_epik_Ionization_Penalty_Neutral>
3.19342e-06

> <r_epik_State_Penalty>
0.197611

> <r_epik_Charging_Adjusted_Penalty>
0.404848

> <i_epik_Tot_Q>
1

> <i_epik_Tot_abs_Q>
1

> <r_epik_Metal_State_Penalty>
0.197786

> <b_epik_Metal_Only>
0

> <s_lp_Force_Field>
OPLS_2005

> <r_lp_Energy>
2.0828

> <b_lp_Chiralities_Consistent>
1

> <s_lp_Variant>
AV-unprocessed.smi:3216-1

> <Gold.Version>
5.8.1

> <Gold.Id.Protein>
6NUR|6NUR_protein|mol2

> <Gold.PLP.Fitness>
45.7078

> <Gold.PLP.PLP>
-31.0704

> <Gold.PLP.part.hbond>
-4.2231

> <Gold.PLP.part.metal>
0.0000

> <Gold.PLP.part.buried>
-2.9340

> <Gold.PLP.part.nonpolar>
-25.8481

> <Gold.PLP.part.repulsive>
1.3082

> <Gold.PLP.ligand.clash>
0.0000

> <Gold.PLP.ligand.torsion>
0.8412

> <Gold.PLP.Chemscore.Hbond>
4.4860

> <Gold.PLP.Chemscore.CHOScore>
0.9249

> <Gold.PLP.Chemscore.Metal>
0.0000

> <Gold.Chemscore.Hbonds>
donor molecule, donor type, donor heavy atom, donor atom, acceptor molecule, acceptor atom, score
      L1  H     9    29       P1  7948  1.76
      L1  H     9    37       P1  7957  0.82
      P1  H  7954  7966       L1     7  0.98
      P1  H  7989  7998       L1    16  0.96
      L1  C    13    34       P1  8028  0.66

> <Gold.PLP.Chemscore.Internal.Correction>
0.0870

> <Gold.Rescore>
     Score         DG    S(hbond)    S(metal)    S(lipo)     H(rot)  DE(clash)    DE(int)     intcor
     14.91     -16.32       2.85        0.00      62.09       2.32       0.79       0.63       ----

> <Gold.Chemscore.Fitness>
14.9102

> <Gold.Chemscore.DG>
-16.3212

> <Gold.Chemscore.ZeroCoef>
-5.4800

> <Gold.Chemscore.Hbond>
2.8480

> <Gold.Chemscore.Metal>
0.0000

> <Gold.Chemscore.Lipo>
62.0950

> <Gold.Chemscore.Internal_Hbond>
0.0000

> <Gold.Chemscore.DEClash>
0.7859

> <Gold.Chemscore.DEInternal>
0.6250

> <Gold.Chemscore.Rot>
2.3189

> <Gold.Chemscore.Internal.Correction>
   9.000000E+99

> <Gold.Chemscore.Hbonds>
donor molecule, donor type, donor heavy atom, donor atom, acceptor molecule, acceptor atom, score
      L1  H     9    29       P1  7948  0.82
      L1  H     9    37       P1  7957  0.81
      P1  H  7954  7966       L1     7  0.87
      P1  H  7989  7998       L1    16  0.26

> <Gold.Chemscore.Hbond.Weighted>
-9.5124

> <Gold.Chemscore.Metal.Weighted>
-0.0000

> <Gold.Chemscore.Lipo.Weighted>
-7.2651

> <Gold.Chemscore.Internal_Hbond.Weighted>
0.0000

> <Gold.Chemscore.DEClash.Weighted>
0.7859

> <Gold.Chemscore.DEInternal.Weighted>
0.6250

> <Gold.Chemscore.Rot.Weighted>
5.9363

> <Gold.Chemscore.Internal.Correction.Weighted>
   9.000000E+99

> <Gold.Protein.RotatedTorsions>
[ 6907 6896 6895 6894 ] final  118.41 input  -60.11 | X-H torsion
[ 7974 7965 7964 7962 ] final  -97.36 input  175.53 | X-H torsion
[ 8008 7997 7996 7995 ] final   42.92 input   59.86 | X-H torsion
[ 10167 10162 10161 10158 ] final  -90.17 input  -65.29 | X-H torsion
[ 10718 10713 10712 10709 ] final  -65.00 input   66.30 | X-H torsion
[ 10763 10752 10751 10750 ] final   81.93 input  -60.55 | X-H torsion
[ 11005 11000 10999 10996 ] final  -63.22 input  -57.11 | X-H torsion

> <Gold.Protein.ActiveResidues>
 VAL166  LYS551  ARG553  GLY616  TRP617  ASP618  TYR619  PRO620  LYS621  CYS622 
 ASP623  PHE694  ASN695  SER759  ASP760  ASP761  ALA762  ILE779  LEU786  VAL792 
 PHE793  MET794  SER795  GLU796  ALA797  LYS798  CYS799  TRP800  GLU811  SER814 

> <Gold.Protein.RotatedAtoms>
  152.4545  133.7695  159.6790 H   0  0  0  0  0  0  0  0  0  0  0  0  # atno 6907 bound_to 6896
  150.8466  133.7841  159.3047 H   0  0  0  0  0  0  0  0  0  0  0  0  # atno 6908 bound_to 6896
  151.5450  135.1071  159.9987 H   0  0  0  0  0  0  0  0  0  0  0  0  # atno 6909 bound_to 6896
  145.3347  140.9448  143.2642 H   0  0  0  0  0  0  0  0  0  0  0  0  # atno 7974 bound_to 7965
  155.2941  140.3381  155.4251 H   0  0  0  0  0  0  0  0  0  0  0  0  # atno 8008 bound_to 7997
  156.2032  140.1741  156.7895 H   0  0  0  0  0  0  0  0  0  0  0  0  # atno 8009 bound_to 7997
  154.5586  140.0691  156.8768 H   0  0  0  0  0  0  0  0  0  0  0  0  # atno 8010 bound_to 7997
  140.3576  143.2858  151.9653 H   0  0  0  0  0  0  0  0  0  0  0  0  # atno 10167 bound_to 10162
  156.0696  130.4241  150.1500 H   0  0  0  0  0  0  0  0  0  0  0  0  # atno 10718 bound_to 10713
  153.1159  135.4747  154.9114 H   0  0  0  0  0  0  0  0  0  0  0  0  # atno 10763 bound_to 10752
  154.7528  135.3110  154.8529 H   0  0  0  0  0  0  0  0  0  0  0  0  # atno 10764 bound_to 10752
  153.9105  135.6865  153.4805 H   0  0  0  0  0  0  0  0  0  0  0  0  # atno 10765 bound_to 10752
  141.1386  133.6649  156.5647 H   0  0  0  0  0  0  0  0  0  0  0  0  # atno 11005 bound_to 11000
  144.8837  139.4869  143.6711 LP  0  0  0  0  0  0  0  0  0  0  0  0  # atno 17320 bound_to 7965
  146.3031  139.7492  142.9076 LP  0  0  0  0  0  0  0  0  0  0  0  0  # atno 17321 bound_to 7965
  139.4818  144.6021  151.7586 LP  0  0  0  0  0  0  0  0  0  0  0  0  # atno 17342 bound_to 10162
  140.5159  144.0954  150.6008 LP  0  0  0  0  0  0  0  0  0  0  0  0  # atno 17343 bound_to 10162
  156.9554  130.9788  151.3490 LP  0  0  0  0  0  0  0  0  0  0  0  0  # atno 17370 bound_to 10713
  157.5758  130.8342  149.8454 LP  0  0  0  0  0  0  0  0  0  0  0  0  # atno 17371 bound_to 10713
  140.3960  134.7398  157.4751 LP  0  0  0  0  0  0  0  0  0  0  0  0  # atno 17394 bound_to 11000
  140.0531  134.6103  155.8838 LP  0  0  0  0  0  0  0  0  0  0  0  0  # atno 17395 bound_to 11000

$$$$
