AV-unprocessed.smi:1196|AV-procd|sdf|5001|dock9
  -GOLD-   22720 4 13D 1   1.00000     0.00000
 Structure written by MMmdl.
 36 37  0  0  0  0  0  0  0  0  2 V2000
  148.8298  141.0989  156.3971 C   0  0  0  0  0  0  0  0  0  0  0  0
  150.0488  141.1880  157.3285 C   0  0  1  0  0  0  0  0  0  0  0  0
  149.8481  142.2617  158.4153 C   0  0  0  0  0  0  0  0  0  0  0  0
  151.0462  143.0509  158.6409 N   0  0  0  0  0  0  0  0  0  0  0  0
  151.8363  143.1019  159.7698 C   0  0  0  0  0  0  0  0  0  0  0  0
  152.8462  143.9863  159.5196 C   0  0  0  0  0  0  0  0  0  0  0  0
  152.5838  144.4319  158.1937 C   0  0  0  0  0  0  0  0  0  0  0  0
  151.5070  143.8690  157.6696 N   0  0  0  0  0  0  0  0  0  0  0  0
  150.2990  139.8873  157.9465 N   0  0  0  0  0  0  0  0  0  0  0  0
  150.3948  138.7188  157.2944 C   0  0  0  0  0  0  0  0  0  0  0  0
  150.2731  138.6148  156.0734 O   0  0  0  0  0  0  0  0  0  0  0  0
  150.6719  137.4860  158.1589 C   0  0  0  0  0  0  0  0  0  0  0  0
  149.9751  137.5468  159.5319 C   0  0  0  0  0  0  0  0  0  0  0  0
  148.5558  136.9410  159.5144 C   0  0  2  0  0  0  0  0  0  0  0  0
  147.8672  137.1545  160.7755 N   0  5  0  0  0  0  0  0  0  0  0  0
  147.5290  135.9487  161.2896 C   0  0  0  0  0  0  0  0  0  0  0  0
  146.9271  135.7195  162.3362 O   0  0  0  0  0  0  0  0  0  0  0  0
  147.9456  134.9604  160.4915 N   0  0  0  0  0  0  0  0  0  0  0  0
  148.5779  135.4276  159.4200 C   0  0  0  0  0  0  0  0  0  0  0  0
  149.0899  134.7765  158.5105 O   0  0  0  0  0  0  0  0  0  0  0  0
  148.6355  142.0568  155.9140 H   0  0  0  0  0  0  0  0  0  0  0  0
  147.9313  140.8145  156.9457 H   0  0  0  0  0  0  0  0  0  0  0  0
  148.9865  140.3618  155.6091 H   0  0  0  0  0  0  0  0  0  0  0  0
  150.9147  141.4734  156.7280 H   0  0  0  0  0  0  0  0  0  0  0  0
  149.0511  142.9457  158.1213 H   0  0  0  0  0  0  0  0  0  0  0  0
  149.5342  141.8066  159.3564 H   0  0  0  0  0  0  0  0  0  0  0  0
  151.6150  142.5125  160.6474 H   0  0  0  0  0  0  0  0  0  0  0  0
  153.6488  144.2724  160.1828 H   0  0  0  0  0  0  0  0  0  0  0  0
  153.1407  145.1421  157.6005 H   0  0  0  0  0  0  0  0  0  0  0  0
  150.4242  139.8773  158.9486 H   0  0  0  0  0  0  0  0  0  0  0  0
  150.3456  136.6016  157.6107 H   0  0  0  0  0  0  0  0  0  0  0  0
  151.7486  137.3842  158.3031 H   0  0  0  0  0  0  0  0  0  0  0  0
  150.5837  137.0036  160.2572 H   0  0  0  0  0  0  0  0  0  0  0  0
  149.9362  138.5793  159.8849 H   0  0  0  0  0  0  0  0  0  0  0  0
  147.9946  137.3280  158.6626 H   0  0  0  0  0  0  0  0  0  0  0  0
  147.8061  133.9801  160.6856 H   0  0  0  0  0  0  0  0  0  0  0  0
  1  2  1  0  0  0  0
  1 21  1  0  0  0  0
  1 22  1  0  0  0  0
  1 23  1  0  0  0  0
  2  3  1  0  0  0  0
  2  9  1  0  0  0  0
  2 24  1  0  0  0  0
  3  4  1  0  0  0  0
  3 25  1  0  0  0  0
  3 26  1  0  0  0  0
  4  8  1  0  0  0  0
  4  5  1  0  0  0  0
  5  6  2  0  0  0  0
  5 27  1  0  0  0  0
  6  7  1  0  0  0  0
  6 28  1  0  0  0  0
  7  8  2  0  0  0  0
  7 29  1  0  0  0  0
  9 10  1  0  0  0  0
  9 30  1  0  0  0  0
 10 11  2  0  0  0  0
 10 12  1  0  0  0  0
 12 13  1  0  0  0  0
 12 31  1  0  0  0  0
 12 32  1  0  0  0  0
 13 14  1  0  0  0  0
 13 33  1  0  0  0  0
 13 34  1  0  0  0  0
 14 19  1  0  0  0  0
 14 15  1  0  0  0  0
 14 35  1  0  0  0  0
 15 16  1  0  0  0  0
 16 17  2  0  0  0  0
 16 18  1  0  0  0  0
 18 19  1  0  0  0  0
 18 36  1  0  0  0  0
 19 20  2  0  0  0  0
M  CHG  1  15  -1
M  END
> <s_m_source_file>
AV-unprocessed.smi

> <i_m_source_file_index>
1196

> <i_lp_mmshare_version>
43012

> <i_f3d_flags>
0

> <s_epik_input>
bjFbY0hdW2NIXVtjSF1uMVtDSDJdW0NAQEhdKFtDSDNdKVtOSF1DKD1PKVtDSDJdW0NIMl1bQ0BASF0yW05IXUMoPU8pW05IXUMyPU8=

> <s_epik_cmdline>
J2VwaWtfcHl0aG9uJywgJy1waCcsICc3LjAnLCAnLXRuJywgJzgnLCAnLW1hJywgJzIwMCcsICctbWV0YWxfYmluZGluZycsICctaW1hZScsICc8aW5maWxlLm1hZT4nLCAnLW9tYWUnLCAnPG91dGZpbGUubWFlPic=

> <r_lp_tautomer_probability>
1

> <r_epik_Ionization_Penalty>
5.79547

> <r_epik_Ionization_Penalty_Charging>
5.79516

> <r_epik_Ionization_Penalty_Neutral>
0.000313087

> <r_epik_State_Penalty>
5.80096

> <r_epik_Charging_Adjusted_Penalty>
11.5961

> <i_epik_Tot_Q>
-1

> <i_epik_Tot_abs_Q>
1

> <r_epik_Metal_State_Penalty>
2.14443

> <b_epik_Metal_Only>
1

> <s_lp_Force_Field>
OPLS_2005

> <r_lp_Energy>
12.2353

> <b_lp_Chiralities_Consistent>
1

> <s_lp_Variant>
AV-unprocessed.smi:1196-6

> <Gold.Version>
5.8.1

> <Gold.Id.Protein>
6NUR|6NUR_protein|mol2

> <Gold.PLP.Fitness>
39.9449

> <Gold.PLP.PLP>
-29.5123

> <Gold.PLP.part.hbond>
-3.0000

> <Gold.PLP.part.metal>
0.0000

> <Gold.PLP.part.buried>
-3.8214

> <Gold.PLP.part.nonpolar>
-23.2513

> <Gold.PLP.part.repulsive>
0.3436

> <Gold.PLP.ligand.clash>
0.0000

> <Gold.PLP.ligand.torsion>
1.2514

> <Gold.PLP.Chemscore.Hbond>
4.2960

> <Gold.PLP.Chemscore.CHOScore>
0.0000

> <Gold.PLP.Chemscore.Metal>
0.0000

> <Gold.Chemscore.Hbonds>
donor molecule, donor type, donor heavy atom, donor atom, acceptor molecule, acceptor atom, score
      P1  H  6896  6907       L1    20  1.00
      P1  H  6931  6943       L1    15  1.73
      P1  H  6934  6947       L1    15  1.66

> <Gold.PLP.Chemscore.Internal.Correction>
0.0474

> <Gold.Rescore>
     Score         DG    S(hbond)    S(metal)    S(lipo)     H(rot)  DE(clash)    DE(int)     intcor
      9.15     -12.00       1.91        0.00      64.55       2.89       0.32       2.53       ----

> <Gold.Chemscore.Fitness>
9.1534

> <Gold.Chemscore.DG>
-11.9977

> <Gold.Chemscore.ZeroCoef>
-5.4800

> <Gold.Chemscore.Hbond>
1.9088

> <Gold.Chemscore.Metal>
0.0000

> <Gold.Chemscore.Lipo>
64.5503

> <Gold.Chemscore.Internal_Hbond>
0.0000

> <Gold.Chemscore.DEClash>
0.3189

> <Gold.Chemscore.DEInternal>
2.5254

> <Gold.Chemscore.Rot>
2.8946

> <Gold.Chemscore.Internal.Correction>
   9.000000E+99

> <Gold.Chemscore.Hbonds>
donor molecule, donor type, donor heavy atom, donor atom, acceptor molecule, acceptor atom, score
      P1  H  6896  6907       L1    20  0.34
      P1  H  6931  6943       L1    15  0.47
      P1  H  6934  6947       L1    15  0.63

> <Gold.Chemscore.Hbond.Weighted>
-6.3755

> <Gold.Chemscore.Metal.Weighted>
-0.0000

> <Gold.Chemscore.Lipo.Weighted>
-7.5524

> <Gold.Chemscore.Internal_Hbond.Weighted>
0.0000

> <Gold.Chemscore.DEClash.Weighted>
0.3189

> <Gold.Chemscore.DEInternal.Weighted>
2.5254

> <Gold.Chemscore.Rot.Weighted>
7.4101

> <Gold.Chemscore.Internal.Correction.Weighted>
   9.000000E+99

> <Gold.Protein.RotatedTorsions>
[ 6907 6896 6895 6894 ] final -101.76 input  -60.11 | X-H torsion
[ 7974 7965 7964 7962 ] final -161.34 input  175.53 | X-H torsion
[ 8008 7997 7996 7995 ] final -118.68 input   59.86 | X-H torsion
[ 10167 10162 10161 10158 ] final   68.06 input  -65.29 | X-H torsion
[ 10718 10713 10712 10709 ] final  164.81 input   66.30 | X-H torsion
[ 10763 10752 10751 10750 ] final   95.91 input  -60.55 | X-H torsion
[ 11005 11000 10999 10996 ] final -167.33 input  -57.11 | X-H torsion

> <Gold.Protein.ActiveResidues>
 VAL166  LYS551  ARG553  GLY616  TRP617  ASP618  TYR619  PRO620  LYS621  CYS622 
 ASP623  PHE694  ASN695  SER759  ASP760  ASP761  ALA762  ILE779  LEU786  VAL792 
 PHE793  MET794  SER795  GLU796  ALA797  LYS798  CYS799  TRP800  GLU811  SER814 

> <Gold.Protein.RotatedAtoms>
  150.7168  134.0685  159.3855 H   0  0  0  0  0  0  0  0  0  0  0  0  # atno 6907 bound_to 6896
  151.8666  135.0502  160.0484 H   0  0  0  0  0  0  0  0  0  0  0  0  # atno 6908 bound_to 6896
  152.2676  133.5317  159.5456 H   0  0  0  0  0  0  0  0  0  0  0  0  # atno 6909 bound_to 6896
  144.7394  140.3411  143.6134 H   0  0  0  0  0  0  0  0  0  0  0  0  # atno 7974 bound_to 7965
  155.1036  140.0396  157.2704 H   0  0  0  0  0  0  0  0  0  0  0  0  # atno 8008 bound_to 7997
  154.6739  140.2618  155.6953 H   0  0  0  0  0  0  0  0  0  0  0  0  # atno 8009 bound_to 7997
  156.2669  140.2792  156.1258 H   0  0  0  0  0  0  0  0  0  0  0  0  # atno 8010 bound_to 7997
  140.0828  144.5056  150.7150 H   0  0  0  0  0  0  0  0  0  0  0  0  # atno 10167 bound_to 10162
  157.0890  131.0412  151.2545 H   0  0  0  0  0  0  0  0  0  0  0  0  # atno 10718 bound_to 10713
  153.2588  135.4237  155.0872 H   0  0  0  0  0  0  0  0  0  0  0  0  # atno 10763 bound_to 10752
  154.8411  135.3444  154.6408 H   0  0  0  0  0  0  0  0  0  0  0  0  # atno 10764 bound_to 10752
  153.6828  135.7038  153.5170 H   0  0  0  0  0  0  0  0  0  0  0  0  # atno 10765 bound_to 10752
  140.5545  134.5395  157.5130 H   0  0  0  0  0  0  0  0  0  0  0  0  # atno 11005 bound_to 11000
  145.7373  139.1753  143.2396 LP  0  0  0  0  0  0  0  0  0  0  0  0  # atno 17320 bound_to 7965
  146.1161  140.7368  142.9480 LP  0  0  0  0  0  0  0  0  0  0  0  0  # atno 17321 bound_to 7965
  140.7069  143.2475  151.4700 LP  0  0  0  0  0  0  0  0  0  0  0  0  # atno 17342 bound_to 10162
  139.5769  144.1797  152.1916 LP  0  0  0  0  0  0  0  0  0  0  0  0  # atno 17343 bound_to 10162
  157.4737  130.7724  149.7347 LP  0  0  0  0  0  0  0  0  0  0  0  0  # atno 17370 bound_to 10713
  155.9903  130.3945  150.3035 LP  0  0  0  0  0  0  0  0  0  0  0  0  # atno 17371 bound_to 10713
  139.9438  134.7738  156.0611 LP  0  0  0  0  0  0  0  0  0  0  0  0  # atno 17394 bound_to 11000
  141.1152  133.6630  156.3076 LP  0  0  0  0  0  0  0  0  0  0  0  0  # atno 17395 bound_to 11000

$$$$
