#       Name:                AV-unprocessed.smi:867
#       Creating user name   scv26
#       Creation time:       Fri Mar 27 01:48:04 2020


#       File generated by GOLD software.
#

@<TRIPOS>MOLECULE
AV-unprocessed.smi:867
    56    59     1
SMALL
NO_CHARGES


@<TRIPOS>ATOM
      1 ****         1.3649   0.9296  -2.3610 O.2            1 S1                 0.0000
      2 ****         0.6988  -0.0647  -2.0700 C.2            1 S1                 0.0000
      3 ****         1.2163  -1.3048  -2.0923 N.am           1 S1                 0.0000
      4 ****         2.5950  -1.6310  -2.4381 C.3            1 S1                 0.0000
      5 ****         3.5409  -1.4250  -1.2440 C.3            1 S1                 0.0000
      6 ****         4.9812  -1.7398  -1.5981 C.ar           1 S1                 0.0000
      7 ****         5.8336  -0.7299  -2.0970 C.ar           1 S1                 0.0000
      8 ****         7.1683  -1.0496  -2.4223 C.ar           1 S1                 0.0000
      9 ****         7.6204  -2.3729  -2.2424 C.ar           1 S1                 0.0000
     10 ****         6.7756  -3.3132  -1.7646 N.pl3          1 S1                 1.0000
     11 ****         5.4909  -3.0471  -1.4406 C.ar           1 S1                 0.0000
     12 ****        -0.6252  -0.0112  -1.7832 N.am           1 S1                 0.0000
     13 ****        -1.3857  -1.0188  -1.0348 C.3            1 S1                 0.0000
     14 ****        -1.6854  -0.4902   0.3825 C.3            1 S1                 0.0000
     15 ****        -2.3689   0.8372   0.3598 N.4            1 S1                 1.0000
     16 ****        -2.6373   1.4204   1.7109 C.3            1 S1                 0.0000
     17 ****        -3.6410   2.6028   1.6401 C.3            1 S1                 0.0000
     18 ****        -4.7324   2.2165   2.6517 C.3            1 S1                 0.0000
     19 ****        -4.1664   2.3045   4.0784 C.3            1 S1                 0.0000
     20 ****        -3.2257   1.0887   4.1374 C.3            1 S1                 0.0000
     21 ****        -3.3520   0.4819   2.7252 C.3            1 S1                 0.0000
     22 ****        -4.8298   0.7130   2.4308 C.3            1 S1                 0.0000
     23 ****        -1.6656   1.8090  -0.5288 C.3            1 S1                 0.0000
     24 ****        -1.4014   1.2210  -1.9242 C.3            1 S1                 0.0000
     25 ****         0.6048  -2.0784  -1.8754 H              1 S1                 0.0000
     26 ****         2.6269  -2.6712  -2.7638 H              1 S1                 0.0000
     27 ****         2.9178  -1.0302  -3.2904 H              1 S1                 0.0000
     28 ****         3.4839  -0.3953  -0.8876 H              1 S1                 0.0000
     29 ****         3.2321  -2.0560  -0.4092 H              1 S1                 0.0000
     30 ****         5.4696   0.2787  -2.2309 H              1 S1                 0.0000
     31 ****         7.8347  -0.2903  -2.8049 H              1 S1                 0.0000
     32 ****         8.6239  -2.7052  -2.4653 H              1 S1                 0.0000
     33 ****         4.9149  -3.8829  -1.0700 H              1 S1                 0.0000
     34 ****        -2.3202  -1.2182  -1.5616 H              1 S1                 0.0000
     35 ****        -0.8827  -1.9830  -0.9612 H              1 S1                 0.0000
     36 ****        -2.3070  -1.2351   0.8743 H              1 S1                 0.0000
     37 ****        -0.7592  -0.4102   0.9538 H              1 S1                 0.0000
     38 ****        -1.6840   1.7484   2.1292 H              1 S1                 0.0000
     39 ****        -3.1733   3.5592   1.8772 H              1 S1                 0.0000
     40 ****        -4.0959   2.6936   0.6527 H              1 S1                 0.0000
     41 ****        -5.6662   2.7635   2.5171 H              1 S1                 0.0000
     42 ****        -3.6451   3.2454   4.2594 H              1 S1                 0.0000
     43 ****        -4.9607   2.2123   4.8206 H              1 S1                 0.0000
     44 ****        -2.2003   1.3657   4.3847 H              1 S1                 0.0000
     45 ****        -3.5681   0.3812   4.8939 H              1 S1                 0.0000
     46 ****        -3.0415  -0.5604   2.7227 H              1 S1                 0.0000
     47 ****        -5.4957   0.2146   3.1378 H              1 S1                 0.0000
     48 ****        -5.1174   0.4400   1.4140 H              1 S1                 0.0000
     49 ****        -2.2465   2.7236  -0.6407 H              1 S1                 0.0000
     50 ****        -0.7183   2.0971  -0.0696 H              1 S1                 0.0000
     51 ****        -0.9026   1.9589  -2.5548 H              1 S1                 0.0000
     52 ****        -2.3461   0.9985  -2.4228 H              1 S1                 0.0000
     53 ****        -3.2716   0.6717  -0.0620 H              1 S1                 0.0000
     54 ****         7.1229  -4.2650  -1.6433 H              1 S1                 0.0000
     55 ****         2.3242   0.8291  -2.6249 LP             1 S1                 0.0000
     56 ****         0.9465   1.8375  -2.3333 LP             1 S1                 0.0000
@<TRIPOS>BOND
    1    1    2 2     
    2    2    3 am    
    3    2   12 am    
    4    3    4 1     
    5    3   25 1     
    6    4    5 1     
    7    4   26 1     
    8    4   27 1     
    9    5    6 1     
   10    5   28 1     
   11    5   29 1     
   12    6   11 ar    
   13    6    7 ar    
   14    7    8 ar    
   15    7   30 1     
   16    8    9 ar    
   17    8   31 1     
   18    9   10 ar    
   19    9   32 1     
   20   10   11 ar    
   21   10   54 1     
   22   11   33 1     
   23   12   24 1     
   24   12   13 1     
   25   13   14 1     
   26   13   34 1     
   27   13   35 1     
   28   14   15 1     
   29   14   36 1     
   30   14   37 1     
   31   15   16 1     
   32   15   23 1     
   33   15   53 1     
   34   16   21 1     
   35   16   17 1     
   36   16   38 1     
   37   17   18 1     
   38   17   39 1     
   39   17   40 1     
   40   18   22 1     
   41   18   19 1     
   42   18   41 1     
   43   19   20 1     
   44   19   42 1     
   45   19   43 1     
   46   20   21 1     
   47   20   44 1     
   48   20   45 1     
   49   21   22 1     
   50   21   46 1     
   51   22   47 1     
   52   22   48 1     
   53   23   24 1     
   54   23   49 1     
   55   23   50 1     
   56   24   51 1     
   57   24   52 1     
   58    1   55 1     
   59    1   56 1     
@<TRIPOS>SUBSTRUCTURE
      1 S1             1
@<TRIPOS>SET
LONE_PAIRS      STATIC     ATOMS    <user>   **** ""
2 55 56
DONOR_HYDROGENS      STATIC     ATOMS    <user>   **** ""
3 25 54 53
ATOM$BLUE        STATIC     ATOMS    COLORGROUP SYSTEM
2 55 56
ATOM$RED        STATIC     ATOMS    COLORGROUP SYSTEM
3 25 54 53
