#       Name:                AV-unprocessed.smi:1194
#       Creating user name   scv26
#       Creation time:       Fri Mar 27 03:59:37 2020


#       File generated by GOLD software.
#

@<TRIPOS>MOLECULE
AV-unprocessed.smi:1194
    52    53     1
SMALL
NO_CHARGES


@<TRIPOS>ATOM
      1 ****        -4.7832   3.3999  -0.7339 C.3            1 S1                 0.0000
      2 ****        -4.3397   1.9397  -0.8771 C.3            1 S1                 0.0000
      3 ****        -3.2993   1.5347   0.1849 C.3            1 S1                 0.0000
      4 ****        -2.8226   0.0744   0.0728 C.2            1 S1                 0.0000
      5 ****        -3.2864  -0.6268  -0.8281 O.2            1 S1                 0.0000
      6 ****        -1.8993  -0.3948   0.9536 N.am           1 S1                 0.0000
      7 ****        -1.3615   0.3901   2.0846 C.3            1 S1                 0.0000
      8 ****        -1.8188  -0.2367   3.4134 C.3            1 S1                 0.0000
      9 ****        -1.4237  -1.7209   3.4902 C.3            1 S1                 0.0000
     10 ****        -1.9152  -2.4796   2.2446 C.3            1 S1                 0.0000
     11 ****        -1.4480  -1.8077   0.9295 C.3            1 S1                 0.0000
     12 ****         0.0556  -1.9807   0.6226 C.2            1 S1                 0.0000
     13 ****         0.6806  -2.9335   1.0888 O.2            1 S1                 0.0000
     14 ****         0.6292  -1.0619  -0.1705 N.am           1 S1                 0.0000
     15 ****         2.0301  -1.0711  -0.5631 C.3            1 S1                 0.0000
     16 ****         2.3247   0.0766  -1.5373 C.3            1 S1                 0.0000
     17 ****         3.7762   0.0926  -1.9755 C.ar           1 S1                 0.0000
     18 ****         4.2001  -0.6759  -3.0823 C.ar           1 S1                 0.0000
     19 ****         5.5579  -0.6490  -3.4636 C.ar           1 S1                 0.0000
     20 ****         6.4614   0.1455  -2.7286 C.ar           1 S1                 0.0000
     21 ****         6.0194   0.8670  -1.6750 N.pl3          1 S1                 1.0000
     22 ****         4.7277   0.8683  -1.2783 C.ar           1 S1                 0.0000
     23 ****        -5.5227   3.6570  -1.4926 H              1 S1                 0.0000
     24 ****        -3.9392   4.0807  -0.8480 H              1 S1                 0.0000
     25 ****        -5.2320   3.5816   0.2430 H              1 S1                 0.0000
     26 ****        -5.2166   1.2948  -0.8031 H              1 S1                 0.0000
     27 ****        -3.9285   1.7921  -1.8768 H              1 S1                 0.0000
     28 ****        -2.4335   2.1923   0.0970 H              1 S1                 0.0000
     29 ****        -3.7285   1.6880   1.1760 H              1 S1                 0.0000
     30 ****        -0.2723   0.3958   2.0421 H              1 S1                 0.0000
     31 ****        -1.6417   1.4413   2.0752 H              1 S1                 0.0000
     32 ****        -1.3867   0.3078   4.2533 H              1 S1                 0.0000
     33 ****        -2.9015  -0.1416   3.5063 H              1 S1                 0.0000
     34 ****        -0.3397  -1.8073   3.5730 H              1 S1                 0.0000
     35 ****        -1.8381  -2.1731   4.3916 H              1 S1                 0.0000
     36 ****        -1.5892  -3.5195   2.2884 H              1 S1                 0.0000
     37 ****        -3.0056  -2.5123   2.2573 H              1 S1                 0.0000
     38 ****        -1.9354  -2.3630   0.1275 H              1 S1                 0.0000
     39 ****         0.0530  -0.3116  -0.5238 H              1 S1                 0.0000
     40 ****         2.6535  -0.9793   0.3278 H              1 S1                 0.0000
     41 ****         2.2690  -2.0287  -1.0290 H              1 S1                 0.0000
     42 ****         1.6892  -0.0094  -2.4199 H              1 S1                 0.0000
     43 ****         2.0808   1.0337  -1.0740 H              1 S1                 0.0000
     44 ****         3.4943  -1.2818  -3.6320 H              1 S1                 0.0000
     45 ****         5.9011  -1.2308  -4.3066 H              1 S1                 0.0000
     46 ****         7.5161   0.2245  -2.9493 H              1 S1                 0.0000
     47 ****         4.4977   1.4834  -0.4204 H              1 S1                 0.0000
     48 ****         6.6902   1.4346  -1.1561 H              1 S1                 0.0000
     49 ****        -3.9559  -0.2444  -1.4649 LP             1 S1                 0.0000
     50 ****        -2.9932  -1.5782  -0.9224 LP             1 S1                 0.0000
     51 ****         0.2148  -3.6008   1.6699 LP             1 S1                 0.0000
     52 ****         1.6541  -3.0400   0.8864 LP             1 S1                 0.0000
@<TRIPOS>BOND
    1    1    2 1     
    2    1   23 1     
    3    1   24 1     
    4    1   25 1     
    5    2    3 1     
    6    2   26 1     
    7    2   27 1     
    8    3    4 1     
    9    3   28 1     
   10    3   29 1     
   11    4    5 2     
   12    4    6 am    
   13    6   11 1     
   14    6    7 1     
   15    7    8 1     
   16    7   30 1     
   17    7   31 1     
   18    8    9 1     
   19    8   32 1     
   20    8   33 1     
   21    9   10 1     
   22    9   34 1     
   23    9   35 1     
   24   10   11 1     
   25   10   36 1     
   26   10   37 1     
   27   11   12 1     
   28   11   38 1     
   29   12   13 2     
   30   12   14 am    
   31   14   15 1     
   32   14   39 1     
   33   15   16 1     
   34   15   40 1     
   35   15   41 1     
   36   16   17 1     
   37   16   42 1     
   38   16   43 1     
   39   17   22 ar    
   40   17   18 ar    
   41   18   19 ar    
   42   18   44 1     
   43   19   20 ar    
   44   19   45 1     
   45   20   21 ar    
   46   20   46 1     
   47   21   22 ar    
   48   21   48 1     
   49   22   47 1     
   50    5   49 1     
   51    5   50 1     
   52   13   51 1     
   53   13   52 1     
@<TRIPOS>SUBSTRUCTURE
      1 S1             1
@<TRIPOS>SET
LONE_PAIRS      STATIC     ATOMS    <user>   **** ""
4 49 50 51 52
DONOR_HYDROGENS      STATIC     ATOMS    <user>   **** ""
2 39 48
ATOM$BLUE        STATIC     ATOMS    COLORGROUP SYSTEM
4 49 50 51 52
ATOM$RED        STATIC     ATOMS    COLORGROUP SYSTEM
2 39 48
