#       Name:                AV-unprocessed.smi:3245
#       Creating user name   scv26
#       Creation time:       Fri Mar 27 18:27:56 2020


#       File generated by GOLD software.
#

@<TRIPOS>MOLECULE
AV-unprocessed.smi:3245
    41    42     1
SMALL
NO_CHARGES


@<TRIPOS>ATOM
      1 ****        -2.4606  -2.4216   1.9129 C.3            1 S1                 0.0000
      2 ****        -1.8518  -1.5140   0.8356 C.3            1 S1                 0.0000
      3 ****        -2.1510  -2.0675  -0.5748 C.3            1 S1                 0.0000
      4 ****        -1.6933  -1.1903  -1.6376 N.pl3          1 S1                 0.0000
      5 ****        -2.3336  -0.0984  -2.1843 C.2            1 S1                 0.0000
      6 ****        -1.5062   0.4213  -3.1381 C.2            1 S1                 0.0000
      7 ****        -0.3707  -0.4353  -3.1056 C.2            1 S1                 0.0000
      8 ****        -0.4853  -1.3989  -2.2057 N.2            1 S1                 0.0000
      9 ****        -0.3940  -1.3897   1.0635 N.4            1 S1                 1.0000
     10 ****         0.1479  -0.0245   0.9054 C.3            1 S1                 0.0000
     11 ****         1.6831  -0.0429   0.8881 C.3            1 S1                 0.0000
     12 ****         2.2272   1.3040   0.6995 N.am           1 S1                 0.0000
     13 ****         2.3976   1.8846  -0.4955 C.2            1 S1                 0.0000
     14 ****         2.1421   1.4085  -1.6011 O.2            1 S1                 0.0000
     15 ****         2.9581   3.2731  -0.2778 C.3            1 S1                 0.0000
     16 ****         3.0187   3.2770   1.1683 N.am           1 S1                 0.0000
     17 ****         2.5841   2.1278   1.7013 C.2            1 S1                 0.0000
     18 ****         2.5209   1.8827   2.9050 O.2            1 S1                 0.0000
     19 ****        -3.5418  -2.5003   1.7943 H              1 S1                 0.0000
     20 ****        -2.2691  -2.0301   2.9125 H              1 S1                 0.0000
     21 ****        -2.0471  -3.4297   1.8647 H              1 S1                 0.0000
     22 ****        -2.3161  -0.5317   0.9399 H              1 S1                 0.0000
     23 ****        -1.6956  -3.0509  -0.7055 H              1 S1                 0.0000
     24 ****        -3.2255  -2.2076  -0.6996 H              1 S1                 0.0000
     25 ****        -3.3108   0.2171  -1.8498 H              1 S1                 0.0000
     26 ****        -1.6851   1.2819  -3.7655 H              1 S1                 0.0000
     27 ****         0.5277  -0.3840  -3.7028 H              1 S1                 0.0000
     28 ****        -0.1898  -1.6920   2.0052 H              1 S1                 0.0000
     29 ****        -0.2209   0.4177  -0.0198 H              1 S1                 0.0000
     30 ****        -0.2180   0.5997   1.7217 H              1 S1                 0.0000
     31 ****         2.0625  -0.4768   1.8149 H              1 S1                 0.0000
     32 ****         2.0384  -0.6955   0.0886 H              1 S1                 0.0000
     33 ****         3.9472   3.3838  -0.7231 H              1 S1                 0.0000
     34 ****         2.2850   4.0438  -0.6544 H              1 S1                 0.0000
     35 ****         3.3481   4.0678   1.7029 H              1 S1                 0.0000
     36 ****         0.0780  -2.0074   0.4182 H              1 S1                 0.0000
     37 ****         0.1744  -2.1199  -1.9937 LP             1 S1                 0.0000
     38 ****         1.7621   0.4862  -1.6727 LP             1 S1                 0.0000
     39 ****         2.3145   1.9438  -2.4280 LP             1 S1                 0.0000
     40 ****         2.1770   0.9972   3.2175 LP             1 S1                 0.0000
     41 ****         2.8134   2.5689   3.5710 LP             1 S1                 0.0000
@<TRIPOS>BOND
    1    1    2 1     
    2    1   19 1     
    3    1   20 1     
    4    1   21 1     
    5    2    3 1     
    6    2    9 1     
    7    2   22 1     
    8    3    4 1     
    9    3   23 1     
   10    3   24 1     
   11    4    8 1     
   12    4    5 1     
   13    5    6 2     
   14    5   25 1     
   15    6    7 1     
   16    6   26 1     
   17    7    8 2     
   18    7   27 1     
   19    9   10 1     
   20    9   28 1     
   21    9   36 1     
   22   10   11 1     
   23   10   29 1     
   24   10   30 1     
   25   11   12 1     
   26   11   31 1     
   27   11   32 1     
   28   12   17 am    
   29   12   13 am    
   30   13   14 2     
   31   13   15 1     
   32   15   16 1     
   33   15   33 1     
   34   15   34 1     
   35   16   17 am    
   36   16   35 1     
   37   17   18 2     
   38    8   37 1     
   39   14   38 1     
   40   14   39 1     
   41   18   40 1     
   42   18   41 1     
@<TRIPOS>SUBSTRUCTURE
      1 S1             1
@<TRIPOS>SET
LONE_PAIRS      STATIC     ATOMS    <user>   **** ""
5 37 38 39 40 41
DONOR_HYDROGENS      STATIC     ATOMS    <user>   **** ""
3 28 36 35
ATOM$BLUE        STATIC     ATOMS    COLORGROUP SYSTEM
5 37 38 39 40 41
ATOM$RED        STATIC     ATOMS    COLORGROUP SYSTEM
3 28 36 35
