AV-unprocessed.smi:3018|AV-procd|sdf|11483|dock3
  -GOLD-   2272016423D 1   1.00000     0.00000
 Structure written by MMmdl.
 44 45  0  0  0  0  0  0  0  0  2 V2000
  147.8165  141.6873  154.3751 C   0  0  0  0  0  0  0  0  0  0  0  0
  149.0961  141.0345  154.9125 C   0  0  0  0  0  0  0  0  0  0  0  0
  149.2112  141.1231  156.4453 C   0  0  2  0  0  0  0  0  0  0  0  0
  150.5890  141.3040  156.7697 O   0  0  0  0  0  0  0  0  0  0  0  0
  150.8786  142.0301  157.9620 C   0  0  0  0  0  0  0  0  0  0  0  0
  151.1063  143.5224  157.6451 C   0  0  0  0  0  0  0  0  0  0  0  0
  151.5573  144.2957  158.8954 C   0  0  0  0  0  0  0  0  0  0  0  0
  152.8132  143.6666  159.5197 C   0  0  0  0  0  0  0  0  0  0  0  0
  152.5935  142.1778  159.8311 C   0  0  0  0  0  0  0  0  0  0  0  0
  152.1446  141.4098  158.5777 C   0  0  0  0  0  0  0  0  0  0  0  0
  148.6827  139.8422  157.1086 C   0  0  0  0  0  0  0  0  0  0  0  0
  147.8043  139.9089  157.9686 O   0  0  0  0  0  0  0  0  0  0  0  0
  149.2269  138.6881  156.6911 N   0  0  0  0  0  0  0  0  0  0  0  0
  148.9127  137.3609  157.2155 C   0  0  0  0  0  0  0  0  0  0  0  0
  149.5970  137.0926  158.5717 C   0  0  0  0  0  0  0  0  0  0  0  0
  148.9463  135.9722  159.3416 C   0  0  0  0  0  0  0  0  0  0  0  0
  148.7644  134.7748  158.9244 N   0  0  0  0  0  0  0  0  0  0  0  0
  148.1802  134.1753  159.9745 N   0  0  0  0  0  0  0  0  0  0  0  0
  148.0168  135.0160  160.9986 C   0  0  0  0  0  0  0  0  0  0  0  0
  147.5042  134.6929  162.0679 O   0  0  0  0  0  0  0  0  0  0  0  0
  148.5073  136.2054  160.6070 N   0  5  0  0  0  0  0  0  0  0  0  0
  147.9232  133.2005  159.9261 H   0  0  0  0  0  0  0  0  0  0  0  0
  147.7594  141.5928  153.2904 H   0  0  0  0  0  0  0  0  0  0  0  0
  147.7826  142.7495  154.6184 H   0  0  0  0  0  0  0  0  0  0  0  0
  146.9277  141.2180  154.7973 H   0  0  0  0  0  0  0  0  0  0  0  0
  149.1094  139.9881  154.6029 H   0  0  0  0  0  0  0  0  0  0  0  0
  149.9635  141.5025  154.4445 H   0  0  0  0  0  0  0  0  0  0  0  0
  148.6249  141.9774  156.7866 H   0  0  0  0  0  0  0  0  0  0  0  0
  150.0704  141.9329  158.6878 H   0  0  0  0  0  0  0  0  0  0  0  0
  151.8614  143.6199  156.8643 H   0  0  0  0  0  0  0  0  0  0  0  0
  150.1965  143.9754  157.2524 H   0  0  0  0  0  0  0  0  0  0  0  0
  151.7528  145.3371  158.6383 H   0  0  0  0  0  0  0  0  0  0  0  0
  150.7502  144.3048  159.6292 H   0  0  0  0  0  0  0  0  0  0  0  0
  153.6548  143.7758  158.8342 H   0  0  0  0  0  0  0  0  0  0  0  0
  153.0846  144.2014  160.4303 H   0  0  0  0  0  0  0  0  0  0  0  0
  153.5113  141.7412  160.2260 H   0  0  0  0  0  0  0  0  0  0  0  0
  151.8402  142.0737  160.6131 H   0  0  0  0  0  0  0  0  0  0  0  0
  151.9590  140.3653  158.8301 H   0  0  0  0  0  0  0  0  0  0  0  0
  152.9503  141.4112  157.8422 H   0  0  0  0  0  0  0  0  0  0  0  0
  149.9383  138.7355  155.9766 H   0  0  0  0  0  0  0  0  0  0  0  0
  147.8352  137.1997  157.2860 H   0  0  0  0  0  0  0  0  0  0  0  0
  149.2748  136.6353  156.4873 H   0  0  0  0  0  0  0  0  0  0  0  0
  150.6464  136.8495  158.3992 H   0  0  0  0  0  0  0  0  0  0  0  0
  149.5994  138.0027  159.1728 H   0  0  0  0  0  0  0  0  0  0  0  0
  1  2  1  0  0  0  0
  1 23  1  0  0  0  0
  1 24  1  0  0  0  0
  1 25  1  0  0  0  0
  2  3  1  0  0  0  0
  2 26  1  0  0  0  0
  2 27  1  0  0  0  0
  3  4  1  0  0  0  0
  3 11  1  0  0  0  0
  3 28  1  0  0  0  0
  4  5  1  0  0  0  0
  5 10  1  0  0  0  0
  5  6  1  0  0  0  0
  5 29  1  0  0  0  0
  6  7  1  0  0  0  0
  6 30  1  0  0  0  0
  6 31  1  0  0  0  0
  7  8  1  0  0  0  0
  7 32  1  0  0  0  0
  7 33  1  0  0  0  0
  8  9  1  0  0  0  0
  8 34  1  0  0  0  0
  8 35  1  0  0  0  0
  9 10  1  0  0  0  0
  9 36  1  0  0  0  0
  9 37  1  0  0  0  0
 10 38  1  0  0  0  0
 10 39  1  0  0  0  0
 11 12  2  0  0  0  0
 11 13  1  0  0  0  0
 13 14  1  0  0  0  0
 13 40  1  0  0  0  0
 14 15  1  0  0  0  0
 14 41  1  0  0  0  0
 14 42  1  0  0  0  0
 15 16  1  0  0  0  0
 15 43  1  0  0  0  0
 15 44  1  0  0  0  0
 16 21  1  0  0  0  0
 16 17  2  0  0  0  0
 17 18  1  0  0  0  0
 18 22  1  0  0  0  0
 18 19  1  0  0  0  0
 19 20  2  0  0  0  0
 19 21  1  0  0  0  0
M  CHG  1  21  -1
M  END
> <s_m_source_file>
AV-unprocessed.smi

> <i_m_source_file_index>
3018

> <i_lp_mmshare_version>
43012

> <i_f3d_flags>
0

> <s_epik_input>
W0NIMl0xW0NIMl1bQ0gyXVtDSDJdW0NIMl1bQ0hdMU9bQ0BASF0oW0NIMl1bQ0gzXSlDKD1PKVtOSF1bQ0gyXVtDSDJdYzJuW25IXWMoPU8pW25IXTI=

> <s_epik_cmdline>
J2VwaWtfcHl0aG9uJywgJy1waCcsICc3LjAnLCAnLXRuJywgJzgnLCAnLW1hJywgJzIwMCcsICctbWV0YWxfYmluZGluZycsICctaW1hZScsICc8aW5maWxlLm1hZT4nLCAnLW9tYWUnLCAnPG91dGZpbGUubWFlPic=

> <r_lp_tautomer_probability>
1

> <r_epik_Ionization_Penalty>
13.7173

> <r_epik_Ionization_Penalty_Charging>
13.7173

> <r_epik_Ionization_Penalty_Neutral>
5.37575e-06

> <r_epik_State_Penalty>
4.05785

> <r_epik_Charging_Adjusted_Penalty>
17.7751

> <i_epik_Tot_Q>
-1

> <i_epik_Tot_abs_Q>
1

> <r_epik_Metal_State_Penalty>
0.460256

> <b_epik_Metal_Only>
1

> <s_lp_Force_Field>
OPLS_2005

> <r_lp_Energy>
25.0633

> <b_lp_Chiralities_Consistent>
1

> <s_lp_Variant>
AV-unprocessed.smi:3018-5

> <Gold.Version>
5.8.1

> <Gold.Id.Protein>
6NUR|6NUR_protein|mol2

> <Gold.PLP.Fitness>
44.5677

> <Gold.PLP.PLP>
-36.0202

> <Gold.PLP.part.hbond>
-2.9853

> <Gold.PLP.part.metal>
0.0000

> <Gold.PLP.part.buried>
-5.8482

> <Gold.PLP.part.nonpolar>
-30.0331

> <Gold.PLP.part.repulsive>
0.1001

> <Gold.PLP.ligand.clash>
0.0000

> <Gold.PLP.ligand.torsion>
1.5786

> <Gold.PLP.Chemscore.Hbond>
3.8400

> <Gold.PLP.Chemscore.CHOScore>
0.0000

> <Gold.PLP.Chemscore.Metal>
0.0000

> <Gold.PLP.Chemscore.Internal.Correction>
0.1848

> <Gold.Rescore>
     Score         DG    S(hbond)    S(metal)    S(lipo)     H(rot)  DE(clash)    DE(int)     intcor
     11.92     -13.10       1.61        0.00      84.38       2.98       0.00       1.18       ----

> <Gold.Chemscore.Fitness>
11.9181

> <Gold.Chemscore.DG>
-13.1009

> <Gold.Chemscore.ZeroCoef>
-5.4800

> <Gold.Chemscore.Hbond>
1.6078

> <Gold.Chemscore.Metal>
0.0000

> <Gold.Chemscore.Lipo>
84.3811

> <Gold.Chemscore.Internal_Hbond>
0.0000

> <Gold.Chemscore.DEClash>
0.0000

> <Gold.Chemscore.DEInternal>
1.1828

> <Gold.Chemscore.Rot>
2.9772

> <Gold.Chemscore.Internal.Correction>
   9.000000E+99

> <Gold.Chemscore.Hbonds>
donor molecule, donor type, donor heavy atom, donor atom, acceptor molecule, acceptor atom, score
      P1  H  6931  6943       L1    21  0.03

> <Gold.Chemscore.Hbond.Weighted>
-5.3699

> <Gold.Chemscore.Metal.Weighted>
-0.0000

> <Gold.Chemscore.Lipo.Weighted>
-9.8726

> <Gold.Chemscore.Internal_Hbond.Weighted>
0.0000

> <Gold.Chemscore.DEClash.Weighted>
0.0000

> <Gold.Chemscore.DEInternal.Weighted>
1.1828

> <Gold.Chemscore.Rot.Weighted>
7.6216

> <Gold.Chemscore.Internal.Correction.Weighted>
   9.000000E+99

> <Gold.Protein.RotatedTorsions>
[ 6907 6896 6895 6894 ] final  -37.44 input  -60.11 | X-H torsion
[ 7974 7965 7964 7962 ] final -103.92 input  175.53 | X-H torsion
[ 8008 7997 7996 7995 ] final    0.45 input   59.86 | X-H torsion
[ 10167 10162 10161 10158 ] final -101.14 input  -65.29 | X-H torsion
[ 10718 10713 10712 10709 ] final -122.22 input   66.30 | X-H torsion
[ 10763 10752 10751 10750 ] final  153.45 input  -60.55 | X-H torsion
[ 11005 11000 10999 10996 ] final  -38.56 input  -57.11 | X-H torsion

> <Gold.Protein.ActiveResidues>
 VAL166  LYS551  ARG553  GLY616  TRP617  ASP618  TYR619  PRO620  LYS621  CYS622 
 ASP623  PHE694  ASN695  SER759  ASP760  ASP761  ALA762  ILE779  LEU786  VAL792 
 PHE793  MET794  SER795  GLU796  ALA797  LYS798  CYS799  TRP800  GLU811  SER814 

> <Gold.Protein.RotatedAtoms>
  151.0147  134.9423  159.8026 H   0  0  0  0  0  0  0  0  0  0  0  0  # atno 6907 bound_to 6896
  152.5311  134.2982  159.9078 H   0  0  0  0  0  0  0  0  0  0  0  0  # atno 6908 bound_to 6896
  151.2989  133.4089  159.2672 H   0  0  0  0  0  0  0  0  0  0  0  0  # atno 6909 bound_to 6896
  145.2498  140.9234  143.3102 H   0  0  0  0  0  0  0  0  0  0  0  0  # atno 7974 bound_to 7965
  154.6682  140.2606  155.7035 H   0  0  0  0  0  0  0  0  0  0  0  0  # atno 8008 bound_to 7997
  156.2648  140.2834  156.1103 H   0  0  0  0  0  0  0  0  0  0  0  0  # atno 8009 bound_to 7997
  155.1207  140.0377  157.2739 H   0  0  0  0  0  0  0  0  0  0  0  0  # atno 8010 bound_to 7997
  140.2444  143.3516  152.0772 H   0  0  0  0  0  0  0  0  0  0  0  0  # atno 10167 bound_to 10162
  156.1400  130.6459  150.9756 H   0  0  0  0  0  0  0  0  0  0  0  0  # atno 10718 bound_to 10713
  154.1365  135.2823  155.3172 H   0  0  0  0  0  0  0  0  0  0  0  0  # atno 10763 bound_to 10752
  154.6318  135.5432  153.7692 H   0  0  0  0  0  0  0  0  0  0  0  0  # atno 10764 bound_to 10752
  153.0264  135.6464  154.1513 H   0  0  0  0  0  0  0  0  0  0  0  0  # atno 10765 bound_to 10752
  141.0036  133.6943  156.2069 H   0  0  0  0  0  0  0  0  0  0  0  0  # atno 11005 bound_to 11000
  144.9513  139.4079  143.6401 LP  0  0  0  0  0  0  0  0  0  0  0  0  # atno 17320 bound_to 7965
  146.3306  139.8522  142.8871 LP  0  0  0  0  0  0  0  0  0  0  0  0  # atno 17321 bound_to 7965
  139.5066  144.6817  151.5990 LP  0  0  0  0  0  0  0  0  0  0  0  0  # atno 17342 bound_to 10162
  140.6089  143.9473  150.6438 LP  0  0  0  0  0  0  0  0  0  0  0  0  # atno 17343 bound_to 10162
  157.6567  131.0888  150.7931 LP  0  0  0  0  0  0  0  0  0  0  0  0  # atno 17370 bound_to 10713
  156.8007  130.4920  149.5370 LP  0  0  0  0  0  0  0  0  0  0  0  0  # atno 17371 bound_to 10713
  140.6849  134.4728  157.5589 LP  0  0  0  0  0  0  0  0  0  0  0  0  # atno 17394 bound_to 11000
  139.9052  134.8466  156.1736 LP  0  0  0  0  0  0  0  0  0  0  0  0  # atno 17395 bound_to 11000

$$$$
