AV-unprocessed.smi:2478|AV-procd|sdf|9766|dock9
  -GOLD-   2272013413D 1   1.00000     0.00000
 Structure written by MMmdl.
 42 43  0  0  0  0  0  0  0  0  1 V2000
  153.0235  140.6759  159.5680 C   0  0  0  0  0  0  0  0  0  0  0  0
  152.1997  141.9670  159.7032 C   0  0  1  0  0  0  0  0  0  0  0  0
  152.9363  142.9897  160.5924 C   0  0  0  0  0  0  0  0  0  0  0  0
  152.1458  144.2994  160.7340 C   0  0  0  0  0  0  0  0  0  0  0  0
  151.8324  144.9057  159.3593 C   0  0  0  0  0  0  0  0  0  0  0  0
  151.0828  143.8991  158.4753 C   0  0  0  0  0  0  0  0  0  0  0  0
  151.8705  142.5809  158.3236 C   0  0  2  0  0  0  0  0  0  0  0  0
  151.0740  141.6507  157.6015 O   0  0  0  0  0  0  0  0  0  0  0  0
  150.7972  142.0386  156.2632 C   0  0  0  0  0  0  0  0  0  0  0  0
  150.1714  140.8545  155.5317 C   0  0  0  0  0  0  0  0  0  0  0  0
  150.8128  140.2699  154.6589 O   0  0  0  0  0  0  0  0  0  0  0  0
  148.9160  140.5454  155.9047 N   0  0  0  0  0  0  0  0  0  0  0  0
  148.0712  139.5142  155.4122 C   0  0  0  0  0  0  0  0  0  0  0  0
  148.5450  138.3704  154.8577 N   0  0  0  0  0  0  0  0  0  0  0  0
  147.6750  137.4389  154.4180 C   0  0  0  0  0  0  0  0  0  0  0  0
  146.2806  137.5890  154.5068 C   0  0  0  0  0  0  0  0  0  0  0  0
  145.7760  138.7698  155.0783 C   0  0  0  0  0  0  0  0  0  0  0  0
  146.6801  139.7592  155.5333 C   0  0  0  0  0  0  0  0  0  0  0  0
  146.2528  140.9325  156.1168 O   0  0  0  0  0  0  0  0  0  0  0  0
  145.4919  141.7937  155.3904 C   0  0  0  0  0  0  0  0  0  0  0  0
  145.0893  142.8344  156.1601 F   0  0  0  0  0  0  0  0  0  0  0  0
  146.2225  142.2980  154.3670 F   0  0  0  0  0  0  0  0  0  0  0  0
  153.9743  140.8639  159.0682 H   0  0  0  0  0  0  0  0  0  0  0  0
  152.4885  139.9212  158.9909 H   0  0  0  0  0  0  0  0  0  0  0  0
  153.2416  140.2452  160.5456 H   0  0  0  0  0  0  0  0  0  0  0  0
  151.2597  141.7114  160.1949 H   0  0  0  0  0  0  0  0  0  0  0  0
  153.1140  142.5646  161.5808 H   0  0  0  0  0  0  0  0  0  0  0  0
  153.9185  143.2052  160.1694 H   0  0  0  0  0  0  0  0  0  0  0  0
  151.2158  144.1097  161.2716 H   0  0  0  0  0  0  0  0  0  0  0  0
  152.7109  145.0123  161.3351 H   0  0  0  0  0  0  0  0  0  0  0  0
  151.2372  145.8114  159.4789 H   0  0  0  0  0  0  0  0  0  0  0  0
  152.7594  145.2055  158.8693 H   0  0  0  0  0  0  0  0  0  0  0  0
  150.1053  143.6913  158.9131 H   0  0  0  0  0  0  0  0  0  0  0  0
  150.8928  144.3469  157.5001 H   0  0  0  0  0  0  0  0  0  0  0  0
  152.8084  142.7696  157.7970 H   0  0  0  0  0  0  0  0  0  0  0  0
  150.1039  142.8792  156.2279 H   0  0  0  0  0  0  0  0  0  0  0  0
  151.7174  142.3443  155.7626 H   0  0  0  0  0  0  0  0  0  0  0  0
  148.5165  141.1192  156.6332 H   0  0  0  0  0  0  0  0  0  0  0  0
  148.1039  136.5468  153.9859 H   0  0  0  0  0  0  0  0  0  0  0  0
  145.6159  136.8168  154.1488 H   0  0  0  0  0  0  0  0  0  0  0  0
  144.7080  138.9030  155.1665 H   0  0  0  0  0  0  0  0  0  0  0  0
  144.6181  141.2998  154.9645 H   0  0  0  0  0  0  0  0  0  0  0  0
  1  2  1  0  0  0  0
  1 23  1  0  0  0  0
  1 24  1  0  0  0  0
  1 25  1  0  0  0  0
  2  7  1  0  0  0  0
  2  3  1  0  0  0  0
  2 26  1  0  0  0  0
  3  4  1  0  0  0  0
  3 27  1  0  0  0  0
  3 28  1  0  0  0  0
  4  5  1  0  0  0  0
  4 29  1  0  0  0  0
  4 30  1  0  0  0  0
  5  6  1  0  0  0  0
  5 31  1  0  0  0  0
  5 32  1  0  0  0  0
  6  7  1  0  0  0  0
  6 33  1  0  0  0  0
  6 34  1  0  0  0  0
  7  8  1  0  0  0  0
  7 35  1  0  0  0  0
  8  9  1  0  0  0  0
  9 10  1  0  0  0  0
  9 36  1  0  0  0  0
  9 37  1  0  0  0  0
 10 11  2  0  0  0  0
 10 12  1  0  0  0  0
 12 13  1  0  0  0  0
 12 38  1  0  0  0  0
 13 18  1  0  0  0  0
 13 14  2  0  0  0  0
 14 15  1  0  0  0  0
 15 16  2  0  0  0  0
 15 39  1  0  0  0  0
 16 17  1  0  0  0  0
 16 40  1  0  0  0  0
 17 18  2  0  0  0  0
 17 41  1  0  0  0  0
 18 19  1  0  0  0  0
 19 20  1  0  0  0  0
 20 21  1  0  0  0  0
 20 22  1  0  0  0  0
 20 42  1  0  0  0  0
M  END
> <s_m_source_file>
AV-unprocessed.smi

> <i_m_source_file_index>
2478

> <i_lp_mmshare_version>
43012

> <i_f3d_flags>
0

> <s_epik_input>
W0NIM11bQ0BASF0xW0NIMl1bQ0gyXVtDSDJdW0NIMl1bQ0BIXTFPW0NIMl1DKD1PKVtOSF1jMm5bY0hdW2NIXVtjSF1jMk9bQ0hdKEYpRg==

> <s_epik_cmdline>
J2VwaWtfcHl0aG9uJywgJy1waCcsICc3LjAnLCAnLXRuJywgJzgnLCAnLW1hJywgJzIwMCcsICctbWV0YWxfYmluZGluZycsICctaW1hZScsICc8aW5maWxlLm1hZT4nLCAnLW9tYWUnLCAnPG91dGZpbGUubWFlPic=

> <r_lp_tautomer_probability>
1

> <r_epik_Ionization_Penalty>
6.06012e-05

> <r_epik_Ionization_Penalty_Charging>
0

> <r_epik_Ionization_Penalty_Neutral>
6.06012e-05

> <r_epik_State_Penalty>
-0

> <r_epik_Charging_Adjusted_Penalty>
0

> <i_epik_Tot_Q>
0

> <i_epik_Tot_abs_Q>
0

> <r_epik_Metal_State_Penalty>
-0

> <b_epik_Metal_Only>
0

> <s_lp_Force_Field>
OPLS_2005

> <r_lp_Energy>
13.1013

> <b_lp_Chiralities_Consistent>
1

> <s_lp_Variant>
AV-unprocessed.smi:2478-4

> <Gold.Version>
5.8.1

> <Gold.Id.Protein>
6NUR|6NUR_protein|mol2

> <Gold.PLP.Fitness>
43.9376

> <Gold.PLP.PLP>
-38.6183

> <Gold.PLP.part.hbond>
-1.0000

> <Gold.PLP.part.metal>
0.0000

> <Gold.PLP.part.buried>
-6.9321

> <Gold.PLP.part.nonpolar>
-31.3729

> <Gold.PLP.part.repulsive>
0.3493

> <Gold.PLP.ligand.clash>
0.0000

> <Gold.PLP.ligand.torsion>
0.3080

> <Gold.PLP.Chemscore.Hbond>
1.0000

> <Gold.PLP.Chemscore.CHOScore>
0.9527

> <Gold.PLP.Chemscore.Metal>
0.0000

> <Gold.Chemscore.Hbonds>
donor molecule, donor type, donor heavy atom, donor atom, acceptor molecule, acceptor atom, score
      P1  H  7989  7998       L1    11  1.00
      L1  C    15    39       P1  7948  0.98

> <Gold.PLP.Chemscore.Internal.Correction>
0.0772

> <Gold.Rescore>
     Score         DG    S(hbond)    S(metal)    S(lipo)     H(rot)  DE(clash)    DE(int)     intcor
     13.88     -15.22       0.98        0.00      95.86       1.85       0.01       1.33       ----

> <Gold.Chemscore.Fitness>
13.8809

> <Gold.Chemscore.DG>
-15.2212

> <Gold.Chemscore.ZeroCoef>
-5.4800

> <Gold.Chemscore.Hbond>
0.9750

> <Gold.Chemscore.Metal>
0.0000

> <Gold.Chemscore.Lipo>
95.8621

> <Gold.Chemscore.Internal_Hbond>
0.0000

> <Gold.Chemscore.DEClash>
0.0112

> <Gold.Chemscore.DEInternal>
1.3291

> <Gold.Chemscore.Rot>
1.8481

> <Gold.Chemscore.Internal.Correction>
   9.000000E+99

> <Gold.Chemscore.Hbonds>
donor molecule, donor type, donor heavy atom, donor atom, acceptor molecule, acceptor atom, score
      P1  H  7989  7998       L1    11  0.94

> <Gold.Chemscore.Hbond.Weighted>
-3.2565

> <Gold.Chemscore.Metal.Weighted>
-0.0000

> <Gold.Chemscore.Lipo.Weighted>
-11.2159

> <Gold.Chemscore.Internal_Hbond.Weighted>
0.0000

> <Gold.Chemscore.DEClash.Weighted>
0.0112

> <Gold.Chemscore.DEInternal.Weighted>
1.3291

> <Gold.Chemscore.Rot.Weighted>
4.7311

> <Gold.Chemscore.Internal.Correction.Weighted>
   9.000000E+99

> <Gold.Protein.RotatedTorsions>
[ 6907 6896 6895 6894 ] final  -24.36 input  -60.11 | X-H torsion
[ 7974 7965 7964 7962 ] final   84.86 input  175.53 | X-H torsion
[ 8008 7997 7996 7995 ] final -163.25 input   59.86 | X-H torsion
[ 10167 10162 10161 10158 ] final  126.23 input  -65.29 | X-H torsion
[ 10718 10713 10712 10709 ] final  -29.92 input   66.30 | X-H torsion
[ 10763 10752 10751 10750 ] final   15.21 input  -60.55 | X-H torsion
[ 11005 11000 10999 10996 ] final -101.81 input  -57.11 | X-H torsion

> <Gold.Protein.ActiveResidues>
 VAL166  LYS551  ARG553  GLY616  TRP617  ASP618  TYR619  PRO620  LYS621  CYS622 
 ASP623  PHE694  ASN695  SER759  ASP760  ASP761  ALA762  ILE779  LEU786  VAL792 
 PHE793  MET794  SER795  GLU796  ALA797  LYS798  CYS799  TRP800  GLU811  SER814 

> <Gold.Protein.RotatedAtoms>
  151.1907  135.0401  159.8830 H   0  0  0  0  0  0  0  0  0  0  0  0  # atno 6907 bound_to 6896
  152.5439  134.0959  159.8307 H   0  0  0  0  0  0  0  0  0  0  0  0  # atno 6908 bound_to 6896
  151.1088  133.5141  159.2639 H   0  0  0  0  0  0  0  0  0  0  0  0  # atno 6909 bound_to 6896
  145.5931  139.2341  143.2288 H   0  0  0  0  0  0  0  0  0  0  0  0  # atno 7974 bound_to 7965
  155.8186  140.0916  157.1862 H   0  0  0  0  0  0  0  0  0  0  0  0  # atno 8008 bound_to 7997
  154.3979  140.1441  156.3532 H   0  0  0  0  0  0  0  0  0  0  0  0  # atno 8009 bound_to 7997
  155.8290  140.3443  155.5563 H   0  0  0  0  0  0  0  0  0  0  0  0  # atno 8010 bound_to 7997
  139.5642  144.6901  151.3957 H   0  0  0  0  0  0  0  0  0  0  0  0  # atno 10167 bound_to 10162
  156.4064  130.4400  149.7285 H   0  0  0  0  0  0  0  0  0  0  0  0  # atno 10718 bound_to 10713
  153.1547  135.6785  153.8829 H   0  0  0  0  0  0  0  0  0  0  0  0  # atno 10763 bound_to 10752
  153.8244  135.3126  155.3414 H   0  0  0  0  0  0  0  0  0  0  0  0  # atno 10764 bound_to 10752
  154.7889  135.4846  154.0095 H   0  0  0  0  0  0  0  0  0  0  0  0  # atno 10765 bound_to 10752
  141.1215  133.8508  157.1280 H   0  0  0  0  0  0  0  0  0  0  0  0  # atno 11005 bound_to 11000
  146.1632  140.6757  142.9268 LP  0  0  0  0  0  0  0  0  0  0  0  0  # atno 17320 bound_to 7965
  144.7342  140.4761  143.6915 LP  0  0  0  0  0  0  0  0  0  0  0  0  # atno 17321 bound_to 7965
  140.6924  143.7829  150.7276 LP  0  0  0  0  0  0  0  0  0  0  0  0  # atno 17342 bound_to 10162
  140.1315  143.4521  152.2251 LP  0  0  0  0  0  0  0  0  0  0  0  0  # atno 17343 bound_to 10162
  156.4281  130.7801  151.2820 LP  0  0  0  0  0  0  0  0  0  0  0  0  # atno 17370 bound_to 10713
  157.7505  131.0162  150.3537 LP  0  0  0  0  0  0  0  0  0  0  0  0  # atno 17371 bound_to 10713
  140.0177  134.9960  157.0527 LP  0  0  0  0  0  0  0  0  0  0  0  0  # atno 17394 bound_to 11000
  140.4492  134.1600  155.7180 LP  0  0  0  0  0  0  0  0  0  0  0  0  # atno 17395 bound_to 11000

$$$$
