AV-unprocessed.smi:3116|AV-procd|sdf|11872|dock7
  -GOLD-   2272017253D 1   1.00000     0.00000
 Structure written by MMmdl.
 33 33  0  0  0  0  0  0  0  0  1 V2000
  149.2610  133.1223  154.0760 C   0  0  0  0  0  0  0  0  0  0  0  0
  148.0934  134.0782  154.3647 C   0  0  2  0  0  0  0  0  0  0  0  0
  147.4855  134.5134  153.0958 N   0  0  0  0  0  0  0  0  0  0  0  0
  146.0748  134.8965  153.1725 C   0  0  1  0  0  0  0  0  0  0  0  0
  145.9689  136.1669  154.0350 C   0  0  0  0  0  0  0  0  0  0  0  0
  145.4855  135.0805  151.7484 C   0  0  2  0  0  0  0  0  0  0  0  0
  144.2255  135.9649  151.7236 C   0  0  0  0  0  0  0  0  0  0  0  0
  145.2672  133.8192  151.0447 N   0  0  0  0  0  0  0  0  0  0  0  0
  144.1065  133.3270  150.4801 C   0  0  0  0  0  0  0  0  0  0  0  0
  144.3927  132.0996  149.9557 C   0  0  0  0  0  0  0  0  0  0  0  0
  145.7710  131.9185  150.2554 C   0  0  0  0  0  0  0  0  0  0  0  0
  146.2898  132.9452  150.9085 N   0  0  0  0  0  0  0  0  0  0  0  0
  148.5639  135.2509  155.2402 C   0  0  0  0  0  0  0  0  0  0  0  0
  149.3024  136.1948  154.6514 N   0  0  0  0  0  0  0  0  0  0  0  0
  148.2774  135.2948  156.4353 O   0  0  0  0  0  0  0  0  0  0  0  0
  149.7187  132.7646  154.9992 H   0  0  0  0  0  0  0  0  0  0  0  0
  150.0396  133.6045  153.4832 H   0  0  0  0  0  0  0  0  0  0  0  0
  148.9198  132.2473  153.5216 H   0  0  0  0  0  0  0  0  0  0  0  0
  147.3406  133.5138  154.9183 H   0  0  0  0  0  0  0  0  0  0  0  0
  148.0212  135.2475  152.6547 H   0  0  0  0  0  0  0  0  0  0  0  0
  145.4916  134.1128  153.6579 H   0  0  0  0  0  0  0  0  0  0  0  0
  144.9365  136.5123  154.0925 H   0  0  0  0  0  0  0  0  0  0  0  0
  146.5690  136.9837  153.6323 H   0  0  0  0  0  0  0  0  0  0  0  0
  146.3068  135.9838  155.0552 H   0  0  0  0  0  0  0  0  0  0  0  0
  146.2371  135.6292  151.1776 H   0  0  0  0  0  0  0  0  0  0  0  0
  144.4228  136.9381  152.1736 H   0  0  0  0  0  0  0  0  0  0  0  0
  143.3981  135.5115  152.2696 H   0  0  0  0  0  0  0  0  0  0  0  0
  143.8909  136.1380  150.7002 H   0  0  0  0  0  0  0  0  0  0  0  0
  143.1815  133.8842  150.4995 H   0  0  0  0  0  0  0  0  0  0  0  0
  143.7196  131.4317  149.4391 H   0  0  0  0  0  0  0  0  0  0  0  0
  146.4054  131.0765  150.0214 H   0  0  0  0  0  0  0  0  0  0  0  0
  149.6345  136.9835  155.1872 H   0  0  0  0  0  0  0  0  0  0  0  0
  149.5265  136.1147  153.6701 H   0  0  0  0  0  0  0  0  0  0  0  0
  1  2  1  0  0  0  0
  1 16  1  0  0  0  0
  1 17  1  0  0  0  0
  1 18  1  0  0  0  0
  2  3  1  0  0  0  0
  2 13  1  0  0  0  0
  2 19  1  0  0  0  0
  3  4  1  0  0  0  0
  3 20  1  0  0  0  0
  4  5  1  0  0  0  0
  4  6  1  0  0  0  0
  4 21  1  0  0  0  0
  5 22  1  0  0  0  0
  5 23  1  0  0  0  0
  5 24  1  0  0  0  0
  6  7  1  0  0  0  0
  6  8  1  0  0  0  0
  6 25  1  0  0  0  0
  7 26  1  0  0  0  0
  7 27  1  0  0  0  0
  7 28  1  0  0  0  0
  8 12  1  0  0  0  0
  8  9  1  0  0  0  0
  9 10  2  0  0  0  0
  9 29  1  0  0  0  0
 10 11  1  0  0  0  0
 10 30  1  0  0  0  0
 11 12  2  0  0  0  0
 11 31  1  0  0  0  0
 13 14  1  0  0  0  0
 13 15  2  0  0  0  0
 14 32  1  0  0  0  0
 14 33  1  0  0  0  0
M  END
> <s_m_source_file>
AV-unprocessed.smi

> <i_m_source_file_index>
3116

> <i_lp_mmshare_version>
43012

> <i_f3d_flags>
0

> <s_epik_input>
W05IMl1DKD1PKVtDQEhdKFtDSDNdKVtOSF1bQ0BIXShbQ0gzXSlbQ0BIXShbQ0gzXSluMVtjSF1bY0hdW2NIXW4x

> <s_epik_cmdline>
J2VwaWtfcHl0aG9uJywgJy1waCcsICc3LjAnLCAnLXRuJywgJzgnLCAnLW1hJywgJzIwMCcsICctbWV0YWxfYmluZGluZycsICctaW1hZScsICc8aW5maWxlLm1hZT4nLCAnLW9tYWUnLCAnPG91dGZpbGUubWFlPic=

> <r_lp_tautomer_probability>
1

> <r_epik_Ionization_Penalty>
0.865977

> <r_epik_Ionization_Penalty_Charging>
0

> <r_epik_Ionization_Penalty_Neutral>
0.865977

> <r_epik_State_Penalty>
0.901888

> <r_epik_Charging_Adjusted_Penalty>
0.901888

> <i_epik_Tot_Q>
0

> <i_epik_Tot_abs_Q>
0

> <r_epik_Metal_State_Penalty>
0.901181

> <b_epik_Metal_Only>
0

> <s_lp_Force_Field>
OPLS_2005

> <r_lp_Energy>
10.1697

> <b_lp_Chiralities_Consistent>
1

> <s_lp_Variant>
AV-unprocessed.smi:3116-11

> <Gold.Version>
5.8.1

> <Gold.Id.Protein>
6NUR|6NUR_protein|mol2

> <Gold.PLP.Fitness>
34.8124

> <Gold.PLP.PLP>
-24.5786

> <Gold.PLP.part.hbond>
-2.0000

> <Gold.PLP.part.metal>
0.0000

> <Gold.PLP.part.buried>
-4.4901

> <Gold.PLP.part.nonpolar>
-19.0685

> <Gold.PLP.part.repulsive>
0.2162

> <Gold.PLP.ligand.clash>
0.0000

> <Gold.PLP.ligand.torsion>
0.9828

> <Gold.PLP.Chemscore.Hbond>
2.0000

> <Gold.PLP.Chemscore.CHOScore>
2.0000

> <Gold.PLP.Chemscore.Metal>
0.0000

> <Gold.Chemscore.Hbonds>
donor molecule, donor type, donor heavy atom, donor atom, acceptor molecule, acceptor atom, score
      L1  H     3    20       P1  7948  1.00
      L1  H    14    33       P1  7948  1.00
      L1  C     9    29       P1 10186  1.00
      L1  C    11    31       P1 10747  0.87

> <Gold.PLP.Chemscore.Internal.Correction>
0.1993

> <Gold.Rescore>
     Score         DG    S(hbond)    S(metal)    S(lipo)     H(rot)  DE(clash)    DE(int)     intcor
     10.71     -12.67       1.98        0.00      57.21       2.38       0.17       1.79       ----

> <Gold.Chemscore.Fitness>
10.7123

> <Gold.Chemscore.DG>
-12.6718

> <Gold.Chemscore.ZeroCoef>
-5.4800

> <Gold.Chemscore.Hbond>
1.9761

> <Gold.Chemscore.Metal>
0.0000

> <Gold.Chemscore.Lipo>
57.2116

> <Gold.Chemscore.Internal_Hbond>
0.0000

> <Gold.Chemscore.DEClash>
0.1725

> <Gold.Chemscore.DEInternal>
1.7870

> <Gold.Chemscore.Rot>
2.3836

> <Gold.Chemscore.Internal.Correction>
   9.000000E+99

> <Gold.Chemscore.Hbonds>
donor molecule, donor type, donor heavy atom, donor atom, acceptor molecule, acceptor atom, score
      L1  H     3    20       P1  7948  0.93
      L1  H    14    33       P1  7948  0.47

> <Gold.Chemscore.Hbond.Weighted>
-6.6001

> <Gold.Chemscore.Metal.Weighted>
-0.0000

> <Gold.Chemscore.Lipo.Weighted>
-6.6938

> <Gold.Chemscore.Internal_Hbond.Weighted>
0.0000

> <Gold.Chemscore.DEClash.Weighted>
0.1725

> <Gold.Chemscore.DEInternal.Weighted>
1.7870

> <Gold.Chemscore.Rot.Weighted>
6.1020

> <Gold.Chemscore.Internal.Correction.Weighted>
   9.000000E+99

> <Gold.Protein.RotatedTorsions>
[ 6907 6896 6895 6894 ] final  -98.73 input  -60.11 | X-H torsion
[ 7974 7965 7964 7962 ] final   58.17 input  175.53 | X-H torsion
[ 8008 7997 7996 7995 ] final   42.33 input   59.86 | X-H torsion
[ 10167 10162 10161 10158 ] final -138.15 input  -65.29 | X-H torsion
[ 10718 10713 10712 10709 ] final  125.44 input   66.30 | X-H torsion
[ 10763 10752 10751 10750 ] final  -25.12 input  -60.55 | X-H torsion
[ 11005 11000 10999 10996 ] final  -67.97 input  -57.11 | X-H torsion

> <Gold.Protein.ActiveResidues>
 VAL166  LYS551  ARG553  GLY616  TRP617  ASP618  TYR619  PRO620  LYS621  CYS622 
 ASP623  PHE694  ASN695  SER759  ASP760  ASP761  ALA762  ILE779  LEU786  VAL792 
 PHE793  MET794  SER795  GLU796  ALA797  LYS798  CYS799  TRP800  GLU811  SER814 

> <Gold.Protein.RotatedAtoms>
  150.7056  134.1149  159.4013 H   0  0  0  0  0  0  0  0  0  0  0  0  # atno 6907 bound_to 6896
  151.9135  135.0326  160.0525 H   0  0  0  0  0  0  0  0  0  0  0  0  # atno 6908 bound_to 6896
  152.2315  133.5027  159.5255 H   0  0  0  0  0  0  0  0  0  0  0  0  # atno 6909 bound_to 6896
  145.9211  139.3730  143.0477 H   0  0  0  0  0  0  0  0  0  0  0  0  # atno 7974 bound_to 7965
  155.2845  140.3374  155.4256 H   0  0  0  0  0  0  0  0  0  0  0  0  # atno 8008 bound_to 7997
  156.2075  140.1756  156.7809 H   0  0  0  0  0  0  0  0  0  0  0  0  # atno 8009 bound_to 7997
  154.5640  140.0682  156.8847 H   0  0  0  0  0  0  0  0  0  0  0  0  # atno 8010 bound_to 7997
  139.8507  143.7202  152.2658 H   0  0  0  0  0  0  0  0  0  0  0  0  # atno 10167 bound_to 10162
  157.5503  131.1094  150.8714 H   0  0  0  0  0  0  0  0  0  0  0  0  # atno 10718 bound_to 10713
  153.6947  135.6960  153.5080 H   0  0  0  0  0  0  0  0  0  0  0  0  # atno 10763 bound_to 10752
  153.2387  135.4313  155.0674 H   0  0  0  0  0  0  0  0  0  0  0  0  # atno 10764 bound_to 10752
  154.8362  135.3502  154.6487 H   0  0  0  0  0  0  0  0  0  0  0  0  # atno 10765 bound_to 10752
  141.1521  133.6730  156.6374 H   0  0  0  0  0  0  0  0  0  0  0  0  # atno 11005 bound_to 11000
  145.8548  140.9508  143.0730 LP  0  0  0  0  0  0  0  0  0  0  0  0  # atno 17320 bound_to 7965
  144.6753  140.0454  143.7480 LP  0  0  0  0  0  0  0  0  0  0  0  0  # atno 17321 bound_to 7965
  139.7468  144.7545  151.0567 LP  0  0  0  0  0  0  0  0  0  0  0  0  # atno 17342 bound_to 10162
  140.7788  143.4906  150.9898 LP  0  0  0  0  0  0  0  0  0  0  0  0  # atno 17343 bound_to 10162
  156.9241  130.5325  149.5279 LP  0  0  0  0  0  0  0  0  0  0  0  0  # atno 17370 bound_to 10713
  156.0570  130.5630  150.9114 LP  0  0  0  0  0  0  0  0  0  0  0  0  # atno 17371 bound_to 10713
  140.3420  134.7841  157.4404 LP  0  0  0  0  0  0  0  0  0  0  0  0  # atno 17394 bound_to 11000
  140.0930  134.5575  155.8425 LP  0  0  0  0  0  0  0  0  0  0  0  0  # atno 17395 bound_to 11000

$$$$
