AV-unprocessed.smi:614|AV-procd|sdf|3068|dock4
  -GOLD-   2262023593D 1   1.00000     0.00000
 Structure written by MMmdl.
 44 45  0  0  0  0  0  0  0  0  1 V2000
  150.9248  145.4797  160.4440 C   0  0  0  0  0  0  0  0  0  0  0  0
  151.5509  144.2395  160.0389 N   0  0  0  0  0  0  0  0  0  0  0  0
  151.8497  143.8017  158.7643 C   0  0  0  0  0  0  0  0  0  0  0  0
  152.4394  142.5747  158.8808 C   0  0  0  0  0  0  0  0  0  0  0  0
  152.4548  142.3509  160.2854 C   0  0  0  0  0  0  0  0  0  0  0  0
  153.0068  141.1598  160.8226 N   0  0  0  0  0  0  0  0  0  0  0  0
  153.4469  140.0832  160.1490 C   0  0  0  0  0  0  0  0  0  0  0  0
  153.4752  139.9822  158.9224 O   0  0  0  0  0  0  0  0  0  0  0  0
  153.8571  139.1231  160.9950 N   0  0  0  0  0  0  0  0  0  0  0  0
  154.3937  137.7876  160.6892 C   0  0  1  0  0  0  0  0  0  0  0  0
  153.4042  137.0196  159.7754 C   0  0  0  0  0  0  0  0  0  0  0  0
  155.7474  137.9393  159.9349 C   0  0  0  0  0  0  0  0  0  0  0  0
  155.5963  138.5827  158.6853 O   0  0  0  0  0  0  0  0  0  0  0  0
  154.5706  137.0310  162.0537 C   0  0  0  0  0  0  0  0  0  0  0  0
  155.0655  135.5674  161.8913 C   0  0  0  0  0  0  0  0  0  0  0  0
  155.2844  134.8725  163.2446 C   0  0  0  0  0  0  0  0  0  0  0  0
  154.0093  134.8970  164.0959 C   0  0  0  0  0  0  0  0  0  0  0  0
  153.5135  136.3356  164.2861 C   0  0  0  0  0  0  0  0  0  0  0  0
  153.2923  137.0348  162.9351 C   0  0  0  0  0  0  0  0  0  0  0  0
  151.9229  143.3471  160.9804 N   0  0  0  0  0  0  0  0  0  0  0  0
  150.5393  146.0073  159.5711 H   0  0  0  0  0  0  0  0  0  0  0  0
  151.6560  146.1123  160.9478 H   0  0  0  0  0  0  0  0  0  0  0  0
  150.0989  145.2736  161.1257 H   0  0  0  0  0  0  0  0  0  0  0  0
  151.6215  144.3935  157.8900 H   0  0  0  0  0  0  0  0  0  0  0  0
  152.8030  141.9408  158.0856 H   0  0  0  0  0  0  0  0  0  0  0  0
  153.0550  141.1153  161.8296 H   0  0  0  0  0  0  0  0  0  0  0  0
  153.7835  139.3341  161.9791 H   0  0  0  0  0  0  0  0  0  0  0  0
  153.6690  135.9642  159.7057 H   0  0  0  0  0  0  0  0  0  0  0  0
  153.4003  137.4116  158.7583 H   0  0  0  0  0  0  0  0  0  0  0  0
  152.3780  137.0802  160.1368 H   0  0  0  0  0  0  0  0  0  0  0  0
  156.4592  138.5237  160.5178 H   0  0  0  0  0  0  0  0  0  0  0  0
  156.2215  136.9716  159.7714 H   0  0  0  0  0  0  0  0  0  0  0  0
  155.1299  138.0018  158.1039 H   0  0  0  0  0  0  0  0  0  0  0  0
  155.3442  137.5534  162.6185 H   0  0  0  0  0  0  0  0  0  0  0  0
  154.3501  134.9878  161.3069 H   0  0  0  0  0  0  0  0  0  0  0  0
  156.0066  135.5349  161.3444 H   0  0  0  0  0  0  0  0  0  0  0  0
  155.6030  133.8420  163.0853 H   0  0  0  0  0  0  0  0  0  0  0  0
  156.0945  135.3666  163.7824 H   0  0  0  0  0  0  0  0  0  0  0  0
  153.2333  134.3012  163.6138 H   0  0  0  0  0  0  0  0  0  0  0  0
  154.1984  134.4355  165.0655 H   0  0  0  0  0  0  0  0  0  0  0  0
  152.5862  136.3347  164.8598 H   0  0  0  0  0  0  0  0  0  0  0  0
  154.2396  136.8986  164.8739 H   0  0  0  0  0  0  0  0  0  0  0  0
  152.9650  138.0536  163.1378 H   0  0  0  0  0  0  0  0  0  0  0  0
  152.4707  136.5458  162.4108 H   0  0  0  0  0  0  0  0  0  0  0  0
  1  2  1  0  0  0  0
  1 21  1  0  0  0  0
  1 22  1  0  0  0  0
  1 23  1  0  0  0  0
  2 20  1  0  0  0  0
  2  3  1  0  0  0  0
  3  4  2  0  0  0  0
  3 24  1  0  0  0  0
  4  5  1  0  0  0  0
  4 25  1  0  0  0  0
  5  6  1  0  0  0  0
  5 20  2  0  0  0  0
  6  7  1  0  0  0  0
  6 26  1  0  0  0  0
  7  8  2  0  0  0  0
  7  9  1  0  0  0  0
  9 10  1  0  0  0  0
  9 27  1  0  0  0  0
 10 11  1  0  0  0  0
 10 12  1  0  0  0  0
 10 14  1  0  0  0  0
 11 28  1  0  0  0  0
 11 29  1  0  0  0  0
 11 30  1  0  0  0  0
 12 13  1  0  0  0  0
 12 31  1  0  0  0  0
 12 32  1  0  0  0  0
 13 33  1  0  0  0  0
 14 19  1  0  0  0  0
 14 15  1  0  0  0  0
 14 34  1  0  0  0  0
 15 16  1  0  0  0  0
 15 35  1  0  0  0  0
 15 36  1  0  0  0  0
 16 17  1  0  0  0  0
 16 37  1  0  0  0  0
 16 38  1  0  0  0  0
 17 18  1  0  0  0  0
 17 39  1  0  0  0  0
 17 40  1  0  0  0  0
 18 19  1  0  0  0  0
 18 41  1  0  0  0  0
 18 42  1  0  0  0  0
 19 43  1  0  0  0  0
 19 44  1  0  0  0  0
M  END
> <s_m_source_file>
AV-unprocessed.smi

> <i_m_source_file_index>
614

> <i_lp_mmshare_version>
43012

> <i_f3d_flags>
0

> <s_epik_input>
W0NIM11uMVtjSF1bY0hdYyhuMSlbTkhdQyg9TylbTkhdW0NAQF0oW0NIM10pKFtDSDJdW09IXSlbQ0hdMltDSDJdW0NIMl1bQ0gyXVtDSDJdW0NIMl0y

> <s_epik_cmdline>
J2VwaWtfcHl0aG9uJywgJy1waCcsICc3LjAnLCAnLXRuJywgJzgnLCAnLW1hJywgJzIwMCcsICctbWV0YWxfYmluZGluZycsICctaW1hZScsICc8aW5maWxlLm1hZT4nLCAnLW9tYWUnLCAnPG91dGZpbGUubWFlPic=

> <r_lp_tautomer_probability>
1

> <r_epik_Ionization_Penalty>
3.66621e-05

> <r_epik_Ionization_Penalty_Charging>
0

> <r_epik_Ionization_Penalty_Neutral>
3.66621e-05

> <r_epik_State_Penalty>
-0

> <r_epik_Charging_Adjusted_Penalty>
0

> <i_epik_Tot_Q>
0

> <i_epik_Tot_abs_Q>
0

> <r_epik_Metal_State_Penalty>
-0

> <b_epik_Metal_Only>
0

> <s_lp_Force_Field>
OPLS_2005

> <r_lp_Energy>
18.5246

> <b_lp_Chiralities_Consistent>
1

> <s_lp_Variant>
AV-unprocessed.smi:614-1

> <Gold.Version>
5.8.1

> <Gold.Id.Protein>
6NUR|6NUR_protein|mol2

> <Gold.PLP.Fitness>
44.5776

> <Gold.PLP.PLP>
-41.7958

> <Gold.PLP.part.hbond>
-2.0000

> <Gold.PLP.part.metal>
0.0000

> <Gold.PLP.part.buried>
-4.2680

> <Gold.PLP.part.nonpolar>
-35.6389

> <Gold.PLP.part.repulsive>
0.1577

> <Gold.PLP.ligand.clash>
0.0000

> <Gold.PLP.ligand.torsion>
0.1146

> <Gold.PLP.Chemscore.Hbond>
0.9920

> <Gold.PLP.Chemscore.CHOScore>
0.0000

> <Gold.PLP.Chemscore.Metal>
0.0000

> <Gold.Chemscore.Hbonds>
donor molecule, donor type, donor heavy atom, donor atom, acceptor molecule, acceptor atom, score
      P1  H  7997  8010       L1     8  0.65

> <Gold.PLP.Chemscore.Internal.Correction>
0.0350

> <Gold.Rescore>
     Score         DG    S(hbond)    S(metal)    S(lipo)     H(rot)  DE(clash)    DE(int)     intcor
     11.72     -14.47       0.93        0.00      95.58       2.07       0.05       2.70       ----

> <Gold.Chemscore.Fitness>
11.7195

> <Gold.Chemscore.DG>
-14.4724

> <Gold.Chemscore.ZeroCoef>
-5.4800

> <Gold.Chemscore.Hbond>
0.9314

> <Gold.Chemscore.Metal>
0.0000

> <Gold.Chemscore.Lipo>
95.5830

> <Gold.Chemscore.Internal_Hbond>
0.0000

> <Gold.Chemscore.DEClash>
0.0516

> <Gold.Chemscore.DEInternal>
2.7014

> <Gold.Chemscore.Rot>
2.0710

> <Gold.Chemscore.Internal.Correction>
   9.000000E+99

> <Gold.Chemscore.Hbonds>
donor molecule, donor type, donor heavy atom, donor atom, acceptor molecule, acceptor atom, score
      P1  H  7997  8010       L1     8  0.62

> <Gold.Chemscore.Hbond.Weighted>
-3.1109

> <Gold.Chemscore.Metal.Weighted>
-0.0000

> <Gold.Chemscore.Lipo.Weighted>
-11.1832

> <Gold.Chemscore.Internal_Hbond.Weighted>
0.0000

> <Gold.Chemscore.DEClash.Weighted>
0.0516

> <Gold.Chemscore.DEInternal.Weighted>
2.7014

> <Gold.Chemscore.Rot.Weighted>
5.3017

> <Gold.Chemscore.Internal.Correction.Weighted>
   9.000000E+99

> <Gold.Protein.RotatedTorsions>
[ 6907 6896 6895 6894 ] final -170.99 input  -60.11 | X-H torsion
[ 7974 7965 7964 7962 ] final  172.57 input  175.53 | X-H torsion
[ 8008 7997 7996 7995 ] final   17.85 input   59.86 | X-H torsion
[ 10167 10162 10161 10158 ] final  166.74 input  -65.29 | X-H torsion
[ 10718 10713 10712 10709 ] final -113.15 input   66.30 | X-H torsion
[ 10763 10752 10751 10750 ] final  -30.66 input  -60.55 | X-H torsion
[ 11005 11000 10999 10996 ] final  136.93 input  -57.11 | X-H torsion

> <Gold.Protein.ActiveResidues>
 VAL166  LYS551  ARG553  GLY616  TRP617  ASP618  TYR619  PRO620  LYS621  CYS622 
 ASP623  PHE694  ASN695  SER759  ASP760  ASP761  ALA762  ILE779  LEU786  VAL792 
 PHE793  MET794  SER795  GLU796  ALA797  LYS798  CYS799  TRP800  GLU811  SER814 

> <Gold.Protein.RotatedAtoms>
  151.5167  133.3474  159.2893 H   0  0  0  0  0  0  0  0  0  0  0  0  # atno 6907 bound_to 6896
  150.8678  134.8048  159.7143 H   0  0  0  0  0  0  0  0  0  0  0  0  # atno 6908 bound_to 6896
  152.4677  134.5046  159.9787 H   0  0  0  0  0  0  0  0  0  0  0  0  # atno 6909 bound_to 6896
  144.7265  139.9518  143.6432 H   0  0  0  0  0  0  0  0  0  0  0  0  # atno 7974 bound_to 7965
  154.8974  140.2995  155.5337 H   0  0  0  0  0  0  0  0  0  0  0  0  # atno 8008 bound_to 7997
  156.3019  140.2413  156.3932 H   0  0  0  0  0  0  0  0  0  0  0  0  # atno 8009 bound_to 7997
  154.8556  140.0407  157.1621 H   0  0  0  0  0  0  0  0  0  0  0  0  # atno 8010 bound_to 7997
  139.4931  144.3995  151.9426 H   0  0  0  0  0  0  0  0  0  0  0  0  # atno 10167 bound_to 10162
  156.0749  130.5958  150.8604 H   0  0  0  0  0  0  0  0  0  0  0  0  # atno 10718 bound_to 10713
  153.7846  135.6902  153.4882 H   0  0  0  0  0  0  0  0  0  0  0  0  # atno 10763 bound_to 10752
  153.1789  135.4514  155.0000 H   0  0  0  0  0  0  0  0  0  0  0  0  # atno 10764 bound_to 10752
  154.8068  135.3360  154.7347 H   0  0  0  0  0  0  0  0  0  0  0  0  # atno 10765 bound_to 10752
  140.0080  134.9451  157.0216 H   0  0  0  0  0  0  0  0  0  0  0  0  # atno 11005 bound_to 11000
  146.0705  139.3694  143.0526 LP  0  0  0  0  0  0  0  0  0  0  0  0  # atno 17320 bound_to 7965
  145.7974  140.9787  143.1017 LP  0  0  0  0  0  0  0  0  0  0  0  0  # atno 17321 bound_to 7965
  140.3434  144.3176  150.5963 LP  0  0  0  0  0  0  0  0  0  0  0  0  # atno 17342 bound_to 10162
  140.5546  143.2201  151.7868 LP  0  0  0  0  0  0  0  0  0  0  0  0  # atno 17343 bound_to 10162
  157.5839  131.0946  150.9227 LP  0  0  0  0  0  0  0  0  0  0  0  0  # atno 17370 bound_to 10713
  156.9417  130.5387  149.5280 LP  0  0  0  0  0  0  0  0  0  0  0  0  # atno 17371 bound_to 10713
  140.4606  134.1487  155.7191 LP  0  0  0  0  0  0  0  0  0  0  0  0  # atno 17394 bound_to 11000
  141.1690  133.8645  157.1627 LP  0  0  0  0  0  0  0  0  0  0  0  0  # atno 17395 bound_to 11000

$$$$
