AV-unprocessed.smi:2528|AV-procd|sdf|9948|dock8
  -GOLD-   2272013593D 1   1.00000     0.00000
 Structure written by MMmdl.
 44 46  0  0  0  0  0  0  0  0  2 V2000
  144.4391  136.3636  152.0258 O   0  0  0  0  0  0  0  0  0  0  0  0
  145.6537  136.2868  151.8401 C   0  0  0  0  0  0  0  0  0  0  0  0
  146.4963  137.3112  152.0369 N   0  0  0  0  0  0  0  0  0  0  0  0
  146.1084  138.6428  152.4958 C   0  0  0  0  0  0  0  0  0  0  0  0
  147.3044  139.4985  152.9628 C   0  0  2  0  0  0  0  0  0  0  0  0
  148.3791  138.7005  153.7299 C   0  0  0  0  0  0  0  0  0  0  0  0
  149.4788  139.5930  154.1629 N   0  3  2  0  0  0  0  0  0  0  0  0
  150.5553  138.8581  154.8741 C   0  0  0  0  0  0  0  0  0  0  0  0
  151.7221  139.7932  155.2287 C   0  0  0  0  0  0  0  0  0  0  0  0
  151.2308  140.9836  156.0617 C   0  0  0  0  0  0  0  0  0  0  0  0
  150.1019  141.7117  155.3200 C   0  0  0  0  0  0  0  0  0  0  0  0
  148.9586  140.7462  154.9474 C   0  0  1  0  0  0  0  0  0  0  0  0
  147.8582  141.4707  154.1474 C   0  0  0  0  0  0  0  0  0  0  0  0
  146.8312  140.5557  153.7896 O   0  0  0  0  0  0  0  0  0  0  0  0
  146.3089  135.1900  151.4209 N   0  0  0  0  0  0  0  0  0  0  0  0
  145.7743  133.9055  151.1347 C   0  0  0  0  0  0  0  0  0  0  0  0
  144.4010  133.8889  150.8011 C   0  0  0  0  0  0  0  0  0  0  0  0
  143.7764  132.6633  150.4987 C   0  0  0  0  0  0  0  0  0  0  0  0
  144.5423  131.4844  150.5370 C   0  0  0  0  0  0  0  0  0  0  0  0
  145.9037  131.5889  150.8764 C   0  0  0  0  0  0  0  0  0  0  0  0
  146.5044  132.7624  151.1661 N   0  0  0  0  0  0  0  0  0  0  0  0
  147.4775  137.1616  151.8523 H   0  0  0  0  0  0  0  0  0  0  0  0
  145.6143  139.1418  151.6617 H   0  0  0  0  0  0  0  0  0  0  0  0
  145.3618  138.5697  153.2885 H   0  0  0  0  0  0  0  0  0  0  0  0
  147.7573  139.9392  152.0727 H   0  0  0  0  0  0  0  0  0  0  0  0
  147.9478  138.2182  154.6085 H   0  0  0  0  0  0  0  0  0  0  0  0
  148.7791  137.9103  153.0933 H   0  0  0  0  0  0  0  0  0  0  0  0
  150.1513  138.4036  155.7802 H   0  0  0  0  0  0  0  0  0  0  0  0
  150.9180  138.0441  154.2453 H   0  0  0  0  0  0  0  0  0  0  0  0
  152.4876  139.2442  155.7777 H   0  0  0  0  0  0  0  0  0  0  0  0
  152.1950  140.1540  154.3143 H   0  0  0  0  0  0  0  0  0  0  0  0
  150.8716  140.6339  157.0305 H   0  0  0  0  0  0  0  0  0  0  0  0
  152.0543  141.6697  156.2620 H   0  0  0  0  0  0  0  0  0  0  0  0
  149.7189  142.5227  155.9406 H   0  0  0  0  0  0  0  0  0  0  0  0
  150.5028  142.1765  154.4182 H   0  0  0  0  0  0  0  0  0  0  0  0
  148.5158  140.3578  155.8667 H   0  0  0  0  0  0  0  0  0  0  0  0
  147.4185  142.2671  154.7481 H   0  0  0  0  0  0  0  0  0  0  0  0
  148.2673  141.9392  153.2506 H   0  0  0  0  0  0  0  0  0  0  0  0
  147.3056  135.2823  151.2937 H   0  0  0  0  0  0  0  0  0  0  0  0
  143.8261  134.8034  150.7773 H   0  0  0  0  0  0  0  0  0  0  0  0
  142.7277  132.6295  150.2427 H   0  0  0  0  0  0  0  0  0  0  0  0
  144.0987  130.5258  150.3118 H   0  0  0  0  0  0  0  0  0  0  0  0
  146.5272  130.7080  150.9166 H   0  0  0  0  0  0  0  0  0  0  0  0
  149.8915  139.9755  153.3241 H   0  0  0  0  0  0  0  0  0  0  0  0
  1  2  2  0  0  0  0
  2  3  1  0  0  0  0
  2 15  1  0  0  0  0
  3  4  1  0  0  0  0
  3 22  1  0  0  0  0
  4  5  1  0  0  0  0
  4 23  1  0  0  0  0
  4 24  1  0  0  0  0
  5 14  1  0  0  0  0
  5  6  1  0  0  0  0
  5 25  1  0  0  0  0
  6  7  1  0  0  0  0
  6 26  1  0  0  0  0
  6 27  1  0  0  0  0
  7 12  1  0  0  0  0
  7  8  1  0  0  0  0
  7 44  1  0  0  0  0
  8  9  1  0  0  0  0
  8 28  1  0  0  0  0
  8 29  1  0  0  0  0
  9 10  1  0  0  0  0
  9 30  1  0  0  0  0
  9 31  1  0  0  0  0
 10 11  1  0  0  0  0
 10 32  1  0  0  0  0
 10 33  1  0  0  0  0
 11 12  1  0  0  0  0
 11 34  1  0  0  0  0
 11 35  1  0  0  0  0
 12 13  1  0  0  0  0
 12 36  1  0  0  0  0
 13 14  1  0  0  0  0
 13 37  1  0  0  0  0
 13 38  1  0  0  0  0
 15 16  1  0  0  0  0
 15 39  1  0  0  0  0
 16 21  1  0  0  0  0
 16 17  2  0  0  0  0
 17 18  1  0  0  0  0
 17 40  1  0  0  0  0
 18 19  2  0  0  0  0
 18 41  1  0  0  0  0
 19 20  1  0  0  0  0
 19 42  1  0  0  0  0
 20 21  2  0  0  0  0
 20 43  1  0  0  0  0
M  CHG  1   7   1
M  END
> <s_m_source_file>
AV-unprocessed.smi

> <i_m_source_file_index>
2528

> <i_lp_mmshare_version>
43012

> <i_f3d_flags>
0

> <s_epik_input>
bjFbY0hdW2NIXVtjSF1bY0hdYzFbTkhdQyg9TylbTkhdW0NIMl1bQ0BIXShbQ0gyXTIpT1tDSDJdW0NAQEhdKE4yMylbQ0gyXVtDSDJdW0NIMl1bQ0gyXTM=

> <s_epik_cmdline>
J2VwaWtfcHl0aG9uJywgJy1waCcsICc3LjAnLCAnLXRuJywgJzgnLCAnLW1hJywgJzIwMCcsICctbWV0YWxfYmluZGluZycsICctaW1hZScsICc8aW5maWxlLm1hZT4nLCAnLW9tYWUnLCAnPG91dGZpbGUubWFlPic=

> <r_epik_Ionization_Penalty>
0.0932337

> <r_epik_Ionization_Penalty_Charging>
0.0931942

> <r_epik_Ionization_Penalty_Neutral>
3.9565e-05

> <r_epik_State_Penalty>
0.0834605

> <r_epik_Charging_Adjusted_Penalty>
0.176655

> <i_epik_Tot_Q>
1

> <i_epik_Tot_abs_Q>
1

> <r_epik_Metal_State_Penalty>
0.0834607

> <b_epik_Metal_Only>
0

> <s_lp_Force_Field>
OPLS_2005

> <r_lp_Energy>
24.6959

> <b_lp_Chiralities_Consistent>
1

> <s_lp_Variant>
AV-unprocessed.smi:2528-1

> <Gold.Version>
5.8.1

> <Gold.Id.Protein>
6NUR|6NUR_protein|mol2

> <Gold.PLP.Fitness>
46.3873

> <Gold.PLP.PLP>
-37.2951

> <Gold.PLP.part.hbond>
-2.9802

> <Gold.PLP.part.metal>
0.0000

> <Gold.PLP.part.buried>
1.8490

> <Gold.PLP.part.nonpolar>
-35.6309

> <Gold.PLP.part.repulsive>
0.7711

> <Gold.PLP.ligand.clash>
0.0000

> <Gold.PLP.ligand.torsion>
0.4054

> <Gold.PLP.Chemscore.Hbond>
2.4873

> <Gold.PLP.Chemscore.CHOScore>
0.8130

> <Gold.PLP.Chemscore.Metal>
0.0000

> <Gold.Chemscore.Hbonds>
donor molecule, donor type, donor heavy atom, donor atom, acceptor molecule, acceptor atom, score
      L1  H     3    22       P1  7948  1.00
      L1  H     7    44       P1  7957  0.53
      L1  H    15    39       P1  7948  0.96
      L1  C    20    43       P1 10747  0.81

> <Gold.PLP.Chemscore.Internal.Correction>
0.0020

> <Gold.Rescore>
     Score         DG    S(hbond)    S(metal)    S(lipo)     H(rot)  DE(clash)    DE(int)     intcor
     17.66     -20.28       2.01        0.00      97.18       1.29       0.76       1.87       ----

> <Gold.Chemscore.Fitness>
17.6567

> <Gold.Chemscore.DG>
-20.2847

> <Gold.Chemscore.ZeroCoef>
-5.4800

> <Gold.Chemscore.Hbond>
2.0148

> <Gold.Chemscore.Metal>
0.0000

> <Gold.Chemscore.Lipo>
97.1804

> <Gold.Chemscore.Internal_Hbond>
0.0000

> <Gold.Chemscore.DEClash>
0.7629

> <Gold.Chemscore.DEInternal>
1.8652

> <Gold.Chemscore.Rot>
1.2870

> <Gold.Chemscore.Internal.Correction>
   9.000000E+99

> <Gold.Chemscore.Hbonds>
donor molecule, donor type, donor heavy atom, donor atom, acceptor molecule, acceptor atom, score
      L1  H     3    22       P1  7948  0.98
      L1  H     7    44       P1  7957  0.52
      L1  H    15    39       P1  7948  0.72

> <Gold.Chemscore.Hbond.Weighted>
-6.7294

> <Gold.Chemscore.Metal.Weighted>
-0.0000

> <Gold.Chemscore.Lipo.Weighted>
-11.3701

> <Gold.Chemscore.Internal_Hbond.Weighted>
0.0000

> <Gold.Chemscore.DEClash.Weighted>
0.7629

> <Gold.Chemscore.DEInternal.Weighted>
1.8652

> <Gold.Chemscore.Rot.Weighted>
3.2948

> <Gold.Chemscore.Internal.Correction.Weighted>
   9.000000E+99

> <Gold.Protein.RotatedTorsions>
[ 6907 6896 6895 6894 ] final  -51.39 input  -60.11 | X-H torsion
[ 7974 7965 7964 7962 ] final  121.92 input  175.53 | X-H torsion
[ 8008 7997 7996 7995 ] final   52.09 input   59.86 | X-H torsion
[ 10167 10162 10161 10158 ] final -114.67 input  -65.29 | X-H torsion
[ 10718 10713 10712 10709 ] final  -99.83 input   66.30 | X-H torsion
[ 10763 10752 10751 10750 ] final  -37.26 input  -60.55 | X-H torsion
[ 11005 11000 10999 10996 ] final  111.62 input  -57.11 | X-H torsion

> <Gold.Protein.ActiveResidues>
 VAL166  LYS551  ARG553  GLY616  TRP617  ASP618  TYR619  PRO620  LYS621  CYS622 
 ASP623  PHE694  ASN695  SER759  ASP760  ASP761  ALA762  ILE779  LEU786  VAL792 
 PHE793  MET794  SER795  GLU796  ALA797  LYS798  CYS799  TRP800  GLU811  SER814 

> <Gold.Protein.RotatedAtoms>
  150.8616  134.7970  159.7086 H   0  0  0  0  0  0  0  0  0  0  0  0  # atno 6907 bound_to 6896
  152.4651  134.5090  159.9758 H   0  0  0  0  0  0  0  0  0  0  0  0  # atno 6908 bound_to 6896
  151.5193  133.3431  159.2934 H   0  0  0  0  0  0  0  0  0  0  0  0  # atno 6909 bound_to 6896
  145.1137  139.3435  143.4750 H   0  0  0  0  0  0  0  0  0  0  0  0  # atno 7974 bound_to 7965
  155.4461  140.3456  155.4295 H   0  0  0  0  0  0  0  0  0  0  0  0  # atno 8008 bound_to 7997
  156.1249  140.1497  156.9181 H   0  0  0  0  0  0  0  0  0  0  0  0  # atno 8009 bound_to 7997
  154.4850  140.0858  156.7446 H   0  0  0  0  0  0  0  0  0  0  0  0  # atno 8010 bound_to 7997
  140.0985  143.4635  152.1827 H   0  0  0  0  0  0  0  0  0  0  0  0  # atno 10167 bound_to 10162
  156.0145  130.5300  150.6728 H   0  0  0  0  0  0  0  0  0  0  0  0  # atno 10718 bound_to 10713
  153.8933  135.6810  153.4759 H   0  0  0  0  0  0  0  0  0  0  0  0  # atno 10763 bound_to 10752
  153.1169  135.4757  154.9128 H   0  0  0  0  0  0  0  0  0  0  0  0  # atno 10764 bound_to 10752
  154.7611  135.3211  154.8329 H   0  0  0  0  0  0  0  0  0  0  0  0  # atno 10765 bound_to 10752
  139.8908  134.9512  156.6460 H   0  0  0  0  0  0  0  0  0  0  0  0  # atno 11005 bound_to 11000
  146.3525  140.1066  142.8605 LP  0  0  0  0  0  0  0  0  0  0  0  0  # atno 17320 bound_to 7965
  145.0818  140.9226  143.4821 LP  0  0  0  0  0  0  0  0  0  0  0  0  # atno 17321 bound_to 7965
  139.5684  144.7449  151.3957 LP  0  0  0  0  0  0  0  0  0  0  0  0  # atno 17342 bound_to 10162
  140.6991  143.7677  150.7373 LP  0  0  0  0  0  0  0  0  0  0  0  0  # atno 17343 bound_to 10162
  157.4447  131.0865  151.0908 LP  0  0  0  0  0  0  0  0  0  0  0  0  # atno 17370 bound_to 10713
  157.1441  130.6156  149.5563 LP  0  0  0  0  0  0  0  0  0  0  0  0  # atno 17371 bound_to 10713
  140.7557  133.8860  155.8380 LP  0  0  0  0  0  0  0  0  0  0  0  0  # atno 17394 bound_to 11000
  140.9964  134.1210  157.4360 LP  0  0  0  0  0  0  0  0  0  0  0  0  # atno 17395 bound_to 11000

$$$$
