AV-unprocessed.smi:1958|AV-procd|sdf|7910|dock7
  -GOLD-   2272010 73D 1   1.00000     0.00000
 Structure written by MMmdl.
 47 48  0  0  0  0  0  0  0  0  3 V2000
  141.9515  131.5737  158.9277 C   0  0  0  0  0  0  0  0  0  0  0  0
  142.5785  132.7578  158.4674 O   0  0  0  0  0  0  0  0  0  0  0  0
  143.1330  133.5247  159.5230 C   0  0  0  0  0  0  0  0  0  0  0  0
  144.0529  132.6223  160.3587 C   0  0  0  0  0  0  0  0  0  0  0  0
  145.3200  133.2869  160.6797 N   0  0  0  0  0  0  0  0  0  0  0  0
  146.1308  133.5155  159.5814 N   0  0  0  0  0  0  0  0  0  0  0  0
  147.2893  134.0739  159.7279 C   0  0  0  0  0  0  0  0  0  0  0  0
  148.1964  134.2976  158.5593 C   0  0  0  0  0  0  0  0  0  0  0  0
  149.3364  133.8257  158.6546 O   0  0  0  0  0  0  0  0  0  0  0  0
  147.6968  134.9771  157.4832 N   0  5  0  0  0  0  0  0  0  0  0  0
  148.2944  136.1689  156.8742 C   0  0  0  0  0  0  0  0  0  0  0  0
  148.7814  135.8655  155.4315 C   0  0  2  0  0  0  0  0  0  0  0  0
  149.5609  134.5345  155.2907 C   0  0  0  0  0  0  0  0  0  0  0  0
  149.4768  137.0521  154.8362 N   0  3  0  0  0  0  0  0  0  0  0  0
  148.8291  138.3782  155.0336 C   0  0  0  0  0  0  0  0  0  0  0  0
  149.5544  139.4434  154.1990 C   0  0  0  0  0  0  0  0  0  0  0  0
  150.9230  139.4906  154.5846 O   0  0  0  0  0  0  0  0  0  0  0  0
  151.5873  138.2549  154.3485 C   0  0  0  0  0  0  0  0  0  0  0  0
  150.9206  137.1343  155.1656 C   0  0  0  0  0  0  0  0  0  0  0  0
  147.7511  134.4829  161.0470 C   0  0  0  0  0  0  0  0  0  0  0  0
  146.9440  134.2627  162.1077 C   0  0  0  0  0  0  0  0  0  0  0  0
  145.6340  133.6267  161.9657 C   0  0  0  0  0  0  0  0  0  0  0  0
  144.8823  133.4146  162.9170 O   0  0  0  0  0  0  0  0  0  0  0  0
  141.5388  131.0247  158.0814 H   0  0  0  0  0  0  0  0  0  0  0  0
  141.1343  131.8007  159.6133 H   0  0  0  0  0  0  0  0  0  0  0  0
  142.6640  130.9224  159.4354 H   0  0  0  0  0  0  0  0  0  0  0  0
  143.6985  134.3649  159.1169 H   0  0  0  0  0  0  0  0  0  0  0  0
  142.3338  133.9337  160.1433 H   0  0  0  0  0  0  0  0  0  0  0  0
  143.5444  132.3161  161.2744 H   0  0  0  0  0  0  0  0  0  0  0  0
  144.2457  131.6976  159.8114 H   0  0  0  0  0  0  0  0  0  0  0  0
  147.5837  136.9948  156.8432 H   0  0  0  0  0  0  0  0  0  0  0  0
  149.1432  136.5465  157.4463 H   0  0  0  0  0  0  0  0  0  0  0  0
  147.8628  135.7140  154.8629 H   0  0  0  0  0  0  0  0  0  0  0  0
  148.9636  133.6815  155.6177 H   0  0  0  0  0  0  0  0  0  0  0  0
  150.4864  134.5212  155.8690 H   0  0  0  0  0  0  0  0  0  0  0  0
  149.8210  134.3479  154.2484 H   0  0  0  0  0  0  0  0  0  0  0  0
  147.7807  138.3445  154.7380 H   0  0  0  0  0  0  0  0  0  0  0  0
  148.8586  138.6616  156.0863 H   0  0  0  0  0  0  0  0  0  0  0  0
  149.4665  139.2300  153.1325 H   0  0  0  0  0  0  0  0  0  0  0  0
  149.1052  140.4222  154.3669 H   0  0  0  0  0  0  0  0  0  0  0  0
  151.5701  138.0198  153.2831 H   0  0  0  0  0  0  0  0  0  0  0  0
  152.6342  138.3565  154.6348 H   0  0  0  0  0  0  0  0  0  0  0  0
  151.0422  137.3179  156.2343 H   0  0  0  0  0  0  0  0  0  0  0  0
  151.4111  136.1865  154.9413 H   0  0  0  0  0  0  0  0  0  0  0  0
  148.7105  134.9589  161.1873 H   0  0  0  0  0  0  0  0  0  0  0  0
  147.2739  134.5652  163.0908 H   0  0  0  0  0  0  0  0  0  0  0  0
  149.4390  136.8789  153.8412 H   0  0  0  0  0  0  0  0  0  0  0  0
  1  2  1  0  0  0  0
  1 24  1  0  0  0  0
  1 25  1  0  0  0  0
  1 26  1  0  0  0  0
  2  3  1  0  0  0  0
  3  4  1  0  0  0  0
  3 27  1  0  0  0  0
  3 28  1  0  0  0  0
  4  5  1  0  0  0  0
  4 29  1  0  0  0  0
  4 30  1  0  0  0  0
  5 22  1  0  0  0  0
  5  6  1  0  0  0  0
  6  7  2  0  0  0  0
  7  8  1  0  0  0  0
  7 20  1  0  0  0  0
  8  9  2  0  0  0  0
  8 10  1  0  0  0  0
 10 11  1  0  0  0  0
 11 12  1  0  0  0  0
 11 31  1  0  0  0  0
 11 32  1  0  0  0  0
 12 13  1  0  0  0  0
 12 14  1  0  0  0  0
 12 33  1  0  0  0  0
 13 34  1  0  0  0  0
 13 35  1  0  0  0  0
 13 36  1  0  0  0  0
 14 19  1  0  0  0  0
 14 15  1  0  0  0  0
 14 47  1  0  0  0  0
 15 16  1  0  0  0  0
 15 37  1  0  0  0  0
 15 38  1  0  0  0  0
 16 17  1  0  0  0  0
 16 39  1  0  0  0  0
 16 40  1  0  0  0  0
 17 18  1  0  0  0  0
 18 19  1  0  0  0  0
 18 41  1  0  0  0  0
 18 42  1  0  0  0  0
 19 43  1  0  0  0  0
 19 44  1  0  0  0  0
 20 21  2  0  0  0  0
 20 45  1  0  0  0  0
 21 22  1  0  0  0  0
 21 46  1  0  0  0  0
 22 23  2  0  0  0  0
M  CHG  1  10  -1
M  CHG  1  14   1
M  END
> <s_m_source_file>
AV-unprocessed.smi

> <i_m_source_file_index>
1958

> <i_lp_mmshare_version>
43012

> <i_f3d_flags>
0

> <s_epik_input>
W0NIM11PW0NIMl1bQ0gyXW4xbmMoW2NIXVtjSF1jMT1PKUMoPU8pW05IXVtDSDJdW0NASF0oW0NIM10pTjJbQ0gyXVtDSDJdT1tDSDJdW0NIMl0y

> <s_epik_cmdline>
J2VwaWtfcHl0aG9uJywgJy1waCcsICc3LjAnLCAnLXRuJywgJzgnLCAnLW1hJywgJzIwMCcsICctbWV0YWxfYmluZGluZycsICctaW1hZScsICc8aW5maWxlLm1hZT4nLCAnLW9tYWUnLCAnPG91dGZpbGUubWFlPic=

> <r_lp_tautomer_probability>
1

> <r_epik_Ionization_Penalty>
6.89388

> <r_epik_Ionization_Penalty_Charging>
6.89388

> <r_epik_Ionization_Penalty_Neutral>
1.08445e-11

> <r_epik_State_Penalty>
7.53214

> <r_epik_Charging_Adjusted_Penalty>
14.426

> <i_epik_Tot_Q>
0

> <i_epik_Tot_abs_Q>
2

> <r_epik_Metal_State_Penalty>
3.44743

> <b_epik_Metal_Only>
1

> <s_lp_Force_Field>
OPLS_2005

> <r_lp_Energy>
42.3217

> <b_lp_Chiralities_Consistent>
1

> <s_lp_Variant>
AV-unprocessed.smi:1958-5

> <Gold.Version>
5.8.1

> <Gold.Id.Protein>
6NUR|6NUR_protein|mol2

> <Gold.PLP.Fitness>
39.8873

> <Gold.PLP.PLP>
-29.0748

> <Gold.PLP.part.hbond>
-4.9384

> <Gold.PLP.part.metal>
0.0000

> <Gold.PLP.part.buried>
-3.6241

> <Gold.PLP.part.nonpolar>
-19.9922

> <Gold.PLP.part.repulsive>
0.2512

> <Gold.PLP.ligand.clash>
0.0000

> <Gold.PLP.ligand.torsion>
2.2021

> <Gold.PLP.Chemscore.Hbond>
4.9913

> <Gold.PLP.Chemscore.CHOScore>
0.0000

> <Gold.PLP.Chemscore.Metal>
0.0000

> <Gold.Chemscore.Hbonds>
donor molecule, donor type, donor heavy atom, donor atom, acceptor molecule, acceptor atom, score
      L1  H    14    47       P1  7948  1.59
      P1  H  6896  6908       L1     9  0.99
      P1  H  7989  7998       L1    17  1.00
      P1  H 11000 11005       L1     2  0.55

> <Gold.PLP.Chemscore.Internal.Correction>
0.2429

> <Gold.Rescore>
     Score         DG    S(hbond)    S(metal)    S(lipo)     H(rot)  DE(clash)    DE(int)     intcor
     15.80     -18.89       3.45        0.00      61.51       2.07       0.80       2.29       ----

> <Gold.Chemscore.Fitness>
15.7987

> <Gold.Chemscore.DG>
-18.8912

> <Gold.Chemscore.ZeroCoef>
-5.4800

> <Gold.Chemscore.Hbond>
3.4452

> <Gold.Chemscore.Metal>
0.0000

> <Gold.Chemscore.Lipo>
61.5084

> <Gold.Chemscore.Internal_Hbond>
0.0000

> <Gold.Chemscore.DEClash>
0.8003

> <Gold.Chemscore.DEInternal>
2.2922

> <Gold.Chemscore.Rot>
2.0673

> <Gold.Chemscore.Internal.Correction>
   9.000000E+99

> <Gold.Chemscore.Hbonds>
donor molecule, donor type, donor heavy atom, donor atom, acceptor molecule, acceptor atom, score
      L1  H    14    47       P1  7948  0.73
      P1  H  6896  6908       L1     9  0.92
      P1  H  7989  7998       L1    17  0.31
      P1  H 11000 11005       L1     2  0.27

> <Gold.Chemscore.Hbond.Weighted>
-11.5071

> <Gold.Chemscore.Metal.Weighted>
-0.0000

> <Gold.Chemscore.Lipo.Weighted>
-7.1965

> <Gold.Chemscore.Internal_Hbond.Weighted>
0.0000

> <Gold.Chemscore.DEClash.Weighted>
0.8003

> <Gold.Chemscore.DEInternal.Weighted>
2.2922

> <Gold.Chemscore.Rot.Weighted>
5.2923

> <Gold.Chemscore.Internal.Correction.Weighted>
   9.000000E+99

> <Gold.Protein.RotatedTorsions>
[ 6907 6896 6895 6894 ] final  126.65 input  -60.11 | X-H torsion
[ 7974 7965 7964 7962 ] final  130.62 input  175.53 | X-H torsion
[ 8008 7997 7996 7995 ] final -123.57 input   59.86 | X-H torsion
[ 10167 10162 10161 10158 ] final  -72.35 input  -65.29 | X-H torsion
[ 10718 10713 10712 10709 ] final  -42.75 input   66.30 | X-H torsion
[ 10763 10752 10751 10750 ] final   42.12 input  -60.55 | X-H torsion
[ 11005 11000 10999 10996 ] final -115.09 input  -57.11 | X-H torsion

> <Gold.Protein.ActiveResidues>
 VAL166  LYS551  ARG553  GLY616  TRP617  ASP618  TYR619  PRO620  LYS621  CYS622 
 ASP623  PHE694  ASN695  SER759  ASP760  ASP761  ALA762  ILE779  LEU786  VAL792 
 PHE793  MET794  SER795  GLU796  ALA797  LYS798  CYS799  TRP800  GLU811  SER814 

> <Gold.Protein.RotatedAtoms>
  152.3884  133.6644  159.6217 H   0  0  0  0  0  0  0  0  0  0  0  0  # atno 6907 bound_to 6896
  150.7798  133.8996  159.3346 H   0  0  0  0  0  0  0  0  0  0  0  0  # atno 6908 bound_to 6896
  151.6788  135.0966  160.0263 H   0  0  0  0  0  0  0  0  0  0  0  0  # atno 6909 bound_to 6896
  145.0159  139.4176  143.5221 H   0  0  0  0  0  0  0  0  0  0  0  0  # atno 7974 bound_to 7965
  155.1827  140.0411  157.2885 H   0  0  0  0  0  0  0  0  0  0  0  0  # atno 8008 bound_to 7997
  154.6193  140.2496  155.7542 H   0  0  0  0  0  0  0  0  0  0  0  0  # atno 8009 bound_to 7997
  156.2424  140.2898  156.0493 H   0  0  0  0  0  0  0  0  0  0  0  0  # atno 8010 bound_to 7997
  140.5199  143.2333  151.7448 H   0  0  0  0  0  0  0  0  0  0  0  0  # atno 10167 bound_to 10162
  156.2563  130.4192  149.8593 H   0  0  0  0  0  0  0  0  0  0  0  0  # atno 10718 bound_to 10713
  152.9891  135.6141  154.2898 H   0  0  0  0  0  0  0  0  0  0  0  0  # atno 10763 bound_to 10752
  154.2624  135.2782  155.2774 H   0  0  0  0  0  0  0  0  0  0  0  0  # atno 10764 bound_to 10752
  154.5194  135.5819  153.6726 H   0  0  0  0  0  0  0  0  0  0  0  0  # atno 10765 bound_to 10752
  141.0510  133.9687  157.2836 H   0  0  0  0  0  0  0  0  0  0  0  0  # atno 11005 bound_to 11000
  146.3478  139.9630  142.8715 LP  0  0  0  0  0  0  0  0  0  0  0  0  # atno 17320 bound_to 7965
  145.1960  140.9833  143.4183 LP  0  0  0  0  0  0  0  0  0  0  0  0  # atno 17321 bound_to 7965
  139.4920  144.4269  151.9915 LP  0  0  0  0  0  0  0  0  0  0  0  0  # atno 17342 bound_to 10162
  140.3365  144.3254  150.5976 LP  0  0  0  0  0  0  0  0  0  0  0  0  # atno 17343 bound_to 10162
  156.6124  130.8592  151.3457 LP  0  0  0  0  0  0  0  0  0  0  0  0  # atno 17370 bound_to 10713
  157.7234  130.9589  150.1531 LP  0  0  0  0  0  0  0  0  0  0  0  0  # atno 17371 bound_to 10713
  139.9350  135.0197  156.8526 LP  0  0  0  0  0  0  0  0  0  0  0  0  # atno 17394 bound_to 11000
  140.6056  134.0131  155.7555 LP  0  0  0  0  0  0  0  0  0  0  0  0  # atno 17395 bound_to 11000

$$$$
