AV-unprocessed.smi:2032|AV-procd|sdf|8235|dock9
  -GOLD-   2272010503D 1   1.00000     0.00000
 Structure written by MMmdl.
 42 43  0  0  0  0  0  0  0  0  1 V2000
  149.3925  141.4243  155.4542 C   0  0  0  0  0  0  0  0  0  0  0  0
  150.0866  140.0716  155.6447 C   0  0  1  0  0  0  0  0  0  0  0  0
  149.0784  138.9249  155.8404 C   0  0  0  0  0  0  0  0  0  0  0  0
  149.7213  137.6113  155.9454 N   0  0  0  0  0  0  0  0  0  0  0  0
  148.7501  136.5108  156.1561 C   0  0  2  0  0  0  0  0  0  0  0  0
  149.3199  135.1235  155.7635 C   0  0  0  0  0  0  0  0  0  0  0  0
  147.4036  136.7399  155.4114 C   0  0  0  0  0  0  0  0  0  0  0  0
  147.3450  136.0848  154.1061 N   0  0  0  0  0  0  0  0  0  0  0  0
  146.3220  135.3475  153.6486 C   0  0  0  0  0  0  0  0  0  0  0  0
  145.2875  135.1474  154.2854 O   0  0  0  0  0  0  0  0  0  0  0  0
  146.5793  134.8710  152.4178 N   0  0  0  0  0  0  0  0  0  0  0  0
  145.7531  134.0524  151.6033 C   0  0  0  0  0  0  0  0  0  0  0  0
  144.4181  134.0068  151.6872 N   0  0  0  0  0  0  0  0  0  0  0  0
  143.8647  133.1144  150.7657 C   0  0  0  0  0  0  0  0  0  0  0  0
  144.7994  132.4854  149.9814 C   0  0  0  0  0  0  0  0  0  0  0  0
  146.4218  132.9911  150.3722 S   0  0  0  0  0  0  0  0  0  0  0  0
  150.5482  137.4161  154.7484 C   0  0  0  0  0  0  0  0  0  0  0  0
  151.5493  138.5603  154.4927 C   0  0  2  0  0  0  0  0  0  0  0  0
  152.7463  138.5501  155.4592 C   0  0  0  0  0  0  0  0  0  0  0  0
  150.8778  139.8175  154.4894 O   0  0  0  0  0  0  0  0  0  0  0  0
  148.7782  141.6764  156.3189 H   0  0  0  0  0  0  0  0  0  0  0  0
  148.7472  141.4164  154.5753 H   0  0  0  0  0  0  0  0  0  0  0  0
  150.1239  142.2221  155.3228 H   0  0  0  0  0  0  0  0  0  0  0  0
  150.7326  140.1417  156.5202 H   0  0  0  0  0  0  0  0  0  0  0  0
  148.5194  139.1520  156.7461 H   0  0  0  0  0  0  0  0  0  0  0  0
  148.3617  138.9199  155.0178 H   0  0  0  0  0  0  0  0  0  0  0  0
  148.5202  136.4665  157.2220 H   0  0  0  0  0  0  0  0  0  0  0  0
  148.5928  134.3233  155.8918 H   0  0  0  0  0  0  0  0  0  0  0  0
  150.1654  134.8297  156.3836 H   0  0  0  0  0  0  0  0  0  0  0  0
  149.6415  135.1098  154.7216 H   0  0  0  0  0  0  0  0  0  0  0  0
  146.5711  136.3097  155.9648 H   0  0  0  0  0  0  0  0  0  0  0  0
  147.1986  137.8091  155.3324 H   0  0  0  0  0  0  0  0  0  0  0  0
  148.1517  136.1967  153.5100 H   0  0  0  0  0  0  0  0  0  0  0  0
  147.4718  135.1197  152.0177 H   0  0  0  0  0  0  0  0  0  0  0  0
  142.7927  132.9882  150.7366 H   0  0  0  0  0  0  0  0  0  0  0  0
  144.6320  131.7579  149.2013 H   0  0  0  0  0  0  0  0  0  0  0  0
  151.1270  136.4976  154.8188 H   0  0  0  0  0  0  0  0  0  0  0  0
  149.9006  137.3112  153.8765 H   0  0  0  0  0  0  0  0  0  0  0  0
  151.9532  138.4308  153.4882 H   0  0  0  0  0  0  0  0  0  0  0  0
  153.3246  137.6325  155.3494 H   0  0  0  0  0  0  0  0  0  0  0  0
  152.4338  138.6133  156.5013 H   0  0  0  0  0  0  0  0  0  0  0  0
  153.4149  139.3872  155.2588 H   0  0  0  0  0  0  0  0  0  0  0  0
  1  2  1  0  0  0  0
  1 21  1  0  0  0  0
  1 22  1  0  0  0  0
  1 23  1  0  0  0  0
  2 20  1  0  0  0  0
  2  3  1  0  0  0  0
  2 24  1  0  0  0  0
  3  4  1  0  0  0  0
  3 25  1  0  0  0  0
  3 26  1  0  0  0  0
  4  5  1  0  0  0  0
  4 17  1  0  0  0  0
  5  6  1  0  0  0  0
  5  7  1  0  0  0  0
  5 27  1  0  0  0  0
  6 28  1  0  0  0  0
  6 29  1  0  0  0  0
  6 30  1  0  0  0  0
  7  8  1  0  0  0  0
  7 31  1  0  0  0  0
  7 32  1  0  0  0  0
  8  9  1  0  0  0  0
  8 33  1  0  0  0  0
  9 10  2  0  0  0  0
  9 11  1  0  0  0  0
 11 12  1  0  0  0  0
 11 34  1  0  0  0  0
 12 16  1  0  0  0  0
 12 13  2  0  0  0  0
 13 14  1  0  0  0  0
 14 15  2  0  0  0  0
 14 35  1  0  0  0  0
 15 16  1  0  0  0  0
 15 36  1  0  0  0  0
 17 18  1  0  0  0  0
 17 37  1  0  0  0  0
 17 38  1  0  0  0  0
 18 19  1  0  0  0  0
 18 20  1  0  0  0  0
 18 39  1  0  0  0  0
 19 40  1  0  0  0  0
 19 41  1  0  0  0  0
 19 42  1  0  0  0  0
M  END
> <s_m_source_file>
AV-unprocessed.smi

> <i_m_source_file_index>
2032

> <i_lp_mmshare_version>
43012

> <i_f3d_flags>
0

> <s_epik_input>
W0NIM11bQ0BASF0xW0NIMl1OKFtDSDJdW0NASF0oTzEpW0NIM10pW0NASF0oW0NIM10pW0NIMl1bTkhdQyg9TylbTkhdYzJuW2NIXVtjSF1zMg==

> <s_epik_cmdline>
J2VwaWtfcHl0aG9uJywgJy1waCcsICc3LjAnLCAnLXRuJywgJzgnLCAnLW1hJywgJzIwMCcsICctbWV0YWxfYmluZGluZycsICctaW1hZScsICc8aW5maWxlLm1hZT4nLCAnLW9tYWUnLCAnPG91dGZpbGUubWFlPic=

> <r_lp_tautomer_probability>
0.999

> <r_epik_Ionization_Penalty>
0.219202

> <r_epik_Ionization_Penalty_Charging>
0

> <r_epik_Ionization_Penalty_Neutral>
0.219202

> <r_epik_State_Penalty>
0.209349

> <r_epik_Charging_Adjusted_Penalty>
0.209349

> <i_epik_Tot_Q>
0

> <i_epik_Tot_abs_Q>
0

> <r_epik_Metal_State_Penalty>
0.247737

> <b_epik_Metal_Only>
0

> <s_lp_Force_Field>
OPLS_2005

> <r_lp_Energy>
29.5908

> <b_lp_Chiralities_Consistent>
1

> <s_lp_Variant>
AV-unprocessed.smi:2032-5

> <Gold.Version>
5.8.1

> <Gold.Id.Protein>
6NUR|6NUR_protein|mol2

> <Gold.PLP.Fitness>
39.6383

> <Gold.PLP.PLP>
-29.9313

> <Gold.PLP.part.hbond>
-3.0000

> <Gold.PLP.part.metal>
0.0000

> <Gold.PLP.part.buried>
-5.3183

> <Gold.PLP.part.nonpolar>
-22.7639

> <Gold.PLP.part.repulsive>
0.3399

> <Gold.PLP.ligand.clash>
0.0000

> <Gold.PLP.ligand.torsion>
1.1592

> <Gold.PLP.Chemscore.Hbond>
3.0000

> <Gold.PLP.Chemscore.CHOScore>
1.0000

> <Gold.PLP.Chemscore.Metal>
0.0000

> <Gold.Chemscore.Hbonds>
donor molecule, donor type, donor heavy atom, donor atom, acceptor molecule, acceptor atom, score
      L1  H     8    33       P1  7948  1.00
      L1  H    11    34       P1  7948  1.00
      P1  H  7989  7998       L1    20  1.00
      L1  C    14    35       P1 10186  0.89

> <Gold.PLP.Chemscore.Internal.Correction>
0.0254

> <Gold.Rescore>
     Score         DG    S(hbond)    S(metal)    S(lipo)     H(rot)  DE(clash)    DE(int)     intcor
     17.28     -19.38       2.90        0.00      70.60       1.57       0.08       2.02       ----

> <Gold.Chemscore.Fitness>
17.2788

> <Gold.Chemscore.DG>
-19.3821

> <Gold.Chemscore.ZeroCoef>
-5.4800

> <Gold.Chemscore.Hbond>
2.8962

> <Gold.Chemscore.Metal>
0.0000

> <Gold.Chemscore.Lipo>
70.6038

> <Gold.Chemscore.Internal_Hbond>
0.0000

> <Gold.Chemscore.DEClash>
0.0815

> <Gold.Chemscore.DEInternal>
2.0218

> <Gold.Chemscore.Rot>
1.5750

> <Gold.Chemscore.Internal.Correction>
   9.000000E+99

> <Gold.Chemscore.Hbonds>
donor molecule, donor type, donor heavy atom, donor atom, acceptor molecule, acceptor atom, score
      L1  H     8    33       P1  7948  0.96
      L1  H    11    34       P1  7948  0.93
      P1  H  7989  7998       L1    20  0.74

> <Gold.Chemscore.Hbond.Weighted>
-9.6733

> <Gold.Chemscore.Metal.Weighted>
-0.0000

> <Gold.Chemscore.Lipo.Weighted>
-8.2606

> <Gold.Chemscore.Internal_Hbond.Weighted>
0.0000

> <Gold.Chemscore.DEClash.Weighted>
0.0815

> <Gold.Chemscore.DEInternal.Weighted>
2.0218

> <Gold.Chemscore.Rot.Weighted>
4.0319

> <Gold.Chemscore.Internal.Correction.Weighted>
   9.000000E+99

> <Gold.Protein.RotatedTorsions>
[ 6907 6896 6895 6894 ] final   51.21 input  -60.11 | X-H torsion
[ 7974 7965 7964 7962 ] final -109.29 input  175.53 | X-H torsion
[ 8008 7997 7996 7995 ] final   71.57 input   59.86 | X-H torsion
[ 10167 10162 10161 10158 ] final -177.63 input  -65.29 | X-H torsion
[ 10718 10713 10712 10709 ] final   44.51 input   66.30 | X-H torsion
[ 10763 10752 10751 10750 ] final   43.75 input  -60.55 | X-H torsion
[ 11005 11000 10999 10996 ] final -138.45 input  -57.11 | X-H torsion

> <Gold.Protein.ActiveResidues>
 VAL166  LYS551  ARG553  GLY616  TRP617  ASP618  TYR619  PRO620  LYS621  CYS622 
 ASP623  PHE694  ASN695  SER759  ASP760  ASP761  ALA762  ILE779  LEU786  VAL792 
 PHE793  MET794  SER795  GLU796  ALA797  LYS798  CYS799  TRP800  GLU811  SER814 

> <Gold.Protein.RotatedAtoms>
  152.3102  134.7506  160.0337 H   0  0  0  0  0  0  0  0  0  0  0  0  # atno 6907 bound_to 6896
  151.7989  133.3362  159.3529 H   0  0  0  0  0  0  0  0  0  0  0  0  # atno 6908 bound_to 6896
  150.7316  134.5702  159.5931 H   0  0  0  0  0  0  0  0  0  0  0  0  # atno 6909 bound_to 6896
  145.1823  140.8977  143.3473 H   0  0  0  0  0  0  0  0  0  0  0  0  # atno 7974 bound_to 7965
  155.7559  140.3487  155.5173 H   0  0  0  0  0  0  0  0  0  0  0  0  # atno 8008 bound_to 7997
  155.8960  140.1026  157.1405 H   0  0  0  0  0  0  0  0  0  0  0  0  # atno 8009 bound_to 7997
  154.4038  140.1295  156.4363 H   0  0  0  0  0  0  0  0  0  0  0  0  # atno 8010 bound_to 7997
  139.5471  144.2207  152.1008 H   0  0  0  0  0  0  0  0  0  0  0  0  # atno 10167 bound_to 10162
  157.4276  130.8006  149.7573 H   0  0  0  0  0  0  0  0  0  0  0  0  # atno 10718 bound_to 10713
  152.9854  135.6092  154.3162 H   0  0  0  0  0  0  0  0  0  0  0  0  # atno 10763 bound_to 10752
  154.2874  135.2775  155.2672 H   0  0  0  0  0  0  0  0  0  0  0  0  # atno 10764 bound_to 10752
  154.4983  135.5874  153.6568 H   0  0  0  0  0  0  0  0  0  0  0  0  # atno 10765 bound_to 10752
  140.8615  134.2163  157.4704 H   0  0  0  0  0  0  0  0  0  0  0  0  # atno 11005 bound_to 11000
  145.0124  139.3498  143.6113 LP  0  0  0  0  0  0  0  0  0  0  0  0  # atno 17320 bound_to 7965
  146.3451  139.9392  142.8743 LP  0  0  0  0  0  0  0  0  0  0  0  0  # atno 17321 bound_to 7965
  140.1696  144.4948  150.6587 LP  0  0  0  0  0  0  0  0  0  0  0  0  # atno 17342 bound_to 10162
  140.6722  143.2290  151.5596 LP  0  0  0  0  0  0  0  0  0  0  0  0  # atno 17343 bound_to 10162
  155.9902  130.3946  150.3039 LP  0  0  0  0  0  0  0  0  0  0  0  0  # atno 17370 bound_to 10713
  157.1193  131.0242  151.3016 LP  0  0  0  0  0  0  0  0  0  0  0  0  # atno 17371 bound_to 10713
  139.8707  134.9731  156.4799 LP  0  0  0  0  0  0  0  0  0  0  0  0  # atno 17394 bound_to 11000
  140.8677  133.8011  155.9332 LP  0  0  0  0  0  0  0  0  0  0  0  0  # atno 17395 bound_to 11000

$$$$
