AV-unprocessed.smi:1813|AV-procd|sdf|7345|dock1
  -GOLD-   22720 9 03D 1   1.00000     0.00000
 Structure written by MMmdl.
 39 40  0  0  0  0  0  0  0  0  3 V2000
  151.8505  138.4953  154.7815 C   0  0  0  0  0  0  0  0  0  0  0  0
  150.6796  139.2977  154.4477 N   0  5  0  0  0  0  0  0  0  0  0  0
  149.4059  138.9261  154.7467 C   0  0  0  0  0  0  0  0  0  0  0  0
  148.9697  138.1810  155.6306 O   0  0  0  0  0  0  0  0  0  0  0  0
  148.3988  139.5998  153.8076 C   0  0  0  0  0  0  0  0  0  0  0  0
  147.6941  138.5777  152.9943 N   0  3  2  0  0  0  0  0  0  0  0  0
  146.9582  139.1777  151.8529 C   0  0  0  0  0  0  0  0  0  0  0  0
  146.3615  138.0904  150.9421 C   0  0  0  0  0  0  0  0  0  0  0  0
  145.4536  137.1181  151.7213 C   0  0  2  0  0  0  0  0  0  0  0  0
  144.2069  137.7560  152.1439 N   0  0  0  0  0  0  0  0  0  0  0  0
  143.1384  137.1155  152.6407 C   0  0  0  0  0  0  0  0  0  0  0  0
  143.0890  135.8941  152.7889 O   0  0  0  0  0  0  0  0  0  0  0  0
  142.1513  137.9768  152.9442 N   0  0  0  0  0  0  0  0  0  0  0  0
  140.8683  137.6875  153.4790 C   0  0  0  0  0  0  0  0  0  0  0  0
  140.6340  136.7687  154.4232 N   0  0  0  0  0  0  0  0  0  0  0  0
  139.2796  136.6950  154.7585 C   0  0  0  0  0  0  0  0  0  0  0  0
  138.4913  137.5699  154.0531 C   0  0  0  0  0  0  0  0  0  0  0  0
  139.4245  138.5290  152.9353 S   0  0  0  0  0  0  0  0  0  0  0  0
  146.2146  136.5638  152.9378 C   0  0  0  0  0  0  0  0  0  0  0  0
  146.8196  137.6849  153.8023 C   0  0  0  0  0  0  0  0  0  0  0  0
  152.7702  138.9460  154.4095 H   0  0  0  0  0  0  0  0  0  0  0  0
  151.8045  137.4922  154.3566 H   0  0  0  0  0  0  0  0  0  0  0  0
  151.9781  138.3769  155.8580 H   0  0  0  0  0  0  0  0  0  0  0  0
  147.6803  140.2313  154.3354 H   0  0  0  0  0  0  0  0  0  0  0  0
  148.9709  140.2636  153.1577 H   0  0  0  0  0  0  0  0  0  0  0  0
  146.1722  139.8345  152.2289 H   0  0  0  0  0  0  0  0  0  0  0  0
  147.6350  139.7994  151.2655 H   0  0  0  0  0  0  0  0  0  0  0  0
  145.8166  138.5508  150.1172 H   0  0  0  0  0  0  0  0  0  0  0  0
  147.1756  137.5270  150.4841 H   0  0  0  0  0  0  0  0  0  0  0  0
  145.1973  136.2787  151.0721 H   0  0  0  0  0  0  0  0  0  0  0  0
  144.1596  138.7613  152.0620 H   0  0  0  0  0  0  0  0  0  0  0  0
  142.3374  138.9537  152.7724 H   0  0  0  0  0  0  0  0  0  0  0  0
  138.9630  135.9890  155.5122 H   0  0  0  0  0  0  0  0  0  0  0  0
  137.4226  137.7081  154.1240 H   0  0  0  0  0  0  0  0  0  0  0  0
  145.5579  135.9370  153.5426 H   0  0  0  0  0  0  0  0  0  0  0  0
  147.0177  135.9123  152.5906 H   0  0  0  0  0  0  0  0  0  0  0  0
  147.3892  137.2320  154.6140 H   0  0  0  0  0  0  0  0  0  0  0  0
  146.0285  138.2742  154.2679 H   0  0  0  0  0  0  0  0  0  0  0  0
  148.4185  137.9983  152.5943 H   0  0  0  0  0  0  0  0  0  0  0  0
  1  2  1  0  0  0  0
  1 21  1  0  0  0  0
  1 22  1  0  0  0  0
  1 23  1  0  0  0  0
  2  3  1  0  0  0  0
  3  4  2  0  0  0  0
  3  5  1  0  0  0  0
  5  6  1  0  0  0  0
  5 24  1  0  0  0  0
  5 25  1  0  0  0  0
  6 20  1  0  0  0  0
  6  7  1  0  0  0  0
  6 39  1  0  0  0  0
  7  8  1  0  0  0  0
  7 26  1  0  0  0  0
  7 27  1  0  0  0  0
  8  9  1  0  0  0  0
  8 28  1  0  0  0  0
  8 29  1  0  0  0  0
  9 10  1  0  0  0  0
  9 19  1  0  0  0  0
  9 30  1  0  0  0  0
 10 11  1  0  0  0  0
 10 31  1  0  0  0  0
 11 12  2  0  0  0  0
 11 13  1  0  0  0  0
 13 14  1  0  0  0  0
 13 32  1  0  0  0  0
 14 18  1  0  0  0  0
 14 15  2  0  0  0  0
 15 16  1  0  0  0  0
 16 17  2  0  0  0  0
 16 33  1  0  0  0  0
 17 18  1  0  0  0  0
 17 34  1  0  0  0  0
 19 20  1  0  0  0  0
 19 35  1  0  0  0  0
 19 36  1  0  0  0  0
 20 37  1  0  0  0  0
 20 38  1  0  0  0  0
M  CHG  1   2  -1
M  CHG  1   6   1
M  END
> <s_m_source_file>
AV-unprocessed.smi

> <i_m_source_file_index>
1813

> <i_lp_mmshare_version>
43012

> <i_f3d_flags>
0

> <s_epik_input>
W0NIM11bTkhdQyg9TylbQ0gyXU4xW0NIMl1bQ0gyXVtDSF0oW0NIMl1bQ0gyXTEpW05IXUMoPU8pW05IXWMybltjSF1bY0hdczI=

> <s_epik_cmdline>
J2VwaWtfcHl0aG9uJywgJy1waCcsICc3LjAnLCAnLXRuJywgJzgnLCAnLW1hJywgJzIwMCcsICctbWV0YWxfYmluZGluZycsICctaW1hZScsICc8aW5maWxlLm1hZT4nLCAnLW9tYWUnLCAnPG91dGZpbGUubWFlPic=

> <r_lp_tautomer_probability>
0.999

> <r_epik_Ionization_Penalty>
6.14232

> <r_epik_Ionization_Penalty_Charging>
6.14218

> <r_epik_Ionization_Penalty_Neutral>
0.000139308

> <r_epik_State_Penalty>
6.98503

> <r_epik_Charging_Adjusted_Penalty>
13.1272

> <i_epik_Tot_Q>
0

> <i_epik_Tot_abs_Q>
2

> <r_epik_Metal_State_Penalty>
2.95036

> <b_epik_Metal_Only>
1

> <s_lp_Force_Field>
OPLS_2005

> <r_lp_Energy>
8.34863

> <b_lp_Chiralities_Consistent>
1

> <s_lp_Variant>
AV-unprocessed.smi:1813-6

> <Gold.Version>
5.8.1

> <Gold.Id.Protein>
6NUR|6NUR_protein|mol2

> <Gold.PLP.Fitness>
45.9381

> <Gold.PLP.PLP>
-29.3132

> <Gold.PLP.part.hbond>
-5.8701

> <Gold.PLP.part.metal>
0.0000

> <Gold.PLP.part.buried>
9.5445

> <Gold.PLP.part.nonpolar>
-33.2840

> <Gold.PLP.part.repulsive>
0.5132

> <Gold.PLP.ligand.clash>
0.0000

> <Gold.PLP.ligand.torsion>
0.6113

> <Gold.PLP.Chemscore.Hbond>
4.9340

> <Gold.PLP.Chemscore.CHOScore>
0.9983

> <Gold.PLP.Chemscore.Metal>
0.0000

> <Gold.Chemscore.Hbonds>
donor molecule, donor type, donor heavy atom, donor atom, acceptor molecule, acceptor atom, score
      L1  H     6    39       P1  7948  1.98
      L1  H    10    31       P1 10175  1.00
      L1  H    13    32       P1 10175  1.00
      P1  H  7989  7998       L1     2  0.86
      L1  C    16    33       P1 11000  0.98

> <Gold.PLP.Chemscore.Internal.Correction>
0.0507

> <Gold.Rescore>
     Score         DG    S(hbond)    S(metal)    S(lipo)     H(rot)  DE(clash)    DE(int)     intcor
     14.39     -18.77       2.95        0.00      67.42       1.73       2.39       1.99       ----

> <Gold.Chemscore.Fitness>
14.3895

> <Gold.Chemscore.DG>
-18.7735

> <Gold.Chemscore.ZeroCoef>
-5.4800

> <Gold.Chemscore.Hbond>
2.9452

> <Gold.Chemscore.Metal>
0.0000

> <Gold.Chemscore.Lipo>
67.4221

> <Gold.Chemscore.Internal_Hbond>
0.0000

> <Gold.Chemscore.DEClash>
2.3931

> <Gold.Chemscore.DEInternal>
1.9910

> <Gold.Chemscore.Rot>
1.7312

> <Gold.Chemscore.Internal.Correction>
   9.000000E+99

> <Gold.Chemscore.Hbonds>
donor molecule, donor type, donor heavy atom, donor atom, acceptor molecule, acceptor atom, score
      L1  H     6    39       P1  7948  0.92
      L1  H    10    31       P1 10175  0.99
      L1  H    13    32       P1 10175  0.93
      P1  H  7989  7998       L1     2  0.19

> <Gold.Chemscore.Hbond.Weighted>
-9.8370

> <Gold.Chemscore.Metal.Weighted>
-0.0000

> <Gold.Chemscore.Lipo.Weighted>
-7.8884

> <Gold.Chemscore.Internal_Hbond.Weighted>
0.0000

> <Gold.Chemscore.DEClash.Weighted>
2.3931

> <Gold.Chemscore.DEInternal.Weighted>
1.9910

> <Gold.Chemscore.Rot.Weighted>
4.4319

> <Gold.Chemscore.Internal.Correction.Weighted>
   9.000000E+99

> <Gold.Protein.RotatedTorsions>
[ 6907 6896 6895 6894 ] final  142.73 input  -60.11 | X-H torsion
[ 7974 7965 7964 7962 ] final  114.26 input  175.53 | X-H torsion
[ 8008 7997 7996 7995 ] final -158.30 input   59.86 | X-H torsion
[ 10167 10162 10161 10158 ] final -110.69 input  -65.29 | X-H torsion
[ 10718 10713 10712 10709 ] final  -27.74 input   66.30 | X-H torsion
[ 10763 10752 10751 10750 ] final  166.35 input  -60.55 | X-H torsion
[ 11005 11000 10999 10996 ] final -129.85 input  -57.11 | X-H torsion

> <Gold.Protein.ActiveResidues>
 VAL166  LYS551  ARG553  GLY616  TRP617  ASP618  TYR619  PRO620  LYS621  CYS622 
 ASP623  PHE694  ASN695  SER759  ASP760  ASP761  ALA762  ILE779  LEU786  VAL792 
 PHE793  MET794  SER795  GLU796  ALA797  LYS798  CYS799  TRP800  GLU811  SER814 

> <Gold.Protein.RotatedAtoms>
  152.2150  133.4940  159.5130 H   0  0  0  0  0  0  0  0  0  0  0  0  # atno 6907 bound_to 6896
  150.6999  134.1417  159.4116 H   0  0  0  0  0  0  0  0  0  0  0  0  # atno 6908 bound_to 6896
  151.9337  135.0245  160.0581 H   0  0  0  0  0  0  0  0  0  0  0  0  # atno 6909 bound_to 6896
  145.2066  139.2926  143.4290 H   0  0  0  0  0  0  0  0  0  0  0  0  # atno 7974 bound_to 7965
  155.7454  140.0819  157.2226 H   0  0  0  0  0  0  0  0  0  0  0  0  # atno 8008 bound_to 7997
  154.4017  140.1570  156.2719 H   0  0  0  0  0  0  0  0  0  0  0  0  # atno 8009 bound_to 7997
  155.8981  140.3411  155.6008 H   0  0  0  0  0  0  0  0  0  0  0  0  # atno 8010 bound_to 7997
  140.1418  143.4273  152.1557 H   0  0  0  0  0  0  0  0  0  0  0  0  # atno 10167 bound_to 10162
  156.4343  130.4451  149.7096 H   0  0  0  0  0  0  0  0  0  0  0  0  # atno 10718 bound_to 10713
  154.3376  135.2754  155.2439 H   0  0  0  0  0  0  0  0  0  0  0  0  # atno 10763 bound_to 10752
  154.4724  135.5879  153.6334 H   0  0  0  0  0  0  0  0  0  0  0  0  # atno 10764 bound_to 10752
  152.9860  135.6091  154.3574 H   0  0  0  0  0  0  0  0  0  0  0  0  # atno 10765 bound_to 10752
  140.9396  134.1211  157.4162 H   0  0  0  0  0  0  0  0  0  0  0  0  # atno 11005 bound_to 11000
  146.3406  140.2329  142.8593 LP  0  0  0  0  0  0  0  0  0  0  0  0  # atno 17320 bound_to 7965
  144.9896  140.8534  143.5348 LP  0  0  0  0  0  0  0  0  0  0  0  0  # atno 17321 bound_to 7965
  139.5468  144.7305  151.4557 LP  0  0  0  0  0  0  0  0  0  0  0  0  # atno 17342 bound_to 10162
  140.6756  143.8197  150.7054 LP  0  0  0  0  0  0  0  0  0  0  0  0  # atno 17343 bound_to 10162
  156.3986  130.7663  151.2669 LP  0  0  0  0  0  0  0  0  0  0  0  0  # atno 17370 bound_to 10713
  157.7507  131.0246  150.3885 LP  0  0  0  0  0  0  0  0  0  0  0  0  # atno 17371 bound_to 10713
  139.8817  135.0032  156.6174 LP  0  0  0  0  0  0  0  0  0  0  0  0  # atno 17394 bound_to 11000
  140.7752  133.8705  155.8523 LP  0  0  0  0  0  0  0  0  0  0  0  0  # atno 17395 bound_to 11000

$$$$
