AV-unprocessed.smi:3116|AV-procd|sdf|11876|dock8
  -GOLD-   2272017263D 1   1.00000     0.00000
 Structure written by MMmdl.
 33 33  0  0  0  0  0  0  0  0  1 V2000
  153.0399  138.4390  155.6801 C   0  0  0  0  0  0  0  0  0  0  0  0
  151.7451  138.9658  155.0418 C   0  0  2  0  0  0  0  0  0  0  0  0
  150.9141  139.6146  156.0722 N   0  0  0  0  0  0  0  0  0  0  0  0
  151.2829  140.9892  156.4102 C   0  0  1  0  0  0  0  0  0  0  0  0
  150.3305  141.9375  155.6540 C   0  0  0  0  0  0  0  0  0  0  0  0
  151.2126  141.1504  157.9520 C   0  0  1  0  0  0  0  0  0  0  0  0
  152.0505  140.0958  158.6989 C   0  0  0  0  0  0  0  0  0  0  0  0
  151.6189  142.4847  158.3754 N   0  0  0  0  0  0  0  0  0  0  0  0
  151.1088  143.7068  157.9837 C   0  0  0  0  0  0  0  0  0  0  0  0
  151.8092  144.6734  158.6461 C   0  0  0  0  0  0  0  0  0  0  0  0
  152.7413  143.9372  159.4292 C   0  0  0  0  0  0  0  0  0  0  0  0
  152.6262  142.6297  159.2642 N   0  0  0  0  0  0  0  0  0  0  0  0
  151.0160  137.8397  154.2901 C   0  0  0  0  0  0  0  0  0  0  0  0
  149.9616  138.1842  153.5467 N   0  0  0  0  0  0  0  0  0  0  0  0
  151.3888  136.6726  154.3943 O   0  0  0  0  0  0  0  0  0  0  0  0
  153.6846  137.9665  154.9382 H   0  0  0  0  0  0  0  0  0  0  0  0
  152.8352  137.7043  156.4602 H   0  0  0  0  0  0  0  0  0  0  0  0
  153.6084  139.2514  156.1339 H   0  0  0  0  0  0  0  0  0  0  0  0
  152.0308  139.7304  154.3167 H   0  0  0  0  0  0  0  0  0  0  0  0
  149.9284  139.5575  155.8579 H   0  0  0  0  0  0  0  0  0  0  0  0
  152.3061  141.2029  156.0978 H   0  0  0  0  0  0  0  0  0  0  0  0
  150.6014  142.9827  155.8030 H   0  0  0  0  0  0  0  0  0  0  0  0
  149.3000  141.8125  155.9883 H   0  0  0  0  0  0  0  0  0  0  0  0
  150.3523  141.7586  154.5792 H   0  0  0  0  0  0  0  0  0  0  0  0
  150.1723  141.0182  158.2576 H   0  0  0  0  0  0  0  0  0  0  0  0
  151.7006  139.0851  158.4893 H   0  0  0  0  0  0  0  0  0  0  0  0
  151.9890  140.2419  159.7778 H   0  0  0  0  0  0  0  0  0  0  0  0
  153.1021  140.1472  158.4155 H   0  0  0  0  0  0  0  0  0  0  0  0
  150.2973  143.7848  157.2753 H   0  0  0  0  0  0  0  0  0  0  0  0
  151.6768  145.7430  158.5809 H   0  0  0  0  0  0  0  0  0  0  0  0
  153.4937  144.3110  160.1078 H   0  0  0  0  0  0  0  0  0  0  0  0
  149.4515  137.4775  153.0372 H   0  0  0  0  0  0  0  0  0  0  0  0
  149.6773  139.1518  153.4986 H   0  0  0  0  0  0  0  0  0  0  0  0
  1  2  1  0  0  0  0
  1 16  1  0  0  0  0
  1 17  1  0  0  0  0
  1 18  1  0  0  0  0
  2  3  1  0  0  0  0
  2 13  1  0  0  0  0
  2 19  1  0  0  0  0
  3  4  1  0  0  0  0
  3 20  1  0  0  0  0
  4  5  1  0  0  0  0
  4  6  1  0  0  0  0
  4 21  1  0  0  0  0
  5 22  1  0  0  0  0
  5 23  1  0  0  0  0
  5 24  1  0  0  0  0
  6  7  1  0  0  0  0
  6  8  1  0  0  0  0
  6 25  1  0  0  0  0
  7 26  1  0  0  0  0
  7 27  1  0  0  0  0
  7 28  1  0  0  0  0
  8 12  1  0  0  0  0
  8  9  1  0  0  0  0
  9 10  2  0  0  0  0
  9 29  1  0  0  0  0
 10 11  1  0  0  0  0
 10 30  1  0  0  0  0
 11 12  2  0  0  0  0
 11 31  1  0  0  0  0
 13 14  1  0  0  0  0
 13 15  2  0  0  0  0
 14 32  1  0  0  0  0
 14 33  1  0  0  0  0
M  END
> <s_m_source_file>
AV-unprocessed.smi

> <i_m_source_file_index>
3116

> <i_lp_mmshare_version>
43012

> <i_f3d_flags>
0

> <s_epik_input>
W05IMl1DKD1PKVtDQEhdKFtDSDNdKVtOSF1bQ0BIXShbQ0gzXSlbQ0BIXShbQ0gzXSluMVtjSF1bY0hdW2NIXW4x

> <s_epik_cmdline>
J2VwaWtfcHl0aG9uJywgJy1waCcsICc3LjAnLCAnLXRuJywgJzgnLCAnLW1hJywgJzIwMCcsICctbWV0YWxfYmluZGluZycsICctaW1hZScsICc8aW5maWxlLm1hZT4nLCAnLW9tYWUnLCAnPG91dGZpbGUubWFlPic=

> <r_lp_tautomer_probability>
1

> <r_epik_Ionization_Penalty>
0.865977

> <r_epik_Ionization_Penalty_Charging>
0

> <r_epik_Ionization_Penalty_Neutral>
0.865977

> <r_epik_State_Penalty>
0.901888

> <r_epik_Charging_Adjusted_Penalty>
0.901888

> <i_epik_Tot_Q>
0

> <i_epik_Tot_abs_Q>
0

> <r_epik_Metal_State_Penalty>
0.901181

> <b_epik_Metal_Only>
0

> <s_lp_Force_Field>
OPLS_2005

> <r_lp_Energy>
9.22902

> <b_lp_Chiralities_Consistent>
1

> <s_lp_Variant>
AV-unprocessed.smi:3116-15

> <Gold.Version>
5.8.1

> <Gold.Id.Protein>
6NUR|6NUR_protein|mol2

> <Gold.PLP.Fitness>
40.6119

> <Gold.PLP.PLP>
-33.4362

> <Gold.PLP.part.hbond>
-3.2964

> <Gold.PLP.part.metal>
0.0000

> <Gold.PLP.part.buried>
-3.8983

> <Gold.PLP.part.nonpolar>
-27.4799

> <Gold.PLP.part.repulsive>
1.1356

> <Gold.PLP.ligand.clash>
0.0000

> <Gold.PLP.ligand.torsion>
0.9612

> <Gold.PLP.Chemscore.Hbond>
2.0000

> <Gold.PLP.Chemscore.CHOScore>
1.0000

> <Gold.PLP.Chemscore.Metal>
0.0000

> <Gold.Chemscore.Hbonds>
donor molecule, donor type, donor heavy atom, donor atom, acceptor molecule, acceptor atom, score
      L1  H    14    32       P1  7948  1.00
      P1  H 10752 10765       L1    15  1.00
      L1  C     9    29       P1  8028  1.00

> <Gold.PLP.Chemscore.Internal.Correction>
0.0982

> <Gold.Rescore>
     Score         DG    S(hbond)    S(metal)    S(lipo)     H(rot)  DE(clash)    DE(int)     intcor
     14.03     -15.17       1.95        0.00      79.32       2.38       0.22       0.92       ----

> <Gold.Chemscore.Fitness>
14.0261

> <Gold.Chemscore.DG>
-15.1680

> <Gold.Chemscore.ZeroCoef>
-5.4800

> <Gold.Chemscore.Hbond>
1.9491

> <Gold.Chemscore.Metal>
0.0000

> <Gold.Chemscore.Lipo>
79.3176

> <Gold.Chemscore.Internal_Hbond>
0.0000

> <Gold.Chemscore.DEClash>
0.2248

> <Gold.Chemscore.DEInternal>
0.9171

> <Gold.Chemscore.Rot>
2.3836

> <Gold.Chemscore.Internal.Correction>
   9.000000E+99

> <Gold.Chemscore.Hbonds>
donor molecule, donor type, donor heavy atom, donor atom, acceptor molecule, acceptor atom, score
      L1  H    14    32       P1  7948  0.88
      P1  H 10752 10765       L1    15  1.00

> <Gold.Chemscore.Hbond.Weighted>
-6.5099

> <Gold.Chemscore.Metal.Weighted>
-0.0000

> <Gold.Chemscore.Lipo.Weighted>
-9.2802

> <Gold.Chemscore.Internal_Hbond.Weighted>
0.0000

> <Gold.Chemscore.DEClash.Weighted>
0.2248

> <Gold.Chemscore.DEInternal.Weighted>
0.9171

> <Gold.Chemscore.Rot.Weighted>
6.1020

> <Gold.Chemscore.Internal.Correction.Weighted>
   9.000000E+99

> <Gold.Protein.RotatedTorsions>
[ 6907 6896 6895 6894 ] final   64.92 input  -60.11 | X-H torsion
[ 7974 7965 7964 7962 ] final   63.59 input  175.53 | X-H torsion
[ 8008 7997 7996 7995 ] final -146.38 input   59.86 | X-H torsion
[ 10167 10162 10161 10158 ] final   26.88 input  -65.29 | X-H torsion
[ 10718 10713 10712 10709 ] final  -97.20 input   66.30 | X-H torsion
[ 10763 10752 10751 10750 ] final  161.32 input  -60.55 | X-H torsion
[ 11005 11000 10999 10996 ] final  -52.59 input  -57.11 | X-H torsion

> <Gold.Protein.ActiveResidues>
 VAL166  LYS551  ARG553  GLY616  TRP617  ASP618  TYR619  PRO620  LYS621  CYS622 
 ASP623  PHE694  ASN695  SER759  ASP760  ASP761  ALA762  ILE779  LEU786  VAL792 
 PHE793  MET794  SER795  GLU796  ALA797  LYS798  CYS799  TRP800  GLU811  SER814 

> <Gold.Protein.RotatedAtoms>
  152.4369  134.5669  159.9909 H   0  0  0  0  0  0  0  0  0  0  0  0  # atno 6907 bound_to 6896
  151.5777  133.3376  159.3010 H   0  0  0  0  0  0  0  0  0  0  0  0  # atno 6908 bound_to 6896
  150.8268  134.7538  159.6884 H   0  0  0  0  0  0  0  0  0  0  0  0  # atno 6909 bound_to 6896
  145.8600  139.3309  143.0824 H   0  0  0  0  0  0  0  0  0  0  0  0  # atno 7974 bound_to 7965
  155.5585  140.0623  157.2834 H   0  0  0  0  0  0  0  0  0  0  0  0  # atno 8008 bound_to 7997
  154.4398  140.1890  156.0803 H   0  0  0  0  0  0  0  0  0  0  0  0  # atno 8009 bound_to 7997
  156.0464  140.3289  155.7305 H   0  0  0  0  0  0  0  0  0  0  0  0  # atno 8010 bound_to 7997
  140.4985  144.0353  150.6323 H   0  0  0  0  0  0  0  0  0  0  0  0  # atno 10167 bound_to 10162
  156.0078  130.5184  150.6339 H   0  0  0  0  0  0  0  0  0  0  0  0  # atno 10718 bound_to 10713
  154.2612  135.2768  155.2777 H   0  0  0  0  0  0  0  0  0  0  0  0  # atno 10763 bound_to 10752
  154.5382  135.5710  153.6820 H   0  0  0  0  0  0  0  0  0  0  0  0  # atno 10764 bound_to 10752
  152.9962  135.6244  154.2762 H   0  0  0  0  0  0  0  0  0  0  0  0  # atno 10765 bound_to 10752
  141.0932  133.6629  156.4047 H   0  0  0  0  0  0  0  0  0  0  0  0  # atno 11005 bound_to 11000
  145.9259  140.9083  143.0381 LP  0  0  0  0  0  0  0  0  0  0  0  0  # atno 17320 bound_to 7965
  144.6727  140.1351  143.7441 LP  0  0  0  0  0  0  0  0  0  0  0  0  # atno 17321 bound_to 7965
  140.3642  143.2891  152.0350 LP  0  0  0  0  0  0  0  0  0  0  0  0  # atno 17342 bound_to 10162
  139.4866  144.6279  151.7127 LP  0  0  0  0  0  0  0  0  0  0  0  0  # atno 17343 bound_to 10162
  157.4132  131.0826  151.1201 LP  0  0  0  0  0  0  0  0  0  0  0  0  # atno 17370 bound_to 10713
  157.1826  130.6316  149.5677 LP  0  0  0  0  0  0  0  0  0  0  0  0  # atno 17371 bound_to 10713
  140.5202  134.6312  157.5315 LP  0  0  0  0  0  0  0  0  0  0  0  0  # atno 17394 bound_to 11000
  139.9763  134.7210  155.9944 LP  0  0  0  0  0  0  0  0  0  0  0  0  # atno 17395 bound_to 11000

$$$$
