AV-unprocessed.smi:1118|AV-procd|sdf|4814|dock9
  -GOLD-   22720 3363D 1   1.00000     0.00000
 Structure written by MMmdl.
 45 46  0  0  0  0  0  0  0  0  2 V2000
  145.9531  134.0877  150.8968 C   0  0  0  0  0  0  0  0  0  0  0  0
  145.5284  134.0689  152.2484 O   0  0  0  0  0  0  0  0  0  0  0  0
  146.1058  135.1130  153.0150 C   0  0  0  0  0  0  0  0  0  0  0  0
  145.7712  136.4584  152.3527 C   0  0  0  0  0  0  0  0  0  0  0  0
  146.7283  137.5297  152.7292 N   0  3  2  0  0  0  0  0  0  0  0  0
  146.7670  137.7587  154.1958 C   0  0  0  0  0  0  0  0  0  0  0  0
  147.8680  138.7639  154.5719 C   0  0  0  0  0  0  0  0  0  0  0  0
  147.6866  140.1028  153.8358 C   0  0  1  0  0  0  0  0  0  0  0  0
  148.8026  141.0982  154.2161 C   0  0  0  0  0  0  0  0  0  0  0  0
  149.1718  140.9871  155.6233 N   0  0  0  0  0  0  0  0  0  0  0  0
  150.3769  140.6219  156.0880 C   0  0  0  0  0  0  0  0  0  0  0  0
  151.3082  140.2661  155.3660 O   0  0  0  0  0  0  0  0  0  0  0  0
  150.5727  140.7102  157.6008 C   0  0  0  0  0  0  0  0  0  0  0  0
  151.2048  141.9675  157.9584 N   0  0  0  0  0  0  0  0  0  0  0  0
  151.0007  143.2152  157.4068 C   0  0  0  0  0  0  0  0  0  0  0  0
  151.8015  144.0929  158.0797 C   0  0  0  0  0  0  0  0  0  0  0  0
  152.4665  143.2778  159.0380 C   0  0  0  0  0  0  0  0  0  0  0  0
  152.1061  142.0068  158.9649 N   0  0  0  0  0  0  0  0  0  0  0  0
  147.6033  139.8307  152.3196 C   0  0  0  0  0  0  0  0  0  0  0  0
  146.5114  138.8003  151.9887 C   0  0  0  0  0  0  0  0  0  0  0  0
  145.4840  133.2672  150.3538 H   0  0  0  0  0  0  0  0  0  0  0  0
  147.0346  133.9663  150.8214 H   0  0  0  0  0  0  0  0  0  0  0  0
  145.6702  135.0205  150.4070 H   0  0  0  0  0  0  0  0  0  0  0  0
  145.7553  135.0738  154.0465 H   0  0  0  0  0  0  0  0  0  0  0  0
  147.1890  134.9848  153.0423 H   0  0  0  0  0  0  0  0  0  0  0  0
  145.7472  136.3541  151.2671 H   0  0  0  0  0  0  0  0  0  0  0  0
  144.7615  136.7398  152.6552 H   0  0  0  0  0  0  0  0  0  0  0  0
  145.7944  138.1176  154.5365 H   0  0  0  0  0  0  0  0  0  0  0  0
  146.9561  136.8164  154.7113 H   0  0  0  0  0  0  0  0  0  0  0  0
  147.8587  138.9268  155.6504 H   0  0  0  0  0  0  0  0  0  0  0  0
  148.8444  138.3396  154.3329 H   0  0  0  0  0  0  0  0  0  0  0  0
  146.7350  140.5325  154.1533 H   0  0  0  0  0  0  0  0  0  0  0  0
  149.6962  140.8904  153.6269 H   0  0  0  0  0  0  0  0  0  0  0  0
  148.5062  142.1182  153.9651 H   0  0  0  0  0  0  0  0  0  0  0  0
  148.4735  141.2636  156.2986 H   0  0  0  0  0  0  0  0  0  0  0  0
  149.6151  140.6227  158.1170 H   0  0  0  0  0  0  0  0  0  0  0  0
  151.2013  139.8875  157.9445 H   0  0  0  0  0  0  0  0  0  0  0  0
  150.3081  143.3722  156.5927 H   0  0  0  0  0  0  0  0  0  0  0  0
  151.8975  145.1556  157.9132 H   0  0  0  0  0  0  0  0  0  0  0  0
  153.1943  143.5701  159.7806 H   0  0  0  0  0  0  0  0  0  0  0  0
  147.3891  140.7519  151.7770 H   0  0  0  0  0  0  0  0  0  0  0  0
  148.5674  139.4742  151.9538 H   0  0  0  0  0  0  0  0  0  0  0  0
  146.5143  138.6203  150.9144 H   0  0  0  0  0  0  0  0  0  0  0  0
  145.5292  139.2050  152.2375 H   0  0  0  0  0  0  0  0  0  0  0  0
  147.6455  137.1908  152.4747 H   0  0  0  0  0  0  0  0  0  0  0  0
  1  2  1  0  0  0  0
  1 21  1  0  0  0  0
  1 22  1  0  0  0  0
  1 23  1  0  0  0  0
  2  3  1  0  0  0  0
  3  4  1  0  0  0  0
  3 24  1  0  0  0  0
  3 25  1  0  0  0  0
  4  5  1  0  0  0  0
  4 26  1  0  0  0  0
  4 27  1  0  0  0  0
  5 20  1  0  0  0  0
  5  6  1  0  0  0  0
  5 45  1  0  0  0  0
  6  7  1  0  0  0  0
  6 28  1  0  0  0  0
  6 29  1  0  0  0  0
  7  8  1  0  0  0  0
  7 30  1  0  0  0  0
  7 31  1  0  0  0  0
  8  9  1  0  0  0  0
  8 19  1  0  0  0  0
  8 32  1  0  0  0  0
  9 10  1  0  0  0  0
  9 33  1  0  0  0  0
  9 34  1  0  0  0  0
 10 11  1  0  0  0  0
 10 35  1  0  0  0  0
 11 12  2  0  0  0  0
 11 13  1  0  0  0  0
 13 14  1  0  0  0  0
 13 36  1  0  0  0  0
 13 37  1  0  0  0  0
 14 18  1  0  0  0  0
 14 15  1  0  0  0  0
 15 16  2  0  0  0  0
 15 38  1  0  0  0  0
 16 17  1  0  0  0  0
 16 39  1  0  0  0  0
 17 18  2  0  0  0  0
 17 40  1  0  0  0  0
 19 20  1  0  0  0  0
 19 41  1  0  0  0  0
 19 42  1  0  0  0  0
 20 43  1  0  0  0  0
 20 44  1  0  0  0  0
M  CHG  1   5   1
M  END
> <s_m_source_file>
AV-unprocessed.smi

> <i_m_source_file_index>
1118

> <i_lp_mmshare_version>
43012

> <i_f3d_flags>
0

> <s_epik_input>
W0NIM11PW0NIMl1bQ0gyXU4xW0NIMl1bQ0gyXVtDSF0oW0NIMl1bQ0gyXTEpW0NIMl1bTkhdQyg9TylbQ0gyXW4yW2NIXVtjSF1bY0hdbjI=

> <s_epik_cmdline>
J2VwaWtfcHl0aG9uJywgJy1waCcsICc3LjAnLCAnLXRuJywgJzgnLCAnLW1hJywgJzIwMCcsICctbWV0YWxfYmluZGluZycsICctaW1hZScsICc8aW5maWxlLm1hZT4nLCAnLW9tYWUnLCAnPG91dGZpbGUubWFlPic=

> <r_lp_tautomer_probability>
1

> <r_epik_Ionization_Penalty>
0.00991549

> <r_epik_Ionization_Penalty_Charging>
0.00990284

> <r_epik_Ionization_Penalty_Neutral>
1.26554e-05

> <r_epik_State_Penalty>
0.00754525

> <r_epik_Charging_Adjusted_Penalty>
0.0174481

> <i_epik_Tot_Q>
1

> <i_epik_Tot_abs_Q>
1

> <r_epik_Metal_State_Penalty>
0.00754527

> <b_epik_Metal_Only>
0

> <s_lp_Force_Field>
OPLS_2005

> <r_lp_Energy>
19.0863

> <b_lp_Chiralities_Consistent>
1

> <s_lp_Variant>
AV-unprocessed.smi:1118-1

> <Gold.Version>
5.8.1

> <Gold.Id.Protein>
6NUR|6NUR_protein|mol2

> <Gold.PLP.Fitness>
43.6812

> <Gold.PLP.PLP>
-33.5788

> <Gold.PLP.part.hbond>
-2.0000

> <Gold.PLP.part.metal>
0.0000

> <Gold.PLP.part.buried>
2.8825

> <Gold.PLP.part.nonpolar>
-34.2191

> <Gold.PLP.part.repulsive>
0.2587

> <Gold.PLP.ligand.clash>
0.0000

> <Gold.PLP.ligand.torsion>
0.9966

> <Gold.PLP.Chemscore.Hbond>
2.9920

> <Gold.PLP.Chemscore.CHOScore>
1.0000

> <Gold.PLP.Chemscore.Metal>
0.0000

> <Gold.Chemscore.Hbonds>
donor molecule, donor type, donor heavy atom, donor atom, acceptor molecule, acceptor atom, score
      L1  H     5    45       P1  7948  2.00
      P1  H  7989  7998       L1    12  1.00
      L1  C    15    38       P1  8028  1.00

> <Gold.PLP.Chemscore.Internal.Correction>
0.1196

> <Gold.Rescore>
     Score         DG    S(hbond)    S(metal)    S(lipo)     H(rot)  DE(clash)    DE(int)     intcor
     14.69     -17.35       1.96        0.00      93.99       2.22       1.91       0.74       ----

> <Gold.Chemscore.Fitness>
14.6923

> <Gold.Chemscore.DG>
-17.3486

> <Gold.Chemscore.ZeroCoef>
-5.4800

> <Gold.Chemscore.Hbond>
1.9600

> <Gold.Chemscore.Metal>
0.0000

> <Gold.Chemscore.Lipo>
93.9877

> <Gold.Chemscore.Internal_Hbond>
0.0000

> <Gold.Chemscore.DEClash>
1.9145

> <Gold.Chemscore.DEInternal>
0.7417

> <Gold.Chemscore.Rot>
2.2166

> <Gold.Chemscore.Internal.Correction>
   9.000000E+99

> <Gold.Chemscore.Hbonds>
donor molecule, donor type, donor heavy atom, donor atom, acceptor molecule, acceptor atom, score
      L1  H     5    45       P1  7948  1.00
      P1  H  7989  7998       L1    12  0.92

> <Gold.Chemscore.Hbond.Weighted>
-6.5465

> <Gold.Chemscore.Metal.Weighted>
-0.0000

> <Gold.Chemscore.Lipo.Weighted>
-10.9966

> <Gold.Chemscore.Internal_Hbond.Weighted>
0.0000

> <Gold.Chemscore.DEClash.Weighted>
1.9145

> <Gold.Chemscore.DEInternal.Weighted>
0.7417

> <Gold.Chemscore.Rot.Weighted>
5.6745

> <Gold.Chemscore.Internal.Correction.Weighted>
   9.000000E+99

> <Gold.Protein.RotatedTorsions>
[ 6907 6896 6895 6894 ] final  -48.92 input  -60.11 | X-H torsion
[ 7974 7965 7964 7962 ] final   31.69 input  175.53 | X-H torsion
[ 8008 7997 7996 7995 ] final   96.66 input   59.86 | X-H torsion
[ 10167 10162 10161 10158 ] final  -50.83 input  -65.29 | X-H torsion
[ 10718 10713 10712 10709 ] final   -4.35 input   66.30 | X-H torsion
[ 10763 10752 10751 10750 ] final -148.45 input  -60.55 | X-H torsion
[ 11005 11000 10999 10996 ] final    4.42 input  -57.11 | X-H torsion

> <Gold.Protein.ActiveResidues>
 VAL166  LYS551  ARG553  GLY616  TRP617  ASP618  TYR619  PRO620  LYS621  CYS622 
 ASP623  PHE694  ASN695  SER759  ASP760  ASP761  ALA762  ILE779  LEU786  VAL792 
 PHE793  MET794  SER795  GLU796  ALA797  LYS798  CYS799  TRP800  GLU811  SER814 

> <Gold.Protein.RotatedAtoms>
  150.8857  134.8254  159.7256 H   0  0  0  0  0  0  0  0  0  0  0  0  # atno 6907 bound_to 6896
  152.4806  134.4727  159.9650 H   0  0  0  0  0  0  0  0  0  0  0  0  # atno 6908 bound_to 6896
  151.4796  133.3511  159.2871 H   0  0  0  0  0  0  0  0  0  0  0  0  # atno 6909 bound_to 6896
  146.1534  139.6624  142.9083 H   0  0  0  0  0  0  0  0  0  0  0  0  # atno 7974 bound_to 7965
  156.0819  140.3269  155.7705 H   0  0  0  0  0  0  0  0  0  0  0  0  # atno 8008 bound_to 7997
  155.5138  140.0579  157.2936 H   0  0  0  0  0  0  0  0  0  0  0  0  # atno 8009 bound_to 7997
  154.4587  140.1956  156.0322 H   0  0  0  0  0  0  0  0  0  0  0  0  # atno 8010 bound_to 7997
  140.6618  143.2642  151.4416 H   0  0  0  0  0  0  0  0  0  0  0  0  # atno 10167 bound_to 10162
  156.7626  130.5274  149.5782 H   0  0  0  0  0  0  0  0  0  0  0  0  # atno 10718 bound_to 10713
  154.8232  135.3334  154.6976 H   0  0  0  0  0  0  0  0  0  0  0  0  # atno 10763 bound_to 10752
  153.7605  135.6933  153.4931 H   0  0  0  0  0  0  0  0  0  0  0  0  # atno 10764 bound_to 10752
  153.2113  135.4481  155.0332 H   0  0  0  0  0  0  0  0  0  0  0  0  # atno 10765 bound_to 10752
  140.5821  134.0003  155.8052 H   0  0  0  0  0  0  0  0  0  0  0  0  # atno 11005 bound_to 11000
  145.4768  141.0437  143.2668 LP  0  0  0  0  0  0  0  0  0  0  0  0  # atno 17320 bound_to 7965
  144.7932  139.6285  143.7104 LP  0  0  0  0  0  0  0  0  0  0  0  0  # atno 17321 bound_to 7965
  139.5854  144.1615  152.2023 LP  0  0  0  0  0  0  0  0  0  0  0  0  # atno 17342 bound_to 10162
  140.0953  144.5586  150.7026 LP  0  0  0  0  0  0  0  0  0  0  0  0  # atno 17343 bound_to 10162
  156.1329  130.6190  151.0359 LP  0  0  0  0  0  0  0  0  0  0  0  0  # atno 17370 bound_to 10713
  157.6727  131.0857  150.7571 LP  0  0  0  0  0  0  0  0  0  0  0  0  # atno 17371 bound_to 10713
  141.0989  133.9799  157.3112 LP  0  0  0  0  0  0  0  0  0  0  0  0  # atno 17394 bound_to 11000
  139.9312  135.0200  156.8407 LP  0  0  0  0  0  0  0  0  0  0  0  0  # atno 17395 bound_to 11000

$$$$
