#       Name:                AV-unprocessed.smi:38
#       Creating user name   scv26
#       Creation time:       Thu Mar 26 16:17:40 2020


#       File generated by GOLD software.
#

@<TRIPOS>MOLECULE
AV-unprocessed.smi:38
    38    39     1
SMALL
NO_CHARGES


@<TRIPOS>ATOM
      1 ****        -4.1614   3.0632  -1.6784 O.2            1 S1                 0.0000
      2 ****        -3.2336   2.4424  -1.1633 C.2            1 S1                 0.0000
      3 ****        -2.9692   2.5787   0.2027 N.am           1 S1                 0.0000
      4 ****        -1.9475   1.9314   0.9006 C.2            1 S1                 0.0000
      5 ****        -1.8203   2.1165   2.1101 O.2            1 S1                 0.0000
      6 ****        -1.1047   1.0734   0.1591 N.am           1 S1                 0.0000
      7 ****         0.0246   0.3484   0.8543 C.3            1 S1                 0.0000
      8 ****        -0.3550  -1.1078   1.1423 C.3            1 S1                 0.0000
      9 ****         0.9388  -1.8402   0.8468 C.3            1 S1                 0.0000
     10 ****         1.7648  -1.8758   1.9957 O.3            1 S1                 0.0000
     11 ****         1.5408  -0.9883  -0.2800 C.3            1 S1                 0.0000
     12 ****         3.0628  -1.0790  -0.4858 C.3            1 S1                 0.0000
     13 ****         3.4243  -2.3786  -0.9025 O.3            1 S1                 0.0000
     14 ****         1.1449   0.3486   0.0179 O.3            1 S1                 0.0000
     15 ****        -1.3387   0.8975  -1.1982 C.2            1 S1                 0.0000
     16 ****        -2.3356   1.5282  -1.8625 C.2            1 S1                 0.0000
     17 ****        -2.5018   1.3053  -3.1773 F              1 S1                 0.0000
     18 ****        -3.5709   3.1948   0.7300 H              1 S1                 0.0000
     19 ****         0.2897   0.9095   1.7515 H              1 S1                 0.0000
     20 ****         0.7581  -2.8660   0.5239 H              1 S1                 0.0000
     21 ****         1.0448  -1.2609  -1.2128 H              1 S1                 0.0000
     22 ****        -0.7245  -1.2307   2.1611 H              1 S1                 0.0000
     23 ****        -1.1309  -1.4306   0.4464 H              1 S1                 0.0000
     24 ****         2.5698  -2.3180   1.7714 H              1 S1                 0.0000
     25 ****         3.3741  -0.3746  -1.2574 H              1 S1                 0.0000
     26 ****         3.6077  -0.8164   0.4211 H              1 S1                 0.0000
     27 ****         4.3568  -2.3962  -1.0554 H              1 S1                 0.0000
     28 ****        -0.7079   0.2262  -1.7608 H              1 S1                 0.0000
     29 ****        -4.3499   2.9612  -2.6552 LP             1 S1                 0.0000
     30 ****        -4.7275   3.6701  -1.1206 LP             1 S1                 0.0000
     31 ****        -2.4476   2.7291   2.5908 LP             1 S1                 0.0000
     32 ****        -1.0896   1.6543   2.6125 LP             1 S1                 0.0000
     33 ****         1.3007  -2.3713   2.7300 LP             1 S1                 0.0000
     34 ****         1.9644  -0.9434   2.2970 LP             1 S1                 0.0000
     35 ****         2.9398  -2.6093  -1.7463 LP             1 S1                 0.0000
     36 ****         3.1867  -3.0394  -0.1905 LP             1 S1                 0.0000
     37 ****         1.8980   0.8214   0.4754 LP             1 S1                 0.0000
     38 ****         0.9211   0.8236  -0.8331 LP             1 S1                 0.0000
@<TRIPOS>BOND
    1    1    2 2     
    2    2   16 1     
    3    2    3 1     
    4    3   18 1     
    5    3    4 1     
    6    4    5 2     
    7    4    6 1     
    8    6    7 1     
    9    6   15 1     
   10    7   19 1     
   11    7   14 1     
   12    7    8 1     
   13    8    9 1     
   14    8   22 1     
   15    8   23 1     
   16    9   20 1     
   17    9   10 1     
   18    9   11 1     
   19   10   24 1     
   20   11   21 1     
   21   11   12 1     
   22   11   14 1     
   23   12   13 1     
   24   12   25 1     
   25   12   26 1     
   26   13   27 1     
   27   15   16 2     
   28   15   28 1     
   29   16   17 1     
   30    1   29 1     
   31    1   30 1     
   32    5   31 1     
   33    5   32 1     
   34   10   33 1     
   35   10   34 1     
   36   13   35 1     
   37   13   36 1     
   38   14   37 1     
   39   14   38 1     
@<TRIPOS>SUBSTRUCTURE
      1 S1             1
@<TRIPOS>SET
LONE_PAIRS      STATIC     ATOMS    <user>   **** ""
10 29 30 31 32 33 34 35 36 37 38
DONOR_HYDROGENS      STATIC     ATOMS    <user>   **** ""
3 18 24 27
ATOM$BLUE        STATIC     ATOMS    COLORGROUP SYSTEM
10 29 30 31 32 33 34 35 36 37 38
ATOM$RED        STATIC     ATOMS    COLORGROUP SYSTEM
3 18 24 27
