AV-unprocessed.smi:2243|AV-procd|sdf|9067|dock1
  -GOLD-   2272012273D 1   1.00000     0.00000
 Structure written by MMmdl.
 34 35  0  0  0  0  0  0  0  0  1 V2000
  147.9513  141.6956  154.1171 C   0  0  0  0  0  0  0  0  0  0  0  0
  148.3115  140.2044  154.2293 C   0  0  1  0  0  0  0  0  0  0  0  0
  147.8307  139.5334  153.0205 N   0  0  0  0  0  0  0  0  0  0  0  0
  146.7602  138.7289  152.9240 C   0  0  0  0  0  0  0  0  0  0  0  0
  146.0524  138.4689  153.9020 O   0  0  0  0  0  0  0  0  0  0  0  0
  146.6253  138.2824  151.6174 N   0  0  0  0  0  0  0  0  0  0  0  0
  145.9900  137.1774  151.3764 C   0  0  0  0  0  0  0  0  0  0  0  0
  145.7627  136.5847  150.1445 N   0  0  0  0  0  0  0  0  0  0  0  0
  145.0542  135.4333  150.3502 C   0  0  0  0  0  0  0  0  0  0  0  0
  144.8427  135.3053  151.6567 C   0  0  0  0  0  0  0  0  0  0  0  0
  145.4038  136.3583  152.3139 O   0  0  0  0  0  0  0  0  0  0  0  0
  149.8308  139.9523  154.4227 C   0  0  0  0  0  0  0  0  0  0  0  0
  150.1892  138.4503  154.4271 C   0  0  0  0  0  0  0  0  0  0  0  0
  151.6872  138.2333  154.6946 C   0  0  0  0  0  0  0  0  0  0  0  0
  152.0564  138.8407  155.9262 O   0  0  0  0  0  0  0  0  0  0  0  0
  151.8630  140.2494  155.9209 C   0  0  0  0  0  0  0  0  0  0  0  0
  150.3737  140.5760  155.7244 C   0  0  0  0  0  0  0  0  0  0  0  0
  148.1510  142.2315  155.0444 H   0  0  0  0  0  0  0  0  0  0  0  0
  146.8904  141.8252  153.9004 H   0  0  0  0  0  0  0  0  0  0  0  0
  148.5141  142.1817  153.3195 H   0  0  0  0  0  0  0  0  0  0  0  0
  147.7916  139.8108  155.1043 H   0  0  0  0  0  0  0  0  0  0  0  0
  148.3608  139.6990  152.1772 H   0  0  0  0  0  0  0  0  0  0  0  0
  146.0496  136.9082  149.2320 H   0  0  0  0  0  0  0  0  0  0  0  0
  144.7692  134.8107  149.5150 H   0  0  0  0  0  0  0  0  0  0  0  0
  144.3353  134.5582  152.2486 H   0  0  0  0  0  0  0  0  0  0  0  0
  150.3581  140.4147  153.5866 H   0  0  0  0  0  0  0  0  0  0  0  0
  149.6071  137.9342  155.1917 H   0  0  0  0  0  0  0  0  0  0  0  0
  149.9309  137.9865  153.4749 H   0  0  0  0  0  0  0  0  0  0  0  0
  151.9049  137.1667  154.7506 H   0  0  0  0  0  0  0  0  0  0  0  0
  152.2909  138.6378  153.8807 H   0  0  0  0  0  0  0  0  0  0  0  0
  152.2121  140.6547  156.8706 H   0  0  0  0  0  0  0  0  0  0  0  0
  152.4689  140.7084  155.1379 H   0  0  0  0  0  0  0  0  0  0  0  0
  150.2517  141.6587  155.7160 H   0  0  0  0  0  0  0  0  0  0  0  0
  149.8060  140.2035  156.5781 H   0  0  0  0  0  0  0  0  0  0  0  0
  1  2  1  0  0  0  0
  1 18  1  0  0  0  0
  1 19  1  0  0  0  0
  1 20  1  0  0  0  0
  2  3  1  0  0  0  0
  2 12  1  0  0  0  0
  2 21  1  0  0  0  0
  3 22  1  0  0  0  0
  3  4  1  0  0  0  0
  4  6  1  0  0  0  0
  4  5  2  0  0  0  0
  6  7  2  0  0  0  0
  7 11  1  0  0  0  0
  7  8  1  0  0  0  0
  8 23  1  0  0  0  0
  8  9  1  0  0  0  0
  9 24  1  0  0  0  0
  9 10  2  0  0  0  0
 10 25  1  0  0  0  0
 10 11  1  0  0  0  0
 12 17  1  0  0  0  0
 12 13  1  0  0  0  0
 12 26  1  0  0  0  0
 13 14  1  0  0  0  0
 13 27  1  0  0  0  0
 13 28  1  0  0  0  0
 14 15  1  0  0  0  0
 14 29  1  0  0  0  0
 14 30  1  0  0  0  0
 15 16  1  0  0  0  0
 16 17  1  0  0  0  0
 16 31  1  0  0  0  0
 16 32  1  0  0  0  0
 17 33  1  0  0  0  0
 17 34  1  0  0  0  0
M  END
> <s_m_source_file>
AV-unprocessed.smi

> <i_m_source_file_index>
2243

> <i_lp_mmshare_version>
43012

> <i_f3d_flags>
0

> <s_epik_input>
W0NIMl0xW0NIMl1PW0NIMl1bQ0gyXVtDSF0xW0NASF0oW0NIM10pW05IXUMoPU8pW05IXWMybltjSF1bY0hdbzI=

> <s_epik_cmdline>
J2VwaWtfcHl0aG9uJywgJy1waCcsICc3LjAnLCAnLXRuJywgJzgnLCAnLW1hJywgJzIwMCcsICctbWV0YWxfYmluZGluZycsICctaW1hZScsICc8aW5maWxlLm1hZT4nLCAnLW9tYWUnLCAnPG91dGZpbGUubWFlPic=

> <r_lp_tautomer_probability>
0.107061

> <r_epik_Ionization_Penalty>
1.44639

> <r_epik_Ionization_Penalty_Charging>
1.44602

> <r_epik_Ionization_Penalty_Neutral>
0.000368208

> <r_epik_State_Penalty>
2.61815

> <r_epik_Charging_Adjusted_Penalty>
4.06418

> <i_epik_Tot_Q>
0

> <i_epik_Tot_abs_Q>
0

> <r_epik_Metal_State_Penalty>
3.54171

> <b_epik_Metal_Only>
0

> <s_lp_Force_Field>
OPLS_2005

> <r_lp_Energy>
34.6671

> <b_lp_Chiralities_Consistent>
1

> <s_lp_Variant>
AV-unprocessed.smi:2243-6

> <Gold.Version>
5.8.1

> <Gold.Id.Protein>
6NUR|6NUR_protein|mol2

> <Gold.PLP.Fitness>
36.7074

> <Gold.PLP.PLP>
-31.8071

> <Gold.PLP.part.hbond>
-2.6520

> <Gold.PLP.part.metal>
0.0000

> <Gold.PLP.part.buried>
-0.9653

> <Gold.PLP.part.nonpolar>
-29.5587

> <Gold.PLP.part.repulsive>
0.9056

> <Gold.PLP.ligand.clash>
0.0000

> <Gold.PLP.ligand.torsion>
0.2728

> <Gold.PLP.Chemscore.Hbond>
1.0739

> <Gold.PLP.Chemscore.CHOScore>
0.7342

> <Gold.PLP.Chemscore.Metal>
0.0000

> <Gold.Chemscore.Hbonds>
donor molecule, donor type, donor heavy atom, donor atom, acceptor molecule, acceptor atom, score
      L1  H     3    22       P1  7957  1.00
      P1  H  7954  7966       L1     6  0.13
      L1  C     9    24       P1  7921  0.76

> <Gold.PLP.Chemscore.Internal.Correction>
0.0215

> <Gold.Rescore>
     Score         DG    S(hbond)    S(metal)    S(lipo)     H(rot)  DE(clash)    DE(int)     intcor
     10.45     -12.53       1.00        0.00      60.58       1.32       0.35       1.73       ----

> <Gold.Chemscore.Fitness>
10.4491

> <Gold.Chemscore.DG>
-12.5310

> <Gold.Chemscore.ZeroCoef>
-5.4800

> <Gold.Chemscore.Hbond>
1.0006

> <Gold.Chemscore.Metal>
0.0000

> <Gold.Chemscore.Lipo>
60.5835

> <Gold.Chemscore.Internal_Hbond>
0.0000

> <Gold.Chemscore.DEClash>
0.3480

> <Gold.Chemscore.DEInternal>
1.7339

> <Gold.Chemscore.Rot>
1.3201

> <Gold.Chemscore.Internal.Correction>
   9.000000E+99

> <Gold.Chemscore.Hbonds>
donor molecule, donor type, donor heavy atom, donor atom, acceptor molecule, acceptor atom, score
      L1  H     3    22       P1  7957  0.99
      P1  H  7954  7966       L1     6  0.01

> <Gold.Chemscore.Hbond.Weighted>
-3.3421

> <Gold.Chemscore.Metal.Weighted>
-0.0000

> <Gold.Chemscore.Lipo.Weighted>
-7.0883

> <Gold.Chemscore.Internal_Hbond.Weighted>
0.0000

> <Gold.Chemscore.DEClash.Weighted>
0.3480

> <Gold.Chemscore.DEInternal.Weighted>
1.7339

> <Gold.Chemscore.Rot.Weighted>
3.3794

> <Gold.Chemscore.Internal.Correction.Weighted>
   9.000000E+99

> <Gold.Protein.RotatedTorsions>
[ 6907 6896 6895 6894 ] final  125.23 input  -60.11 | X-H torsion
[ 7974 7965 7964 7962 ] final -174.26 input  175.53 | X-H torsion
[ 8008 7997 7996 7995 ] final  -38.64 input   59.86 | X-H torsion
[ 10167 10162 10161 10158 ] final  -40.12 input  -65.29 | X-H torsion
[ 10718 10713 10712 10709 ] final  -96.51 input   66.30 | X-H torsion
[ 10763 10752 10751 10750 ] final -103.44 input  -60.55 | X-H torsion
[ 11005 11000 10999 10996 ] final  -21.54 input  -57.11 | X-H torsion

> <Gold.Protein.ActiveResidues>
 VAL166  LYS551  ARG553  GLY616  TRP617  ASP618  TYR619  PRO620  LYS621  CYS622 
 ASP623  PHE694  ASN695  SER759  ASP760  ASP761  ALA762  ILE779  LEU786  VAL792 
 PHE793  MET794  SER795  GLU796  ALA797  LYS798  CYS799  TRP800  GLU811  SER814 

> <Gold.Protein.RotatedAtoms>
  152.4010  133.6817  159.6315 H   0  0  0  0  0  0  0  0  0  0  0  0  # atno 6907 bound_to 6896
  150.7901  133.8792  159.3289 H   0  0  0  0  0  0  0  0  0  0  0  0  # atno 6908 bound_to 6896
  151.6557  135.0997  160.0221 H   0  0  0  0  0  0  0  0  0  0  0  0  # atno 6909 bound_to 6896
  144.7133  140.1498  143.6385 H   0  0  0  0  0  0  0  0  0  0  0  0  # atno 7974 bound_to 7965
  154.4034  140.1572  156.2734 H   0  0  0  0  0  0  0  0  0  0  0  0  # atno 8008 bound_to 7997
  155.8933  140.3437  155.5950 H   0  0  0  0  0  0  0  0  0  0  0  0  # atno 8009 bound_to 7997
  155.7532  140.0808  157.2181 H   0  0  0  0  0  0  0  0  0  0  0  0  # atno 8010 bound_to 7997
  140.7044  143.3173  151.2879 H   0  0  0  0  0  0  0  0  0  0  0  0  # atno 10167 bound_to 10162
  156.0064  130.5154  150.6237 H   0  0  0  0  0  0  0  0  0  0  0  0  # atno 10718 bound_to 10713
  154.7808  135.4823  153.9839 H   0  0  0  0  0  0  0  0  0  0  0  0  # atno 10763 bound_to 10752
  153.1490  135.6787  153.8917 H   0  0  0  0  0  0  0  0  0  0  0  0  # atno 10764 bound_to 10752
  153.8568  135.3160  155.3414 H   0  0  0  0  0  0  0  0  0  0  0  0  # atno 10765 bound_to 10752
  140.8571  133.7815  156.0032 H   0  0  0  0  0  0  0  0  0  0  0  0  # atno 11005 bound_to 11000
  145.9126  139.2496  143.1428 LP  0  0  0  0  0  0  0  0  0  0  0  0  # atno 17320 bound_to 7965
  145.9700  140.8767  143.0167 LP  0  0  0  0  0  0  0  0  0  0  0  0  # atno 17321 bound_to 7965
  139.6615  144.0180  152.2695 LP  0  0  0  0  0  0  0  0  0  0  0  0  # atno 17342 bound_to 10162
  139.9749  144.6468  150.7954 LP  0  0  0  0  0  0  0  0  0  0  0  0  # atno 17343 bound_to 10162
  157.4048  131.0815  151.1276 LP  0  0  0  0  0  0  0  0  0  0  0  0  # atno 17370 bound_to 10713
  157.1926  130.6358  149.5710 LP  0  0  0  0  0  0  0  0  0  0  0  0  # atno 17371 bound_to 10713
  140.8725  134.2709  157.5184 LP  0  0  0  0  0  0  0  0  0  0  0  0  # atno 17394 bound_to 11000
  139.8705  134.9574  156.4268 LP  0  0  0  0  0  0  0  0  0  0  0  0  # atno 17395 bound_to 11000

$$$$
