#       Name:                AV-unprocessed.smi:258
#       Creating user name   scv26
#       Creation time:       Thu Mar 26 21:12:45 2020


#       File generated by GOLD software.
#

@<TRIPOS>MOLECULE
AV-unprocessed.smi:258
    68    71     1
SMALL
NO_CHARGES


@<TRIPOS>ATOM
      1 ****        -6.8430   4.2160  -0.8908 O.3            1 S1                 0.0000
      2 ****        -5.9941   4.0646  -2.0086 C.3            1 S1                 0.0000
      3 ****        -5.7511   2.5769  -2.2910 C.3            1 S1                 0.0000
      4 ****        -4.7002   2.1143  -1.4551 O.3            1 S1                 0.0000
      5 ****        -4.3621   0.7449  -1.6330 C.3            1 S1                 0.0000
      6 ****        -5.3550  -0.1721  -0.8923 C.3            1 S1                 0.0000
      7 ****        -4.8894  -1.6335  -0.9747 C.3            1 S1                 0.0000
      8 ****        -3.4544  -1.7906  -0.4459 C.3            1 S1                 0.0000
      9 ****        -2.5449  -0.8579  -1.1140 N.pl3          1 S1                 0.0000
     10 ****        -1.2231  -1.1694  -1.0604 C.ar           1 S1                 0.0000
     11 ****        -0.8515  -2.3872  -1.5359 N.ar           1 S1                 0.0000
     12 ****         0.4318  -2.7575  -1.5311 C.ar           1 S1                 0.0000
     13 ****         1.4946  -2.0760  -1.1029 N.ar           1 S1                 0.0000
     14 ****         1.1331  -0.8553  -0.6157 C.ar           1 S1                 0.0000
     15 ****        -0.1882  -0.3235  -0.5556 C.ar           1 S1                 0.0000
     16 ****        -0.1494   0.9455   0.0152 N.2            1 S1                 0.0000
     17 ****         1.1136   1.1530   0.2660 C.2            1 S1                 0.0000
     18 ****         1.9536   0.1197  -0.0777 N.pl3          1 S1                 0.0000
     19 ****         3.3956   0.0772   0.0852 C.3            1 S1                 0.0000
     20 ****         3.8667  -0.8534   1.2297 C.3            1 S1                 0.0000
     21 ****         3.2738  -0.4662   2.6093 C.3            1 S1                 0.0000
     22 ****         1.9544  -0.9477   2.7611 O.3            1 S1                 0.0000
     23 ****         5.4144  -0.9443   1.2319 C.3            1 S1                 0.0000
     24 ****         6.1597   0.3043   1.6906 C.3            1 S1                 0.0000
     25 ****         7.4677  -0.2771   2.2081 C.3            1 S1                 0.0000
     26 ****         7.0445  -1.4554   2.8735 O.3            1 S1                 0.0000
     27 ****         6.0116  -2.0628   2.1042 C.3            1 S1                 0.0000
     28 ****        -2.9406   0.5492  -1.0781 C.3            1 S1                 0.0000
     29 ****        -6.9830   5.1388  -0.7427 H              1 S1                 0.0000
     30 ****        -6.4900   4.5262  -2.8626 H              1 S1                 0.0000
     31 ****        -5.0562   4.5982  -1.8521 H              1 S1                 0.0000
     32 ****        -6.6683   2.0019  -2.1595 H              1 S1                 0.0000
     33 ****        -5.4431   2.4593  -3.3309 H              1 S1                 0.0000
     34 ****        -4.3516   0.4970  -2.6962 H              1 S1                 0.0000
     35 ****        -5.4287   0.1320   0.1526 H              1 S1                 0.0000
     36 ****        -6.3556  -0.0861  -1.3147 H              1 S1                 0.0000
     37 ****        -5.5663  -2.2752  -0.4102 H              1 S1                 0.0000
     38 ****        -4.9337  -1.9715  -2.0108 H              1 S1                 0.0000
     39 ****        -3.4292  -1.5916   0.6261 H              1 S1                 0.0000
     40 ****        -3.1392  -2.8257  -0.5788 H              1 S1                 0.0000
     41 ****         0.6364  -3.7403  -1.9298 H              1 S1                 0.0000
     42 ****         1.4674   2.0684   0.7173 H              1 S1                 0.0000
     43 ****         3.8246  -0.2456  -0.8641 H              1 S1                 0.0000
     44 ****         3.7528   1.0939   0.2539 H              1 S1                 0.0000
     45 ****         3.5157  -1.8596   0.9947 H              1 S1                 0.0000
     46 ****         3.8609  -0.8851   3.4255 H              1 S1                 0.0000
     47 ****         3.2776   0.6156   2.7454 H              1 S1                 0.0000
     48 ****         1.6409  -0.7032   3.6185 H              1 S1                 0.0000
     49 ****         5.7381  -1.1535   0.2106 H              1 S1                 0.0000
     50 ****         6.3080   1.0301   0.8906 H              1 S1                 0.0000
     51 ****         5.6421   0.8046   2.5087 H              1 S1                 0.0000
     52 ****         8.1339  -0.5386   1.3845 H              1 S1                 0.0000
     53 ****         7.9957   0.3988   2.8812 H              1 S1                 0.0000
     54 ****         5.2852  -2.5324   2.7667 H              1 S1                 0.0000
     55 ****         6.4365  -2.8486   1.4784 H              1 S1                 0.0000
     56 ****        -2.2453   1.1502  -1.6656 H              1 S1                 0.0000
     57 ****        -2.8925   0.9054  -0.0482 H              1 S1                 0.0000
     58 ****        -6.4157   3.8062  -0.0849 LP             1 S1                 0.0000
     59 ****        -7.7184   3.7665  -1.0688 LP             1 S1                 0.0000
     60 ****        -4.9776   2.2461  -0.5034 LP             1 S1                 0.0000
     61 ****        -3.8863   2.6637  -1.6442 LP             1 S1                 0.0000
     62 ****        -1.5458  -3.0121  -1.8929 LP             1 S1                 0.0000
     63 ****         2.4345  -2.4160  -1.1350 LP             1 S1                 0.0000
     64 ****        -0.9178   1.5603   0.1931 LP             1 S1                 0.0000
     65 ****         1.9468  -1.9436   2.6710 LP             1 S1                 0.0000
     66 ****         1.3661  -0.5450   2.0598 LP             1 S1                 0.0000
     67 ****         6.6965  -1.2233   3.7818 LP             1 S1                 0.0000
     68 ****         7.8144  -2.0872   2.9630 LP             1 S1                 0.0000
@<TRIPOS>BOND
    1    1    2 1     
    2    1   29 1     
    3    2    3 1     
    4    2   30 1     
    5    2   31 1     
    6    3    4 1     
    7    3   32 1     
    8    3   33 1     
    9    4    5 1     
   10    5   28 1     
   11    5    6 1     
   12    5   34 1     
   13    6    7 1     
   14    6   35 1     
   15    6   36 1     
   16    7    8 1     
   17    7   37 1     
   18    7   38 1     
   19    8    9 1     
   20    8   39 1     
   21    8   40 1     
   22    9   10 1     
   23    9   28 1     
   24   10   15 ar    
   25   10   11 ar    
   26   11   12 ar    
   27   12   13 ar    
   28   12   41 1     
   29   13   14 ar    
   30   14   18 1     
   31   14   15 ar    
   32   15   16 1     
   33   16   17 2     
   34   17   18 1     
   35   17   42 1     
   36   18   19 1     
   37   19   20 1     
   38   19   43 1     
   39   19   44 1     
   40   20   21 1     
   41   20   23 1     
   42   20   45 1     
   43   21   22 1     
   44   21   46 1     
   45   21   47 1     
   46   22   48 1     
   47   23   27 1     
   48   23   24 1     
   49   23   49 1     
   50   24   25 1     
   51   24   50 1     
   52   24   51 1     
   53   25   26 1     
   54   25   52 1     
   55   25   53 1     
   56   26   27 1     
   57   27   54 1     
   58   27   55 1     
   59   28   56 1     
   60   28   57 1     
   61    1   58 1     
   62    1   59 1     
   63    4   60 1     
   64    4   61 1     
   65   11   62 1     
   66   13   63 1     
   67   16   64 1     
   68   22   65 1     
   69   22   66 1     
   70   26   67 1     
   71   26   68 1     
@<TRIPOS>SUBSTRUCTURE
      1 S1             1
@<TRIPOS>SET
LONE_PAIRS      STATIC     ATOMS    <user>   **** ""
11 58 59 60 61 62 63 64 65 66 67 68
DONOR_HYDROGENS      STATIC     ATOMS    <user>   **** ""
2 29 48
ATOM$BLUE        STATIC     ATOMS    COLORGROUP SYSTEM
11 58 59 60 61 62 63 64 65 66 67 68
ATOM$RED        STATIC     ATOMS    COLORGROUP SYSTEM
2 29 48
