#       Name:                AV-unprocessed.smi:877
#       Creating user name   scv26
#       Creation time:       Fri Mar 27 01:51:59 2020


#       File generated by GOLD software.
#

@<TRIPOS>MOLECULE
AV-unprocessed.smi:877
    50    52     1
SMALL
NO_CHARGES


@<TRIPOS>ATOM
      1 ****        -2.4597   5.4184  -2.6932 C.3            1 S1                 0.0000
      2 ****        -2.5592   5.1951  -1.2943 O.3            1 S1                 0.0000
      3 ****        -1.8100   4.1764  -0.7457 C.ar           1 S1                 0.0000
      4 ****        -0.9557   3.3251  -1.4914 C.ar           1 S1                 0.0000
      5 ****        -0.2260   2.3064  -0.8486 C.ar           1 S1                 0.0000
      6 ****        -0.3374   2.1217   0.5439 C.ar           1 S1                 0.0000
      7 ****         0.4486   1.0167   1.2290 C.3            1 S1                 0.0000
      8 ****        -0.1977  -0.3384   1.1240 C.2            1 S1                 0.0000
      9 ****        -1.5236  -0.4952   1.0894 N.2            1 S1                 0.0000
     10 ****        -1.6711  -1.8642   0.9965 C.ar           1 S1                 0.0000
     11 ****        -2.8363  -2.6596   0.9161 C.ar           1 S1                 0.0000
     12 ****        -2.7375  -4.0637   0.8288 C.ar           1 S1                 0.0000
     13 ****        -1.4748  -4.6911   0.8223 C.ar           1 S1                 0.0000
     14 ****        -0.3015  -3.9165   0.9022 C.ar           1 S1                 0.0000
     15 ****        -0.4062  -2.5151   0.9875 C.ar           1 S1                 0.0000
     16 ****         0.5269  -1.4869   1.0768 N.pl3          1 S1                 0.0000
     17 ****         1.9738  -1.6584   1.1108 C.3            1 S1                 0.0000
     18 ****         2.5751  -1.8850  -0.2911 C.3            1 S1                 0.0000
     19 ****         2.3001  -0.7651  -1.1101 O.3            1 S1                 0.0000
     20 ****         4.0983  -2.0882  -0.2336 C.3            1 S1                 0.0000
     21 ****         4.5665  -2.6193  -1.4559 O.3            1 S1                 0.0000
     22 ****        -1.1842   2.9648   1.2911 C.ar           1 S1                 0.0000
     23 ****        -1.9134   3.9828   0.6473 C.ar           1 S1                 0.0000
     24 ****        -3.1055   6.2511  -2.9716 H              1 S1                 0.0000
     25 ****        -2.7848   4.5457  -3.2613 H              1 S1                 0.0000
     26 ****        -1.4409   5.6799  -2.9827 H              1 S1                 0.0000
     27 ****        -0.8432   3.4315  -2.5594 H              1 S1                 0.0000
     28 ****         0.4186   1.6626  -1.4293 H              1 S1                 0.0000
     29 ****         1.4421   1.0000   0.7831 H              1 S1                 0.0000
     30 ****         0.5842   1.2567   2.2840 H              1 S1                 0.0000
     31 ****        -3.8078  -2.1881   0.9214 H              1 S1                 0.0000
     32 ****        -3.6348  -4.6617   0.7673 H              1 S1                 0.0000
     33 ****        -1.4076  -5.7671   0.7559 H              1 S1                 0.0000
     34 ****         0.6674  -4.3933   0.8965 H              1 S1                 0.0000
     35 ****         2.4378  -0.8049   1.6046 H              1 S1                 0.0000
     36 ****         2.1915  -2.5182   1.7456 H              1 S1                 0.0000
     37 ****         2.1055  -2.7633  -0.7370 H              1 S1                 0.0000
     38 ****         2.6551  -0.9335  -1.9698 H              1 S1                 0.0000
     39 ****         4.6176  -1.1565  -0.0045 H              1 S1                 0.0000
     40 ****         4.3535  -2.8000   0.5521 H              1 S1                 0.0000
     41 ****         5.4992  -2.7555  -1.3869 H              1 S1                 0.0000
     42 ****        -1.2815   2.8302   2.3586 H              1 S1                 0.0000
     43 ****        -2.5608   4.6219   1.2299 H              1 S1                 0.0000
     44 ****        -3.5190   5.0003  -1.0920 LP             1 S1                 0.0000
     45 ****        -2.2878   6.0426  -0.8380 LP             1 S1                 0.0000
     46 ****        -2.2348   0.2070   1.1227 LP             1 S1                 0.0000
     47 ****         2.7271   0.0515  -0.7215 LP             1 S1                 0.0000
     48 ****         1.3118  -0.6264  -1.1732 LP             1 S1                 0.0000
     49 ****         4.3735  -1.9776  -2.1982 LP             1 S1                 0.0000
     50 ****         4.1114  -3.4902  -1.6413 LP             1 S1                 0.0000
@<TRIPOS>BOND
    1    1    2 1     
    2    1   24 1     
    3    1   25 1     
    4    1   26 1     
    5    2    3 1     
    6    3   23 ar    
    7    3    4 ar    
    8    4    5 ar    
    9    4   27 1     
   10    5    6 ar    
   11    5   28 1     
   12    6    7 1     
   13    6   22 ar    
   14    7    8 1     
   15    7   29 1     
   16    7   30 1     
   17    8   16 1     
   18    8    9 2     
   19    9   10 1     
   20   10   15 ar    
   21   10   11 ar    
   22   11   12 ar    
   23   11   31 1     
   24   12   13 ar    
   25   12   32 1     
   26   13   14 ar    
   27   13   33 1     
   28   14   15 ar    
   29   14   34 1     
   30   15   16 1     
   31   16   17 1     
   32   17   18 1     
   33   17   35 1     
   34   17   36 1     
   35   18   19 1     
   36   18   20 1     
   37   18   37 1     
   38   19   38 1     
   39   20   21 1     
   40   20   39 1     
   41   20   40 1     
   42   21   41 1     
   43   22   23 ar    
   44   22   42 1     
   45   23   43 1     
   46    2   44 1     
   47    2   45 1     
   48    9   46 1     
   49   19   47 1     
   50   19   48 1     
   51   21   49 1     
   52   21   50 1     
@<TRIPOS>SUBSTRUCTURE
      1 S1             1
@<TRIPOS>SET
LONE_PAIRS      STATIC     ATOMS    <user>   **** ""
7 44 45 46 47 48 49 50
DONOR_HYDROGENS      STATIC     ATOMS    <user>   **** ""
2 38 41
ATOM$BLUE        STATIC     ATOMS    COLORGROUP SYSTEM
7 44 45 46 47 48 49 50
ATOM$RED        STATIC     ATOMS    COLORGROUP SYSTEM
2 38 41
