#       Name:                AV-unprocessed.smi:2804
#       Creating user name   scv26
#       Creation time:       Fri Mar 27 15:24:58 2020


#       File generated by GOLD software.
#

@<TRIPOS>MOLECULE
AV-unprocessed.smi:2804
    36    37     1
SMALL
NO_CHARGES


@<TRIPOS>ATOM
      1 ****        -4.7894   1.2089   0.4156 C.3            1 S1                 0.0000
      2 ****        -3.2576   1.1975   0.4415 C.3            1 S1                 0.0000
      3 ****        -2.6700  -0.0930  -0.1498 C.3            1 S1                 0.0000
      4 ****        -1.2100  -0.0815  -0.1019 N.am           1 S1                 0.0000
      5 ****        -0.3761   0.3848  -1.0612 C.2            1 S1                 0.0000
      6 ****        -0.7232   0.8941  -2.1272 O.2            1 S1                 0.0000
      7 ****         0.9010   0.2211  -0.6294 N.am           1 S1                 0.0000
      8 ****         2.1278   0.6200  -1.3386 C.3            1 S1                 0.0000
      9 ****         2.8435  -0.5433  -2.0855 C.3            1 S1                 0.0000
     10 ****         2.0955  -0.8610  -3.1152 O.co2          1 S1                -1.0000
     11 ****         4.2239  -0.1003  -2.6297 C.3            1 S1                 0.0000
     12 ****         4.8286  -1.1177  -3.2462 F              1 S1                 0.0000
     13 ****         4.1145   0.9236  -3.4795 F              1 S1                 0.0000
     14 ****         5.0029   0.2795  -1.6156 F              1 S1                 0.0000
     15 ****         0.8719  -0.3191   0.6696 C.ar           1 S1                 0.0000
     16 ****         1.9101  -0.6409   1.5622 C.ar           1 S1                 0.0000
     17 ****         1.5433  -1.1781   2.8180 C.ar           1 S1                 0.0000
     18 ****         0.1789  -1.3764   3.1527 C.ar           1 S1                 0.0000
     19 ****        -0.8467  -1.0416   2.2380 C.ar           1 S1                 0.0000
     20 ****        -0.4538  -0.5127   0.9960 C.ar           1 S1                 0.0000
     21 ****        -5.1784   2.1330   0.8431 H              1 S1                 0.0000
     22 ****        -5.1986   0.3779   0.9907 H              1 S1                 0.0000
     23 ****        -5.1659   1.1296  -0.6044 H              1 S1                 0.0000
     24 ****        -2.8831   2.0592  -0.1125 H              1 S1                 0.0000
     25 ****        -2.9157   1.3195   1.4699 H              1 S1                 0.0000
     26 ****        -3.0434  -0.9622   0.3924 H              1 S1                 0.0000
     27 ****        -3.0022  -0.2167  -1.1818 H              1 S1                 0.0000
     28 ****         1.9071   1.4376  -2.0280 H              1 S1                 0.0000
     29 ****         2.8062   1.0493  -0.6010 H              1 S1                 0.0000
     30 ****         3.0657  -1.2900  -1.3215 H              1 S1                 0.0000
     31 ****         2.9470  -0.4882   1.3017 H              1 S1                 0.0000
     32 ****         2.3116  -1.4401   3.5303 H              1 S1                 0.0000
     33 ****        -0.0800  -1.7868   4.1175 H              1 S1                 0.0000
     34 ****        -1.8870  -1.1860   2.4887 H              1 S1                 0.0000
     35 ****        -1.6950   0.9906  -2.3422 LP             1 S1                 0.0000
     36 ****        -0.0332   1.2113  -2.7779 LP             1 S1                 0.0000
@<TRIPOS>BOND
    1    1    2 1     
    2    1   21 1     
    3    1   22 1     
    4    1   23 1     
    5    2    3 1     
    6    2   24 1     
    7    2   25 1     
    8    3    4 1     
    9    3   26 1     
   10    3   27 1     
   11    4   20 1     
   12    4    5 am    
   13    5    6 2     
   14    5    7 am    
   15    7    8 1     
   16    7   15 1     
   17    8    9 1     
   18    8   28 1     
   19    8   29 1     
   20    9   10 1     
   21    9   11 1     
   22    9   30 1     
   23   11   12 1     
   24   11   13 1     
   25   11   14 1     
   26   15   20 ar    
   27   15   16 ar    
   28   16   17 ar    
   29   16   31 1     
   30   17   18 ar    
   31   17   32 1     
   32   18   19 ar    
   33   18   33 1     
   34   19   20 ar    
   35   19   34 1     
   36    6   35 1     
   37    6   36 1     
@<TRIPOS>SUBSTRUCTURE
      1 S1             1
@<TRIPOS>SET
LONE_PAIRS      STATIC     ATOMS    <user>   **** ""
3 35 36 10
ATOM$BLUE        STATIC     ATOMS    COLORGROUP SYSTEM
3 35 36 10
