AV-unprocessed.smi:1989|AV-procd|sdf|8060|dock2
  -GOLD-   2272010263D 1   1.00000     0.00000
 Structure written by MMmdl.
 30 31  0  0  0  0  0  0  0  0  1 V2000
  152.4753  143.8005  162.0070 C   0  0  0  0  0  0  0  0  0  0  0  0
  152.5167  142.7368  160.9649 C   0  0  0  0  0  0  0  0  0  0  0  0
  151.6617  142.6760  159.9418 N   0  0  0  0  0  0  0  0  0  0  0  0
  151.8872  141.5699  159.1149 C   0  0  0  0  0  0  0  0  0  0  0  0
  150.9853  141.3115  157.9421 C   0  0  0  0  0  0  0  0  0  0  0  0
  151.0202  142.4228  156.8736 C   0  0  0  0  0  0  0  0  0  0  0  0
  149.9559  142.2760  155.8834 N   0  0  0  0  0  0  0  0  0  0  0  0
  149.7889  141.2218  155.0680 C   0  0  0  0  0  0  0  0  0  0  0  0
  150.5869  140.2889  154.9787 O   0  0  0  0  0  0  0  0  0  0  0  0
  148.6886  141.3230  154.3054 N   0  0  0  0  0  0  0  0  0  0  0  0
  147.4578  142.0611  154.5809 C   0  0  0  0  0  0  0  0  0  0  0  0
  146.8114  141.2132  153.4901 C   0  0  0  0  0  0  0  0  0  0  0  0
  147.9872  140.2487  153.6092 C   0  0  0  0  0  0  0  0  0  0  0  0
  152.9462  140.7978  159.5227 C   0  0  0  0  0  0  0  0  0  0  0  0
  153.6884  141.4246  160.9690 S   0  0  0  0  0  0  0  0  0  0  0  0
  152.0272  144.7101  161.6060 H   0  0  0  0  0  0  0  0  0  0  0  0
  153.4842  144.0304  162.3497 H   0  0  0  0  0  0  0  0  0  0  0  0
  151.8827  143.4629  162.8576 H   0  0  0  0  0  0  0  0  0  0  0  0
  151.2538  140.3633  157.4746 H   0  0  0  0  0  0  0  0  0  0  0  0
  149.9586  141.1854  158.2870 H   0  0  0  0  0  0  0  0  0  0  0  0
  150.9070  143.3947  157.3540 H   0  0  0  0  0  0  0  0  0  0  0  0
  151.9981  142.4377  156.3895 H   0  0  0  0  0  0  0  0  0  0  0  0
  149.2605  143.0073  155.8526 H   0  0  0  0  0  0  0  0  0  0  0  0
  147.0486  141.8804  155.5765 H   0  0  0  0  0  0  0  0  0  0  0  0
  147.4984  143.1246  154.3434 H   0  0  0  0  0  0  0  0  0  0  0  0
  145.8457  140.7854  153.7616 H   0  0  0  0  0  0  0  0  0  0  0  0
  146.7744  141.7200  152.5243 H   0  0  0  0  0  0  0  0  0  0  0  0
  148.4232  139.9650  152.6508 H   0  0  0  0  0  0  0  0  0  0  0  0
  147.7776  139.3793  154.2349 H   0  0  0  0  0  0  0  0  0  0  0  0
  153.3237  139.8928  159.0706 H   0  0  0  0  0  0  0  0  0  0  0  0
  1  2  1  0  0  0  0
  1 16  1  0  0  0  0
  1 17  1  0  0  0  0
  1 18  1  0  0  0  0
  2 15  1  0  0  0  0
  2  3  2  0  0  0  0
  3  4  1  0  0  0  0
  4  5  1  0  0  0  0
  4 14  2  0  0  0  0
  5  6  1  0  0  0  0
  5 19  1  0  0  0  0
  5 20  1  0  0  0  0
  6  7  1  0  0  0  0
  6 21  1  0  0  0  0
  6 22  1  0  0  0  0
  7  8  1  0  0  0  0
  7 23  1  0  0  0  0
  8  9  2  0  0  0  0
  8 10  1  0  0  0  0
 10 13  1  0  0  0  0
 10 11  1  0  0  0  0
 11 12  1  0  0  0  0
 11 24  1  0  0  0  0
 11 25  1  0  0  0  0
 12 13  1  0  0  0  0
 12 26  1  0  0  0  0
 12 27  1  0  0  0  0
 13 28  1  0  0  0  0
 13 29  1  0  0  0  0
 14 15  1  0  0  0  0
 14 30  1  0  0  0  0
M  END
> <s_m_source_file>
AV-unprocessed.smi

> <i_m_source_file_index>
1989

> <i_lp_mmshare_version>
43012

> <i_f3d_flags>
0

> <s_epik_input>
W0NIM11jMW5jKFtjSF1zMSlbQ0gyXVtDSDJdW05IXUMoPU8pTjJbQ0gyXVtDSDJdW0NIMl0y

> <s_epik_cmdline>
J2VwaWtfcHl0aG9uJywgJy1waCcsICc3LjAnLCAnLXRuJywgJzgnLCAnLW1hJywgJzIwMCcsICctbWV0YWxfYmluZGluZycsICctaW1hZScsICc8aW5maWxlLm1hZT4nLCAnLW9tYWUnLCAnPG91dGZpbGUubWFlPic=

> <r_epik_Ionization_Penalty>
0.00206279

> <r_epik_Ionization_Penalty_Charging>
0

> <r_epik_Ionization_Penalty_Neutral>
0.00206279

> <r_epik_State_Penalty>
0.00136479

> <r_epik_Charging_Adjusted_Penalty>
0.00136479

> <i_epik_Tot_Q>
0

> <i_epik_Tot_abs_Q>
0

> <r_epik_Metal_State_Penalty>
-0

> <b_epik_Metal_Only>
0

> <s_lp_Force_Field>
OPLS_2005

> <r_lp_Energy>
16.4477

> <b_lp_Chiralities_Consistent>
1

> <s_lp_Variant>
AV-unprocessed.smi:1989-1

> <Gold.Version>
5.8.1

> <Gold.Id.Protein>
6NUR|6NUR_protein|mol2

> <Gold.PLP.Fitness>
42.9049

> <Gold.PLP.PLP>
-37.0486

> <Gold.PLP.part.hbond>
-2.0961

> <Gold.PLP.part.metal>
0.0000

> <Gold.PLP.part.buried>
-2.5422

> <Gold.PLP.part.nonpolar>
-31.5089

> <Gold.PLP.part.repulsive>
0.2125

> <Gold.PLP.ligand.clash>
0.0000

> <Gold.PLP.ligand.torsion>
0.2637

> <Gold.PLP.Chemscore.Hbond>
1.9760

> <Gold.PLP.Chemscore.CHOScore>
0.0000

> <Gold.PLP.Chemscore.Metal>
0.0000

> <Gold.Chemscore.Hbonds>
donor molecule, donor type, donor heavy atom, donor atom, acceptor molecule, acceptor atom, score
      L1  H     7    23       P1  8028  0.98
      P1  H  7989  7998       L1     9  1.00

> <Gold.PLP.Chemscore.Internal.Correction>
0.4557

> <Gold.Rescore>
     Score         DG    S(hbond)    S(metal)    S(lipo)     H(rot)  DE(clash)    DE(int)     intcor
     16.81     -17.20       1.63        0.00      83.91       1.38       0.11       0.29       ----

> <Gold.Chemscore.Fitness>
16.8087

> <Gold.Chemscore.DG>
-17.2013

> <Gold.Chemscore.ZeroCoef>
-5.4800

> <Gold.Chemscore.Hbond>
1.6281

> <Gold.Chemscore.Metal>
0.0000

> <Gold.Chemscore.Lipo>
83.9058

> <Gold.Chemscore.Internal_Hbond>
0.0000

> <Gold.Chemscore.DEClash>
0.1071

> <Gold.Chemscore.DEInternal>
0.2854

> <Gold.Chemscore.Rot>
1.3802

> <Gold.Chemscore.Internal.Correction>
   9.000000E+99

> <Gold.Chemscore.Hbonds>
donor molecule, donor type, donor heavy atom, donor atom, acceptor molecule, acceptor atom, score
      L1  H     7    23       P1  8028  0.93
      P1  H  7989  7998       L1     9  0.25

> <Gold.Chemscore.Hbond.Weighted>
-5.4377

> <Gold.Chemscore.Metal.Weighted>
-0.0000

> <Gold.Chemscore.Lipo.Weighted>
-9.8170

> <Gold.Chemscore.Internal_Hbond.Weighted>
0.0000

> <Gold.Chemscore.DEClash.Weighted>
0.1071

> <Gold.Chemscore.DEInternal.Weighted>
0.2854

> <Gold.Chemscore.Rot.Weighted>
3.5334

> <Gold.Chemscore.Internal.Correction.Weighted>
   9.000000E+99

> <Gold.Protein.RotatedTorsions>
[ 6907 6896 6895 6894 ] final  148.09 input  -60.11 | X-H torsion
[ 7974 7965 7964 7962 ] final   22.28 input  175.53 | X-H torsion
[ 8008 7997 7996 7995 ] final  167.91 input   59.86 | X-H torsion
[ 10167 10162 10161 10158 ] final  -57.77 input  -65.29 | X-H torsion
[ 10718 10713 10712 10709 ] final -147.73 input   66.30 | X-H torsion
[ 10763 10752 10751 10750 ] final  179.12 input  -60.55 | X-H torsion
[ 11005 11000 10999 10996 ] final    9.96 input  -57.11 | X-H torsion

> <Gold.Protein.ActiveResidues>
 VAL166  LYS551  ARG553  GLY616  TRP617  ASP618  TYR619  PRO620  LYS621  CYS622 
 ASP623  PHE694  ASN695  SER759  ASP760  ASP761  ALA762  ILE779  LEU786  VAL792 
 PHE793  MET794  SER795  GLU796  ALA797  LYS798  CYS799  TRP800  GLU811  SER814 

> <Gold.Protein.RotatedAtoms>
  152.1461  133.4493  159.4790 H   0  0  0  0  0  0  0  0  0  0  0  0  # atno 6907 bound_to 6896
  150.6891  134.2246  159.4419 H   0  0  0  0  0  0  0  0  0  0  0  0  # atno 6908 bound_to 6896
  152.0139  134.9860  160.0619 H   0  0  0  0  0  0  0  0  0  0  0  0  # atno 6909 bound_to 6896
  146.2035  139.7907  142.8743 H   0  0  0  0  0  0  0  0  0  0  0  0  # atno 7974 bound_to 7965
  156.1593  140.1604  156.8639 H   0  0  0  0  0  0  0  0  0  0  0  0  # atno 8008 bound_to 7997
  154.5145  140.0793  156.8091 H   0  0  0  0  0  0  0  0  0  0  0  0  # atno 8009 bound_to 7997
  155.3739  140.3401  155.4246 H   0  0  0  0  0  0  0  0  0  0  0  0  # atno 8010 bound_to 7997
  140.6238  143.2430  151.5415 H   0  0  0  0  0  0  0  0  0  0  0  0  # atno 10167 bound_to 10162
  156.4112  130.7982  151.2200 H   0  0  0  0  0  0  0  0  0  0  0  0  # atno 10718 bound_to 10713
  154.5165  135.2791  155.1298 H   0  0  0  0  0  0  0  0  0  0  0  0  # atno 10763 bound_to 10752
  154.2873  135.6274  153.5374 H   0  0  0  0  0  0  0  0  0  0  0  0  # atno 10764 bound_to 10752
  152.9928  135.5665  154.5644 H   0  0  0  0  0  0  0  0  0  0  0  0  # atno 10765 bound_to 10752
  140.5199  134.0569  155.7841 H   0  0  0  0  0  0  0  0  0  0  0  0  # atno 11005 bound_to 11000
  145.3400  141.0285  143.3397 LP  0  0  0  0  0  0  0  0  0  0  0  0  # atno 17320 bound_to 7965
  144.8738  139.5000  143.6755 LP  0  0  0  0  0  0  0  0  0  0  0  0  # atno 17321 bound_to 7965
  139.5462  144.2516  152.1445 LP  0  0  0  0  0  0  0  0  0  0  0  0  # atno 17342 bound_to 10162
  140.1742  144.4906  150.6563 LP  0  0  0  0  0  0  0  0  0  0  0  0  # atno 17343 bound_to 10162
  157.7507  131.0257  150.3930 LP  0  0  0  0  0  0  0  0  0  0  0  0  # atno 17370 bound_to 10713
  156.4228  130.3956  149.6813 LP  0  0  0  0  0  0  0  0  0  0  0  0  # atno 17371 bound_to 10713
  141.1340  133.9253  157.2474 LP  0  0  0  0  0  0  0  0  0  0  0  0  # atno 17394 bound_to 11000
  139.9612  135.0154  156.9265 LP  0  0  0  0  0  0  0  0  0  0  0  0  # atno 17395 bound_to 11000

$$$$
